MODEL 1
REMARK VINA RESULT:      -7.9      0.000      0.000
REMARK  23 active torsions:
REMARK  status: ('A' for Active; 'I' for Inactive)
REMARK    1  A    between atoms: C_2  and  C_3 
REMARK    2  A    between atoms: C_3  and  C_4 
REMARK    3  A    between atoms: C_4  and  C_5 
REMARK    4  A    between atoms: C_5  and  C_6 
REMARK    5  A    between atoms: C_5  and  C_8 
REMARK    6  A    between atoms: C_8  and  O_10 
REMARK    7  A    between atoms: O_10  and  C_11 
REMARK    8  A    between atoms: C_11  and  C_12 
REMARK    9  A    between atoms: C_12  and  C_13 
REMARK   10  A    between atoms: C_12  and  O_24 
REMARK   11  A    between atoms: C_13  and  O_14 
REMARK   12  A    between atoms: O_14  and  C_15 
REMARK   13  A    between atoms: C_15  and  C_17 
REMARK   14  A    between atoms: C_17  and  C_18 
REMARK   15  A    between atoms: C_17  and  C_20 
REMARK   16  A    between atoms: C_20  and  C_21 
REMARK   17  A    between atoms: C_21  and  C_22 
REMARK   18  A    between atoms: O_24  and  C_25 
REMARK   19  A    between atoms: C_25  and  C_27 
REMARK   20  A    between atoms: C_27  and  C_28 
REMARK   21  A    between atoms: C_27  and  C_30 
REMARK   22  A    between atoms: C_30  and  C_31 
REMARK   23  A    between atoms: C_31  and  C_32 
ROOT
HETATM    1  C   UNL     1     -25.373  -6.588 -15.495  1.00  0.00     0.180 C 
ENDROOT
BRANCH   1   2
HETATM    2  C   UNL     1     -24.354  -7.142 -16.510  1.00  0.00     0.213 C 
BRANCH   2   3
HETATM    3  O   UNL     1     -24.773  -6.952 -17.886  1.00  0.00    -0.319 OA
BRANCH   3   4
HETATM    4  C   UNL     1     -23.797  -7.071 -18.829  1.00  0.00     0.263 C 
HETATM    5  O   UNL     1     -22.617  -6.831 -18.610  1.00  0.00    -0.265 OA
BRANCH   4   6
HETATM    6  C   UNL     1     -24.334  -7.602 -20.168  1.00  0.00     0.085 C 
BRANCH   6   7
HETATM    7  C   UNL     1     -25.277  -6.627 -20.923  1.00  0.00     0.014 C 
BRANCH   7   8
HETATM    8  C   UNL     1     -26.755  -7.028 -20.781  1.00  0.00     0.000 C 
BRANCH   8   9
HETATM    9  C   UNL     1     -27.065  -8.463 -21.203  1.00  0.00    -0.005 C 
HETATM   10  C   UNL     1     -28.454  -8.860 -20.708  1.00  0.00     0.005 C 
ENDBRANCH   8   9
ENDBRANCH   7   8
ENDBRANCH   6   7
BRANCH   6  11
HETATM   11  C   UNL     1     -23.161  -8.101 -21.048  1.00  0.00     0.010 C 
HETATM   12  C   UNL     1     -23.454  -8.160 -22.548  1.00  0.00     0.006 C 
ENDBRANCH   6  11
ENDBRANCH   4   6
ENDBRANCH   3   4
ENDBRANCH   2   3
ENDBRANCH   1   2
BRANCH   1  13
HETATM   13  C   UNL     1     -24.781  -5.393 -14.725  1.00  0.00     0.213 C 
BRANCH  13  14
HETATM   14  O   UNL     1     -23.801  -5.814 -13.746  1.00  0.00    -0.319 OA
BRANCH  14  15
HETATM   15  C   UNL     1     -22.796  -4.926 -13.495  1.00  0.00     0.263 C 
HETATM   16  O   UNL     1     -22.183  -4.334 -14.379  1.00  0.00    -0.265 OA
BRANCH  15  17
HETATM   17  C   UNL     1     -22.528  -4.795 -11.999  1.00  0.00     0.085 C 
BRANCH  17  18
HETATM   18  C   UNL     1     -21.521  -3.654 -11.760  1.00  0.00     0.010 C 
HETATM   19  C   UNL     1     -20.304  -4.084 -10.944  1.00  0.00     0.006 C 
ENDBRANCH  17  18
BRANCH  17  20
HETATM   20  C   UNL     1     -23.813  -4.557 -11.172  1.00  0.00     0.014 C 
BRANCH  20  21
HETATM   21  C   UNL     1     -23.738  -5.056  -9.724  1.00  0.00     0.000 C 
BRANCH  21  22
HETATM   22  C   UNL     1     -23.591  -3.886  -8.745  1.00  0.00    -0.005 C 
HETATM   23  C   UNL     1     -22.416  -4.108  -7.807  1.00  0.00     0.005 C 
ENDBRANCH  21  22
ENDBRANCH  20  21
ENDBRANCH  17  20
ENDBRANCH  15  17
ENDBRANCH  14  15
ENDBRANCH  13  14
ENDBRANCH   1  13
BRANCH   1  24
HETATM   24  O   UNL     1     -26.501  -6.099 -16.267  1.00  0.00    -0.311 OA
BRANCH  24  25
HETATM   25  C   UNL     1     -27.667  -6.780 -16.105  1.00  0.00     0.263 C 
HETATM   26  O   UNL     1     -27.965  -7.449 -15.121  1.00  0.00    -0.265 OA
BRANCH  25  27
HETATM   27  C   UNL     1     -28.524  -6.658 -17.360  1.00  0.00     0.085 C 
BRANCH  27  28
HETATM   28  C   UNL     1     -29.962  -7.065 -16.979  1.00  0.00     0.010 C 
HETATM   29  C   UNL     1     -30.840  -7.457 -18.158  1.00  0.00     0.006 C 
ENDBRANCH  27  28
BRANCH  27  30
HETATM   30  C   UNL     1     -28.447  -5.246 -17.954  1.00  0.00     0.014 C 
BRANCH  30  31
HETATM   31  C   UNL     1     -29.337  -4.191 -17.286  1.00  0.00     0.000 C 
BRANCH  31  32
HETATM   32  C   UNL     1     -28.662  -2.826 -17.138  1.00  0.00    -0.005 C 
HETATM   33  C   UNL     1     -27.485  -2.895 -16.178  1.00  0.00     0.005 C 
ENDBRANCH  31  32
ENDBRANCH  30  31
ENDBRANCH  27  30
ENDBRANCH  25  27
ENDBRANCH  24  25
ENDBRANCH   1  24
TORSDOF 23
BEGIN_RES ARG D 557
REMARK  4 active torsions:
REMARK  status: ('A' for Active; 'I' for Inactive)
REMARK    1  A    between atoms: CA   and  CB  
REMARK    2  A    between atoms: CB   and  CG  
REMARK    3  A    between atoms: CG   and  CD  
REMARK    4  A    between atoms: CD   and  NE  
REMARK       I    between atoms: NE   and  CZ  
REMARK       I    between atoms: CZ   and  NH1 
REMARK       I    between atoms: CZ   and  NH2 
ROOT
ATOM      1  CA  ARG D 557     -26.217   2.705 -17.014  1.00 35.49     0.159 C 
ENDROOT
BRANCH   1   2
ATOM      2  CB  ARG D 557     -26.789   1.319 -17.183  1.00 35.49     0.034 C 
BRANCH   2   3
ATOM      3  CG  ARG D 557     -25.831   0.207 -17.206  1.00 35.49     0.027 C 
BRANCH   3   4
ATOM      4  CD  ARG D 557     -24.703   0.415 -16.270  1.00 35.49     0.116 C 
BRANCH   4   5
ATOM      5  NE  ARG D 557     -24.835  -0.381 -15.078  1.00 35.49    -0.212 N 
ATOM      6  CZ  ARG D 557     -24.022  -1.343 -14.703  1.00 35.49     0.666 C 
ATOM      7  NH1 ARG D 557     -22.970  -1.701 -15.415  1.00 35.49    -0.235 N 
ATOM      8  NH2 ARG D 557     -24.283  -1.945 -13.579  1.00 35.49    -0.235 N 
ATOM      9  HH  ARG D 557     -22.778  -1.317 -16.157  1.00 35.49     0.174 HD
ATOM     10  HH  ARG D 557     -22.474  -2.334 -15.119  1.00 35.49     0.174 HD
ATOM     11  HH  ARG D 557     -24.965  -1.688 -13.136  1.00 35.49     0.174 HD
ATOM     12  HH  ARG D 557     -23.779  -2.569 -13.302  1.00 35.49     0.174 HD
ATOM     13  HE  ARG D 557     -25.526  -0.266 -14.596  1.00 35.49     0.178 HD
ENDBRANCH   4   5
ENDBRANCH   3   4
ENDBRANCH   2   3
ENDBRANCH   1   2
END_RES ARG D 557
BEGIN_RES GLU D 570
REMARK  3 active torsions:
REMARK  status: ('A' for Active; 'I' for Inactive)
REMARK    5  A    between atoms: CA   and  CB  
REMARK    6  A    between atoms: CB   and  CG  
REMARK    7  A    between atoms: CG   and  CD  
ROOT
ATOM     14  CA  GLU D 570     -18.033  -6.348 -13.375  1.00 32.92     0.160 C 
ENDROOT
BRANCH  14  15
ATOM     15  CB  GLU D 570     -19.500  -6.345 -13.794  1.00 32.92     0.043 C 
BRANCH  15  16
ATOM     16  CG  GLU D 570     -20.093  -7.639 -14.220  1.00 32.92     0.100 C 
BRANCH  16  17
ATOM     17  CD  GLU D 570     -20.660  -7.595 -15.620  1.00 32.92     0.185 C 
ATOM     18  OE1 GLU D 570     -21.151  -8.631 -16.107  1.00 32.92    -0.647 OA
ATOM     19  OE2 GLU D 570     -20.598  -6.516 -16.242  1.00 32.92    -0.647 OA
ENDBRANCH  16  17
ENDBRANCH  15  16
ENDBRANCH  14  15
END_RES GLU D 570
ENDMDL
MODEL 2
REMARK VINA RESULT:      -7.6      0.948      7.551
REMARK  23 active torsions:
REMARK  status: ('A' for Active; 'I' for Inactive)
REMARK    1  A    between atoms: C_2  and  C_3 
REMARK    2  A    between atoms: C_3  and  C_4 
REMARK    3  A    between atoms: C_4  and  C_5 
REMARK    4  A    between atoms: C_5  and  C_6 
REMARK    5  A    between atoms: C_5  and  C_8 
REMARK    6  A    between atoms: C_8  and  O_10 
REMARK    7  A    between atoms: O_10  and  C_11 
REMARK    8  A    between atoms: C_11  and  C_12 
REMARK    9  A    between atoms: C_12  and  C_13 
REMARK   10  A    between atoms: C_12  and  O_24 
REMARK   11  A    between atoms: C_13  and  O_14 
REMARK   12  A    between atoms: O_14  and  C_15 
REMARK   13  A    between atoms: C_15  and  C_17 
REMARK   14  A    between atoms: C_17  and  C_18 
REMARK   15  A    between atoms: C_17  and  C_20 
REMARK   16  A    between atoms: C_20  and  C_21 
REMARK   17  A    between atoms: C_21  and  C_22 
REMARK   18  A    between atoms: O_24  and  C_25 
REMARK   19  A    between atoms: C_25  and  C_27 
REMARK   20  A    between atoms: C_27  and  C_28 
REMARK   21  A    between atoms: C_27  and  C_30 
REMARK   22  A    between atoms: C_30  and  C_31 
REMARK   23  A    between atoms: C_31  and  C_32 
ROOT
HETATM    1  C   UNL     1     -24.649  -6.064 -15.748  1.00  0.00     0.180 C 
ENDROOT
BRANCH   1   2
HETATM    2  C   UNL     1     -23.920  -6.430 -14.440  1.00  0.00     0.213 C 
BRANCH   2   3
HETATM    3  O   UNL     1     -23.982  -5.373 -13.449  1.00  0.00    -0.319 OA
BRANCH   3   4
HETATM    4  C   UNL     1     -22.831  -4.670 -13.253  1.00  0.00     0.263 C 
HETATM    5  O   UNL     1     -22.108  -4.296 -14.167  1.00  0.00    -0.265 OA
BRANCH   4   6
HETATM    6  C   UNL     1     -22.586  -4.343 -11.772  1.00  0.00     0.085 C 
BRANCH   6   7
HETATM    7  C   UNL     1     -21.753  -3.056 -11.520  1.00  0.00     0.014 C 
BRANCH   7   8
HETATM    8  C   UNL     1     -20.315  -3.378 -11.078  1.00  0.00     0.000 C 
BRANCH   8   9
HETATM    9  C   UNL     1     -20.143  -4.752 -10.433  1.00  0.00    -0.005 C 
HETATM   10  C   UNL     1     -20.083  -4.609  -8.915  1.00  0.00     0.005 C 
ENDBRANCH   8   9
ENDBRANCH   7   8
ENDBRANCH   6   7
BRANCH   6  11
HETATM   11  C   UNL     1     -23.928  -4.346 -10.998  1.00  0.00     0.010 C 
HETATM   12  C   UNL     1     -23.826  -4.729  -9.522  1.00  0.00     0.006 C 
ENDBRANCH   6  11
ENDBRANCH   4   6
ENDBRANCH   3   4
ENDBRANCH   2   3
ENDBRANCH   1   2
BRANCH   1  13
HETATM   13  C   UNL     1     -24.534  -7.206 -16.775  1.00  0.00     0.213 C 
BRANCH  13  14
HETATM   14  O   UNL     1     -24.886  -6.769 -18.109  1.00  0.00    -0.319 OA
BRANCH  14  15
HETATM   15  C   UNL     1     -24.014  -7.122 -19.097  1.00  0.00     0.263 C 
HETATM   16  O   UNL     1     -22.794  -7.045 -18.978  1.00  0.00    -0.265 OA
BRANCH  15  17
HETATM   17  C   UNL     1     -24.748  -7.590 -20.350  1.00  0.00     0.085 C 
BRANCH  17  18
HETATM   18  C   UNL     1     -26.198  -7.070 -20.312  1.00  0.00     0.010 C 
HETATM   19  C   UNL     1     -27.213  -8.077 -20.849  1.00  0.00     0.006 C 
ENDBRANCH  17  18
BRANCH  17  20
HETATM   20  C   UNL     1     -24.055  -7.148 -21.660  1.00  0.00     0.014 C 
BRANCH  20  21
HETATM   21  C   UNL     1     -23.839  -8.276 -22.676  1.00  0.00     0.000 C 
BRANCH  21  22
HETATM   22  C   UNL     1     -22.346  -8.537 -22.898  1.00  0.00    -0.005 C 
HETATM   23  C   UNL     1     -21.702  -9.109 -21.645  1.00  0.00     0.005 C 
ENDBRANCH  21  22
ENDBRANCH  20  21
ENDBRANCH  17  20
ENDBRANCH  15  17
ENDBRANCH  14  15
ENDBRANCH  13  14
ENDBRANCH   1  13
BRANCH   1  24
HETATM   24  O   UNL     1     -26.053  -5.913 -15.411  1.00  0.00    -0.311 OA
BRANCH  24  25
HETATM   25  C   UNL     1     -26.601  -4.701 -15.696  1.00  0.00     0.263 C 
HETATM   26  O   UNL     1     -26.075  -3.616 -15.471  1.00  0.00    -0.265 OA
BRANCH  25  27
HETATM   27  C   UNL     1     -28.003  -4.882 -16.268  1.00  0.00     0.085 C 
BRANCH  27  28
HETATM   28  C   UNL     1     -28.421  -3.539 -16.900  1.00  0.00     0.010 C 
HETATM   29  C   UNL     1     -29.821  -3.531 -17.495  1.00  0.00     0.006 C 
ENDBRANCH  27  28
BRANCH  27  30
HETATM   30  C   UNL     1     -28.053  -6.046 -17.266  1.00  0.00     0.014 C 
BRANCH  30  31
HETATM   31  C   UNL     1     -29.065  -7.154 -16.952  1.00  0.00     0.000 C 
BRANCH  31  32
HETATM   32  C   UNL     1     -30.143  -7.319 -18.023  1.00  0.00    -0.005 C 
HETATM   33  C   UNL     1     -31.500  -6.861 -17.514  1.00  0.00     0.005 C 
ENDBRANCH  31  32
ENDBRANCH  30  31
ENDBRANCH  27  30
ENDBRANCH  25  27
ENDBRANCH  24  25
ENDBRANCH   1  24
TORSDOF 23
BEGIN_RES ARG D 557
REMARK  4 active torsions:
REMARK  status: ('A' for Active; 'I' for Inactive)
REMARK    1  A    between atoms: CA   and  CB  
REMARK    2  A    between atoms: CB   and  CG  
REMARK    3  A    between atoms: CG   and  CD  
REMARK    4  A    between atoms: CD   and  NE  
REMARK       I    between atoms: NE   and  CZ  
REMARK       I    between atoms: CZ   and  NH1 
REMARK       I    between atoms: CZ   and  NH2 
ROOT
ATOM      1  CA  ARG D 557     -26.217   2.705 -17.014  1.00 35.49     0.159 C 
ENDROOT
BRANCH   1   2
ATOM      2  CB  ARG D 557     -26.789   1.319 -17.183  1.00 35.49     0.034 C 
BRANCH   2   3
ATOM      3  CG  ARG D 557     -25.832   0.206 -17.195  1.00 35.49     0.027 C 
BRANCH   3   4
ATOM      4  CD  ARG D 557     -24.746   0.385 -16.205  1.00 35.49     0.116 C 
BRANCH   4   5
ATOM      5  NE  ARG D 557     -24.934  -0.439 -15.039  1.00 35.49    -0.212 N 
ATOM      6  CZ  ARG D 557     -24.158  -1.432 -14.668  1.00 35.49     0.666 C 
ATOM      7  NH1 ARG D 557     -23.095  -1.799 -15.360  1.00 35.49    -0.235 N 
ATOM      8  NH2 ARG D 557     -24.468  -2.058 -13.570  1.00 35.49    -0.235 N 
ATOM      9  HH  ARG D 557     -22.871  -1.400 -16.085  1.00 35.49     0.174 HD
ATOM     10  HH  ARG D 557     -22.624  -2.453 -15.068  1.00 35.49     0.174 HD
ATOM     11  HH  ARG D 557     -25.155  -1.795 -13.140  1.00 35.49     0.174 HD
ATOM     12  HH  ARG D 557     -23.989  -2.702 -13.296  1.00 35.49     0.174 HD
ATOM     13  HE  ARG D 557     -25.636  -0.319 -14.575  1.00 35.49     0.178 HD
ENDBRANCH   4   5
ENDBRANCH   3   4
ENDBRANCH   2   3
ENDBRANCH   1   2
END_RES ARG D 557
BEGIN_RES GLU D 570
REMARK  3 active torsions:
REMARK  status: ('A' for Active; 'I' for Inactive)
REMARK    5  A    between atoms: CA   and  CB  
REMARK    6  A    between atoms: CB   and  CG  
REMARK    7  A    between atoms: CG   and  CD  
ROOT
ATOM     14  CA  GLU D 570     -18.033  -6.348 -13.375  1.00 32.92     0.160 C 
ENDROOT
BRANCH  14  15
ATOM     15  CB  GLU D 570     -19.500  -6.345 -13.794  1.00 32.92     0.043 C 
BRANCH  15  16
ATOM     16  CG  GLU D 570     -20.089  -7.636 -14.234  1.00 32.92     0.100 C 
BRANCH  16  17
ATOM     17  CD  GLU D 570     -20.685  -7.570 -15.620  1.00 32.92     0.185 C 
ATOM     18  OE1 GLU D 570     -21.210  -8.592 -16.102  1.00 32.92    -0.647 OA
ATOM     19  OE2 GLU D 570     -20.612  -6.490 -16.238  1.00 32.92    -0.647 OA
ENDBRANCH  16  17
ENDBRANCH  15  16
ENDBRANCH  14  15
END_RES GLU D 570
ENDMDL
MODEL 3
REMARK VINA RESULT:      -7.2      1.120      6.265
REMARK  23 active torsions:
REMARK  status: ('A' for Active; 'I' for Inactive)
REMARK    1  A    between atoms: C_2  and  C_3 
REMARK    2  A    between atoms: C_3  and  C_4 
REMARK    3  A    between atoms: C_4  and  C_5 
REMARK    4  A    between atoms: C_5  and  C_6 
REMARK    5  A    between atoms: C_5  and  C_8 
REMARK    6  A    between atoms: C_8  and  O_10 
REMARK    7  A    between atoms: O_10  and  C_11 
REMARK    8  A    between atoms: C_11  and  C_12 
REMARK    9  A    between atoms: C_12  and  C_13 
REMARK   10  A    between atoms: C_12  and  O_24 
REMARK   11  A    between atoms: C_13  and  O_14 
REMARK   12  A    between atoms: O_14  and  C_15 
REMARK   13  A    between atoms: C_15  and  C_17 
REMARK   14  A    between atoms: C_17  and  C_18 
REMARK   15  A    between atoms: C_17  and  C_20 
REMARK   16  A    between atoms: C_20  and  C_21 
REMARK   17  A    between atoms: C_21  and  C_22 
REMARK   18  A    between atoms: O_24  and  C_25 
REMARK   19  A    between atoms: C_25  and  C_27 
REMARK   20  A    between atoms: C_27  and  C_28 
REMARK   21  A    between atoms: C_27  and  C_30 
REMARK   22  A    between atoms: C_30  and  C_31 
REMARK   23  A    between atoms: C_31  and  C_32 
ROOT
HETATM    1  C   UNL     1     -24.009  -5.942 -15.513  1.00  0.00     0.180 C 
ENDROOT
BRANCH   1   2
HETATM    2  C   UNL     1     -23.928  -7.347 -16.142  1.00  0.00     0.213 C 
BRANCH   2   3
HETATM    3  O   UNL     1     -24.622  -7.432 -17.413  1.00  0.00    -0.319 OA
BRANCH   3   4
HETATM    4  C   UNL     1     -23.897  -7.087 -18.514  1.00  0.00     0.263 C 
HETATM    5  O   UNL     1     -22.677  -6.991 -18.512  1.00  0.00    -0.265 OA
BRANCH   4   6
HETATM    6  C   UNL     1     -24.774  -6.905 -19.763  1.00  0.00     0.085 C 
BRANCH   6   7
HETATM    7  C   UNL     1     -24.700  -8.071 -20.785  1.00  0.00     0.014 C 
BRANCH   7   8
HETATM    8  C   UNL     1     -24.274  -7.588 -22.182  1.00  0.00     0.000 C 
BRANCH   8   9
HETATM    9  C   UNL     1     -23.030  -8.277 -22.739  1.00  0.00    -0.005 C 
HETATM   10  C   UNL     1     -22.175  -8.810 -21.592  1.00  0.00     0.005 C 
ENDBRANCH   8   9
ENDBRANCH   7   8
ENDBRANCH   6   7
BRANCH   6  11
HETATM   11  C   UNL     1     -26.228  -6.567 -19.346  1.00  0.00     0.010 C 
HETATM   12  C   UNL     1     -27.166  -6.207 -20.498  1.00  0.00     0.006 C 
ENDBRANCH   6  11
ENDBRANCH   4   6
ENDBRANCH   3   4
ENDBRANCH   2   3
ENDBRANCH   1   2
BRANCH   1  13
HETATM   13  C   UNL     1     -25.427  -5.664 -14.980  1.00  0.00     0.213 C 
BRANCH  13  14
HETATM   14  O   UNL     1     -26.337  -5.285 -16.041  1.00  0.00    -0.319 OA
BRANCH  14  15
HETATM   15  C   UNL     1     -27.551  -5.907 -16.030  1.00  0.00     0.263 C 
HETATM   16  O   UNL     1     -27.683  -7.127 -15.981  1.00  0.00    -0.265 OA
BRANCH  15  17
HETATM   17  C   UNL     1     -28.695  -4.901 -16.112  1.00  0.00     0.085 C 
BRANCH  17  18
HETATM   18  C   UNL     1     -28.595  -4.125 -17.439  1.00  0.00     0.010 C 
HETATM   19  C   UNL     1     -29.190  -2.720 -17.362  1.00  0.00     0.006 C 
ENDBRANCH  17  18
BRANCH  17  20
HETATM   20  C   UNL     1     -30.089  -5.556 -15.978  1.00  0.00     0.014 C 
BRANCH  20  21
HETATM   21  C   UNL     1     -30.796  -5.824 -17.312  1.00  0.00     0.000 C 
BRANCH  21  22
HETATM   22  C   UNL     1     -30.937  -7.328 -17.568  1.00  0.00    -0.005 C 
HETATM   23  C   UNL     1     -29.982  -7.785 -18.660  1.00  0.00     0.005 C 
ENDBRANCH  21  22
ENDBRANCH  20  21
ENDBRANCH  17  20
ENDBRANCH  15  17
ENDBRANCH  14  15
ENDBRANCH  13  14
ENDBRANCH   1  13
BRANCH   1  24
HETATM   24  O   UNL     1     -23.105  -5.945 -14.377  1.00  0.00    -0.311 OA
BRANCH  24  25
HETATM   25  C   UNL     1     -22.684  -4.722 -13.955  1.00  0.00     0.263 C 
HETATM   26  O   UNL     1     -22.457  -3.762 -14.684  1.00  0.00    -0.265 OA
BRANCH  25  27
HETATM   27  C   UNL     1     -22.456  -4.738 -12.447  1.00  0.00     0.085 C 
BRANCH  27  28
HETATM   28  C   UNL     1     -21.552  -3.537 -12.105  1.00  0.00     0.010 C 
HETATM   29  C   UNL     1     -20.463  -3.839 -11.085  1.00  0.00     0.006 C 
ENDBRANCH  27  28
BRANCH  27  30
HETATM   30  C   UNL     1     -23.786  -4.713 -11.683  1.00  0.00     0.014 C 
BRANCH  30  31
HETATM   31  C   UNL     1     -24.196  -3.357 -11.098  1.00  0.00     0.000 C 
BRANCH  31  32
HETATM   32  C   UNL     1     -24.573  -3.419  -9.617  1.00  0.00    -0.005 C 
HETATM   33  C   UNL     1     -23.477  -4.080  -8.797  1.00  0.00     0.005 C 
ENDBRANCH  31  32
ENDBRANCH  30  31
ENDBRANCH  27  30
ENDBRANCH  25  27
ENDBRANCH  24  25
ENDBRANCH   1  24
TORSDOF 23
BEGIN_RES ARG D 557
REMARK  4 active torsions:
REMARK  status: ('A' for Active; 'I' for Inactive)
REMARK    1  A    between atoms: CA   and  CB  
REMARK    2  A    between atoms: CB   and  CG  
REMARK    3  A    between atoms: CG   and  CD  
REMARK    4  A    between atoms: CD   and  NE  
REMARK       I    between atoms: NE   and  CZ  
REMARK       I    between atoms: CZ   and  NH1 
REMARK       I    between atoms: CZ   and  NH2 
ROOT
ATOM      1  CA  ARG D 557     -26.217   2.705 -17.014  1.00 35.49     0.159 C 
ENDROOT
BRANCH   1   2
ATOM      2  CB  ARG D 557     -26.789   1.319 -17.183  1.00 35.49     0.034 C 
BRANCH   2   3
ATOM      3  CG  ARG D 557     -26.956   0.520 -15.963  1.00 35.49     0.027 C 
BRANCH   3   4
ATOM      4  CD  ARG D 557     -26.463  -0.867 -16.125  1.00 35.49     0.116 C 
BRANCH   4   5
ATOM      5  NE  ARG D 557     -25.549  -1.243 -15.078  1.00 35.49    -0.212 N 
ATOM      6  CZ  ARG D 557     -24.302  -0.845 -14.967  1.00 35.49     0.666 C 
ATOM      7  NH1 ARG D 557     -23.734  -0.039 -15.845  1.00 35.49    -0.235 N 
ATOM      8  NH2 ARG D 557     -23.625  -1.269 -13.940  1.00 35.49    -0.235 N 
ATOM      9  HH  ARG D 557     -24.161   0.255 -16.527  1.00 35.49     0.174 HD
ATOM     10  HH  ARG D 557     -22.918   0.190 -15.719  1.00 35.49     0.174 HD
ATOM     11  HH  ARG D 557     -24.020  -1.783 -13.385  1.00 35.49     0.174 HD
ATOM     12  HH  ARG D 557     -22.819  -1.031 -13.832  1.00 35.49     0.174 HD
ATOM     13  HE  ARG D 557     -25.810  -1.818 -14.508  1.00 35.49     0.178 HD
ENDBRANCH   4   5
ENDBRANCH   3   4
ENDBRANCH   2   3
ENDBRANCH   1   2
END_RES ARG D 557
BEGIN_RES GLU D 570
REMARK  3 active torsions:
REMARK  status: ('A' for Active; 'I' for Inactive)
REMARK    5  A    between atoms: CA   and  CB  
REMARK    6  A    between atoms: CB   and  CG  
REMARK    7  A    between atoms: CG   and  CD  
ROOT
ATOM     14  CA  GLU D 570     -18.033  -6.348 -13.375  1.00 32.92     0.160 C 
ENDROOT
BRANCH  14  15
ATOM     15  CB  GLU D 570     -19.500  -6.345 -13.794  1.00 32.92     0.043 C 
BRANCH  15  16
ATOM     16  CG  GLU D 570     -20.087  -7.635 -14.241  1.00 32.92     0.100 C 
BRANCH  16  17
ATOM     17  CD  GLU D 570     -20.441  -7.644 -15.709  1.00 32.92     0.185 C 
ATOM     18  OE1 GLU D 570     -20.444  -6.568 -16.338  1.00 32.92    -0.647 OA
ATOM     19  OE2 GLU D 570     -20.735  -8.737 -16.233  1.00 32.92    -0.647 OA
ENDBRANCH  16  17
ENDBRANCH  15  16
ENDBRANCH  14  15
END_RES GLU D 570
ENDMDL
MODEL 4
REMARK VINA RESULT:      -7.2      1.157      5.926
REMARK  23 active torsions:
REMARK  status: ('A' for Active; 'I' for Inactive)
REMARK    1  A    between atoms: C_2  and  C_3 
REMARK    2  A    between atoms: C_3  and  C_4 
REMARK    3  A    between atoms: C_4  and  C_5 
REMARK    4  A    between atoms: C_5  and  C_6 
REMARK    5  A    between atoms: C_5  and  C_8 
REMARK    6  A    between atoms: C_8  and  O_10 
REMARK    7  A    between atoms: O_10  and  C_11 
REMARK    8  A    between atoms: C_11  and  C_12 
REMARK    9  A    between atoms: C_12  and  C_13 
REMARK   10  A    between atoms: C_12  and  O_24 
REMARK   11  A    between atoms: C_13  and  O_14 
REMARK   12  A    between atoms: O_14  and  C_15 
REMARK   13  A    between atoms: C_15  and  C_17 
REMARK   14  A    between atoms: C_17  and  C_18 
REMARK   15  A    between atoms: C_17  and  C_20 
REMARK   16  A    between atoms: C_20  and  C_21 
REMARK   17  A    between atoms: C_21  and  C_22 
REMARK   18  A    between atoms: O_24  and  C_25 
REMARK   19  A    between atoms: C_25  and  C_27 
REMARK   20  A    between atoms: C_27  and  C_28 
REMARK   21  A    between atoms: C_27  and  C_30 
REMARK   22  A    between atoms: C_30  and  C_31 
REMARK   23  A    between atoms: C_31  and  C_32 
ROOT
HETATM    1  C   UNL     1     -24.002  -5.858 -15.420  1.00  0.00     0.180 C 
ENDROOT
BRANCH   1   2
HETATM    2  C   UNL     1     -24.044  -7.261 -16.056  1.00  0.00     0.213 C 
BRANCH   2   3
HETATM    3  O   UNL     1     -24.699  -7.270 -17.350  1.00  0.00    -0.319 OA
BRANCH   3   4
HETATM    4  C   UNL     1     -23.890  -7.091 -18.432  1.00  0.00     0.263 C 
HETATM    5  O   UNL     1     -22.742  -6.672 -18.351  1.00  0.00    -0.265 OA
BRANCH   4   6
HETATM    6  C   UNL     1     -24.553  -7.537 -19.744  1.00  0.00     0.085 C 
BRANCH   6   7
HETATM    7  C   UNL     1     -25.463  -6.468 -20.409  1.00  0.00     0.014 C 
BRANCH   7   8
HETATM    8  C   UNL     1     -26.946  -6.873 -20.378  1.00  0.00     0.000 C 
BRANCH   8   9
HETATM    9  C   UNL     1     -27.708  -6.392 -19.144  1.00  0.00    -0.005 C 
HETATM   10  C   UNL     1     -28.933  -7.274 -18.915  1.00  0.00     0.005 C 
ENDBRANCH   8   9
ENDBRANCH   7   8
ENDBRANCH   6   7
BRANCH   6  11
HETATM   11  C   UNL     1     -23.484  -8.099 -20.715  1.00  0.00     0.010 C 
HETATM   12  C   UNL     1     -23.839  -8.002 -22.199  1.00  0.00     0.006 C 
ENDBRANCH   6  11
ENDBRANCH   4   6
ENDBRANCH   3   4
ENDBRANCH   2   3
ENDBRANCH   1   2
BRANCH   1  13
HETATM   13  C   UNL     1     -25.427  -5.317 -15.198  1.00  0.00     0.213 C 
BRANCH  13  14
HETATM   14  O   UNL     1     -25.497  -3.884 -15.393  1.00  0.00    -0.319 OA
BRANCH  14  15
HETATM   15  C   UNL     1     -26.750  -3.344 -15.369  1.00  0.00     0.263 C 
HETATM   16  O   UNL     1     -27.037  -2.338 -14.727  1.00  0.00    -0.265 OA
BRANCH  15  17
HETATM   17  C   UNL     1     -27.726  -4.159 -16.212  1.00  0.00     0.085 C 
BRANCH  17  18
HETATM   18  C   UNL     1     -28.622  -4.999 -15.282  1.00  0.00     0.010 C 
HETATM   19  C   UNL     1     -28.513  -6.501 -15.536  1.00  0.00     0.006 C 
ENDBRANCH  17  18
BRANCH  17  20
HETATM   20  C   UNL     1     -28.595  -3.286 -17.147  1.00  0.00     0.014 C 
BRANCH  20  21
HETATM   21  C   UNL     1     -29.701  -4.050 -17.883  1.00  0.00     0.000 C 
BRANCH  21  22
HETATM   22  C   UNL     1     -31.086  -3.509 -17.509  1.00  0.00    -0.005 C 
HETATM   23  C   UNL     1     -31.940  -4.598 -16.878  1.00  0.00     0.005 C 
ENDBRANCH  21  22
ENDBRANCH  20  21
ENDBRANCH  17  20
ENDBRANCH  15  17
ENDBRANCH  14  15
ENDBRANCH  13  14
ENDBRANCH   1  13
BRANCH   1  24
HETATM   24  O   UNL     1     -23.381  -6.012 -14.117  1.00  0.00    -0.311 OA
BRANCH  24  25
HETATM   25  C   UNL     1     -22.637  -4.957 -13.690  1.00  0.00     0.263 C 
HETATM   26  O   UNL     1     -22.100  -4.128 -14.418  1.00  0.00    -0.265 OA
BRANCH  25  27
HETATM   27  C   UNL     1     -22.496  -4.996 -12.172  1.00  0.00     0.085 C 
BRANCH  27  28
HETATM   28  C   UNL     1     -21.459  -3.925 -11.777  1.00  0.00     0.010 C 
HETATM   29  C   UNL     1     -20.302  -4.449 -10.939  1.00  0.00     0.006 C 
ENDBRANCH  27  28
BRANCH  27  30
HETATM   30  C   UNL     1     -23.851  -4.789 -11.481  1.00  0.00     0.014 C 
BRANCH  30  31
HETATM   31  C   UNL     1     -23.915  -3.643 -10.464  1.00  0.00     0.000 C 
BRANCH  31  32
HETATM   32  C   UNL     1     -24.027  -4.118  -9.015  1.00  0.00    -0.005 C 
HETATM   33  C   UNL     1     -22.705  -3.960  -8.281  1.00  0.00     0.005 C 
ENDBRANCH  31  32
ENDBRANCH  30  31
ENDBRANCH  27  30
ENDBRANCH  25  27
ENDBRANCH  24  25
ENDBRANCH   1  24
TORSDOF 23
BEGIN_RES ARG D 557
REMARK  4 active torsions:
REMARK  status: ('A' for Active; 'I' for Inactive)
REMARK    1  A    between atoms: CA   and  CB  
REMARK    2  A    between atoms: CB   and  CG  
REMARK    3  A    between atoms: CG   and  CD  
REMARK    4  A    between atoms: CD   and  NE  
REMARK       I    between atoms: NE   and  CZ  
REMARK       I    between atoms: CZ   and  NH1 
REMARK       I    between atoms: CZ   and  NH2 
ROOT
ATOM      1  CA  ARG D 557     -26.217   2.705 -17.014  1.00 35.49     0.159 C 
ENDROOT
BRANCH   1   2
ATOM      2  CB  ARG D 557     -26.789   1.319 -17.183  1.00 35.49     0.034 C 
BRANCH   2   3
ATOM      3  CG  ARG D 557     -25.836   0.203 -17.152  1.00 35.49     0.027 C 
BRANCH   3   4
ATOM      4  CD  ARG D 557     -24.667   0.483 -16.288  1.00 35.49     0.116 C 
BRANCH   4   5
ATOM      5  NE  ARG D 557     -24.702  -0.276 -15.065  1.00 35.49    -0.212 N 
ATOM      6  CZ  ARG D 557     -23.884  -1.253 -14.743  1.00 35.49     0.666 C 
ATOM      7  NH1 ARG D 557     -22.918  -1.662 -15.545  1.00 35.49    -0.235 N 
ATOM      8  NH2 ARG D 557     -24.049  -1.817 -13.582  1.00 35.49    -0.235 N 
ATOM      9  HH  ARG D 557     -22.789  -1.303 -16.313  1.00 35.49     0.174 HD
ATOM     10  HH  ARG D 557     -22.413  -2.301 -15.281  1.00 35.49     0.174 HD
ATOM     11  HH  ARG D 557     -24.676  -1.527 -13.082  1.00 35.49     0.174 HD
ATOM     12  HH  ARG D 557     -23.538  -2.447 -13.338  1.00 35.49     0.174 HD
ATOM     13  HE  ARG D 557     -25.339  -0.128 -14.521  1.00 35.49     0.178 HD
ENDBRANCH   4   5
ENDBRANCH   3   4
ENDBRANCH   2   3
ENDBRANCH   1   2
END_RES ARG D 557
BEGIN_RES GLU D 570
REMARK  3 active torsions:
REMARK  status: ('A' for Active; 'I' for Inactive)
REMARK    5  A    between atoms: CA   and  CB  
REMARK    6  A    between atoms: CB   and  CG  
REMARK    7  A    between atoms: CG   and  CD  
ROOT
ATOM     14  CA  GLU D 570     -18.033  -6.348 -13.375  1.00 32.92     0.160 C 
ENDROOT
BRANCH  14  15
ATOM     15  CB  GLU D 570     -19.500  -6.345 -13.794  1.00 32.92     0.043 C 
BRANCH  15  16
ATOM     16  CG  GLU D 570     -20.087  -7.635 -14.241  1.00 32.92     0.100 C 
BRANCH  16  17
ATOM     17  CD  GLU D 570     -20.501  -7.622 -15.694  1.00 32.92     0.185 C 
ATOM     18  OE1 GLU D 570     -20.774  -8.700 -16.255  1.00 32.92    -0.647 OA
ATOM     19  OE2 GLU D 570     -20.535  -6.523 -16.282  1.00 32.92    -0.647 OA
ENDBRANCH  16  17
ENDBRANCH  15  16
ENDBRANCH  14  15
END_RES GLU D 570
ENDMDL
MODEL 5
REMARK VINA RESULT:      -7.1      1.317      6.490
REMARK  23 active torsions:
REMARK  status: ('A' for Active; 'I' for Inactive)
REMARK    1  A    between atoms: C_2  and  C_3 
REMARK    2  A    between atoms: C_3  and  C_4 
REMARK    3  A    between atoms: C_4  and  C_5 
REMARK    4  A    between atoms: C_5  and  C_6 
REMARK    5  A    between atoms: C_5  and  C_8 
REMARK    6  A    between atoms: C_8  and  O_10 
REMARK    7  A    between atoms: O_10  and  C_11 
REMARK    8  A    between atoms: C_11  and  C_12 
REMARK    9  A    between atoms: C_12  and  C_13 
REMARK   10  A    between atoms: C_12  and  O_24 
REMARK   11  A    between atoms: C_13  and  O_14 
REMARK   12  A    between atoms: O_14  and  C_15 
REMARK   13  A    between atoms: C_15  and  C_17 
REMARK   14  A    between atoms: C_17  and  C_18 
REMARK   15  A    between atoms: C_17  and  C_20 
REMARK   16  A    between atoms: C_20  and  C_21 
REMARK   17  A    between atoms: C_21  and  C_22 
REMARK   18  A    between atoms: O_24  and  C_25 
REMARK   19  A    between atoms: C_25  and  C_27 
REMARK   20  A    between atoms: C_27  and  C_28 
REMARK   21  A    between atoms: C_27  and  C_30 
REMARK   22  A    between atoms: C_30  and  C_31 
REMARK   23  A    between atoms: C_31  and  C_32 
ROOT
HETATM    1  C   UNL     1     -23.982  -4.946 -14.303  1.00  0.00     0.180 C 
ENDROOT
BRANCH   1   2
HETATM    2  C   UNL     1     -23.486  -6.292 -14.865  1.00  0.00     0.213 C 
BRANCH   2   3
HETATM    3  O   UNL     1     -23.471  -6.322 -16.315  1.00  0.00    -0.319 OA
BRANCH   3   4
HETATM    4  C   UNL     1     -24.067  -7.400 -16.897  1.00  0.00     0.263 C 
HETATM    5  O   UNL     1     -24.602  -8.299 -16.260  1.00  0.00    -0.265 OA
BRANCH   4   6
HETATM    6  C   UNL     1     -24.052  -7.325 -18.432  1.00  0.00     0.085 C 
BRANCH   6   7
HETATM    7  C   UNL     1     -25.347  -6.749 -19.067  1.00  0.00     0.014 C 
BRANCH   7   8
HETATM    8  C   UNL     1     -25.244  -6.650 -20.598  1.00  0.00     0.000 C 
BRANCH   8   9
HETATM    9  C   UNL     1     -25.156  -7.997 -21.315  1.00  0.00    -0.005 C 
HETATM   10  C   UNL     1     -23.989  -7.985 -22.299  1.00  0.00     0.005 C 
ENDBRANCH   8   9
ENDBRANCH   7   8
ENDBRANCH   6   7
BRANCH   6  11
HETATM   11  C   UNL     1     -22.774  -6.593 -18.915  1.00  0.00     0.010 C 
HETATM   12  C   UNL     1     -21.661  -7.505 -19.433  1.00  0.00     0.006 C 
ENDBRANCH   6  11
ENDBRANCH   4   6
ENDBRANCH   3   4
ENDBRANCH   2   3
ENDBRANCH   1   2
BRANCH   1  13
HETATM   13  C   UNL     1     -25.518  -4.858 -14.372  1.00  0.00     0.213 C 
BRANCH  13  14
HETATM   14  O   UNL     1     -25.981  -4.553 -15.709  1.00  0.00    -0.319 OA
BRANCH  14  15
HETATM   15  C   UNL     1     -26.989  -3.637 -15.793  1.00  0.00     0.263 C 
HETATM   16  O   UNL     1     -26.859  -2.461 -15.463  1.00  0.00    -0.265 OA
BRANCH  15  17
HETATM   17  C   UNL     1     -28.275  -4.267 -16.317  1.00  0.00     0.085 C 
BRANCH  17  18
HETATM   18  C   UNL     1     -28.959  -3.291 -17.294  1.00  0.00     0.010 C 
HETATM   19  C   UNL     1     -30.389  -3.693 -17.646  1.00  0.00     0.006 C 
ENDBRANCH  17  18
BRANCH  17  20
HETATM   20  C   UNL     1     -28.045  -5.635 -17.001  1.00  0.00     0.014 C 
BRANCH  20  21
HETATM   21  C   UNL     1     -28.528  -6.841 -16.188  1.00  0.00     0.000 C 
BRANCH  21  22
HETATM   22  C   UNL     1     -29.437  -7.744 -17.030  1.00  0.00    -0.005 C 
HETATM   23  C   UNL     1     -29.607  -7.184 -18.434  1.00  0.00     0.005 C 
ENDBRANCH  21  22
ENDBRANCH  20  21
ENDBRANCH  17  20
ENDBRANCH  15  17
ENDBRANCH  14  15
ENDBRANCH  13  14
ENDBRANCH   1  13
BRANCH   1  24
HETATM   24  O   UNL     1     -23.602  -4.916 -12.902  1.00  0.00    -0.311 OA
BRANCH  24  25
HETATM   25  C   UNL     1     -22.541  -4.122 -12.595  1.00  0.00     0.263 C 
HETATM   26  O   UNL     1     -21.737  -3.671 -13.404  1.00  0.00    -0.265 OA
BRANCH  25  27
HETATM   27  C   UNL     1     -22.448  -3.934 -11.084  1.00  0.00     0.085 C 
BRANCH  27  28
HETATM   28  C   UNL     1     -23.758  -4.468 -10.471  1.00  0.00     0.010 C 
HETATM   29  C   UNL     1     -24.518  -3.454  -9.628  1.00  0.00     0.006 C 
ENDBRANCH  27  28
BRANCH  27  30
HETATM   30  C   UNL     1     -21.202  -4.623 -10.513  1.00  0.00     0.014 C 
BRANCH  30  31
HETATM   31  C   UNL     1     -20.450  -3.850  -9.423  1.00  0.00     0.000 C 
BRANCH  31  32
HETATM   32  C   UNL     1     -20.230  -4.656  -8.143  1.00  0.00    -0.005 C 
HETATM   33  C   UNL     1     -21.069  -4.112  -6.998  1.00  0.00     0.005 C 
ENDBRANCH  31  32
ENDBRANCH  30  31
ENDBRANCH  27  30
ENDBRANCH  25  27
ENDBRANCH  24  25
ENDBRANCH   1  24
TORSDOF 23
BEGIN_RES ARG D 557
REMARK  4 active torsions:
REMARK  status: ('A' for Active; 'I' for Inactive)
REMARK    1  A    between atoms: CA   and  CB  
REMARK    2  A    between atoms: CB   and  CG  
REMARK    3  A    between atoms: CG   and  CD  
REMARK    4  A    between atoms: CD   and  NE  
REMARK       I    between atoms: NE   and  CZ  
REMARK       I    between atoms: CZ   and  NH1 
REMARK       I    between atoms: CZ   and  NH2 
ROOT
ATOM      1  CA  ARG D 557     -26.217   2.705 -17.014  1.00 35.49     0.159 C 
ENDROOT
BRANCH   1   2
ATOM      2  CB  ARG D 557     -26.789   1.319 -17.183  1.00 35.49     0.034 C 
BRANCH   2   3
ATOM      3  CG  ARG D 557     -25.829   0.209 -17.227  1.00 35.49     0.027 C 
BRANCH   3   4
ATOM      4  CD  ARG D 557     -24.662   0.437 -16.345  1.00 35.49     0.116 C 
BRANCH   4   5
ATOM      5  NE  ARG D 557     -24.769  -0.286 -15.106  1.00 35.49    -0.212 N 
ATOM      6  CZ  ARG D 557     -23.975  -1.257 -14.712  1.00 35.49     0.666 C 
ATOM      7  NH1 ARG D 557     -22.969  -1.693 -15.448  1.00 35.49    -0.235 N 
ATOM      8  NH2 ARG D 557     -24.207  -1.787 -13.546  1.00 35.49    -0.235 N 
ATOM      9  HH  ARG D 557     -22.797  -1.357 -16.217  1.00 35.49     0.174 HD
ATOM     10  HH  ARG D 557     -22.483  -2.327 -15.138  1.00 35.49     0.174 HD
ATOM     11  HH  ARG D 557     -24.859  -1.480 -13.090  1.00 35.49     0.174 HD
ATOM     12  HH  ARG D 557     -23.714  -2.413 -13.257  1.00 35.49     0.174 HD
ATOM     13  HE  ARG D 557     -25.433  -0.120 -14.602  1.00 35.49     0.178 HD
ENDBRANCH   4   5
ENDBRANCH   3   4
ENDBRANCH   2   3
ENDBRANCH   1   2
END_RES ARG D 557
BEGIN_RES GLU D 570
REMARK  3 active torsions:
REMARK  status: ('A' for Active; 'I' for Inactive)
REMARK    5  A    between atoms: CA   and  CB  
REMARK    6  A    between atoms: CB   and  CG  
REMARK    7  A    between atoms: CG   and  CD  
ROOT
ATOM     14  CA  GLU D 570     -18.033  -6.348 -13.375  1.00 32.92     0.160 C 
ENDROOT
BRANCH  14  15
ATOM     15  CB  GLU D 570     -19.500  -6.345 -13.794  1.00 32.92     0.043 C 
BRANCH  15  16
ATOM     16  CG  GLU D 570     -20.084  -7.633 -14.250  1.00 32.92     0.100 C 
BRANCH  16  17
ATOM     17  CD  GLU D 570     -20.400  -7.646 -15.727  1.00 32.92     0.185 C 
ATOM     18  OE1 GLU D 570     -20.250  -6.601 -16.388  1.00 32.92    -0.647 OA
ATOM     19  OE2 GLU D 570     -20.819  -8.710 -16.226  1.00 32.92    -0.647 OA
ENDBRANCH  16  17
ENDBRANCH  15  16
ENDBRANCH  14  15
END_RES GLU D 570
ENDMDL
MODEL 6
REMARK VINA RESULT:      -6.8      1.623      2.816
REMARK  23 active torsions:
REMARK  status: ('A' for Active; 'I' for Inactive)
REMARK    1  A    between atoms: C_2  and  C_3 
REMARK    2  A    between atoms: C_3  and  C_4 
REMARK    3  A    between atoms: C_4  and  C_5 
REMARK    4  A    between atoms: C_5  and  C_6 
REMARK    5  A    between atoms: C_5  and  C_8 
REMARK    6  A    between atoms: C_8  and  O_10 
REMARK    7  A    between atoms: O_10  and  C_11 
REMARK    8  A    between atoms: C_11  and  C_12 
REMARK    9  A    between atoms: C_12  and  C_13 
REMARK   10  A    between atoms: C_12  and  O_24 
REMARK   11  A    between atoms: C_13  and  O_14 
REMARK   12  A    between atoms: O_14  and  C_15 
REMARK   13  A    between atoms: C_15  and  C_17 
REMARK   14  A    between atoms: C_17  and  C_18 
REMARK   15  A    between atoms: C_17  and  C_20 
REMARK   16  A    between atoms: C_20  and  C_21 
REMARK   17  A    between atoms: C_21  and  C_22 
REMARK   18  A    between atoms: O_24  and  C_25 
REMARK   19  A    between atoms: C_25  and  C_27 
REMARK   20  A    between atoms: C_27  and  C_28 
REMARK   21  A    between atoms: C_27  and  C_30 
REMARK   22  A    between atoms: C_30  and  C_31 
REMARK   23  A    between atoms: C_31  and  C_32 
ROOT
HETATM    1  C   UNL     1     -25.384  -6.294 -15.386  1.00  0.00     0.180 C 
ENDROOT
BRANCH   1   2
HETATM    2  C   UNL     1     -24.365  -7.060 -16.251  1.00  0.00     0.213 C 
BRANCH   2   3
HETATM    3  O   UNL     1     -24.883  -7.394 -17.564  1.00  0.00    -0.319 OA
BRANCH   3   4
HETATM    4  C   UNL     1     -24.130  -6.988 -18.625  1.00  0.00     0.263 C 
HETATM    5  O   UNL     1     -22.924  -6.785 -18.555  1.00  0.00    -0.265 OA
BRANCH   4   6
HETATM    6  C   UNL     1     -24.947  -6.884 -19.922  1.00  0.00     0.085 C 
BRANCH   6   7
HETATM    7  C   UNL     1     -24.764  -8.074 -20.903  1.00  0.00     0.014 C 
BRANCH   7   8
HETATM    8  C   UNL     1     -23.622  -7.826 -21.903  1.00  0.00     0.000 C 
BRANCH   8   9
HETATM    9  C   UNL     1     -22.360  -8.646 -21.639  1.00  0.00    -0.005 C 
HETATM   10  C   UNL     1     -21.966  -9.412 -22.899  1.00  0.00     0.005 C 
ENDBRANCH   8   9
ENDBRANCH   7   8
ENDBRANCH   6   7
BRANCH   6  11
HETATM   11  C   UNL     1     -26.435  -6.606 -19.591  1.00  0.00     0.010 C 
HETATM   12  C   UNL     1     -27.308  -6.231 -20.789  1.00  0.00     0.006 C 
ENDBRANCH   6  11
ENDBRANCH   4   6
ENDBRANCH   3   4
ENDBRANCH   2   3
ENDBRANCH   1   2
BRANCH   1  13
HETATM   13  C   UNL     1     -24.848  -4.896 -15.022  1.00  0.00     0.213 C 
BRANCH  13  14
HETATM   14  O   UNL     1     -23.982  -4.936 -13.862  1.00  0.00    -0.319 OA
BRANCH  14  15
HETATM   15  C   UNL     1     -22.976  -4.014 -13.842  1.00  0.00     0.263 C 
HETATM   16  O   UNL     1     -22.311  -3.721 -14.832  1.00  0.00    -0.265 OA
BRANCH  15  17
HETATM   17  C   UNL     1     -22.780  -3.431 -12.447  1.00  0.00     0.085 C 
BRANCH  17  18
HETATM   18  C   UNL     1     -24.139  -2.949 -11.902  1.00  0.00     0.010 C 
HETATM   19  C   UNL     1     -24.375  -3.334 -10.444  1.00  0.00     0.006 C 
ENDBRANCH  17  18
BRANCH  17  20
HETATM   20  C   UNL     1     -22.131  -4.428 -11.459  1.00  0.00     0.014 C 
BRANCH  20  21
HETATM   21  C   UNL     1     -20.636  -4.197 -11.214  1.00  0.00     0.000 C 
BRANCH  21  22
HETATM   22  C   UNL     1     -20.337  -4.065  -9.717  1.00  0.00    -0.005 C 
HETATM   23  C   UNL     1     -21.376  -4.805  -8.889  1.00  0.00     0.005 C 
ENDBRANCH  21  22
ENDBRANCH  20  21
ENDBRANCH  17  20
ENDBRANCH  15  17
ENDBRANCH  14  15
ENDBRANCH  13  14
ENDBRANCH   1  13
BRANCH   1  24
HETATM   24  O   UNL     1     -26.568  -6.111 -16.206  1.00  0.00    -0.311 OA
BRANCH  24  25
HETATM   25  C   UNL     1     -27.652  -6.851 -15.849  1.00  0.00     0.263 C 
HETATM   26  O   UNL     1     -27.660  -7.727 -14.990  1.00  0.00    -0.265 OA
BRANCH  25  27
HETATM   27  C   UNL     1     -28.845  -6.490 -16.727  1.00  0.00     0.085 C 
BRANCH  27  28
HETATM   28  C   UNL     1     -29.481  -7.810 -17.208  1.00  0.00     0.010 C 
HETATM   29  C   UNL     1     -30.001  -7.774 -18.637  1.00  0.00     0.006 C 
ENDBRANCH  27  28
BRANCH  27  30
HETATM   30  C   UNL     1     -29.839  -5.593 -15.977  1.00  0.00     0.014 C 
BRANCH  30  31
HETATM   31  C   UNL     1     -30.634  -4.608 -16.840  1.00  0.00     0.000 C 
BRANCH  31  32
HETATM   32  C   UNL     1     -32.059  -5.073 -17.145  1.00  0.00    -0.005 C 
HETATM   33  C   UNL     1     -33.080  -4.279 -16.349  1.00  0.00     0.005 C 
ENDBRANCH  31  32
ENDBRANCH  30  31
ENDBRANCH  27  30
ENDBRANCH  25  27
ENDBRANCH  24  25
ENDBRANCH   1  24
TORSDOF 23
BEGIN_RES ARG D 557
REMARK  4 active torsions:
REMARK  status: ('A' for Active; 'I' for Inactive)
REMARK    1  A    between atoms: CA   and  CB  
REMARK    2  A    between atoms: CB   and  CG  
REMARK    3  A    between atoms: CG   and  CD  
REMARK    4  A    between atoms: CD   and  NE  
REMARK       I    between atoms: NE   and  CZ  
REMARK       I    between atoms: CZ   and  NH1 
REMARK       I    between atoms: CZ   and  NH2 
ROOT
ATOM      1  CA  ARG D 557     -26.217   2.705 -17.014  1.00 35.49     0.159 C 
ENDROOT
BRANCH   1   2
ATOM      2  CB  ARG D 557     -26.789   1.319 -17.183  1.00 35.49     0.034 C 
BRANCH   2   3
ATOM      3  CG  ARG D 557     -28.252   1.207 -17.207  1.00 35.49     0.027 C 
BRANCH   3   4
ATOM      4  CD  ARG D 557     -28.764   0.273 -16.178  1.00 35.49     0.116 C 
BRANCH   4   5
ATOM      5  NE  ARG D 557     -28.564  -1.104 -16.547  1.00 35.49    -0.212 N 
ATOM      6  CZ  ARG D 557     -27.573  -1.869 -16.149  1.00 35.49     0.666 C 
ATOM      7  NH1 ARG D 557     -26.616  -1.433 -15.351  1.00 35.49    -0.235 N 
ATOM      8  NH2 ARG D 557     -27.561  -3.102 -16.567  1.00 35.49    -0.235 N 
ATOM      9  HH  ARG D 557     -26.605  -0.626 -15.062  1.00 35.49     0.174 HD
ATOM     10  HH  ARG D 557     -25.996  -1.979 -15.122  1.00 35.49     0.174 HD
ATOM     11  HH  ARG D 557     -28.196  -3.358 -17.075  1.00 35.49     0.174 HD
ATOM     12  HH  ARG D 557     -26.940  -3.627 -16.328  1.00 35.49     0.174 HD
ATOM     13  HE  ARG D 557     -29.094  -1.445 -17.118  1.00 35.49     0.178 HD
ENDBRANCH   4   5
ENDBRANCH   3   4
ENDBRANCH   2   3
ENDBRANCH   1   2
END_RES ARG D 557
BEGIN_RES GLU D 570
REMARK  3 active torsions:
REMARK  status: ('A' for Active; 'I' for Inactive)
REMARK    5  A    between atoms: CA   and  CB  
REMARK    6  A    between atoms: CB   and  CG  
REMARK    7  A    between atoms: CG   and  CD  
ROOT
ATOM     14  CA  GLU D 570     -18.033  -6.348 -13.375  1.00 32.92     0.160 C 
ENDROOT
BRANCH  14  15
ATOM     15  CB  GLU D 570     -19.500  -6.345 -13.794  1.00 32.92     0.043 C 
BRANCH  15  16
ATOM     16  CG  GLU D 570     -20.076  -7.626 -14.278  1.00 32.92     0.100 C 
BRANCH  16  17
ATOM     17  CD  GLU D 570     -20.688  -7.514 -15.655  1.00 32.92     0.185 C 
ATOM     18  OE1 GLU D 570     -20.853  -6.384 -16.154  1.00 32.92    -0.647 OA
ATOM     19  OE2 GLU D 570     -21.022  -8.566 -16.234  1.00 32.92    -0.647 OA
ENDBRANCH  16  17
ENDBRANCH  15  16
ENDBRANCH  14  15
END_RES GLU D 570
ENDMDL
MODEL 7
REMARK VINA RESULT:      -6.7      7.320     13.121
REMARK  23 active torsions:
REMARK  status: ('A' for Active; 'I' for Inactive)
REMARK    1  A    between atoms: C_2  and  C_3 
REMARK    2  A    between atoms: C_3  and  C_4 
REMARK    3  A    between atoms: C_4  and  C_5 
REMARK    4  A    between atoms: C_5  and  C_6 
REMARK    5  A    between atoms: C_5  and  C_8 
REMARK    6  A    between atoms: C_8  and  O_10 
REMARK    7  A    between atoms: O_10  and  C_11 
REMARK    8  A    between atoms: C_11  and  C_12 
REMARK    9  A    between atoms: C_12  and  C_13 
REMARK   10  A    between atoms: C_12  and  O_24 
REMARK   11  A    between atoms: C_13  and  O_14 
REMARK   12  A    between atoms: O_14  and  C_15 
REMARK   13  A    between atoms: C_15  and  C_17 
REMARK   14  A    between atoms: C_17  and  C_18 
REMARK   15  A    between atoms: C_17  and  C_20 
REMARK   16  A    between atoms: C_20  and  C_21 
REMARK   17  A    between atoms: C_21  and  C_22 
REMARK   18  A    between atoms: O_24  and  C_25 
REMARK   19  A    between atoms: C_25  and  C_27 
REMARK   20  A    between atoms: C_27  and  C_28 
REMARK   21  A    between atoms: C_27  and  C_30 
REMARK   22  A    between atoms: C_30  and  C_31 
REMARK   23  A    between atoms: C_31  and  C_32 
ROOT
HETATM    1  C   UNL     1     -21.218  -6.815  -3.655  1.00  0.00     0.180 C 
ENDROOT
BRANCH   1   2
HETATM    2  C   UNL     1     -21.915  -6.505  -2.316  1.00  0.00     0.213 C 
BRANCH   2   3
HETATM    3  O   UNL     1     -21.443  -7.346  -1.231  1.00  0.00    -0.319 OA
BRANCH   3   4
HETATM    4  C   UNL     1     -22.406  -7.924  -0.460  1.00  0.00     0.263 C 
HETATM    5  O   UNL     1     -23.343  -7.302   0.024  1.00  0.00    -0.265 OA
BRANCH   4   6
HETATM    6  C   UNL     1     -22.221  -9.444  -0.328  1.00  0.00     0.085 C 
BRANCH   6   7
HETATM    7  C   UNL     1     -21.142  -9.880   0.700  1.00  0.00     0.014 C 
BRANCH   7   8
HETATM    8  C   UNL     1     -20.207 -10.962   0.132  1.00  0.00     0.000 C 
BRANCH   8   9
HETATM    9  C   UNL     1     -19.928 -10.834  -1.365  1.00  0.00    -0.005 C 
HETATM   10  C   UNL     1     -20.375 -12.103  -2.086  1.00  0.00     0.005 C 
ENDBRANCH   8   9
ENDBRANCH   7   8
ENDBRANCH   6   7
BRANCH   6  11
HETATM   11  C   UNL     1     -23.590 -10.126  -0.083  1.00  0.00     0.010 C 
HETATM   12  C   UNL     1     -23.894 -11.318  -0.990  1.00  0.00     0.006 C 
ENDBRANCH   6  11
ENDBRANCH   4   6
ENDBRANCH   3   4
ENDBRANCH   2   3
ENDBRANCH   1   2
BRANCH   1  13
HETATM   13  C   UNL     1     -21.122  -8.335  -3.881  1.00  0.00     0.213 C 
BRANCH  13  14
HETATM   14  O   UNL     1     -19.771  -8.749  -4.197  1.00  0.00    -0.319 OA
BRANCH  14  15
HETATM   15  C   UNL     1     -19.660  -9.821  -5.035  1.00  0.00     0.263 C 
HETATM   16  O   UNL     1     -20.534 -10.142  -5.836  1.00  0.00    -0.265 OA
BRANCH  15  17
HETATM   17  C   UNL     1     -18.344 -10.561  -4.823  1.00  0.00     0.085 C 
BRANCH  17  18
HETATM   18  C   UNL     1     -18.417 -11.937  -5.514  1.00  0.00     0.010 C 
HETATM   19  C   UNL     1     -17.863 -13.072  -4.657  1.00  0.00     0.006 C 
ENDBRANCH  17  18
BRANCH  17  20
HETATM   20  C   UNL     1     -17.116  -9.771  -5.332  1.00  0.00     0.014 C 
BRANCH  20  21
HETATM   21  C   UNL     1     -15.911  -9.789  -4.385  1.00  0.00     0.000 C 
BRANCH  21  22
HETATM   22  C   UNL     1     -16.356  -9.634  -2.926  1.00  0.00    -0.005 C 
HETATM   23  C   UNL     1     -15.839 -10.784  -2.076  1.00  0.00     0.005 C 
ENDBRANCH  21  22
ENDBRANCH  20  21
ENDBRANCH  17  20
ENDBRANCH  15  17
ENDBRANCH  14  15
ENDBRANCH  13  14
ENDBRANCH   1  13
BRANCH   1  24
HETATM   24  O   UNL     1     -22.065  -6.267  -4.699  1.00  0.00    -0.311 OA
BRANCH  24  25
HETATM   25  C   UNL     1     -21.484  -6.134  -5.921  1.00  0.00     0.263 C 
HETATM   26  O   UNL     1     -21.282  -7.049  -6.713  1.00  0.00    -0.265 OA
BRANCH  25  27
HETATM   27  C   UNL     1     -21.043  -4.689  -6.137  1.00  0.00     0.085 C 
BRANCH  27  28
HETATM   28  C   UNL     1     -19.501  -4.676  -6.161  1.00  0.00     0.010 C 
HETATM   29  C   UNL     1     -18.895  -4.436  -7.536  1.00  0.00     0.006 C 
ENDBRANCH  27  28
BRANCH  27  30
HETATM   30  C   UNL     1     -21.660  -4.104  -7.415  1.00  0.00     0.014 C 
BRANCH  30  31
HETATM   31  C   UNL     1     -23.176  -4.275  -7.564  1.00  0.00     0.000 C 
BRANCH  31  32
HETATM   32  C   UNL     1     -23.679  -4.050  -8.991  1.00  0.00    -0.005 C 
HETATM   33  C   UNL     1     -22.522  -3.890  -9.964  1.00  0.00     0.005 C 
ENDBRANCH  31  32
ENDBRANCH  30  31
ENDBRANCH  27  30
ENDBRANCH  25  27
ENDBRANCH  24  25
ENDBRANCH   1  24
TORSDOF 23
BEGIN_RES ARG D 557
REMARK  4 active torsions:
REMARK  status: ('A' for Active; 'I' for Inactive)
REMARK    1  A    between atoms: CA   and  CB  
REMARK    2  A    between atoms: CB   and  CG  
REMARK    3  A    between atoms: CG   and  CD  
REMARK    4  A    between atoms: CD   and  NE  
REMARK       I    between atoms: NE   and  CZ  
REMARK       I    between atoms: CZ   and  NH1 
REMARK       I    between atoms: CZ   and  NH2 
ROOT
ATOM      1  CA  ARG D 557     -26.217   2.705 -17.014  1.00 35.49     0.159 C 
ENDROOT
BRANCH   1   2
ATOM      2  CB  ARG D 557     -26.789   1.319 -17.183  1.00 35.49     0.034 C 
BRANCH   2   3
ATOM      3  CG  ARG D 557     -25.843   0.200 -17.103  1.00 35.49     0.027 C 
BRANCH   3   4
ATOM      4  CD  ARG D 557     -25.373  -0.045 -15.720  1.00 35.49     0.116 C 
BRANCH   4   5
ATOM      5  NE  ARG D 557     -25.650  -1.387 -15.282  1.00 35.49    -0.212 N 
ATOM      6  CZ  ARG D 557     -24.938  -2.076 -14.418  1.00 35.49     0.666 C 
ATOM      7  NH1 ARG D 557     -23.847  -1.592 -13.853  1.00 35.49    -0.235 N 
ATOM      8  NH2 ARG D 557     -25.349  -3.274 -14.121  1.00 35.49    -0.235 N 
ATOM      9  HH  ARG D 557     -23.559  -0.805 -14.032  1.00 35.49     0.174 HD
ATOM     10  HH  ARG D 557     -23.425  -2.086 -13.295  1.00 35.49     0.174 HD
ATOM     11  HH  ARG D 557     -26.060  -3.557 -14.496  1.00 35.49     0.174 HD
ATOM     12  HH  ARG D 557     -24.918  -3.747 -13.565  1.00 35.49     0.174 HD
ATOM     13  HE  ARG D 557     -26.294  -1.803 -15.651  1.00 35.49     0.178 HD
ENDBRANCH   4   5
ENDBRANCH   3   4
ENDBRANCH   2   3
ENDBRANCH   1   2
END_RES ARG D 557
BEGIN_RES GLU D 570
REMARK  3 active torsions:
REMARK  status: ('A' for Active; 'I' for Inactive)
REMARK    5  A    between atoms: CA   and  CB  
REMARK    6  A    between atoms: CB   and  CG  
REMARK    7  A    between atoms: CG   and  CD  
ROOT
ATOM     14  CA  GLU D 570     -18.033  -6.348 -13.375  1.00 32.92     0.160 C 
ENDROOT
BRANCH  14  15
ATOM     15  CB  GLU D 570     -19.500  -6.345 -13.794  1.00 32.92     0.043 C 
BRANCH  15  16
ATOM     16  CG  GLU D 570     -20.440  -5.521 -12.991  1.00 32.92     0.100 C 
BRANCH  16  17
ATOM     17  CD  GLU D 570     -21.764  -5.294 -13.682  1.00 32.92     0.185 C 
ATOM     18  OE1 GLU D 570     -22.353  -4.208 -13.520  1.00 32.92    -0.647 OA
ATOM     19  OE2 GLU D 570     -22.224  -6.218 -14.381  1.00 32.92    -0.647 OA
ENDBRANCH  16  17
ENDBRANCH  15  16
ENDBRANCH  14  15
END_RES GLU D 570
ENDMDL
MODEL 8
REMARK VINA RESULT:      -6.7      7.520     13.816
REMARK  23 active torsions:
REMARK  status: ('A' for Active; 'I' for Inactive)
REMARK    1  A    between atoms: C_2  and  C_3 
REMARK    2  A    between atoms: C_3  and  C_4 
REMARK    3  A    between atoms: C_4  and  C_5 
REMARK    4  A    between atoms: C_5  and  C_6 
REMARK    5  A    between atoms: C_5  and  C_8 
REMARK    6  A    between atoms: C_8  and  O_10 
REMARK    7  A    between atoms: O_10  and  C_11 
REMARK    8  A    between atoms: C_11  and  C_12 
REMARK    9  A    between atoms: C_12  and  C_13 
REMARK   10  A    between atoms: C_12  and  O_24 
REMARK   11  A    between atoms: C_13  and  O_14 
REMARK   12  A    between atoms: O_14  and  C_15 
REMARK   13  A    between atoms: C_15  and  C_17 
REMARK   14  A    between atoms: C_17  and  C_18 
REMARK   15  A    between atoms: C_17  and  C_20 
REMARK   16  A    between atoms: C_20  and  C_21 
REMARK   17  A    between atoms: C_21  and  C_22 
REMARK   18  A    between atoms: O_24  and  C_25 
REMARK   19  A    between atoms: C_25  and  C_27 
REMARK   20  A    between atoms: C_27  and  C_28 
REMARK   21  A    between atoms: C_27  and  C_30 
REMARK   22  A    between atoms: C_30  and  C_31 
REMARK   23  A    between atoms: C_31  and  C_32 
ROOT
HETATM    1  C   UNL     1     -20.468  -8.276  -5.059  1.00  0.00     0.180 C 
ENDROOT
BRANCH   1   2
HETATM    2  C   UNL     1     -21.398  -8.550  -3.862  1.00  0.00     0.213 C 
BRANCH   2   3
HETATM    3  O   UNL     1     -20.700  -8.517  -2.591  1.00  0.00    -0.319 OA
BRANCH   3   4
HETATM    4  C   UNL     1     -20.896  -9.589  -1.772  1.00  0.00     0.263 C 
HETATM    5  O   UNL     1     -20.016 -10.394  -1.497  1.00  0.00    -0.265 OA
BRANCH   4   6
HETATM    6  C   UNL     1     -22.316  -9.630  -1.186  1.00  0.00     0.085 C 
BRANCH   6   7
HETATM    7  C   UNL     1     -23.032 -11.001  -1.315  1.00  0.00     0.014 C 
BRANCH   7   8
HETATM    8  C   UNL     1     -23.835 -11.354  -0.051  1.00  0.00     0.000 C 
BRANCH   8   9
HETATM    9  C   UNL     1     -23.447 -12.684   0.594  1.00  0.00    -0.005 C 
HETATM   10  C   UNL     1     -21.955 -12.689   0.915  1.00  0.00     0.005 C 
ENDBRANCH   8   9
ENDBRANCH   7   8
ENDBRANCH   6   7
BRANCH   6  11
HETATM   11  C   UNL     1     -22.304  -9.097   0.269  1.00  0.00     0.010 C 
HETATM   12  C   UNL     1     -23.117  -7.823   0.501  1.00  0.00     0.006 C 
ENDBRANCH   6  11
ENDBRANCH   4   6
ENDBRANCH   3   4
ENDBRANCH   2   3
ENDBRANCH   1   2
BRANCH   1  13
HETATM   13  C   UNL     1     -20.480  -6.781  -5.428  1.00  0.00     0.213 C 
BRANCH  13  14
HETATM   14  O   UNL     1     -20.747  -6.575  -6.837  1.00  0.00    -0.319 OA
BRANCH  14  15
HETATM   15  C   UNL     1     -20.187  -5.460  -7.389  1.00  0.00     0.263 C 
HETATM   16  O   UNL     1     -19.119  -4.985  -7.011  1.00  0.00    -0.265 OA
BRANCH  15  17
HETATM   17  C   UNL     1     -21.063  -4.885  -8.497  1.00  0.00     0.085 C 
BRANCH  17  18
HETATM   18  C   UNL     1     -22.212  -4.075  -7.866  1.00  0.00     0.010 C 
HETATM   19  C   UNL     1     -23.513  -4.155  -8.662  1.00  0.00     0.006 C 
ENDBRANCH  17  18
BRANCH  17  20
HETATM   20  C   UNL     1     -20.276  -4.008  -9.499  1.00  0.00     0.014 C 
BRANCH  20  21
HETATM   21  C   UNL     1     -20.595  -4.287 -10.972  1.00  0.00     0.000 C 
BRANCH  21  22
HETATM   22  C   UNL     1     -21.478  -3.182 -11.563  1.00  0.00    -0.005 C 
HETATM   23  C   UNL     1     -22.388  -3.737 -12.647  1.00  0.00     0.005 C 
ENDBRANCH  21  22
ENDBRANCH  20  21
ENDBRANCH  17  20
ENDBRANCH  15  17
ENDBRANCH  14  15
ENDBRANCH  13  14
ENDBRANCH   1  13
BRANCH   1  24
HETATM   24  O   UNL     1     -19.124  -8.612  -4.625  1.00  0.00    -0.311 OA
BRANCH  24  25
HETATM   25  C   UNL     1     -18.532  -9.644  -5.283  1.00  0.00     0.263 C 
HETATM   26  O   UNL     1     -19.084 -10.371  -6.103  1.00  0.00    -0.265 OA
BRANCH  25  27
HETATM   27  C   UNL     1     -17.097  -9.821  -4.798  1.00  0.00     0.085 C 
BRANCH  27  28
HETATM   28  C   UNL     1     -17.085  -9.540  -3.282  1.00  0.00     0.010 C 
HETATM   29  C   UNL     1     -15.949 -10.213  -2.525  1.00  0.00     0.006 C 
ENDBRANCH  27  28
BRANCH  27  30
HETATM   30  C   UNL     1     -16.559 -11.215  -5.145  1.00  0.00     0.014 C 
BRANCH  30  31
HETATM   31  C   UNL     1     -15.313 -11.247  -6.039  1.00  0.00     0.000 C 
BRANCH  31  32
HETATM   32  C   UNL     1     -14.132 -11.991  -5.414  1.00  0.00    -0.005 C 
HETATM   33  C   UNL     1     -13.348 -12.761  -6.464  1.00  0.00     0.005 C 
ENDBRANCH  31  32
ENDBRANCH  30  31
ENDBRANCH  27  30
ENDBRANCH  25  27
ENDBRANCH  24  25
ENDBRANCH   1  24
TORSDOF 23
BEGIN_RES ARG D 557
REMARK  4 active torsions:
REMARK  status: ('A' for Active; 'I' for Inactive)
REMARK    1  A    between atoms: CA   and  CB  
REMARK    2  A    between atoms: CB   and  CG  
REMARK    3  A    between atoms: CG   and  CD  
REMARK    4  A    between atoms: CD   and  NE  
REMARK       I    between atoms: NE   and  CZ  
REMARK       I    between atoms: CZ   and  NH1 
REMARK       I    between atoms: CZ   and  NH2 
ROOT
ATOM      1  CA  ARG D 557     -26.217   2.705 -17.014  1.00 35.49     0.159 C 
ENDROOT
BRANCH   1   2
ATOM      2  CB  ARG D 557     -26.789   1.319 -17.183  1.00 35.49     0.034 C 
BRANCH   2   3
ATOM      3  CG  ARG D 557     -28.237   1.224 -17.402  1.00 35.49     0.027 C 
BRANCH   3   4
ATOM      4  CD  ARG D 557     -28.888   0.276 -16.468  1.00 35.49     0.116 C 
BRANCH   4   5
ATOM      5  NE  ARG D 557     -29.268  -0.950 -17.118  1.00 35.49    -0.212 N 
ATOM      6  CZ  ARG D 557     -28.635  -2.098 -17.022  1.00 35.49     0.666 C 
ATOM      7  NH1 ARG D 557     -27.538  -2.245 -16.302  1.00 35.49    -0.235 N 
ATOM      8  NH2 ARG D 557     -29.134  -3.114 -17.664  1.00 35.49    -0.235 N 
ATOM      9  HH  ARG D 557     -27.193  -1.590 -15.870  1.00 35.49     0.174 HD
ATOM     10  HH  ARG D 557     -27.170  -3.018 -16.274  1.00 35.49     0.174 HD
ATOM     11  HH  ARG D 557     -29.848  -2.992 -18.114  1.00 35.49     0.174 HD
ATOM     12  HH  ARG D 557     -28.756  -3.872 -17.622  1.00 35.49     0.174 HD
ATOM     13  HE  ARG D 557     -29.923  -0.929 -17.660  1.00 35.49     0.178 HD
ENDBRANCH   4   5
ENDBRANCH   3   4
ENDBRANCH   2   3
ENDBRANCH   1   2
END_RES ARG D 557
BEGIN_RES GLU D 570
REMARK  3 active torsions:
REMARK  status: ('A' for Active; 'I' for Inactive)
REMARK    5  A    between atoms: CA   and  CB  
REMARK    6  A    between atoms: CB   and  CG  
REMARK    7  A    between atoms: CG   and  CD  
ROOT
ATOM     14  CA  GLU D 570     -18.033  -6.348 -13.375  1.00 32.92     0.160 C 
ENDROOT
BRANCH  14  15
ATOM     15  CB  GLU D 570     -19.500  -6.345 -13.794  1.00 32.92     0.043 C 
BRANCH  15  16
ATOM     16  CG  GLU D 570     -19.796  -6.335 -15.250  1.00 32.92     0.100 C 
BRANCH  16  17
ATOM     17  CD  GLU D 570     -21.147  -6.925 -15.581  1.00 32.92     0.185 C 
ATOM     18  OE1 GLU D 570     -22.158  -6.485 -15.002  1.00 32.92    -0.647 OA
ATOM     19  OE2 GLU D 570     -21.192  -7.850 -16.416  1.00 32.92    -0.647 OA
ENDBRANCH  16  17
ENDBRANCH  15  16
ENDBRANCH  14  15
END_RES GLU D 570
ENDMDL
MODEL 9
REMARK VINA RESULT:      -6.7      7.082     13.463
REMARK  23 active torsions:
REMARK  status: ('A' for Active; 'I' for Inactive)
REMARK    1  A    between atoms: C_2  and  C_3 
REMARK    2  A    between atoms: C_3  and  C_4 
REMARK    3  A    between atoms: C_4  and  C_5 
REMARK    4  A    between atoms: C_5  and  C_6 
REMARK    5  A    between atoms: C_5  and  C_8 
REMARK    6  A    between atoms: C_8  and  O_10 
REMARK    7  A    between atoms: O_10  and  C_11 
REMARK    8  A    between atoms: C_11  and  C_12 
REMARK    9  A    between atoms: C_12  and  C_13 
REMARK   10  A    between atoms: C_12  and  O_24 
REMARK   11  A    between atoms: C_13  and  O_14 
REMARK   12  A    between atoms: O_14  and  C_15 
REMARK   13  A    between atoms: C_15  and  C_17 
REMARK   14  A    between atoms: C_17  and  C_18 
REMARK   15  A    between atoms: C_17  and  C_20 
REMARK   16  A    between atoms: C_20  and  C_21 
REMARK   17  A    between atoms: C_21  and  C_22 
REMARK   18  A    between atoms: O_24  and  C_25 
REMARK   19  A    between atoms: C_25  and  C_27 
REMARK   20  A    between atoms: C_27  and  C_28 
REMARK   21  A    between atoms: C_27  and  C_30 
REMARK   22  A    between atoms: C_30  and  C_31 
REMARK   23  A    between atoms: C_31  and  C_32 
ROOT
HETATM    1  C   UNL     1     -21.360  -6.920  -4.264  1.00  0.00     0.180 C 
ENDROOT
BRANCH   1   2
HETATM    2  C   UNL     1     -21.636  -6.443  -2.824  1.00  0.00     0.213 C 
BRANCH   2   3
HETATM    3  O   UNL     1     -21.203  -7.401  -1.824  1.00  0.00    -0.319 OA
BRANCH   3   4
HETATM    4  C   UNL     1     -22.118  -7.719  -0.866  1.00  0.00     0.263 C 
HETATM    5  O   UNL     1     -22.932  -6.919  -0.422  1.00  0.00    -0.265 OA
BRANCH   4   6
HETATM    6  C   UNL     1     -22.057  -9.200  -0.461  1.00  0.00     0.085 C 
BRANCH   6   7
HETATM    7  C   UNL     1     -21.883 -10.191  -1.644  1.00  0.00     0.014 C 
BRANCH   7   8
HETATM    8  C   UNL     1     -23.135 -11.060  -1.857  1.00  0.00     0.000 C 
BRANCH   8   9
HETATM    9  C   UNL     1     -24.009 -11.226  -0.615  1.00  0.00    -0.005 C 
HETATM   10  C   UNL     1     -23.646 -12.523   0.104  1.00  0.00     0.005 C 
ENDBRANCH   8   9
ENDBRANCH   7   8
ENDBRANCH   6   7
BRANCH   6  11
HETATM   11  C   UNL     1     -20.995  -9.403   0.649  1.00  0.00     0.010 C 
HETATM   12  C   UNL     1     -20.438 -10.823   0.763  1.00  0.00     0.006 C 
ENDBRANCH   6  11
ENDBRANCH   4   6
ENDBRANCH   3   4
ENDBRANCH   2   3
ENDBRANCH   1   2
BRANCH   1  13
HETATM   13  C   UNL     1     -20.936  -5.739  -5.157  1.00  0.00     0.213 C 
BRANCH  13  14
HETATM   14  O   UNL     1     -21.435  -5.878  -6.509  1.00  0.00    -0.319 OA
BRANCH  14  15
HETATM   15  C   UNL     1     -22.266  -4.885  -6.939  1.00  0.00     0.263 C 
HETATM   16  O   UNL     1     -23.405  -4.727  -6.509  1.00  0.00    -0.265 OA
BRANCH  15  17
HETATM   17  C   UNL     1     -21.607  -4.035  -8.021  1.00  0.00     0.085 C 
BRANCH  17  18
HETATM   18  C   UNL     1     -20.320  -4.733  -8.501  1.00  0.00     0.010 C 
HETATM   19  C   UNL     1     -19.047  -4.106  -7.937  1.00  0.00     0.006 C 
ENDBRANCH  17  18
BRANCH  17  20
HETATM   20  C   UNL     1     -22.541  -3.749  -9.219  1.00  0.00     0.014 C 
BRANCH  20  21
HETATM   21  C   UNL     1     -21.832  -3.691 -10.577  1.00  0.00     0.000 C 
BRANCH  21  22
HETATM   22  C   UNL     1     -22.805  -4.000 -11.720  1.00  0.00    -0.005 C 
HETATM   23  C   UNL     1     -24.087  -3.194 -11.574  1.00  0.00     0.005 C 
ENDBRANCH  21  22
ENDBRANCH  20  21
ENDBRANCH  17  20
ENDBRANCH  15  17
ENDBRANCH  14  15
ENDBRANCH  13  14
ENDBRANCH   1  13
BRANCH   1  24
HETATM   24  O   UNL     1     -20.239  -7.839  -4.188  1.00  0.00    -0.311 OA
BRANCH  24  25
HETATM   25  C   UNL     1     -20.339  -8.956  -4.957  1.00  0.00     0.263 C 
HETATM   26  O   UNL     1     -21.169  -9.134  -5.843  1.00  0.00    -0.265 OA
BRANCH  25  27
HETATM   27  C   UNL     1     -19.317  -9.995  -4.508  1.00  0.00     0.085 C 
BRANCH  27  28
HETATM   28  C   UNL     1     -18.526 -10.433  -5.757  1.00  0.00     0.010 C 
HETATM   29  C   UNL     1     -17.136  -9.823  -5.869  1.00  0.00     0.006 C 
ENDBRANCH  27  28
BRANCH  27  30
HETATM   30  C   UNL     1     -18.412  -9.444  -3.399  1.00  0.00     0.014 C 
BRANCH  30  31
HETATM   31  C   UNL     1     -18.188 -10.369  -2.197  1.00  0.00     0.000 C 
BRANCH  31  32
HETATM   32  C   UNL     1     -17.112 -11.429  -2.434  1.00  0.00    -0.005 C 
HETATM   33  C   UNL     1     -15.998 -11.324  -1.405  1.00  0.00     0.005 C 
ENDBRANCH  31  32
ENDBRANCH  30  31
ENDBRANCH  27  30
ENDBRANCH  25  27
ENDBRANCH  24  25
ENDBRANCH   1  24
TORSDOF 23
BEGIN_RES ARG D 557
REMARK  4 active torsions:
REMARK  status: ('A' for Active; 'I' for Inactive)
REMARK    1  A    between atoms: CA   and  CB  
REMARK    2  A    between atoms: CB   and  CG  
REMARK    3  A    between atoms: CG   and  CD  
REMARK    4  A    between atoms: CD   and  NE  
REMARK       I    between atoms: NE   and  CZ  
REMARK       I    between atoms: CZ   and  NH1 
REMARK       I    between atoms: CZ   and  NH2 
ROOT
ATOM      1  CA  ARG D 557     -26.217   2.705 -17.014  1.00 35.49     0.159 C 
ENDROOT
BRANCH   1   2
ATOM      2  CB  ARG D 557     -26.789   1.319 -17.183  1.00 35.49     0.034 C 
BRANCH   2   3
ATOM      3  CG  ARG D 557     -28.234   1.171 -16.973  1.00 35.49     0.027 C 
BRANCH   3   4
ATOM      4  CD  ARG D 557     -28.626  -0.235 -16.718  1.00 35.49     0.116 C 
BRANCH   4   5
ATOM      5  NE  ARG D 557     -27.605  -0.962 -16.011  1.00 35.49    -0.212 N 
ATOM      6  CZ  ARG D 557     -27.403  -2.259 -16.075  1.00 35.49     0.666 C 
ATOM      7  NH1 ARG D 557     -28.153  -3.059 -16.811  1.00 35.49    -0.235 N 
ATOM      8  NH2 ARG D 557     -26.416  -2.748 -15.382  1.00 35.49    -0.235 N 
ATOM      9  HH  ARG D 557     -28.806  -2.759 -17.277  1.00 35.49     0.174 HD
ATOM     10  HH  ARG D 557     -27.972  -3.896 -16.816  1.00 35.49     0.174 HD
ATOM     11  HH  ARG D 557     -25.944  -2.207 -14.921  1.00 35.49     0.174 HD
ATOM     12  HH  ARG D 557     -26.252  -3.580 -15.401  1.00 35.49     0.174 HD
ATOM     13  HE  ARG D 557     -27.122  -0.536 -15.457  1.00 35.49     0.178 HD
ENDBRANCH   4   5
ENDBRANCH   3   4
ENDBRANCH   2   3
ENDBRANCH   1   2
END_RES ARG D 557
BEGIN_RES GLU D 570
REMARK  3 active torsions:
REMARK  status: ('A' for Active; 'I' for Inactive)
REMARK    5  A    between atoms: CA   and  CB  
REMARK    6  A    between atoms: CB   and  CG  
REMARK    7  A    between atoms: CG   and  CD  
ROOT
ATOM     14  CA  GLU D 570     -18.033  -6.348 -13.375  1.00 32.92     0.160 C 
ENDROOT
BRANCH  14  15
ATOM     15  CB  GLU D 570     -19.500  -6.345 -13.794  1.00 32.92     0.043 C 
BRANCH  15  16
ATOM     16  CG  GLU D 570     -19.808  -6.669 -15.211  1.00 32.92     0.100 C 
BRANCH  16  17
ATOM     17  CD  GLU D 570     -20.767  -5.688 -15.845  1.00 32.92     0.185 C 
ATOM     18  OE1 GLU D 570     -20.775  -5.565 -17.085  1.00 32.92    -0.647 OA
ATOM     19  OE2 GLU D 570     -21.505  -5.023 -15.092  1.00 32.92    -0.647 OA
ENDBRANCH  16  17
ENDBRANCH  15  16
ENDBRANCH  14  15
END_RES GLU D 570
ENDMDL
