MODEL 1
REMARK VINA RESULT:      -7.1      0.000      0.000
REMARK  17 active torsions:
REMARK  status: ('A' for Active; 'I' for Inactive)
REMARK    1  A    between atoms: C_2  and  C_3 
REMARK    2  A    between atoms: C_3  and  C_4 
REMARK    3  A    between atoms: C_4  and  C_5 
REMARK    4  A    between atoms: C_5  and  C_6 
REMARK    5  A    between atoms: C_6  and  C_7 
REMARK    6  A    between atoms: C_7  and  C_8 
REMARK    7  A    between atoms: C_8  and  C_9 
REMARK    8  A    between atoms: C_10  and  C_11 
REMARK    9  A    between atoms: C_11  and  C_12 
REMARK   10  A    between atoms: C_12  and  C_13 
REMARK   11  A    between atoms: C_13  and  C_14 
REMARK   12  A    between atoms: C_14  and  C_15 
REMARK   13  A    between atoms: C_15  and  C_16 
REMARK   14  A    between atoms: C_16  and  C_17 
REMARK   15  A    between atoms: C_17  and  C_18 
REMARK   16  A    between atoms: C_18  and  O_20 
REMARK   17  A    between atoms: O_20  and  C_21 
ROOT
HETATM    1  C   UNL     1     -21.468  -5.857  -5.458  1.00  0.00     0.027 C 
ENDROOT
BRANCH   1   2
HETATM    2  C   UNL     1     -21.545  -6.804  -4.305  1.00  0.00    -0.031 C 
HETATM    3  C   UNL     1     -21.374  -6.406  -3.039  1.00  0.00    -0.031 C 
BRANCH   3   4
HETATM    4  C   UNL     1     -21.458  -7.351  -1.886  1.00  0.00     0.027 C 
BRANCH   4   5
HETATM    5  C   UNL     1     -22.364  -6.789  -0.799  1.00  0.00     0.004 C 
BRANCH   5   6
HETATM    6  C   UNL     1     -22.829  -7.908   0.122  1.00  0.00     0.000 C 
BRANCH   6   7
HETATM    7  C   UNL     1     -21.640  -8.730   0.591  1.00  0.00     0.000 C 
BRANCH   7   8
HETATM    8  C   UNL     1     -21.815 -10.186   0.187  1.00  0.00     0.000 C 
BRANCH   8   9
HETATM    9  C   UNL     1     -23.142 -10.378  -0.532  1.00  0.00    -0.000 C 
BRANCH   9  10
HETATM   10  C   UNL     1     -23.930 -11.522   0.091  1.00  0.00    -0.005 C 
HETATM   11  C   UNL     1     -22.989 -12.552   0.686  1.00  0.00     0.005 C 
ENDBRANCH   9  10
ENDBRANCH   8   9
ENDBRANCH   7   8
ENDBRANCH   6   7
ENDBRANCH   5   6
ENDBRANCH   4   5
ENDBRANCH   3   4
ENDBRANCH   1   2
BRANCH   1  12
HETATM   12  C   UNL     1     -20.218  -6.120  -6.286  1.00  0.00     0.004 C 
BRANCH  12  13
HETATM   13  C   UNL     1     -19.690  -4.815  -6.868  1.00  0.00     0.000 C 
BRANCH  13  14
HETATM   14  C   UNL     1     -20.840  -3.884  -7.224  1.00  0.00     0.000 C 
BRANCH  14  15
HETATM   15  C   UNL     1     -21.297  -4.117  -8.661  1.00  0.00     0.000 C 
BRANCH  15  16
HETATM   16  C   UNL     1     -22.818  -4.098  -8.744  1.00  0.00     0.010 C 
BRANCH  16  17
HETATM   17  C   UNL     1     -23.332  -4.469 -10.136  1.00  0.00     0.111 C 
BRANCH  17  18
HETATM   18  C   UNL     1     -24.259  -3.395 -10.648  1.00  0.00     0.258 C 
HETATM   19  O   UNL     1     -25.417  -3.232 -10.259  1.00  0.00    -0.265 OA
BRANCH  18  20
HETATM   20  O   UNL     1     -23.690  -2.718 -11.684  1.00  0.00    -0.322 OA
BRANCH  20  21
HETATM   21  C   UNL     1     -24.332  -2.946 -12.949  1.00  0.00     0.174 C 
HETATM   22  C   UNL     1     -23.255  -2.938 -14.022  1.00  0.00     0.034 C 
ENDBRANCH  20  21
ENDBRANCH  18  20
ENDBRANCH  17  18
ENDBRANCH  16  17
ENDBRANCH  15  16
ENDBRANCH  14  15
ENDBRANCH  13  14
ENDBRANCH  12  13
ENDBRANCH   1  12
TORSDOF 17
BEGIN_RES ARG D 557
REMARK  4 active torsions:
REMARK  status: ('A' for Active; 'I' for Inactive)
REMARK    1  A    between atoms: CA   and  CB  
REMARK    2  A    between atoms: CB   and  CG  
REMARK    3  A    between atoms: CG   and  CD  
REMARK    4  A    between atoms: CD   and  NE  
REMARK       I    between atoms: NE   and  CZ  
REMARK       I    between atoms: CZ   and  NH1 
REMARK       I    between atoms: CZ   and  NH2 
ROOT
ATOM      1  CA  ARG D 557     -26.217   2.705 -17.014  1.00 35.49     0.159 C 
ENDROOT
BRANCH   1   2
ATOM      2  CB  ARG D 557     -26.789   1.319 -17.183  1.00 35.49     0.034 C 
BRANCH   2   3
ATOM      3  CG  ARG D 557     -28.231   1.226 -17.443  1.00 35.49     0.027 C 
BRANCH   3   4
ATOM      4  CD  ARG D 557     -28.914   0.300 -16.512  1.00 35.49     0.116 C 
BRANCH   4   5
ATOM      5  NE  ARG D 557     -29.255  -0.948 -17.142  1.00 35.49    -0.212 N 
ATOM      6  CZ  ARG D 557     -28.596  -2.078 -17.015  1.00 35.49     0.666 C 
ATOM      7  NH1 ARG D 557     -27.505  -2.184 -16.280  1.00 35.49    -0.235 N 
ATOM      8  NH2 ARG D 557     -29.062  -3.119 -17.643  1.00 35.49    -0.235 N 
ATOM      9  HH  ARG D 557     -27.181  -1.513 -15.857  1.00 35.49     0.174 HD
ATOM     10  HH  ARG D 557     -27.118  -2.947 -16.233  1.00 35.49     0.174 HD
ATOM     11  HH  ARG D 557     -29.773  -3.023 -18.104  1.00 35.49     0.174 HD
ATOM     12  HH  ARG D 557     -28.666  -3.866 -17.582  1.00 35.49     0.174 HD
ATOM     13  HE  ARG D 557     -29.904  -0.954 -17.692  1.00 35.49     0.178 HD
ENDBRANCH   4   5
ENDBRANCH   3   4
ENDBRANCH   2   3
ENDBRANCH   1   2
END_RES ARG D 557
BEGIN_RES GLU D 570
REMARK  3 active torsions:
REMARK  status: ('A' for Active; 'I' for Inactive)
REMARK    5  A    between atoms: CA   and  CB  
REMARK    6  A    between atoms: CB   and  CG  
REMARK    7  A    between atoms: CG   and  CD  
ROOT
ATOM     14  CA  GLU D 570     -18.033  -6.348 -13.375  1.00 32.92     0.160 C 
ENDROOT
BRANCH  14  15
ATOM     15  CB  GLU D 570     -19.500  -6.345 -13.794  1.00 32.92     0.043 C 
BRANCH  15  16
ATOM     16  CG  GLU D 570     -19.803  -6.085 -15.225  1.00 32.92     0.100 C 
BRANCH  16  17
ATOM     17  CD  GLU D 570     -21.266  -5.803 -15.476  1.00 32.92     0.185 C 
ATOM     18  OE1 GLU D 570     -22.113  -6.250 -14.680  1.00 32.92    -0.647 OA
ATOM     19  OE2 GLU D 570     -21.568  -5.142 -16.490  1.00 32.92    -0.647 OA
ENDBRANCH  16  17
ENDBRANCH  15  16
ENDBRANCH  14  15
END_RES GLU D 570
ENDMDL
MODEL 2
REMARK VINA RESULT:      -6.9      1.957      2.512
REMARK  17 active torsions:
REMARK  status: ('A' for Active; 'I' for Inactive)
REMARK    1  A    between atoms: C_2  and  C_3 
REMARK    2  A    between atoms: C_3  and  C_4 
REMARK    3  A    between atoms: C_4  and  C_5 
REMARK    4  A    between atoms: C_5  and  C_6 
REMARK    5  A    between atoms: C_6  and  C_7 
REMARK    6  A    between atoms: C_7  and  C_8 
REMARK    7  A    between atoms: C_8  and  C_9 
REMARK    8  A    between atoms: C_10  and  C_11 
REMARK    9  A    between atoms: C_11  and  C_12 
REMARK   10  A    between atoms: C_12  and  C_13 
REMARK   11  A    between atoms: C_13  and  C_14 
REMARK   12  A    between atoms: C_14  and  C_15 
REMARK   13  A    between atoms: C_15  and  C_16 
REMARK   14  A    between atoms: C_16  and  C_17 
REMARK   15  A    between atoms: C_17  and  C_18 
REMARK   16  A    between atoms: C_18  and  O_20 
REMARK   17  A    between atoms: O_20  and  C_21 
ROOT
HETATM    1  C   UNL     1     -21.087  -7.115  -5.551  1.00  0.00     0.027 C 
ENDROOT
BRANCH   1   2
HETATM    2  C   UNL     1     -21.712  -6.412  -4.390  1.00  0.00    -0.031 C 
HETATM    3  C   UNL     1     -21.509  -6.799  -3.125  1.00  0.00    -0.031 C 
BRANCH   3   4
HETATM    4  C   UNL     1     -22.128  -6.093  -1.965  1.00  0.00     0.027 C 
BRANCH   4   5
HETATM    5  C   UNL     1     -22.368  -7.062  -0.815  1.00  0.00     0.004 C 
BRANCH   5   6
HETATM    6  C   UNL     1     -21.328  -8.172  -0.844  1.00  0.00     0.000 C 
BRANCH   6   7
HETATM    7  C   UNL     1     -21.846  -9.396  -0.107  1.00  0.00     0.000 C 
BRANCH   7   8
HETATM    8  C   UNL     1     -23.355  -9.305   0.069  1.00  0.00     0.000 C 
BRANCH   8   9
HETATM    9  C   UNL     1     -23.973 -10.695   0.049  1.00  0.00    -0.000 C 
BRANCH   9  10
HETATM   10  C   UNL     1     -23.882 -11.303  -1.344  1.00  0.00    -0.005 C 
HETATM   11  C   UNL     1     -23.513 -12.772  -1.258  1.00  0.00     0.005 C 
ENDBRANCH   9  10
ENDBRANCH   8   9
ENDBRANCH   7   8
ENDBRANCH   6   7
ENDBRANCH   5   6
ENDBRANCH   4   5
ENDBRANCH   3   4
ENDBRANCH   1   2
BRANCH   1  12
HETATM   12  C   UNL     1     -20.255  -6.147  -6.381  1.00  0.00     0.004 C 
BRANCH  12  13
HETATM   13  C   UNL     1     -20.712  -4.715  -6.130  1.00  0.00     0.000 C 
BRANCH  13  14
HETATM   14  C   UNL     1     -20.918  -3.981  -7.447  1.00  0.00     0.000 C 
BRANCH  14  15
HETATM   15  C   UNL     1     -20.165  -4.678  -8.576  1.00  0.00     0.000 C 
BRANCH  15  16
HETATM   16  C   UNL     1     -20.357  -3.925  -9.886  1.00  0.00     0.010 C 
BRANCH  16  17
HETATM   17  C   UNL     1     -21.418  -4.567 -10.780  1.00  0.00     0.111 C 
BRANCH  17  18
HETATM   18  C   UNL     1     -22.230  -3.499 -11.468  1.00  0.00     0.258 C 
HETATM   19  O   UNL     1     -21.806  -2.377 -11.752  1.00  0.00    -0.265 OA
BRANCH  18  20
HETATM   20  O   UNL     1     -23.526  -3.895 -11.616  1.00  0.00    -0.322 OA
BRANCH  20  21
HETATM   21  C   UNL     1     -24.097  -4.464 -10.428  1.00  0.00     0.174 C 
HETATM   22  C   UNL     1     -24.820  -3.352  -9.683  1.00  0.00     0.034 C 
ENDBRANCH  20  21
ENDBRANCH  18  20
ENDBRANCH  17  18
ENDBRANCH  16  17
ENDBRANCH  15  16
ENDBRANCH  14  15
ENDBRANCH  13  14
ENDBRANCH  12  13
ENDBRANCH   1  12
TORSDOF 17
BEGIN_RES ARG D 557
REMARK  4 active torsions:
REMARK  status: ('A' for Active; 'I' for Inactive)
REMARK    1  A    between atoms: CA   and  CB  
REMARK    2  A    between atoms: CB   and  CG  
REMARK    3  A    between atoms: CG   and  CD  
REMARK    4  A    between atoms: CD   and  NE  
REMARK       I    between atoms: NE   and  CZ  
REMARK       I    between atoms: CZ   and  NH1 
REMARK       I    between atoms: CZ   and  NH2 
ROOT
ATOM      1  CA  ARG D 557     -26.217   2.705 -17.014  1.00 35.49     0.159 C 
ENDROOT
BRANCH   1   2
ATOM      2  CB  ARG D 557     -26.789   1.319 -17.183  1.00 35.49     0.034 C 
BRANCH   2   3
ATOM      3  CG  ARG D 557     -25.834   0.204 -17.169  1.00 35.49     0.027 C 
BRANCH   3   4
ATOM      4  CD  ARG D 557     -25.264  -0.034 -15.823  1.00 35.49     0.116 C 
BRANCH   4   5
ATOM      5  NE  ARG D 557     -25.707  -1.282 -15.260  1.00 35.49    -0.212 N 
ATOM      6  CZ  ARG D 557     -25.042  -2.013 -14.394  1.00 35.49     0.666 C 
ATOM      7  NH1 ARG D 557     -23.848  -1.670 -13.946  1.00 35.49    -0.235 N 
ATOM      8  NH2 ARG D 557     -25.606  -3.107 -13.973  1.00 35.49    -0.235 N 
ATOM      9  HH  ARG D 557     -23.459  -0.953 -14.207  1.00 35.49     0.174 HD
ATOM     10  HH  ARG D 557     -23.463  -2.185 -13.379  1.00 35.49     0.174 HD
ATOM     11  HH  ARG D 557     -26.381  -3.300 -14.274  1.00 35.49     0.174 HD
ATOM     12  HH  ARG D 557     -25.210  -3.603 -13.410  1.00 35.49     0.174 HD
ATOM     13  HE  ARG D 557     -26.435  -1.615 -15.549  1.00 35.49     0.178 HD
ENDBRANCH   4   5
ENDBRANCH   3   4
ENDBRANCH   2   3
ENDBRANCH   1   2
END_RES ARG D 557
BEGIN_RES GLU D 570
REMARK  3 active torsions:
REMARK  status: ('A' for Active; 'I' for Inactive)
REMARK    5  A    between atoms: CA   and  CB  
REMARK    6  A    between atoms: CB   and  CG  
REMARK    7  A    between atoms: CG   and  CD  
ROOT
ATOM     14  CA  GLU D 570     -18.033  -6.348 -13.375  1.00 32.92     0.160 C 
ENDROOT
BRANCH  14  15
ATOM     15  CB  GLU D 570     -19.500  -6.345 -13.794  1.00 32.92     0.043 C 
BRANCH  15  16
ATOM     16  CG  GLU D 570     -20.057  -7.607 -14.346  1.00 32.92     0.100 C 
BRANCH  16  17
ATOM     17  CD  GLU D 570     -20.783  -7.407 -15.656  1.00 32.92     0.185 C 
ATOM     18  OE1 GLU D 570     -21.574  -8.286 -16.049  1.00 32.92    -0.647 OA
ATOM     19  OE2 GLU D 570     -20.546  -6.369 -16.304  1.00 32.92    -0.647 OA
ENDBRANCH  16  17
ENDBRANCH  15  16
ENDBRANCH  14  15
END_RES GLU D 570
ENDMDL
MODEL 3
REMARK VINA RESULT:      -6.7      1.230      2.040
REMARK  17 active torsions:
REMARK  status: ('A' for Active; 'I' for Inactive)
REMARK    1  A    between atoms: C_2  and  C_3 
REMARK    2  A    between atoms: C_3  and  C_4 
REMARK    3  A    between atoms: C_4  and  C_5 
REMARK    4  A    between atoms: C_5  and  C_6 
REMARK    5  A    between atoms: C_6  and  C_7 
REMARK    6  A    between atoms: C_7  and  C_8 
REMARK    7  A    between atoms: C_8  and  C_9 
REMARK    8  A    between atoms: C_10  and  C_11 
REMARK    9  A    between atoms: C_11  and  C_12 
REMARK   10  A    between atoms: C_12  and  C_13 
REMARK   11  A    between atoms: C_13  and  C_14 
REMARK   12  A    between atoms: C_14  and  C_15 
REMARK   13  A    between atoms: C_15  and  C_16 
REMARK   14  A    between atoms: C_16  and  C_17 
REMARK   15  A    between atoms: C_17  and  C_18 
REMARK   16  A    between atoms: C_18  and  O_20 
REMARK   17  A    between atoms: O_20  and  C_21 
ROOT
HETATM    1  C   UNL     1     -21.860  -6.039  -5.756  1.00  0.00     0.027 C 
ENDROOT
BRANCH   1   2
HETATM    2  C   UNL     1     -21.576  -7.333  -5.063  1.00  0.00    -0.031 C 
HETATM    3  C   UNL     1     -20.807  -7.405  -3.970  1.00  0.00    -0.031 C 
BRANCH   3   4
HETATM    4  C   UNL     1     -20.530  -8.697  -3.273  1.00  0.00     0.027 C 
BRANCH   4   5
HETATM    5  C   UNL     1     -21.716  -9.642  -3.407  1.00  0.00     0.004 C 
BRANCH   5   6
HETATM    6  C   UNL     1     -21.758 -10.595  -2.222  1.00  0.00     0.000 C 
BRANCH   6   7
HETATM    7  C   UNL     1     -23.193 -10.798  -1.763  1.00  0.00     0.000 C 
BRANCH   7   8
HETATM    8  C   UNL     1     -23.304 -10.566  -0.264  1.00  0.00     0.000 C 
BRANCH   8   9
HETATM    9  C   UNL     1     -22.327  -9.487   0.177  1.00  0.00    -0.000 C 
BRANCH   9  10
HETATM   10  C   UNL     1     -23.042  -8.154   0.353  1.00  0.00    -0.005 C 
HETATM   11  C   UNL     1     -22.473  -7.117  -0.596  1.00  0.00     0.005 C 
ENDBRANCH   9  10
ENDBRANCH   8   9
ENDBRANCH   7   8
ENDBRANCH   6   7
ENDBRANCH   5   6
ENDBRANCH   4   5
ENDBRANCH   3   4
ENDBRANCH   1   2
BRANCH   1  12
HETATM   12  C   UNL     1     -20.632  -5.139  -5.734  1.00  0.00     0.004 C 
BRANCH  12  13
HETATM   13  C   UNL     1     -20.700  -4.134  -6.877  1.00  0.00     0.000 C 
BRANCH  13  14
HETATM   14  C   UNL     1     -20.082  -4.718  -8.140  1.00  0.00     0.000 C 
BRANCH  14  15
HETATM   15  C   UNL     1     -20.897  -4.326  -9.369  1.00  0.00     0.000 C 
BRANCH  15  16
HETATM   16  C   UNL     1     -22.336  -4.020  -8.975  1.00  0.00     0.010 C 
BRANCH  16  17
HETATM   17  C   UNL     1     -23.345  -4.521 -10.010  1.00  0.00     0.111 C 
BRANCH  17  18
HETATM   18  C   UNL     1     -24.313  -3.421 -10.364  1.00  0.00     0.258 C 
HETATM   19  O   UNL     1     -25.074  -2.879  -9.559  1.00  0.00    -0.265 OA
BRANCH  18  20
HETATM   20  O   UNL     1     -24.327  -3.200 -11.708  1.00  0.00    -0.322 OA
BRANCH  20  21
HETATM   21  C   UNL     1     -23.098  -2.660 -12.219  1.00  0.00     0.174 C 
HETATM   22  C   UNL     1     -22.693  -3.492 -13.426  1.00  0.00     0.034 C 
ENDBRANCH  20  21
ENDBRANCH  18  20
ENDBRANCH  17  18
ENDBRANCH  16  17
ENDBRANCH  15  16
ENDBRANCH  14  15
ENDBRANCH  13  14
ENDBRANCH  12  13
ENDBRANCH   1  12
TORSDOF 17
BEGIN_RES ARG D 557
REMARK  4 active torsions:
REMARK  status: ('A' for Active; 'I' for Inactive)
REMARK    1  A    between atoms: CA   and  CB  
REMARK    2  A    between atoms: CB   and  CG  
REMARK    3  A    between atoms: CG   and  CD  
REMARK    4  A    between atoms: CD   and  NE  
REMARK       I    between atoms: NE   and  CZ  
REMARK       I    between atoms: CZ   and  NH1 
REMARK       I    between atoms: CZ   and  NH2 
ROOT
ATOM      1  CA  ARG D 557     -26.217   2.705 -17.014  1.00 35.49     0.159 C 
ENDROOT
BRANCH   1   2
ATOM      2  CB  ARG D 557     -26.789   1.319 -17.183  1.00 35.49     0.034 C 
BRANCH   2   3
ATOM      3  CG  ARG D 557     -28.231   1.226 -17.439  1.00 35.49     0.027 C 
BRANCH   3   4
ATOM      4  CD  ARG D 557     -28.913   0.305 -16.501  1.00 35.49     0.116 C 
BRANCH   4   5
ATOM      5  NE  ARG D 557     -28.134  -0.876 -16.239  1.00 35.49    -0.212 N 
ATOM      6  CZ  ARG D 557     -28.378  -2.078 -16.712  1.00 35.49     0.666 C 
ATOM      7  NH1 ARG D 557     -29.410  -2.336 -17.494  1.00 35.49    -0.235 N 
ATOM      8  NH2 ARG D 557     -27.552  -3.030 -16.387  1.00 35.49    -0.235 N 
ATOM      9  HH  ARG D 557     -29.965  -1.724 -17.722  1.00 35.49     0.174 HD
ATOM     10  HH  ARG D 557     -29.517  -3.138 -17.774  1.00 35.49     0.174 HD
ATOM     11  HH  ARG D 557     -26.891  -2.832 -15.886  1.00 35.49     0.174 HD
ATOM     12  HH  ARG D 557     -27.675  -3.817 -16.676  1.00 35.49     0.174 HD
ATOM     13  HE  ARG D 557     -27.491  -0.816 -15.685  1.00 35.49     0.178 HD
ENDBRANCH   4   5
ENDBRANCH   3   4
ENDBRANCH   2   3
ENDBRANCH   1   2
END_RES ARG D 557
BEGIN_RES GLU D 570
REMARK  3 active torsions:
REMARK  status: ('A' for Active; 'I' for Inactive)
REMARK    5  A    between atoms: CA   and  CB  
REMARK    6  A    between atoms: CB   and  CG  
REMARK    7  A    between atoms: CG   and  CD  
ROOT
ATOM     14  CA  GLU D 570     -18.033  -6.348 -13.375  1.00 32.92     0.160 C 
ENDROOT
BRANCH  14  15
ATOM     15  CB  GLU D 570     -19.500  -6.345 -13.794  1.00 32.92     0.043 C 
BRANCH  15  16
ATOM     16  CG  GLU D 570     -19.798  -6.200 -15.242  1.00 32.92     0.100 C 
BRANCH  16  17
ATOM     17  CD  GLU D 570     -20.708  -7.286 -15.768  1.00 32.92     0.185 C 
ATOM     18  OE1 GLU D 570     -20.543  -8.457 -15.375  1.00 32.92    -0.647 OA
ATOM     19  OE2 GLU D 570     -21.584  -6.965 -16.595  1.00 32.92    -0.647 OA
ENDBRANCH  16  17
ENDBRANCH  15  16
ENDBRANCH  14  15
END_RES GLU D 570
ENDMDL
MODEL 4
REMARK VINA RESULT:      -6.6      1.559      2.711
REMARK  17 active torsions:
REMARK  status: ('A' for Active; 'I' for Inactive)
REMARK    1  A    between atoms: C_2  and  C_3 
REMARK    2  A    between atoms: C_3  and  C_4 
REMARK    3  A    between atoms: C_4  and  C_5 
REMARK    4  A    between atoms: C_5  and  C_6 
REMARK    5  A    between atoms: C_6  and  C_7 
REMARK    6  A    between atoms: C_7  and  C_8 
REMARK    7  A    between atoms: C_8  and  C_9 
REMARK    8  A    between atoms: C_10  and  C_11 
REMARK    9  A    between atoms: C_11  and  C_12 
REMARK   10  A    between atoms: C_12  and  C_13 
REMARK   11  A    between atoms: C_13  and  C_14 
REMARK   12  A    between atoms: C_14  and  C_15 
REMARK   13  A    between atoms: C_15  and  C_16 
REMARK   14  A    between atoms: C_16  and  C_17 
REMARK   15  A    between atoms: C_17  and  C_18 
REMARK   16  A    between atoms: C_18  and  O_20 
REMARK   17  A    between atoms: O_20  and  C_21 
ROOT
HETATM    1  C   UNL     1     -21.372  -5.993  -3.274  1.00  0.00     0.027 C 
ENDROOT
BRANCH   1   2
HETATM    2  C   UNL     1     -22.219  -6.318  -2.087  1.00  0.00    -0.031 C 
HETATM    3  C   UNL     1     -21.885  -7.270  -1.208  1.00  0.00    -0.031 C 
BRANCH   3   4
HETATM    4  C   UNL     1     -22.728  -7.591  -0.019  1.00  0.00     0.027 C 
BRANCH   4   5
HETATM    5  C   UNL     1     -22.730  -9.090   0.246  1.00  0.00     0.004 C 
BRANCH   5   6
HETATM    6  C   UNL     1     -21.319  -9.567   0.556  1.00  0.00     0.000 C 
BRANCH   6   7
HETATM    7  C   UNL     1     -21.091 -10.951  -0.029  1.00  0.00     0.000 C 
BRANCH   7   8
HETATM    8  C   UNL     1     -19.828 -10.964  -0.876  1.00  0.00     0.000 C 
BRANCH   8   9
HETATM    9  C   UNL     1     -20.080 -10.275  -2.209  1.00  0.00    -0.000 C 
BRANCH   9  10
HETATM   10  C   UNL     1     -19.018  -9.218  -2.476  1.00  0.00    -0.005 C 
HETATM   11  C   UNL     1     -18.481  -9.349  -3.889  1.00  0.00     0.005 C 
ENDBRANCH   9  10
ENDBRANCH   8   9
ENDBRANCH   7   8
ENDBRANCH   6   7
ENDBRANCH   5   6
ENDBRANCH   4   5
ENDBRANCH   3   4
ENDBRANCH   1   2
BRANCH   1  12
HETATM   12  C   UNL     1     -21.392  -7.137  -4.278  1.00  0.00     0.004 C 
BRANCH  12  13
HETATM   13  C   UNL     1     -20.728  -6.704  -5.580  1.00  0.00     0.000 C 
BRANCH  13  14
HETATM   14  C   UNL     1     -20.368  -5.226  -5.530  1.00  0.00     0.000 C 
BRANCH  14  15
HETATM   15  C   UNL     1     -20.218  -4.661  -6.940  1.00  0.00     0.000 C 
BRANCH  15  16
HETATM   16  C   UNL     1     -21.333  -3.665  -7.233  1.00  0.00     0.010 C 
BRANCH  16  17
HETATM   17  C   UNL     1     -22.685  -4.348  -7.450  1.00  0.00     0.111 C 
BRANCH  17  18
HETATM   18  C   UNL     1     -23.178  -4.085  -8.850  1.00  0.00     0.258 C 
HETATM   19  O   UNL     1     -24.198  -3.446  -9.120  1.00  0.00    -0.265 OA
BRANCH  18  20
HETATM   20  O   UNL     1     -22.422  -4.754  -9.764  1.00  0.00    -0.322 OA
BRANCH  20  21
HETATM   21  C   UNL     1     -22.028  -3.953 -10.890  1.00  0.00     0.174 C 
HETATM   22  C   UNL     1     -20.523  -4.092 -11.052  1.00  0.00     0.034 C 
ENDBRANCH  20  21
ENDBRANCH  18  20
ENDBRANCH  17  18
ENDBRANCH  16  17
ENDBRANCH  15  16
ENDBRANCH  14  15
ENDBRANCH  13  14
ENDBRANCH  12  13
ENDBRANCH   1  12
TORSDOF 17
BEGIN_RES ARG D 557
REMARK  4 active torsions:
REMARK  status: ('A' for Active; 'I' for Inactive)
REMARK    1  A    between atoms: CA   and  CB  
REMARK    2  A    between atoms: CB   and  CG  
REMARK    3  A    between atoms: CG   and  CD  
REMARK    4  A    between atoms: CD   and  NE  
REMARK       I    between atoms: NE   and  CZ  
REMARK       I    between atoms: CZ   and  NH1 
REMARK       I    between atoms: CZ   and  NH2 
ROOT
ATOM      1  CA  ARG D 557     -26.217   2.705 -17.014  1.00 35.49     0.159 C 
ENDROOT
BRANCH   1   2
ATOM      2  CB  ARG D 557     -26.789   1.319 -17.183  1.00 35.49     0.034 C 
BRANCH   2   3
ATOM      3  CG  ARG D 557     -28.229   1.227 -17.451  1.00 35.49     0.027 C 
BRANCH   3   4
ATOM      4  CD  ARG D 557     -28.920   0.309 -16.516  1.00 35.49     0.116 C 
BRANCH   4   5
ATOM      5  NE  ARG D 557     -28.145  -0.873 -16.245  1.00 35.49    -0.212 N 
ATOM      6  CZ  ARG D 557     -28.385  -2.074 -16.721  1.00 35.49     0.666 C 
ATOM      7  NH1 ARG D 557     -29.409  -2.332 -17.514  1.00 35.49    -0.235 N 
ATOM      8  NH2 ARG D 557     -27.564  -3.027 -16.386  1.00 35.49    -0.235 N 
ATOM      9  HH  ARG D 557     -29.961  -1.719 -17.748  1.00 35.49     0.174 HD
ATOM     10  HH  ARG D 557     -29.514  -3.134 -17.795  1.00 35.49     0.174 HD
ATOM     11  HH  ARG D 557     -26.908  -2.830 -15.879  1.00 35.49     0.174 HD
ATOM     12  HH  ARG D 557     -27.684  -3.815 -16.677  1.00 35.49     0.174 HD
ATOM     13  HE  ARG D 557     -27.508  -0.813 -15.685  1.00 35.49     0.178 HD
ENDBRANCH   4   5
ENDBRANCH   3   4
ENDBRANCH   2   3
ENDBRANCH   1   2
END_RES ARG D 557
BEGIN_RES GLU D 570
REMARK  3 active torsions:
REMARK  status: ('A' for Active; 'I' for Inactive)
REMARK    5  A    between atoms: CA   and  CB  
REMARK    6  A    between atoms: CB   and  CG  
REMARK    7  A    between atoms: CG   and  CD  
ROOT
ATOM     14  CA  GLU D 570     -18.033  -6.348 -13.375  1.00 32.92     0.160 C 
ENDROOT
BRANCH  14  15
ATOM     15  CB  GLU D 570     -19.500  -6.345 -13.794  1.00 32.92     0.043 C 
BRANCH  15  16
ATOM     16  CG  GLU D 570     -19.809  -5.979 -15.200  1.00 32.92     0.100 C 
BRANCH  16  17
ATOM     17  CD  GLU D 570     -21.163  -5.326 -15.355  1.00 32.92     0.185 C 
ATOM     18  OE1 GLU D 570     -21.882  -5.177 -14.349  1.00 32.92    -0.647 OA
ATOM     19  OE2 GLU D 570     -21.515  -4.974 -16.498  1.00 32.92    -0.647 OA
ENDBRANCH  16  17
ENDBRANCH  15  16
ENDBRANCH  14  15
END_RES GLU D 570
ENDMDL
MODEL 5
REMARK VINA RESULT:      -6.6      2.393      4.879
REMARK  17 active torsions:
REMARK  status: ('A' for Active; 'I' for Inactive)
REMARK    1  A    between atoms: C_2  and  C_3 
REMARK    2  A    between atoms: C_3  and  C_4 
REMARK    3  A    between atoms: C_4  and  C_5 
REMARK    4  A    between atoms: C_5  and  C_6 
REMARK    5  A    between atoms: C_6  and  C_7 
REMARK    6  A    between atoms: C_7  and  C_8 
REMARK    7  A    between atoms: C_8  and  C_9 
REMARK    8  A    between atoms: C_10  and  C_11 
REMARK    9  A    between atoms: C_11  and  C_12 
REMARK   10  A    between atoms: C_12  and  C_13 
REMARK   11  A    between atoms: C_13  and  C_14 
REMARK   12  A    between atoms: C_14  and  C_15 
REMARK   13  A    between atoms: C_15  and  C_16 
REMARK   14  A    between atoms: C_16  and  C_17 
REMARK   15  A    between atoms: C_17  and  C_18 
REMARK   16  A    between atoms: C_18  and  O_20 
REMARK   17  A    between atoms: O_20  and  C_21 
ROOT
HETATM    1  C   UNL     1     -23.676  -4.342  -9.445  1.00  0.00     0.027 C 
ENDROOT
BRANCH   1   2
HETATM    2  C   UNL     1     -22.387  -4.042  -8.751  1.00  0.00    -0.031 C 
HETATM    3  C   UNL     1     -22.198  -4.294  -7.451  1.00  0.00    -0.031 C 
BRANCH   3   4
HETATM    4  C   UNL     1     -20.908  -4.001  -6.759  1.00  0.00     0.027 C 
BRANCH   4   5
HETATM    5  C   UNL     1     -20.570  -5.105  -5.767  1.00  0.00     0.004 C 
BRANCH   5   6
HETATM    6  C   UNL     1     -21.547  -6.262  -5.922  1.00  0.00     0.000 C 
BRANCH   6   7
HETATM    7  C   UNL     1     -21.579  -7.095  -4.651  1.00  0.00     0.000 C 
BRANCH   7   8
HETATM    8  C   UNL     1     -21.470  -6.196  -3.429  1.00  0.00     0.000 C 
BRANCH   8   9
HETATM    9  C   UNL     1     -21.243  -7.032  -2.178  1.00  0.00    -0.000 C 
BRANCH   9  10
HETATM   10  C   UNL     1     -22.311  -6.738  -1.134  1.00  0.00    -0.005 C 
HETATM   11  C   UNL     1     -22.235  -7.742   0.000  1.00  0.00     0.005 C 
ENDBRANCH   9  10
ENDBRANCH   8   9
ENDBRANCH   7   8
ENDBRANCH   6   7
ENDBRANCH   5   6
ENDBRANCH   4   5
ENDBRANCH   3   4
ENDBRANCH   1   2
BRANCH   1  12
HETATM   12  C   UNL     1     -23.672  -3.771 -10.856  1.00  0.00     0.004 C 
BRANCH  12  13
HETATM   13  C   UNL     1     -22.273  -3.858 -11.453  1.00  0.00     0.000 C 
BRANCH  13  14
HETATM   14  C   UNL     1     -22.341  -4.269 -12.917  1.00  0.00     0.000 C 
BRANCH  14  15
HETATM   15  C   UNL     1     -23.392  -5.355 -13.123  1.00  0.00     0.000 C 
BRANCH  15  16
HETATM   16  C   UNL     1     -23.597  -5.620 -14.609  1.00  0.00     0.010 C 
BRANCH  16  17
HETATM   17  C   UNL     1     -25.071  -5.578 -15.013  1.00  0.00     0.111 C 
BRANCH  17  18
HETATM   18  C   UNL     1     -25.381  -6.712 -15.958  1.00  0.00     0.258 C 
HETATM   19  O   UNL     1     -24.826  -6.882 -17.046  1.00  0.00    -0.265 OA
BRANCH  18  20
HETATM   20  O   UNL     1     -26.440  -7.443 -15.509  1.00  0.00    -0.322 OA
BRANCH  20  21
HETATM   21  C   UNL     1     -27.671  -6.705 -15.453  1.00  0.00     0.174 C 
HETATM   22  C   UNL     1     -28.221  -6.616 -16.868  1.00  0.00     0.034 C 
ENDBRANCH  20  21
ENDBRANCH  18  20
ENDBRANCH  17  18
ENDBRANCH  16  17
ENDBRANCH  15  16
ENDBRANCH  14  15
ENDBRANCH  13  14
ENDBRANCH  12  13
ENDBRANCH   1  12
TORSDOF 17
BEGIN_RES ARG D 557
REMARK  4 active torsions:
REMARK  status: ('A' for Active; 'I' for Inactive)
REMARK    1  A    between atoms: CA   and  CB  
REMARK    2  A    between atoms: CB   and  CG  
REMARK    3  A    between atoms: CG   and  CD  
REMARK    4  A    between atoms: CD   and  NE  
REMARK       I    between atoms: NE   and  CZ  
REMARK       I    between atoms: CZ   and  NH1 
REMARK       I    between atoms: CZ   and  NH2 
ROOT
ATOM      1  CA  ARG D 557     -26.217   2.705 -17.014  1.00 35.49     0.159 C 
ENDROOT
BRANCH   1   2
ATOM      2  CB  ARG D 557     -26.789   1.319 -17.183  1.00 35.49     0.034 C 
BRANCH   2   3
ATOM      3  CG  ARG D 557     -28.222   1.228 -17.491  1.00 35.49     0.027 C 
BRANCH   3   4
ATOM      4  CD  ARG D 557     -28.923   0.249 -16.629  1.00 35.49     0.116 C 
BRANCH   4   5
ATOM      5  NE  ARG D 557     -28.116  -0.911 -16.359  1.00 35.49    -0.212 N 
ATOM      6  CZ  ARG D 557     -28.382  -2.139 -16.744  1.00 35.49     0.666 C 
ATOM      7  NH1 ARG D 557     -29.466  -2.447 -17.433  1.00 35.49    -0.235 N 
ATOM      8  NH2 ARG D 557     -27.526  -3.067 -16.428  1.00 35.49    -0.235 N 
ATOM      9  HH  ARG D 557     -30.042  -1.852 -17.653  1.00 35.49     0.174 HD
ATOM     10  HH  ARG D 557     -29.586  -3.264 -17.659  1.00 35.49     0.174 HD
ATOM     11  HH  ARG D 557     -26.831  -2.838 -15.990  1.00 35.49     0.174 HD
ATOM     12  HH  ARG D 557     -27.662  -3.870 -16.663  1.00 35.49     0.174 HD
ATOM     13  HE  ARG D 557     -27.435  -0.816 -15.858  1.00 35.49     0.178 HD
ENDBRANCH   4   5
ENDBRANCH   3   4
ENDBRANCH   2   3
ENDBRANCH   1   2
END_RES ARG D 557
BEGIN_RES GLU D 570
REMARK  3 active torsions:
REMARK  status: ('A' for Active; 'I' for Inactive)
REMARK    5  A    between atoms: CA   and  CB  
REMARK    6  A    between atoms: CB   and  CG  
REMARK    7  A    between atoms: CG   and  CD  
ROOT
ATOM     14  CA  GLU D 570     -18.033  -6.348 -13.375  1.00 32.92     0.160 C 
ENDROOT
BRANCH  14  15
ATOM     15  CB  GLU D 570     -19.500  -6.345 -13.794  1.00 32.92     0.043 C 
BRANCH  15  16
ATOM     16  CG  GLU D 570     -20.087  -7.635 -14.239  1.00 32.92     0.100 C 
BRANCH  16  17
ATOM     17  CD  GLU D 570     -20.642  -7.577 -15.643  1.00 32.92     0.185 C 
ATOM     18  OE1 GLU D 570     -20.578  -6.505 -16.275  1.00 32.92    -0.647 OA
ATOM     19  OE2 GLU D 570     -21.162  -8.609 -16.110  1.00 32.92    -0.647 OA
ENDBRANCH  16  17
ENDBRANCH  15  16
ENDBRANCH  14  15
END_RES GLU D 570
ENDMDL
MODEL 6
REMARK VINA RESULT:      -6.6      2.310      3.758
REMARK  17 active torsions:
REMARK  status: ('A' for Active; 'I' for Inactive)
REMARK    1  A    between atoms: C_2  and  C_3 
REMARK    2  A    between atoms: C_3  and  C_4 
REMARK    3  A    between atoms: C_4  and  C_5 
REMARK    4  A    between atoms: C_5  and  C_6 
REMARK    5  A    between atoms: C_6  and  C_7 
REMARK    6  A    between atoms: C_7  and  C_8 
REMARK    7  A    between atoms: C_8  and  C_9 
REMARK    8  A    between atoms: C_10  and  C_11 
REMARK    9  A    between atoms: C_11  and  C_12 
REMARK   10  A    between atoms: C_12  and  C_13 
REMARK   11  A    between atoms: C_13  and  C_14 
REMARK   12  A    between atoms: C_14  and  C_15 
REMARK   13  A    between atoms: C_15  and  C_16 
REMARK   14  A    between atoms: C_16  and  C_17 
REMARK   15  A    between atoms: C_17  and  C_18 
REMARK   16  A    between atoms: C_18  and  O_20 
REMARK   17  A    between atoms: O_20  and  C_21 
ROOT
HETATM    1  C   UNL     1     -21.947  -6.043  -2.466  1.00  0.00     0.027 C 
ENDROOT
BRANCH   1   2
HETATM    2  C   UNL     1     -22.385  -6.669  -1.181  1.00  0.00    -0.031 C 
HETATM    3  C   UNL     1     -21.843  -7.800  -0.714  1.00  0.00    -0.031 C 
BRANCH   3   4
HETATM    4  C   UNL     1     -22.275  -8.421   0.572  1.00  0.00     0.027 C 
BRANCH   4   5
HETATM    5  C   UNL     1     -23.499  -9.300   0.356  1.00  0.00     0.004 C 
BRANCH   5   6
HETATM    6  C   UNL     1     -23.135 -10.497  -0.511  1.00  0.00     0.000 C 
BRANCH   6   7
HETATM    7  C   UNL     1     -22.134 -11.383   0.212  1.00  0.00     0.000 C 
BRANCH   7   8
HETATM    8  C   UNL     1     -21.119 -11.943  -0.774  1.00  0.00     0.000 C 
BRANCH   8   9
HETATM    9  C   UNL     1     -19.969 -10.964  -0.960  1.00  0.00    -0.000 C 
BRANCH   9  10
HETATM   10  C   UNL     1     -19.909 -10.474  -2.400  1.00  0.00    -0.005 C 
HETATM   11  C   UNL     1     -18.634  -9.688  -2.641  1.00  0.00     0.005 C 
ENDBRANCH   9  10
ENDBRANCH   8   9
ENDBRANCH   7   8
ENDBRANCH   6   7
ENDBRANCH   5   6
ENDBRANCH   4   5
ENDBRANCH   3   4
ENDBRANCH   1   2
BRANCH   1  12
HETATM   12  C   UNL     1     -21.001  -6.968  -3.218  1.00  0.00     0.004 C 
BRANCH  12  13
HETATM   13  C   UNL     1     -21.696  -7.544  -4.445  1.00  0.00     0.000 C 
BRANCH  13  14
HETATM   14  C   UNL     1     -21.110  -6.951  -5.719  1.00  0.00     0.000 C 
BRANCH  14  15
HETATM   15  C   UNL     1     -21.840  -5.666  -6.100  1.00  0.00     0.000 C 
BRANCH  15  16
HETATM   16  C   UNL     1     -20.839  -4.566  -6.429  1.00  0.00     0.010 C 
BRANCH  16  17
HETATM   17  C   UNL     1     -21.315  -3.665  -7.570  1.00  0.00     0.111 C 
BRANCH  17  18
HETATM   18  C   UNL     1     -20.927  -4.264  -8.898  1.00  0.00     0.258 C 
HETATM   19  O   UNL     1     -19.815  -4.731  -9.153  1.00  0.00    -0.265 OA
BRANCH  18  20
HETATM   20  O   UNL     1     -21.925  -4.103  -9.812  1.00  0.00    -0.322 OA
BRANCH  20  21
HETATM   21  C   UNL     1     -23.205  -3.815  -9.228  1.00  0.00     0.174 C 
HETATM   22  C   UNL     1     -24.259  -4.556 -10.036  1.00  0.00     0.034 C 
ENDBRANCH  20  21
ENDBRANCH  18  20
ENDBRANCH  17  18
ENDBRANCH  16  17
ENDBRANCH  15  16
ENDBRANCH  14  15
ENDBRANCH  13  14
ENDBRANCH  12  13
ENDBRANCH   1  12
TORSDOF 17
BEGIN_RES ARG D 557
REMARK  4 active torsions:
REMARK  status: ('A' for Active; 'I' for Inactive)
REMARK    1  A    between atoms: CA   and  CB  
REMARK    2  A    between atoms: CB   and  CG  
REMARK    3  A    between atoms: CG   and  CD  
REMARK    4  A    between atoms: CD   and  NE  
REMARK       I    between atoms: NE   and  CZ  
REMARK       I    between atoms: CZ   and  NH1 
REMARK       I    between atoms: CZ   and  NH2 
ROOT
ATOM      1  CA  ARG D 557     -26.217   2.705 -17.014  1.00 35.49     0.159 C 
ENDROOT
BRANCH   1   2
ATOM      2  CB  ARG D 557     -26.789   1.319 -17.183  1.00 35.49     0.034 C 
BRANCH   2   3
ATOM      3  CG  ARG D 557     -25.836   0.203 -17.156  1.00 35.49     0.027 C 
BRANCH   3   4
ATOM      4  CD  ARG D 557     -24.768   0.397 -16.149  1.00 35.49     0.116 C 
BRANCH   4   5
ATOM      5  NE  ARG D 557     -24.935  -0.464 -15.008  1.00 35.49    -0.212 N 
ATOM      6  CZ  ARG D 557     -24.124  -1.435 -14.653  1.00 35.49     0.666 C 
ATOM      7  NH1 ARG D 557     -23.038  -1.738 -15.340  1.00 35.49    -0.235 N 
ATOM      8  NH2 ARG D 557     -24.421  -2.101 -13.575  1.00 35.49    -0.235 N 
ATOM      9  HH  ARG D 557     -22.822  -1.312 -16.050  1.00 35.49     0.174 HD
ATOM     10  HH  ARG D 557     -22.544  -2.380 -15.058  1.00 35.49     0.174 HD
ATOM     11  HH  ARG D 557     -25.124  -1.878 -13.147  1.00 35.49     0.174 HD
ATOM     12  HH  ARG D 557     -23.919  -2.732 -13.312  1.00 35.49     0.174 HD
ATOM     13  HE  ARG D 557     -25.648  -0.386 -14.550  1.00 35.49     0.178 HD
ENDBRANCH   4   5
ENDBRANCH   3   4
ENDBRANCH   2   3
ENDBRANCH   1   2
END_RES ARG D 557
BEGIN_RES GLU D 570
REMARK  3 active torsions:
REMARK  status: ('A' for Active; 'I' for Inactive)
REMARK    5  A    between atoms: CA   and  CB  
REMARK    6  A    between atoms: CB   and  CG  
REMARK    7  A    between atoms: CG   and  CD  
ROOT
ATOM     14  CA  GLU D 570     -18.033  -6.348 -13.375  1.00 32.92     0.160 C 
ENDROOT
BRANCH  14  15
ATOM     15  CB  GLU D 570     -19.500  -6.345 -13.794  1.00 32.92     0.043 C 
BRANCH  15  16
ATOM     16  CG  GLU D 570     -20.448  -5.558 -12.963  1.00 32.92     0.100 C 
BRANCH  16  17
ATOM     17  CD  GLU D 570     -21.656  -5.083 -13.736  1.00 32.92     0.185 C 
ATOM     18  OE1 GLU D 570     -22.357  -4.170 -13.261  1.00 32.92    -0.647 OA
ATOM     19  OE2 GLU D 570     -21.912  -5.642 -14.821  1.00 32.92    -0.647 OA
ENDBRANCH  16  17
ENDBRANCH  15  16
ENDBRANCH  14  15
END_RES GLU D 570
ENDMDL
MODEL 7
REMARK VINA RESULT:      -6.6      3.697      9.066
REMARK  17 active torsions:
REMARK  status: ('A' for Active; 'I' for Inactive)
REMARK    1  A    between atoms: C_2  and  C_3 
REMARK    2  A    between atoms: C_3  and  C_4 
REMARK    3  A    between atoms: C_4  and  C_5 
REMARK    4  A    between atoms: C_5  and  C_6 
REMARK    5  A    between atoms: C_6  and  C_7 
REMARK    6  A    between atoms: C_7  and  C_8 
REMARK    7  A    between atoms: C_8  and  C_9 
REMARK    8  A    between atoms: C_10  and  C_11 
REMARK    9  A    between atoms: C_11  and  C_12 
REMARK   10  A    between atoms: C_12  and  C_13 
REMARK   11  A    between atoms: C_13  and  C_14 
REMARK   12  A    between atoms: C_14  and  C_15 
REMARK   13  A    between atoms: C_15  and  C_16 
REMARK   14  A    between atoms: C_16  and  C_17 
REMARK   15  A    between atoms: C_17  and  C_18 
REMARK   16  A    between atoms: C_18  and  O_20 
REMARK   17  A    between atoms: O_20  and  C_21 
ROOT
HETATM    1  C   UNL     1     -20.401  -5.862  -5.354  1.00  0.00     0.027 C 
ENDROOT
BRANCH   1   2
HETATM    2  C   UNL     1     -20.790  -4.821  -6.353  1.00  0.00    -0.031 C 
HETATM    3  C   UNL     1     -21.960  -4.854  -7.003  1.00  0.00    -0.031 C 
BRANCH   3   4
HETATM    4  C   UNL     1     -22.352  -3.810  -7.996  1.00  0.00     0.027 C 
BRANCH   4   5
HETATM    5  C   UNL     1     -23.728  -4.112  -8.573  1.00  0.00     0.004 C 
BRANCH   5   6
HETATM    6  C   UNL     1     -23.869  -3.471  -9.946  1.00  0.00     0.000 C 
BRANCH   6   7
HETATM    7  C   UNL     1     -23.825  -4.537 -11.029  1.00  0.00     0.000 C 
BRANCH   7   8
HETATM    8  C   UNL     1     -22.451  -4.566 -11.682  1.00  0.00     0.000 C 
BRANCH   8   9
HETATM    9  C   UNL     1     -21.822  -3.181 -11.649  1.00  0.00    -0.000 C 
BRANCH   9  10
HETATM   10  C   UNL     1     -20.386  -3.255 -11.150  1.00  0.00    -0.005 C 
HETATM   11  C   UNL     1     -20.079  -4.642 -10.619  1.00  0.00     0.005 C 
ENDBRANCH   9  10
ENDBRANCH   8   9
ENDBRANCH   7   8
ENDBRANCH   6   7
ENDBRANCH   5   6
ENDBRANCH   4   5
ENDBRANCH   3   4
ENDBRANCH   1   2
BRANCH   1  12
HETATM   12  C   UNL     1     -21.626  -6.620  -4.865  1.00  0.00     0.004 C 
BRANCH  12  13
HETATM   13  C   UNL     1     -21.415  -7.088  -3.430  1.00  0.00     0.000 C 
BRANCH  13  14
HETATM   14  C   UNL     1     -21.929  -6.045  -2.447  1.00  0.00     0.000 C 
BRANCH  14  15
HETATM   15  C   UNL     1     -22.321  -6.698  -1.125  1.00  0.00     0.000 C 
BRANCH  15  16
HETATM   16  C   UNL     1     -21.619  -8.041  -0.969  1.00  0.00     0.010 C 
BRANCH  16  17
HETATM   17  C   UNL     1     -21.406  -8.422   0.497  1.00  0.00     0.111 C 
BRANCH  17  18
HETATM   18  C   UNL     1     -21.124  -9.899   0.612  1.00  0.00     0.258 C 
HETATM   19  O   UNL     1     -20.398 -10.404   1.471  1.00  0.00    -0.265 OA
BRANCH  18  20
HETATM   20  O   UNL     1     -21.672 -10.580  -0.433  1.00  0.00    -0.322 OA
BRANCH  20  21
HETATM   21  C   UNL     1     -22.605 -11.597  -0.037  1.00  0.00     0.174 C 
HETATM   22  C   UNL     1     -24.005 -11.015  -0.162  1.00  0.00     0.034 C 
ENDBRANCH  20  21
ENDBRANCH  18  20
ENDBRANCH  17  18
ENDBRANCH  16  17
ENDBRANCH  15  16
ENDBRANCH  14  15
ENDBRANCH  13  14
ENDBRANCH  12  13
ENDBRANCH   1  12
TORSDOF 17
BEGIN_RES ARG D 557
REMARK  4 active torsions:
REMARK  status: ('A' for Active; 'I' for Inactive)
REMARK    1  A    between atoms: CA   and  CB  
REMARK    2  A    between atoms: CB   and  CG  
REMARK    3  A    between atoms: CG   and  CD  
REMARK    4  A    between atoms: CD   and  NE  
REMARK       I    between atoms: NE   and  CZ  
REMARK       I    between atoms: CZ   and  NH1 
REMARK       I    between atoms: CZ   and  NH2 
ROOT
ATOM      1  CA  ARG D 557     -26.217   2.705 -17.014  1.00 35.49     0.159 C 
ENDROOT
BRANCH   1   2
ATOM      2  CB  ARG D 557     -26.789   1.319 -17.183  1.00 35.49     0.034 C 
BRANCH   2   3
ATOM      3  CG  ARG D 557     -28.228   1.227 -17.459  1.00 35.49     0.027 C 
BRANCH   3   4
ATOM      4  CD  ARG D 557     -28.913   0.263 -16.569  1.00 35.49     0.116 C 
BRANCH   4   5
ATOM      5  NE  ARG D 557     -28.051  -0.822 -16.178  1.00 35.49    -0.212 N 
ATOM      6  CZ  ARG D 557     -28.147  -2.066 -16.590  1.00 35.49     0.666 C 
ATOM      7  NH1 ARG D 557     -29.088  -2.466 -17.426  1.00 35.49    -0.235 N 
ATOM      8  NH2 ARG D 557     -27.264  -2.914 -16.149  1.00 35.49    -0.235 N 
ATOM      9  HH  ARG D 557     -29.678  -1.924 -17.731  1.00 35.49     0.174 HD
ATOM     10  HH  ARG D 557     -29.099  -3.289 -17.662  1.00 35.49     0.174 HD
ATOM     11  HH  ARG D 557     -26.664  -2.626 -15.616  1.00 35.49     0.174 HD
ATOM     12  HH  ARG D 557     -27.292  -3.725 -16.395  1.00 35.49     0.174 HD
ATOM     13  HE  ARG D 557     -27.461  -0.669 -15.586  1.00 35.49     0.178 HD
ENDBRANCH   4   5
ENDBRANCH   3   4
ENDBRANCH   2   3
ENDBRANCH   1   2
END_RES ARG D 557
BEGIN_RES GLU D 570
REMARK  3 active torsions:
REMARK  status: ('A' for Active; 'I' for Inactive)
REMARK    5  A    between atoms: CA   and  CB  
REMARK    6  A    between atoms: CB   and  CG  
REMARK    7  A    between atoms: CG   and  CD  
ROOT
ATOM     14  CA  GLU D 570     -18.033  -6.348 -13.375  1.00 32.92     0.160 C 
ENDROOT
BRANCH  14  15
ATOM     15  CB  GLU D 570     -19.500  -6.345 -13.794  1.00 32.92     0.043 C 
BRANCH  15  16
ATOM     16  CG  GLU D 570     -20.092  -7.639 -14.222  1.00 32.92     0.100 C 
BRANCH  16  17
ATOM     17  CD  GLU D 570     -20.682  -7.585 -15.612  1.00 32.92     0.185 C 
ATOM     18  OE1 GLU D 570     -21.112  -8.635 -16.128  1.00 32.92    -0.647 OA
ATOM     19  OE2 GLU D 570     -20.699  -6.485 -16.199  1.00 32.92    -0.647 OA
ENDBRANCH  16  17
ENDBRANCH  15  16
ENDBRANCH  14  15
END_RES GLU D 570
ENDMDL
MODEL 8
REMARK VINA RESULT:      -6.5      3.462      7.924
REMARK  17 active torsions:
REMARK  status: ('A' for Active; 'I' for Inactive)
REMARK    1  A    between atoms: C_2  and  C_3 
REMARK    2  A    between atoms: C_3  and  C_4 
REMARK    3  A    between atoms: C_4  and  C_5 
REMARK    4  A    between atoms: C_5  and  C_6 
REMARK    5  A    between atoms: C_6  and  C_7 
REMARK    6  A    between atoms: C_7  and  C_8 
REMARK    7  A    between atoms: C_8  and  C_9 
REMARK    8  A    between atoms: C_10  and  C_11 
REMARK    9  A    between atoms: C_11  and  C_12 
REMARK   10  A    between atoms: C_12  and  C_13 
REMARK   11  A    between atoms: C_13  and  C_14 
REMARK   12  A    between atoms: C_14  and  C_15 
REMARK   13  A    between atoms: C_15  and  C_16 
REMARK   14  A    between atoms: C_16  and  C_17 
REMARK   15  A    between atoms: C_17  and  C_18 
REMARK   16  A    between atoms: C_18  and  O_20 
REMARK   17  A    between atoms: O_20  and  C_21 
ROOT
HETATM    1  C   UNL     1     -22.389  -6.890  -0.707  1.00  0.00     0.027 C 
ENDROOT
BRANCH   1   2
HETATM    2  C   UNL     1     -21.635  -7.215  -1.956  1.00  0.00    -0.031 C 
HETATM    3  C   UNL     1     -21.846  -6.566  -3.108  1.00  0.00    -0.031 C 
BRANCH   3   4
HETATM    4  C   UNL     1     -21.089  -6.886  -4.354  1.00  0.00     0.027 C 
BRANCH   4   5
HETATM    5  C   UNL     1     -20.827  -5.620  -5.159  1.00  0.00     0.004 C 
BRANCH   5   6
HETATM    6  C   UNL     1     -20.160  -5.972  -6.481  1.00  0.00     0.000 C 
BRANCH   6   7
HETATM    7  C   UNL     1     -19.414  -4.767  -7.030  1.00  0.00     0.000 C 
BRANCH   7   8
HETATM    8  C   UNL     1     -20.372  -3.847  -7.772  1.00  0.00     0.000 C 
BRANCH   8   9
HETATM    9  C   UNL     1     -20.400  -4.200  -9.252  1.00  0.00    -0.000 C 
BRANCH   9  10
HETATM   10  C   UNL     1     -21.833  -4.368  -9.737  1.00  0.00    -0.005 C 
HETATM   11  C   UNL     1     -22.811  -4.059  -8.619  1.00  0.00     0.005 C 
ENDBRANCH   9  10
ENDBRANCH   8   9
ENDBRANCH   7   8
ENDBRANCH   6   7
ENDBRANCH   5   6
ENDBRANCH   4   5
ENDBRANCH   3   4
ENDBRANCH   1   2
BRANCH   1  12
HETATM   12  C   UNL     1     -22.560  -8.134   0.154  1.00  0.00     0.004 C 
BRANCH  12  13
HETATM   13  C   UNL     1     -22.143  -9.374  -0.626  1.00  0.00     0.000 C 
BRANCH  13  14
HETATM   14  C   UNL     1     -23.269 -10.398  -0.644  1.00  0.00     0.000 C 
BRANCH  14  15
HETATM   15  C   UNL     1     -23.249 -11.197  -1.944  1.00  0.00     0.000 C 
BRANCH  15  16
HETATM   16  C   UNL     1     -22.374 -10.502  -2.980  1.00  0.00     0.010 C 
BRANCH  16  17
HETATM   17  C   UNL     1     -22.104 -11.382  -4.202  1.00  0.00     0.111 C 
BRANCH  17  18
HETATM   18  C   UNL     1     -20.948 -10.827  -4.994  1.00  0.00     0.258 C 
HETATM   19  O   UNL     1     -21.047 -10.342  -6.123  1.00  0.00    -0.265 OA
BRANCH  18  20
HETATM   20  O   UNL     1     -19.767 -11.050  -4.350  1.00  0.00    -0.322 OA
BRANCH  20  21
HETATM   21  C   UNL     1     -18.863  -9.934  -4.394  1.00  0.00     0.174 C 
HETATM   22  C   UNL     1     -18.744  -9.381  -2.983  1.00  0.00     0.034 C 
ENDBRANCH  20  21
ENDBRANCH  18  20
ENDBRANCH  17  18
ENDBRANCH  16  17
ENDBRANCH  15  16
ENDBRANCH  14  15
ENDBRANCH  13  14
ENDBRANCH  12  13
ENDBRANCH   1  12
TORSDOF 17
BEGIN_RES ARG D 557
REMARK  4 active torsions:
REMARK  status: ('A' for Active; 'I' for Inactive)
REMARK    1  A    between atoms: CA   and  CB  
REMARK    2  A    between atoms: CB   and  CG  
REMARK    3  A    between atoms: CG   and  CD  
REMARK    4  A    between atoms: CD   and  NE  
REMARK       I    between atoms: NE   and  CZ  
REMARK       I    between atoms: CZ   and  NH1 
REMARK       I    between atoms: CZ   and  NH2 
ROOT
ATOM      1  CA  ARG D 557     -26.217   2.705 -17.014  1.00 35.49     0.159 C 
ENDROOT
BRANCH   1   2
ATOM      2  CB  ARG D 557     -26.789   1.319 -17.183  1.00 35.49     0.034 C 
BRANCH   2   3
ATOM      3  CG  ARG D 557     -25.842   0.200 -17.112  1.00 35.49     0.027 C 
BRANCH   3   4
ATOM      4  CD  ARG D 557     -24.769   0.431 -16.117  1.00 35.49     0.116 C 
BRANCH   4   5
ATOM      5  NE  ARG D 557     -24.904  -0.424 -14.966  1.00 35.49    -0.212 N 
ATOM      6  CZ  ARG D 557     -24.099  -1.411 -14.645  1.00 35.49     0.666 C 
ATOM      7  NH1 ARG D 557     -23.053  -1.742 -15.380  1.00 35.49    -0.235 N 
ATOM      8  NH2 ARG D 557     -24.361  -2.068 -13.553  1.00 35.49    -0.235 N 
ATOM      9  HH  ARG D 557     -22.861  -1.322 -16.102  1.00 35.49     0.174 HD
ATOM     10  HH  ARG D 557     -22.562  -2.394 -15.120  1.00 35.49     0.174 HD
ATOM     11  HH  ARG D 557     -25.039  -1.828 -13.094  1.00 35.49     0.174 HD
ATOM     12  HH  ARG D 557     -23.862  -2.710 -13.311  1.00 35.49     0.174 HD
ATOM     13  HE  ARG D 557     -25.592  -0.328 -14.476  1.00 35.49     0.178 HD
ENDBRANCH   4   5
ENDBRANCH   3   4
ENDBRANCH   2   3
ENDBRANCH   1   2
END_RES ARG D 557
BEGIN_RES GLU D 570
REMARK  3 active torsions:
REMARK  status: ('A' for Active; 'I' for Inactive)
REMARK    5  A    between atoms: CA   and  CB  
REMARK    6  A    between atoms: CB   and  CG  
REMARK    7  A    between atoms: CG   and  CD  
ROOT
ATOM     14  CA  GLU D 570     -18.033  -6.348 -13.375  1.00 32.92     0.160 C 
ENDROOT
BRANCH  14  15
ATOM     15  CB  GLU D 570     -19.500  -6.345 -13.794  1.00 32.92     0.043 C 
BRANCH  15  16
ATOM     16  CG  GLU D 570     -20.435  -5.502 -13.006  1.00 32.92     0.100 C 
BRANCH  16  17
ATOM     17  CD  GLU D 570     -21.565  -4.940 -13.837  1.00 32.92     0.185 C 
ATOM     18  OE1 GLU D 570     -22.454  -4.270 -13.276  1.00 32.92    -0.647 OA
ATOM     19  OE2 GLU D 570     -21.571  -5.186 -15.059  1.00 32.92    -0.647 OA
ENDBRANCH  16  17
ENDBRANCH  15  16
ENDBRANCH  14  15
END_RES GLU D 570
ENDMDL
MODEL 9
REMARK VINA RESULT:      -6.3      3.125      7.668
REMARK  17 active torsions:
REMARK  status: ('A' for Active; 'I' for Inactive)
REMARK    1  A    between atoms: C_2  and  C_3 
REMARK    2  A    between atoms: C_3  and  C_4 
REMARK    3  A    between atoms: C_4  and  C_5 
REMARK    4  A    between atoms: C_5  and  C_6 
REMARK    5  A    between atoms: C_6  and  C_7 
REMARK    6  A    between atoms: C_7  and  C_8 
REMARK    7  A    between atoms: C_8  and  C_9 
REMARK    8  A    between atoms: C_10  and  C_11 
REMARK    9  A    between atoms: C_11  and  C_12 
REMARK   10  A    between atoms: C_12  and  C_13 
REMARK   11  A    between atoms: C_13  and  C_14 
REMARK   12  A    between atoms: C_14  and  C_15 
REMARK   13  A    between atoms: C_15  and  C_16 
REMARK   14  A    between atoms: C_16  and  C_17 
REMARK   15  A    between atoms: C_17  and  C_18 
REMARK   16  A    between atoms: C_18  and  O_20 
REMARK   17  A    between atoms: O_20  and  C_21 
ROOT
HETATM    1  C   UNL     1     -22.424  -6.909  -0.643  1.00  0.00     0.027 C 
ENDROOT
BRANCH   1   2
HETATM    2  C   UNL     1     -21.687  -7.234  -1.902  1.00  0.00    -0.031 C 
HETATM    3  C   UNL     1     -21.921  -6.594  -3.054  1.00  0.00    -0.031 C 
BRANCH   3   4
HETATM    4  C   UNL     1     -21.180  -6.913  -4.310  1.00  0.00     0.027 C 
BRANCH   4   5
HETATM    5  C   UNL     1     -20.851  -5.638  -5.075  1.00  0.00     0.004 C 
BRANCH   5   6
HETATM    6  C   UNL     1     -20.174  -5.982  -6.393  1.00  0.00     0.000 C 
BRANCH   6   7
HETATM    7  C   UNL     1     -19.429  -4.771  -6.932  1.00  0.00     0.000 C 
BRANCH   7   8
HETATM    8  C   UNL     1     -20.383  -3.860  -7.689  1.00  0.00     0.000 C 
BRANCH   8   9
HETATM    9  C   UNL     1     -20.420  -4.241  -9.162  1.00  0.00    -0.000 C 
BRANCH   9  10
HETATM   10  C   UNL     1     -21.853  -4.465  -9.623  1.00  0.00    -0.005 C 
HETATM   11  C   UNL     1     -22.830  -4.058  -8.536  1.00  0.00     0.005 C 
ENDBRANCH   9  10
ENDBRANCH   8   9
ENDBRANCH   7   8
ENDBRANCH   6   7
ENDBRANCH   5   6
ENDBRANCH   4   5
ENDBRANCH   3   4
ENDBRANCH   1   2
BRANCH   1  12
HETATM   12  C   UNL     1     -22.556  -8.145   0.235  1.00  0.00     0.004 C 
BRANCH  12  13
HETATM   13  C   UNL     1     -22.170  -9.391  -0.552  1.00  0.00     0.000 C 
BRANCH  13  14
HETATM   14  C   UNL     1     -23.324 -10.383  -0.585  1.00  0.00     0.000 C 
BRANCH  14  15
HETATM   15  C   UNL     1     -23.337 -11.151  -1.903  1.00  0.00     0.000 C 
BRANCH  15  16
HETATM   16  C   UNL     1     -22.401 -10.493  -2.909  1.00  0.00     0.010 C 
BRANCH  16  17
HETATM   17  C   UNL     1     -22.147 -11.373  -4.134  1.00  0.00     0.111 C 
BRANCH  17  18
HETATM   18  C   UNL     1     -20.988 -10.830  -4.930  1.00  0.00     0.258 C 
HETATM   19  O   UNL     1     -21.076 -10.395  -6.080  1.00  0.00    -0.265 OA
BRANCH  18  20
HETATM   20  O   UNL     1     -19.815 -11.004  -4.259  1.00  0.00    -0.322 OA
BRANCH  20  21
HETATM   21  C   UNL     1     -18.923  -9.882  -4.350  1.00  0.00     0.174 C 
HETATM   22  C   UNL     1     -18.702  -9.351  -2.942  1.00  0.00     0.034 C 
ENDBRANCH  20  21
ENDBRANCH  18  20
ENDBRANCH  17  18
ENDBRANCH  16  17
ENDBRANCH  15  16
ENDBRANCH  14  15
ENDBRANCH  13  14
ENDBRANCH  12  13
ENDBRANCH   1  12
TORSDOF 17
BEGIN_RES ARG D 557
REMARK  4 active torsions:
REMARK  status: ('A' for Active; 'I' for Inactive)
REMARK    1  A    between atoms: CA   and  CB  
REMARK    2  A    between atoms: CB   and  CG  
REMARK    3  A    between atoms: CG   and  CD  
REMARK    4  A    between atoms: CD   and  NE  
REMARK       I    between atoms: NE   and  CZ  
REMARK       I    between atoms: CZ   and  NH1 
REMARK       I    between atoms: CZ   and  NH2 
ROOT
ATOM      1  CA  ARG D 557     -26.217   2.705 -17.014  1.00 35.49     0.159 C 
ENDROOT
BRANCH   1   2
ATOM      2  CB  ARG D 557     -26.789   1.319 -17.183  1.00 35.49     0.034 C 
BRANCH   2   3
ATOM      3  CG  ARG D 557     -28.158   1.106 -16.698  1.00 35.49     0.027 C 
BRANCH   3   4
ATOM      4  CD  ARG D 557     -28.797  -0.079 -17.315  1.00 35.49     0.116 C 
BRANCH   4   5
ATOM      5  NE  ARG D 557     -28.193  -1.310 -16.880  1.00 35.49    -0.212 N 
ATOM      6  CZ  ARG D 557     -28.690  -2.514 -17.057  1.00 35.49     0.666 C 
ATOM      7  NH1 ARG D 557     -29.844  -2.723 -17.662  1.00 35.49    -0.235 N 
ATOM      8  NH2 ARG D 557     -27.994  -3.521 -16.614  1.00 35.49    -0.235 N 
ATOM      9  HH  ARG D 557     -30.317  -2.075 -17.963  1.00 35.49     0.174 HD
ATOM     10  HH  ARG D 557     -30.117  -3.531 -17.751  1.00 35.49     0.174 HD
ATOM     11  HH  ARG D 557     -27.249  -3.357 -16.234  1.00 35.49     0.174 HD
ATOM     12  HH  ARG D 557     -28.280  -4.313 -16.713  1.00 35.49     0.174 HD
ATOM     13  HE  ARG D 557     -27.482  -1.264 -16.416  1.00 35.49     0.178 HD
ENDBRANCH   4   5
ENDBRANCH   3   4
ENDBRANCH   2   3
ENDBRANCH   1   2
END_RES ARG D 557
BEGIN_RES GLU D 570
REMARK  3 active torsions:
REMARK  status: ('A' for Active; 'I' for Inactive)
REMARK    5  A    between atoms: CA   and  CB  
REMARK    6  A    between atoms: CB   and  CG  
REMARK    7  A    between atoms: CG   and  CD  
ROOT
ATOM     14  CA  GLU D 570     -18.033  -6.348 -13.375  1.00 32.92     0.160 C 
ENDROOT
BRANCH  14  15
ATOM     15  CB  GLU D 570     -19.500  -6.345 -13.794  1.00 32.92     0.043 C 
BRANCH  15  16
ATOM     16  CG  GLU D 570     -20.448  -5.559 -12.963  1.00 32.92     0.100 C 
BRANCH  16  17
ATOM     17  CD  GLU D 570     -21.693  -5.151 -13.715  1.00 32.92     0.185 C 
ATOM     18  OE1 GLU D 570     -22.666  -4.705 -13.078  1.00 32.92    -0.647 OA
ATOM     19  OE2 GLU D 570     -21.702  -5.295 -14.953  1.00 32.92    -0.647 OA
ENDBRANCH  16  17
ENDBRANCH  15  16
ENDBRANCH  14  15
END_RES GLU D 570
ENDMDL
