MODEL 1
REMARK VINA RESULT:      -7.2      0.000      0.000
REMARK  7 active torsions:
REMARK  status: ('A' for Active; 'I' for Inactive)
REMARK    1  A    between atoms: C_1  and  C_2 
REMARK    2  A    between atoms: C_1  and  O_12 
REMARK    3  A    between atoms: C_3  and  O_11 
REMARK    4  A    between atoms: C_4  and  O_10 
REMARK    5  A    between atoms: C_5  and  C_7 
REMARK    6  A    between atoms: C_5  and  O_9 
REMARK    7  A    between atoms: C_7  and  O_8 
ROOT
HETATM    1  C   UNL     1     -23.927  -3.586 -12.056  1.00  0.00     0.180 C 
HETATM    2  C   UNL     1     -22.738  -2.836 -12.644  1.00  0.00     0.183 C 
HETATM    3  C   UNL     1     -23.206  -2.380 -14.026  1.00  0.00     0.213 C 
HETATM    4  C   UNL     1     -24.664  -2.871 -14.120  1.00  0.00     0.213 C 
HETATM    5  O   UNL     1     -25.098  -3.150 -12.781  1.00  0.00    -0.341 OA
ENDROOT
BRANCH   4   6
HETATM    6  C   UNL     1     -25.602  -1.834 -14.762  1.00  0.00     0.235 C 
BRANCH   6   7
HETATM    7  O   UNL     1     -25.048  -0.520 -14.731  1.00  0.00    -0.395 OA
HETATM    8  H   UNL     1     -24.569  -0.404 -15.572  1.00  0.00     0.209 HD
ENDBRANCH   6   7
ENDBRANCH   4   6
BRANCH   4   9
HETATM    9  O   UNL     1     -24.737  -4.066 -14.896  1.00  0.00    -0.362 OA
HETATM   10  H   UNL     1     -23.833  -4.422 -14.939  1.00  0.00     0.213 HD
ENDBRANCH   4   9
BRANCH   3  11
HETATM   11  O   UNL     1     -22.353  -2.937 -15.041  1.00  0.00    -0.387 OA
HETATM   12  H   UNL     1     -22.623  -2.522 -15.887  1.00  0.00     0.210 HD
ENDBRANCH   3  11
BRANCH   2  13
HETATM   13  O   UNL     1     -21.600  -3.692 -12.727  1.00  0.00    -0.390 OA
HETATM   14  H   UNL     1     -21.664  -4.291 -11.950  1.00  0.00     0.210 HD
ENDBRANCH   2  13
BRANCH   1  15
HETATM   15  C   UNL     1     -24.118  -3.345 -10.566  1.00  0.00     0.198 C 
BRANCH  15  16
HETATM   16  O   UNL     1     -25.511  -3.252 -10.267  1.00  0.00    -0.398 OA
HETATM   17  H   UNL     1     -25.578  -2.848  -9.383  1.00  0.00     0.209 HD
ENDBRANCH  15  16
ENDBRANCH   1  15
TORSDOF 7
BEGIN_RES ARG D 557
REMARK  4 active torsions:
REMARK  status: ('A' for Active; 'I' for Inactive)
REMARK    1  A    between atoms: CA   and  CB  
REMARK    2  A    between atoms: CB   and  CG  
REMARK    3  A    between atoms: CG   and  CD  
REMARK    4  A    between atoms: CD   and  NE  
REMARK       I    between atoms: NE   and  CZ  
REMARK       I    between atoms: CZ   and  NH1 
REMARK       I    between atoms: CZ   and  NH2 
ROOT
ATOM      1  CA  ARG D 557     -26.217   2.705 -17.014  1.00 35.49     0.159 C 
ENDROOT
BRANCH   1   2
ATOM      2  CB  ARG D 557     -26.789   1.319 -17.183  1.00 35.49     0.034 C 
BRANCH   2   3
ATOM      3  CG  ARG D 557     -28.143   1.095 -16.663  1.00 35.49     0.027 C 
BRANCH   3   4
ATOM      4  CD  ARG D 557     -28.814  -0.055 -17.311  1.00 35.49     0.116 C 
BRANCH   4   5
ATOM      5  NE  ARG D 557     -28.234  -1.312 -16.917  1.00 35.49    -0.212 N 
ATOM      6  CZ  ARG D 557     -28.775  -2.497 -17.095  1.00 35.49     0.666 C 
ATOM      7  NH1 ARG D 557     -29.957  -2.659 -17.661  1.00 35.49    -0.235 N 
ATOM      8  NH2 ARG D 557     -28.097  -3.533 -16.694  1.00 35.49    -0.235 N 
ATOM      9  HH  ARG D 557     -30.420  -1.991 -17.934  1.00 35.49     0.174 HD
ATOM     10  HH  ARG D 557     -30.259  -3.456 -17.753  1.00 35.49     0.174 HD
ATOM     11  HH  ARG D 557     -27.334  -3.398 -16.339  1.00 35.49     0.174 HD
ATOM     12  HH  ARG D 557     -28.412  -4.314 -16.795  1.00 35.49     0.174 HD
ATOM     13  HE  ARG D 557     -27.505  -1.297 -16.480  1.00 35.49     0.178 HD
ENDBRANCH   4   5
ENDBRANCH   3   4
ENDBRANCH   2   3
ENDBRANCH   1   2
END_RES ARG D 557
BEGIN_RES GLU D 570
REMARK  3 active torsions:
REMARK  status: ('A' for Active; 'I' for Inactive)
REMARK    5  A    between atoms: CA   and  CB  
REMARK    6  A    between atoms: CB   and  CG  
REMARK    7  A    between atoms: CG   and  CD  
ROOT
ATOM     14  CA  GLU D 570     -18.033  -6.348 -13.375  1.00 32.92     0.160 C 
ENDROOT
BRANCH  14  15
ATOM     15  CB  GLU D 570     -19.500  -6.345 -13.794  1.00 32.92     0.043 C 
BRANCH  15  16
ATOM     16  CG  GLU D 570     -19.796  -6.306 -15.249  1.00 32.92     0.100 C 
BRANCH  16  17
ATOM     17  CD  GLU D 570     -21.168  -5.754 -15.557  1.00 32.92     0.185 C 
ATOM     18  OE1 GLU D 570     -22.058  -5.825 -14.688  1.00 32.92    -0.647 OA
ATOM     19  OE2 GLU D 570     -21.360  -5.260 -16.686  1.00 32.92    -0.647 OA
ENDBRANCH  16  17
ENDBRANCH  15  16
ENDBRANCH  14  15
END_RES GLU D 570
ENDMDL
MODEL 2
REMARK VINA RESULT:      -6.0      2.283      3.736
REMARK  7 active torsions:
REMARK  status: ('A' for Active; 'I' for Inactive)
REMARK    1  A    between atoms: C_1  and  C_2 
REMARK    2  A    between atoms: C_1  and  O_12 
REMARK    3  A    between atoms: C_3  and  O_11 
REMARK    4  A    between atoms: C_4  and  O_10 
REMARK    5  A    between atoms: C_5  and  C_7 
REMARK    6  A    between atoms: C_5  and  O_9 
REMARK    7  A    between atoms: C_7  and  O_8 
ROOT
HETATM    1  C   UNL     1     -22.863  -3.549  -9.057  1.00  0.00     0.180 C 
HETATM    2  C   UNL     1     -24.261  -3.896  -9.554  1.00  0.00     0.183 C 
HETATM    3  C   UNL     1     -24.134  -3.956 -11.076  1.00  0.00     0.213 C 
HETATM    4  C   UNL     1     -22.643  -3.674 -11.348  1.00  0.00     0.213 C 
HETATM    5  O   UNL     1     -21.944  -3.897 -10.116  1.00  0.00    -0.341 OA
ENDROOT
BRANCH   4   6
HETATM    6  C   UNL     1     -22.057  -4.578 -12.446  1.00  0.00     0.235 C 
BRANCH   6   7
HETATM    7  O   UNL     1     -22.008  -3.922 -13.711  1.00  0.00    -0.395 OA
HETATM    8  H   UNL     1     -21.915  -4.625 -14.381  1.00  0.00     0.209 HD
ENDBRANCH   6   7
ENDBRANCH   4   6
BRANCH   4   9
HETATM    9  O   UNL     1     -22.459  -2.318 -11.755  1.00  0.00    -0.362 OA
HETATM   10  H   UNL     1     -21.617  -2.289 -12.240  1.00  0.00     0.213 HD
ENDBRANCH   4   9
BRANCH   3  11
HETATM   11  O   UNL     1     -25.013  -2.991 -11.679  1.00  0.00    -0.387 OA
HETATM   12  H   UNL     1     -25.578  -2.643 -10.959  1.00  0.00     0.210 HD
ENDBRANCH   3  11
BRANCH   2  13
HETATM   13  O   UNL     1     -25.199  -2.904  -9.140  1.00  0.00    -0.390 OA
HETATM   14  H   UNL     1     -24.886  -2.063  -9.542  1.00  0.00     0.210 HD
ENDBRANCH   2  13
BRANCH   1  15
HETATM   15  C   UNL     1     -22.480  -4.272  -7.775  1.00  0.00     0.198 C 
BRANCH  15  16
HETATM   16  O   UNL     1     -23.631  -4.420  -6.942  1.00  0.00    -0.398 OA
HETATM   17  H   UNL     1     -23.995  -5.304  -7.128  1.00  0.00     0.209 HD
ENDBRANCH  15  16
ENDBRANCH   1  15
TORSDOF 7
BEGIN_RES ARG D 557
REMARK  4 active torsions:
REMARK  status: ('A' for Active; 'I' for Inactive)
REMARK    1  A    between atoms: CA   and  CB  
REMARK    2  A    between atoms: CB   and  CG  
REMARK    3  A    between atoms: CG   and  CD  
REMARK    4  A    between atoms: CD   and  NE  
REMARK       I    between atoms: NE   and  CZ  
REMARK       I    between atoms: CZ   and  NH1 
REMARK       I    between atoms: CZ   and  NH2 
ROOT
ATOM      1  CA  ARG D 557     -26.217   2.705 -17.014  1.00 35.49     0.159 C 
ENDROOT
BRANCH   1   2
ATOM      2  CB  ARG D 557     -26.789   1.319 -17.183  1.00 35.49     0.034 C 
BRANCH   2   3
ATOM      3  CG  ARG D 557     -26.060   0.220 -16.538  1.00 35.49     0.027 C 
BRANCH   3   4
ATOM      4  CD  ARG D 557     -26.968  -0.803 -15.972  1.00 35.49     0.116 C 
BRANCH   4   5
ATOM      5  NE  ARG D 557     -26.270  -2.012 -15.619  1.00 35.49    -0.212 N 
ATOM      6  CZ  ARG D 557     -25.233  -2.094 -14.816  1.00 35.49     0.666 C 
ATOM      7  NH1 ARG D 557     -24.697  -1.034 -14.240  1.00 35.49    -0.235 N 
ATOM      8  NH2 ARG D 557     -24.740  -3.277 -14.592  1.00 35.49    -0.235 N 
ATOM      9  HH  ARG D 557     -25.007  -0.246 -14.372  1.00 35.49     0.174 HD
ATOM     10  HH  ARG D 557     -24.023  -1.148 -13.724  1.00 35.49     0.174 HD
ATOM     11  HH  ARG D 557     -25.111  -3.944 -14.971  1.00 35.49     0.174 HD
ATOM     12  HH  ARG D 557     -24.073  -3.370 -14.076  1.00 35.49     0.174 HD
ATOM     13  HE  ARG D 557     -26.504  -2.734 -16.002  1.00 35.49     0.178 HD
ENDBRANCH   4   5
ENDBRANCH   3   4
ENDBRANCH   2   3
ENDBRANCH   1   2
END_RES ARG D 557
BEGIN_RES GLU D 570
REMARK  3 active torsions:
REMARK  status: ('A' for Active; 'I' for Inactive)
REMARK    5  A    between atoms: CA   and  CB  
REMARK    6  A    between atoms: CB   and  CG  
REMARK    7  A    between atoms: CG   and  CD  
ROOT
ATOM     14  CA  GLU D 570     -18.033  -6.348 -13.375  1.00 32.92     0.160 C 
ENDROOT
BRANCH  14  15
ATOM     15  CB  GLU D 570     -19.500  -6.345 -13.794  1.00 32.92     0.043 C 
BRANCH  15  16
ATOM     16  CG  GLU D 570     -19.796  -6.271 -15.248  1.00 32.92     0.100 C 
BRANCH  16  17
ATOM     17  CD  GLU D 570     -21.112  -6.917 -15.615  1.00 32.92     0.185 C 
ATOM     18  OE1 GLU D 570     -22.131  -6.206 -15.707  1.00 32.92    -0.647 OA
ATOM     19  OE2 GLU D 570     -21.127  -8.151 -15.796  1.00 32.92    -0.647 OA
ENDBRANCH  16  17
ENDBRANCH  15  16
ENDBRANCH  14  15
END_RES GLU D 570
ENDMDL
MODEL 3
REMARK VINA RESULT:      -5.9      1.712      2.371
REMARK  7 active torsions:
REMARK  status: ('A' for Active; 'I' for Inactive)
REMARK    1  A    between atoms: C_1  and  C_2 
REMARK    2  A    between atoms: C_1  and  O_12 
REMARK    3  A    between atoms: C_3  and  O_11 
REMARK    4  A    between atoms: C_4  and  O_10 
REMARK    5  A    between atoms: C_5  and  C_7 
REMARK    6  A    between atoms: C_5  and  O_9 
REMARK    7  A    between atoms: C_7  and  O_8 
ROOT
HETATM    1  C   UNL     1     -22.692  -4.144 -12.413  1.00  0.00     0.180 C 
HETATM    2  C   UNL     1     -23.897  -3.266 -12.725  1.00  0.00     0.183 C 
HETATM    3  C   UNL     1     -24.417  -3.776 -14.069  1.00  0.00     0.213 C 
HETATM    4  C   UNL     1     -23.485  -4.953 -14.420  1.00  0.00     0.213 C 
HETATM    5  O   UNL     1     -22.830  -5.344 -13.205  1.00  0.00    -0.341 OA
ENDROOT
BRANCH   4   6
HETATM    6  C   UNL     1     -24.241  -6.156 -15.010  1.00  0.00     0.235 C 
BRANCH   6   7
HETATM    7  O   UNL     1     -25.385  -5.754 -15.761  1.00  0.00    -0.395 OA
HETATM    8  H   UNL     1     -25.886  -5.143 -15.190  1.00  0.00     0.209 HD
ENDBRANCH   6   7
ENDBRANCH   4   6
BRANCH   4   9
HETATM    9  O   UNL     1     -22.504  -4.544 -15.372  1.00  0.00    -0.362 OA
HETATM   10  H   UNL     1     -21.820  -5.235 -15.376  1.00  0.00     0.213 HD
ENDBRANCH   4   9
BRANCH   3  11
HETATM   11  O   UNL     1     -24.383  -2.717 -15.042  1.00  0.00    -0.387 OA
HETATM   12  H   UNL     1     -25.294  -2.359 -15.091  1.00  0.00     0.210 HD
ENDBRANCH   3  11
BRANCH   2  13
HETATM   13  O   UNL     1     -23.512  -1.894 -12.794  1.00  0.00    -0.390 OA
HETATM   14  H   UNL     1     -23.012  -1.804 -13.635  1.00  0.00     0.210 HD
ENDBRANCH   2  13
BRANCH   1  15
HETATM   15  C   UNL     1     -22.571  -4.503 -10.940  1.00  0.00     0.198 C 
BRANCH  15  16
HETATM   16  O   UNL     1     -23.128  -3.459 -10.141  1.00  0.00    -0.398 OA
HETATM   17  H   UNL     1     -22.379  -2.921  -9.825  1.00  0.00     0.209 HD
ENDBRANCH  15  16
ENDBRANCH   1  15
TORSDOF 7
BEGIN_RES ARG D 557
REMARK  4 active torsions:
REMARK  status: ('A' for Active; 'I' for Inactive)
REMARK    1  A    between atoms: CA   and  CB  
REMARK    2  A    between atoms: CB   and  CG  
REMARK    3  A    between atoms: CG   and  CD  
REMARK    4  A    between atoms: CD   and  NE  
REMARK       I    between atoms: NE   and  CZ  
REMARK       I    between atoms: CZ   and  NH1 
REMARK       I    between atoms: CZ   and  NH2 
ROOT
ATOM      1  CA  ARG D 557     -26.217   2.705 -17.014  1.00 35.49     0.159 C 
ENDROOT
BRANCH   1   2
ATOM      2  CB  ARG D 557     -26.789   1.319 -17.183  1.00 35.49     0.034 C 
BRANCH   2   3
ATOM      3  CG  ARG D 557     -28.199   1.137 -16.816  1.00 35.49     0.027 C 
BRANCH   3   4
ATOM      4  CD  ARG D 557     -28.706  -0.207 -17.176  1.00 35.49     0.116 C 
BRANCH   4   5
ATOM      5  NE  ARG D 557     -27.940  -1.259 -16.560  1.00 35.49    -0.212 N 
ATOM      6  CZ  ARG D 557     -28.138  -2.548 -16.720  1.00 35.49     0.666 C 
ATOM      7  NH1 ARG D 557     -29.105  -3.028 -17.480  1.00 35.49    -0.235 N 
ATOM      8  NH2 ARG D 557     -27.332  -3.360 -16.101  1.00 35.49    -0.235 N 
ATOM      9  HH  ARG D 557     -29.646  -2.512 -17.898  1.00 35.49     0.174 HD
ATOM     10  HH  ARG D 557     -29.185  -3.878 -17.549  1.00 35.49     0.174 HD
ATOM     11  HH  ARG D 557     -26.712  -3.022 -15.623  1.00 35.49     0.174 HD
ATOM     12  HH  ARG D 557     -27.426  -4.199 -16.183  1.00 35.49     0.174 HD
ATOM     13  HE  ARG D 557     -27.342  -1.039 -15.997  1.00 35.49     0.178 HD
ENDBRANCH   4   5
ENDBRANCH   3   4
ENDBRANCH   2   3
ENDBRANCH   1   2
END_RES ARG D 557
BEGIN_RES GLU D 570
REMARK  3 active torsions:
REMARK  status: ('A' for Active; 'I' for Inactive)
REMARK    5  A    between atoms: CA   and  CB  
REMARK    6  A    between atoms: CB   and  CG  
REMARK    7  A    between atoms: CG   and  CD  
ROOT
ATOM     14  CA  GLU D 570     -18.033  -6.348 -13.375  1.00 32.92     0.160 C 
ENDROOT
BRANCH  14  15
ATOM     15  CB  GLU D 570     -19.500  -6.345 -13.794  1.00 32.92     0.043 C 
BRANCH  15  16
ATOM     16  CG  GLU D 570     -20.088  -7.636 -14.236  1.00 32.92     0.100 C 
BRANCH  16  17
ATOM     17  CD  GLU D 570     -20.694  -7.565 -15.618  1.00 32.92     0.185 C 
ATOM     18  OE1 GLU D 570     -20.630  -6.494 -16.253  1.00 32.92    -0.647 OA
ATOM     19  OE2 GLU D 570     -21.254  -8.586 -16.064  1.00 32.92    -0.647 OA
ENDBRANCH  16  17
ENDBRANCH  15  16
ENDBRANCH  14  15
END_RES GLU D 570
ENDMDL
MODEL 4
REMARK VINA RESULT:      -5.9      3.509      5.424
REMARK  7 active torsions:
REMARK  status: ('A' for Active; 'I' for Inactive)
REMARK    1  A    between atoms: C_1  and  C_2 
REMARK    2  A    between atoms: C_1  and  O_12 
REMARK    3  A    between atoms: C_3  and  O_11 
REMARK    4  A    between atoms: C_4  and  O_10 
REMARK    5  A    between atoms: C_5  and  C_7 
REMARK    6  A    between atoms: C_5  and  O_9 
REMARK    7  A    between atoms: C_7  and  O_8 
ROOT
HETATM    1  C   UNL     1     -23.319  -3.734  -9.203  1.00  0.00     0.180 C 
HETATM    2  C   UNL     1     -22.060  -4.233  -9.902  1.00  0.00     0.183 C 
HETATM    3  C   UNL     1     -21.108  -4.617  -8.769  1.00  0.00     0.213 C 
HETATM    4  C   UNL     1     -21.912  -4.346  -7.482  1.00  0.00     0.213 C 
HETATM    5  O   UNL     1     -23.294  -4.270  -7.861  1.00  0.00    -0.341 OA
ENDROOT
BRANCH   4   6
HETATM    6  C   UNL     1     -21.728  -5.445  -6.422  1.00  0.00     0.235 C 
BRANCH   6   7
HETATM    7  O   UNL     1     -21.045  -6.584  -6.944  1.00  0.00    -0.395 OA
HETATM    8  H   UNL     1     -21.176  -6.562  -7.910  1.00  0.00     0.209 HD
ENDBRANCH   6   7
ENDBRANCH   4   6
BRANCH   4   9
HETATM    9  O   UNL     1     -21.515  -3.106  -6.899  1.00  0.00    -0.362 OA
HETATM   10  H   UNL     1     -22.209  -2.462  -7.125  1.00  0.00     0.213 HD
ENDBRANCH   4   9
BRANCH   3  11
HETATM   11  O   UNL     1     -19.901  -3.840  -8.858  1.00  0.00    -0.387 OA
HETATM   12  H   UNL     1     -20.068  -3.147  -9.530  1.00  0.00     0.210 HD
ENDBRANCH   3  11
BRANCH   2  13
HETATM   13  O   UNL     1     -21.510  -3.210 -10.730  1.00  0.00    -0.390 OA
HETATM   14  H   UNL     1     -21.202  -3.668 -11.543  1.00  0.00     0.210 HD
ENDBRANCH   2  13
BRANCH   1  15
HETATM   15  C   UNL     1     -24.604  -4.146  -9.905  1.00  0.00     0.198 C 
BRANCH  15  16
HETATM   16  O   UNL     1     -24.578  -3.698 -11.261  1.00  0.00    -0.398 OA
HETATM   17  H   UNL     1     -23.982  -4.302 -11.740  1.00  0.00     0.209 HD
ENDBRANCH  15  16
ENDBRANCH   1  15
TORSDOF 7
BEGIN_RES ARG D 557
REMARK  4 active torsions:
REMARK  status: ('A' for Active; 'I' for Inactive)
REMARK    1  A    between atoms: CA   and  CB  
REMARK    2  A    between atoms: CB   and  CG  
REMARK    3  A    between atoms: CG   and  CD  
REMARK    4  A    between atoms: CD   and  NE  
REMARK       I    between atoms: NE   and  CZ  
REMARK       I    between atoms: CZ   and  NH1 
REMARK       I    between atoms: CZ   and  NH2 
ROOT
ATOM      1  CA  ARG D 557     -26.217   2.705 -17.014  1.00 35.49     0.159 C 
ENDROOT
BRANCH   1   2
ATOM      2  CB  ARG D 557     -26.789   1.319 -17.183  1.00 35.49     0.034 C 
BRANCH   2   3
ATOM      3  CG  ARG D 557     -25.834   0.204 -17.170  1.00 35.49     0.027 C 
BRANCH   3   4
ATOM      4  CD  ARG D 557     -24.736   0.413 -16.198  1.00 35.49     0.116 C 
BRANCH   4   5
ATOM      5  NE  ARG D 557     -24.877  -0.419 -15.033  1.00 35.49    -0.212 N 
ATOM      6  CZ  ARG D 557     -24.064  -1.388 -14.678  1.00 35.49     0.666 C 
ATOM      7  NH1 ARG D 557     -23.001  -1.719 -15.389  1.00 35.49    -0.235 N 
ATOM      8  NH2 ARG D 557     -24.334  -2.026 -13.577  1.00 35.49    -0.235 N 
ATOM      9  HH  ARG D 557     -22.803  -1.311 -16.116  1.00 35.49     0.174 HD
ATOM     10  HH  ARG D 557     -22.505  -2.358 -15.107  1.00 35.49     0.174 HD
ATOM     11  HH  ARG D 557     -25.023  -1.787 -13.134  1.00 35.49     0.174 HD
ATOM     12  HH  ARG D 557     -23.830  -2.655 -13.313  1.00 35.49     0.174 HD
ATOM     13  HE  ARG D 557     -25.575  -0.323 -14.556  1.00 35.49     0.178 HD
ENDBRANCH   4   5
ENDBRANCH   3   4
ENDBRANCH   2   3
ENDBRANCH   1   2
END_RES ARG D 557
BEGIN_RES GLU D 570
REMARK  3 active torsions:
REMARK  status: ('A' for Active; 'I' for Inactive)
REMARK    5  A    between atoms: CA   and  CB  
REMARK    6  A    between atoms: CB   and  CG  
REMARK    7  A    between atoms: CG   and  CD  
ROOT
ATOM     14  CA  GLU D 570     -18.033  -6.348 -13.375  1.00 32.92     0.160 C 
ENDROOT
BRANCH  14  15
ATOM     15  CB  GLU D 570     -19.500  -6.345 -13.794  1.00 32.92     0.043 C 
BRANCH  15  16
ATOM     16  CG  GLU D 570     -20.441  -5.529 -12.985  1.00 32.92     0.100 C 
BRANCH  16  17
ATOM     17  CD  GLU D 570     -21.734  -5.229 -13.708  1.00 32.92     0.185 C 
ATOM     18  OE1 GLU D 570     -22.366  -4.197 -13.415  1.00 32.92    -0.647 OA
ATOM     19  OE2 GLU D 570     -22.127  -6.046 -14.565  1.00 32.92    -0.647 OA
ENDBRANCH  16  17
ENDBRANCH  15  16
ENDBRANCH  14  15
END_RES GLU D 570
ENDMDL
MODEL 5
REMARK VINA RESULT:      -5.9      1.672      2.281
REMARK  7 active torsions:
REMARK  status: ('A' for Active; 'I' for Inactive)
REMARK    1  A    between atoms: C_1  and  C_2 
REMARK    2  A    between atoms: C_1  and  O_12 
REMARK    3  A    between atoms: C_3  and  O_11 
REMARK    4  A    between atoms: C_4  and  O_10 
REMARK    5  A    between atoms: C_5  and  C_7 
REMARK    6  A    between atoms: C_5  and  O_9 
REMARK    7  A    between atoms: C_7  and  O_8 
ROOT
HETATM    1  C   UNL     1     -23.723  -4.053 -10.764  1.00  0.00     0.180 C 
HETATM    2  C   UNL     1     -22.385  -3.375 -10.500  1.00  0.00     0.183 C 
HETATM    3  C   UNL     1     -21.763  -3.181 -11.882  1.00  0.00     0.213 C 
HETATM    4  C   UNL     1     -22.819  -3.732 -12.861  1.00  0.00     0.213 C 
HETATM    5  O   UNL     1     -24.061  -3.790 -12.145  1.00  0.00    -0.341 OA
ENDROOT
BRANCH   4   6
HETATM    6  C   UNL     1     -22.986  -2.855 -14.113  1.00  0.00     0.235 C 
BRANCH   6   7
HETATM    7  O   UNL     1     -22.250  -3.363 -15.225  1.00  0.00    -0.395 OA
HETATM    8  H   UNL     1     -21.722  -2.619 -15.567  1.00  0.00     0.209 HD
ENDBRANCH   6   7
ENDBRANCH   4   6
BRANCH   4   9
HETATM    9  O   UNL     1     -22.462  -5.045 -13.290  1.00  0.00    -0.362 OA
HETATM   10  H   UNL     1     -23.189  -5.630 -13.017  1.00  0.00     0.213 HD
ENDBRANCH   4   9
BRANCH   3  11
HETATM   11  O   UNL     1     -20.505  -3.875 -11.956  1.00  0.00    -0.387 OA
HETATM   12  H   UNL     1     -20.228  -3.845 -12.896  1.00  0.00     0.210 HD
ENDBRANCH   3  11
BRANCH   2  13
HETATM   13  O   UNL     1     -21.568  -4.193  -9.663  1.00  0.00    -0.390 OA
HETATM   14  H   UNL     1     -21.192  -4.882 -10.255  1.00  0.00     0.210 HD
ENDBRANCH   2  13
BRANCH   1  15
HETATM   15  C   UNL     1     -24.839  -3.565  -9.853  1.00  0.00     0.198 C 
BRANCH  15  16
HETATM   16  O   UNL     1     -24.392  -3.574  -8.497  1.00  0.00    -0.398 OA
HETATM   17  H   UNL     1     -23.453  -3.313  -8.512  1.00  0.00     0.209 HD
ENDBRANCH  15  16
ENDBRANCH   1  15
TORSDOF 7
BEGIN_RES ARG D 557
REMARK  4 active torsions:
REMARK  status: ('A' for Active; 'I' for Inactive)
REMARK    1  A    between atoms: CA   and  CB  
REMARK    2  A    between atoms: CB   and  CG  
REMARK    3  A    between atoms: CG   and  CD  
REMARK    4  A    between atoms: CD   and  NE  
REMARK       I    between atoms: NE   and  CZ  
REMARK       I    between atoms: CZ   and  NH1 
REMARK       I    between atoms: CZ   and  NH2 
ROOT
ATOM      1  CA  ARG D 557     -26.217   2.705 -17.014  1.00 35.49     0.159 C 
ENDROOT
BRANCH   1   2
ATOM      2  CB  ARG D 557     -26.789   1.319 -17.183  1.00 35.49     0.034 C 
BRANCH   2   3
ATOM      3  CG  ARG D 557     -28.231   1.227 -17.444  1.00 35.49     0.027 C 
BRANCH   3   4
ATOM      4  CD  ARG D 557     -28.916   0.308 -16.506  1.00 35.49     0.116 C 
BRANCH   4   5
ATOM      5  NE  ARG D 557     -29.290  -0.931 -17.137  1.00 35.49    -0.212 N 
ATOM      6  CZ  ARG D 557     -28.649  -2.073 -17.028  1.00 35.49     0.666 C 
ATOM      7  NH1 ARG D 557     -27.546  -2.201 -16.314  1.00 35.49    -0.235 N 
ATOM      8  NH2 ARG D 557     -29.144  -3.101 -17.653  1.00 35.49    -0.235 N 
ATOM      9  HH  ARG D 557     -27.204  -1.538 -15.893  1.00 35.49     0.174 HD
ATOM     10  HH  ARG D 557     -27.172  -2.971 -16.278  1.00 35.49     0.174 HD
ATOM     11  HH  ARG D 557     -29.861  -2.990 -18.101  1.00 35.49     0.174 HD
ATOM     12  HH  ARG D 557     -28.760  -3.855 -17.604  1.00 35.49     0.174 HD
ATOM     13  HE  ARG D 557     -29.949  -0.922 -17.675  1.00 35.49     0.178 HD
ENDBRANCH   4   5
ENDBRANCH   3   4
ENDBRANCH   2   3
ENDBRANCH   1   2
END_RES ARG D 557
BEGIN_RES GLU D 570
REMARK  3 active torsions:
REMARK  status: ('A' for Active; 'I' for Inactive)
REMARK    5  A    between atoms: CA   and  CB  
REMARK    6  A    between atoms: CB   and  CG  
REMARK    7  A    between atoms: CG   and  CD  
ROOT
ATOM     14  CA  GLU D 570     -18.033  -6.348 -13.375  1.00 32.92     0.160 C 
ENDROOT
BRANCH  14  15
ATOM     15  CB  GLU D 570     -19.500  -6.345 -13.794  1.00 32.92     0.043 C 
BRANCH  15  16
ATOM     16  CG  GLU D 570     -20.072  -7.622 -14.295  1.00 32.92     0.100 C 
BRANCH  16  17
ATOM     17  CD  GLU D 570     -20.967  -7.435 -15.497  1.00 32.92     0.185 C 
ATOM     18  OE1 GLU D 570     -21.487  -6.320 -15.698  1.00 32.92    -0.647 OA
ATOM     19  OE2 GLU D 570     -21.166  -8.419 -16.237  1.00 32.92    -0.647 OA
ENDBRANCH  16  17
ENDBRANCH  15  16
ENDBRANCH  14  15
END_RES GLU D 570
ENDMDL
MODEL 6
REMARK VINA RESULT:      -5.9      1.820      2.468
REMARK  7 active torsions:
REMARK  status: ('A' for Active; 'I' for Inactive)
REMARK    1  A    between atoms: C_1  and  C_2 
REMARK    2  A    between atoms: C_1  and  O_12 
REMARK    3  A    between atoms: C_3  and  O_11 
REMARK    4  A    between atoms: C_4  and  O_10 
REMARK    5  A    between atoms: C_5  and  C_7 
REMARK    6  A    between atoms: C_5  and  O_9 
REMARK    7  A    between atoms: C_7  and  O_8 
ROOT
HETATM    1  C   UNL     1     -22.448  -4.646  -9.421  1.00  0.00     0.180 C 
HETATM    2  C   UNL     1     -21.411  -3.734 -10.067  1.00  0.00     0.183 C 
HETATM    3  C   UNL     1     -22.030  -3.319 -11.401  1.00  0.00     0.213 C 
HETATM    4  C   UNL     1     -23.413  -4.000 -11.413  1.00  0.00     0.213 C 
HETATM    5  O   UNL     1     -23.713  -4.357 -10.056  1.00  0.00    -0.341 OA
ENDROOT
BRANCH   4   6
HETATM    6  C   UNL     1     -24.522  -3.086 -11.963  1.00  0.00     0.235 C 
BRANCH   6   7
HETATM    7  O   UNL     1     -24.053  -2.253 -13.022  1.00  0.00    -0.395 OA
HETATM    8  H   UNL     1     -23.399  -2.781 -13.516  1.00  0.00     0.209 HD
ENDBRANCH   6   7
ENDBRANCH   4   6
BRANCH   4   9
HETATM    9  O   UNL     1     -23.381  -5.180 -12.214  1.00  0.00    -0.362 OA
HETATM   10  H   UNL     1     -23.717  -4.926 -13.091  1.00  0.00     0.213 HD
ENDBRANCH   4   9
BRANCH   3  11
HETATM   11  O   UNL     1     -21.183  -3.739 -12.486  1.00  0.00    -0.387 OA
HETATM   12  H   UNL     1     -21.779  -4.076 -13.187  1.00  0.00     0.210 HD
ENDBRANCH   3  11
BRANCH   2  13
HETATM   13  O   UNL     1     -20.178  -4.428 -10.248  1.00  0.00    -0.390 OA
HETATM   14  H   UNL     1     -20.313  -5.313  -9.842  1.00  0.00     0.210 HD
ENDBRANCH   2  13
BRANCH   1  15
HETATM   15  C   UNL     1     -22.565  -4.459  -7.917  1.00  0.00     0.198 C 
BRANCH  15  16
HETATM   16  O   UNL     1     -23.918  -4.161  -7.572  1.00  0.00    -0.398 OA
HETATM   17  H   UNL     1     -24.274  -4.955  -7.134  1.00  0.00     0.209 HD
ENDBRANCH  15  16
ENDBRANCH   1  15
TORSDOF 7
BEGIN_RES ARG D 557
REMARK  4 active torsions:
REMARK  status: ('A' for Active; 'I' for Inactive)
REMARK    1  A    between atoms: CA   and  CB  
REMARK    2  A    between atoms: CB   and  CG  
REMARK    3  A    between atoms: CG   and  CD  
REMARK    4  A    between atoms: CD   and  NE  
REMARK       I    between atoms: NE   and  CZ  
REMARK       I    between atoms: CZ   and  NH1 
REMARK       I    between atoms: CZ   and  NH2 
ROOT
ATOM      1  CA  ARG D 557     -26.217   2.705 -17.014  1.00 35.49     0.159 C 
ENDROOT
BRANCH   1   2
ATOM      2  CB  ARG D 557     -26.789   1.319 -17.183  1.00 35.49     0.034 C 
BRANCH   2   3
ATOM      3  CG  ARG D 557     -28.223   1.159 -16.915  1.00 35.49     0.027 C 
BRANCH   3   4
ATOM      4  CD  ARG D 557     -28.582  -0.237 -16.578  1.00 35.49     0.116 C 
BRANCH   4   5
ATOM      5  NE  ARG D 557     -27.531  -0.910 -15.861  1.00 35.49    -0.212 N 
ATOM      6  CZ  ARG D 557     -27.256  -2.193 -15.926  1.00 35.49     0.666 C 
ATOM      7  NH1 ARG D 557     -27.951  -3.030 -16.674  1.00 35.49    -0.235 N 
ATOM      8  NH2 ARG D 557     -26.251  -2.628 -15.222  1.00 35.49    -0.235 N 
ATOM      9  HH  ARG D 557     -28.614  -2.766 -17.147  1.00 35.49     0.174 HD
ATOM     10  HH  ARG D 557     -27.723  -3.856 -16.679  1.00 35.49     0.174 HD
ATOM     11  HH  ARG D 557     -25.816  -2.063 -14.754  1.00 35.49     0.174 HD
ATOM     12  HH  ARG D 557     -26.041  -3.449 -15.241  1.00 35.49     0.174 HD
ATOM     13  HE  ARG D 557     -27.079  -0.458 -15.299  1.00 35.49     0.178 HD
ENDBRANCH   4   5
ENDBRANCH   3   4
ENDBRANCH   2   3
ENDBRANCH   1   2
END_RES ARG D 557
BEGIN_RES GLU D 570
REMARK  3 active torsions:
REMARK  status: ('A' for Active; 'I' for Inactive)
REMARK    5  A    between atoms: CA   and  CB  
REMARK    6  A    between atoms: CB   and  CG  
REMARK    7  A    between atoms: CG   and  CD  
ROOT
ATOM     14  CA  GLU D 570     -18.033  -6.348 -13.375  1.00 32.92     0.160 C 
ENDROOT
BRANCH  14  15
ATOM     15  CB  GLU D 570     -19.500  -6.345 -13.794  1.00 32.92     0.043 C 
BRANCH  15  16
ATOM     16  CG  GLU D 570     -19.797  -6.265 -15.248  1.00 32.92     0.100 C 
BRANCH  16  17
ATOM     17  CD  GLU D 570     -21.089  -5.542 -15.547  1.00 32.92     0.185 C 
ATOM     18  OE1 GLU D 570     -21.899  -5.343 -14.622  1.00 32.92    -0.647 OA
ATOM     19  OE2 GLU D 570     -21.301  -5.185 -16.723  1.00 32.92    -0.647 OA
ENDBRANCH  16  17
ENDBRANCH  15  16
ENDBRANCH  14  15
END_RES GLU D 570
ENDMDL
MODEL 7
REMARK VINA RESULT:      -5.9      2.879      4.048
REMARK  7 active torsions:
REMARK  status: ('A' for Active; 'I' for Inactive)
REMARK    1  A    between atoms: C_1  and  C_2 
REMARK    2  A    between atoms: C_1  and  O_12 
REMARK    3  A    between atoms: C_3  and  O_11 
REMARK    4  A    between atoms: C_4  and  O_10 
REMARK    5  A    between atoms: C_5  and  C_7 
REMARK    6  A    between atoms: C_5  and  O_9 
REMARK    7  A    between atoms: C_7  and  O_8 
ROOT
HETATM    1  C   UNL     1     -21.119  -4.624  -9.738  1.00  0.00     0.180 C 
HETATM    2  C   UNL     1     -20.793  -3.444 -10.646  1.00  0.00     0.183 C 
HETATM    3  C   UNL     1     -22.123  -3.072 -11.299  1.00  0.00     0.213 C 
HETATM    4  C   UNL     1     -23.142  -4.051 -10.683  1.00  0.00     0.213 C 
HETATM    5  O   UNL     1     -22.542  -4.584  -9.494  1.00  0.00    -0.341 OA
ENDROOT
BRANCH   4   6
HETATM    6  C   UNL     1     -24.479  -3.376 -10.329  1.00  0.00     0.235 C 
BRANCH   6   7
HETATM    7  O   UNL     1     -24.648  -3.230  -8.921  1.00  0.00    -0.395 OA
HETATM    8  H   UNL     1     -23.899  -3.696  -8.505  1.00  0.00     0.209 HD
ENDBRANCH   6   7
ENDBRANCH   4   6
BRANCH   4   9
HETATM    9  O   UNL     1     -23.418  -5.118 -11.590  1.00  0.00    -0.362 OA
HETATM   10  H   UNL     1     -23.389  -5.937 -11.066  1.00  0.00     0.213 HD
ENDBRANCH   4   9
BRANCH   3  11
HETATM   11  O   UNL     1     -22.018  -3.189 -12.729  1.00  0.00    -0.387 OA
HETATM   12  H   UNL     1     -21.332  -3.867 -12.900  1.00  0.00     0.210 HD
ENDBRANCH   3  11
BRANCH   2  13
HETATM   13  O   UNL     1     -19.814  -3.815 -11.615  1.00  0.00    -0.390 OA
HETATM   14  H   UNL     1     -20.067  -4.717 -11.912  1.00  0.00     0.210 HD
ENDBRANCH   2  13
BRANCH   1  15
HETATM   15  C   UNL     1     -20.362  -4.599  -8.419  1.00  0.00     0.198 C 
BRANCH  15  16
HETATM   16  O   UNL     1     -20.062  -5.934  -8.011  1.00  0.00    -0.398 OA
HETATM   17  H   UNL     1     -20.728  -6.176  -7.341  1.00  0.00     0.209 HD
ENDBRANCH  15  16
ENDBRANCH   1  15
TORSDOF 7
BEGIN_RES ARG D 557
REMARK  4 active torsions:
REMARK  status: ('A' for Active; 'I' for Inactive)
REMARK    1  A    between atoms: CA   and  CB  
REMARK    2  A    between atoms: CB   and  CG  
REMARK    3  A    between atoms: CG   and  CD  
REMARK    4  A    between atoms: CD   and  NE  
REMARK       I    between atoms: NE   and  CZ  
REMARK       I    between atoms: CZ   and  NH1 
REMARK       I    between atoms: CZ   and  NH2 
ROOT
ATOM      1  CA  ARG D 557     -26.217   2.705 -17.014  1.00 35.49     0.159 C 
ENDROOT
BRANCH   1   2
ATOM      2  CB  ARG D 557     -26.789   1.319 -17.183  1.00 35.49     0.034 C 
BRANCH   2   3
ATOM      3  CG  ARG D 557     -25.828   0.211 -17.244  1.00 35.49     0.027 C 
BRANCH   3   4
ATOM      4  CD  ARG D 557     -24.764   0.330 -16.221  1.00 35.49     0.116 C 
BRANCH   4   5
ATOM      5  NE  ARG D 557     -25.016  -0.504 -15.076  1.00 35.49    -0.212 N 
ATOM      6  CZ  ARG D 557     -24.249  -1.485 -14.656  1.00 35.49     0.666 C 
ATOM      7  NH1 ARG D 557     -23.133  -1.826 -15.273  1.00 35.49    -0.235 N 
ATOM      8  NH2 ARG D 557     -24.622  -2.123 -13.585  1.00 35.49    -0.235 N 
ATOM      9  HH  ARG D 557     -22.867  -1.419 -15.979  1.00 35.49     0.174 HD
ATOM     10  HH  ARG D 557     -22.671  -2.473 -14.952  1.00 35.49     0.174 HD
ATOM     11  HH  ARG D 557     -25.343  -1.876 -13.203  1.00 35.49     0.174 HD
ATOM     12  HH  ARG D 557     -24.151  -2.759 -13.281  1.00 35.49     0.174 HD
ATOM     13  HE  ARG D 557     -25.751  -0.401 -14.661  1.00 35.49     0.178 HD
ENDBRANCH   4   5
ENDBRANCH   3   4
ENDBRANCH   2   3
ENDBRANCH   1   2
END_RES ARG D 557
BEGIN_RES GLU D 570
REMARK  3 active torsions:
REMARK  status: ('A' for Active; 'I' for Inactive)
REMARK    5  A    between atoms: CA   and  CB  
REMARK    6  A    between atoms: CB   and  CG  
REMARK    7  A    between atoms: CG   and  CD  
ROOT
ATOM     14  CA  GLU D 570     -18.033  -6.348 -13.375  1.00 32.92     0.160 C 
ENDROOT
BRANCH  14  15
ATOM     15  CB  GLU D 570     -19.500  -6.345 -13.794  1.00 32.92     0.043 C 
BRANCH  15  16
ATOM     16  CG  GLU D 570     -19.813  -5.936 -15.188  1.00 32.92     0.100 C 
BRANCH  16  17
ATOM     17  CD  GLU D 570     -21.221  -5.411 -15.346  1.00 32.92     0.185 C 
ATOM     18  OE1 GLU D 570     -21.988  -5.431 -14.364  1.00 32.92    -0.647 OA
ATOM     19  OE2 GLU D 570     -21.565  -4.991 -16.468  1.00 32.92    -0.647 OA
ENDBRANCH  16  17
ENDBRANCH  15  16
ENDBRANCH  14  15
END_RES GLU D 570
ENDMDL
MODEL 8
REMARK VINA RESULT:      -5.6      7.358      9.785
REMARK  7 active torsions:
REMARK  status: ('A' for Active; 'I' for Inactive)
REMARK    1  A    between atoms: C_1  and  C_2 
REMARK    2  A    between atoms: C_1  and  O_12 
REMARK    3  A    between atoms: C_3  and  O_11 
REMARK    4  A    between atoms: C_4  and  O_10 
REMARK    5  A    between atoms: C_5  and  C_7 
REMARK    6  A    between atoms: C_5  and  O_9 
REMARK    7  A    between atoms: C_7  and  O_8 
ROOT
HETATM    1  C   UNL     1     -37.126   0.011 -14.996  1.00  0.00     0.180 C 
HETATM    2  C   UNL     1     -35.775   0.645 -15.302  1.00  0.00     0.183 C 
HETATM    3  C   UNL     1     -34.900   0.306 -14.096  1.00  0.00     0.213 C 
HETATM    4  C   UNL     1     -35.809  -0.545 -13.187  1.00  0.00     0.213 C 
HETATM    5  O   UNL     1     -36.894  -1.012 -14.002  1.00  0.00    -0.341 OA
ENDROOT
BRANCH   4   6
HETATM    6  C   UNL     1     -35.076  -1.746 -12.566  1.00  0.00     0.235 C 
BRANCH   6   7
HETATM    7  O   UNL     1     -34.633  -2.673 -13.556  1.00  0.00    -0.395 OA
HETATM    8  H   UNL     1     -35.220  -2.553 -14.325  1.00  0.00     0.209 HD
ENDBRANCH   6   7
ENDBRANCH   4   6
BRANCH   4   9
HETATM    9  O   UNL     1     -36.330   0.249 -12.121  1.00  0.00    -0.362 OA
HETATM   10  H   UNL     1     -37.298   0.214 -12.201  1.00  0.00     0.213 HD
ENDBRANCH   4   9
BRANCH   3  11
HETATM   11  O   UNL     1     -34.442   1.515 -13.467  1.00  0.00    -0.387 OA
HETATM   12  H   UNL     1     -34.232   1.281 -12.539  1.00  0.00     0.210 HD
ENDBRANCH   3  11
BRANCH   2  13
HETATM   13  O   UNL     1     -35.913   2.054 -15.476  1.00  0.00    -0.390 OA
HETATM   14  H   UNL     1     -36.482   2.355 -14.734  1.00  0.00     0.210 HD
ENDBRANCH   2  13
BRANCH   1  15
HETATM   15  C   UNL     1     -37.801  -0.594 -16.217  1.00  0.00     0.198 C 
BRANCH  15  16
HETATM   16  O   UNL     1     -36.847  -0.751 -17.268  1.00  0.00    -0.398 OA
HETATM   17  H   UNL     1     -36.875   0.071 -17.792  1.00  0.00     0.209 HD
ENDBRANCH  15  16
ENDBRANCH   1  15
TORSDOF 7
BEGIN_RES ARG D 557
REMARK  4 active torsions:
REMARK  status: ('A' for Active; 'I' for Inactive)
REMARK    1  A    between atoms: CA   and  CB  
REMARK    2  A    between atoms: CB   and  CG  
REMARK    3  A    between atoms: CG   and  CD  
REMARK    4  A    between atoms: CD   and  NE  
REMARK       I    between atoms: NE   and  CZ  
REMARK       I    between atoms: CZ   and  NH1 
REMARK       I    between atoms: CZ   and  NH2 
ROOT
ATOM      1  CA  ARG D 557     -26.217   2.705 -17.014  1.00 35.49     0.159 C 
ENDROOT
BRANCH   1   2
ATOM      2  CB  ARG D 557     -26.789   1.319 -17.183  1.00 35.49     0.034 C 
BRANCH   2   3
ATOM      3  CG  ARG D 557     -25.864   0.195 -16.994  1.00 35.49     0.027 C 
BRANCH   3   4
ATOM      4  CD  ARG D 557     -26.295  -0.713 -15.906  1.00 35.49     0.116 C 
BRANCH   4   5
ATOM      5  NE  ARG D 557     -25.252  -0.933 -14.939  1.00 35.49    -0.212 N 
ATOM      6  CZ  ARG D 557     -24.976  -2.077 -14.354  1.00 35.49     0.666 C 
ATOM      7  NH1 ARG D 557     -25.662  -3.180 -14.593  1.00 35.49    -0.235 N 
ATOM      8  NH2 ARG D 557     -23.980  -2.098 -13.516  1.00 35.49    -0.235 N 
ATOM      9  HH  ARG D 557     -26.320  -3.189 -15.142  1.00 35.49     0.174 HD
ATOM     10  HH  ARG D 557     -25.435  -3.897 -14.184  1.00 35.49     0.174 HD
ATOM     11  HH  ARG D 557     -23.550  -1.373 -13.387  1.00 35.49     0.174 HD
ATOM     12  HH  ARG D 557     -23.769  -2.819 -13.122  1.00 35.49     0.174 HD
ATOM     13  HE  ARG D 557     -24.807  -0.260 -14.671  1.00 35.49     0.178 HD
ENDBRANCH   4   5
ENDBRANCH   3   4
ENDBRANCH   2   3
ENDBRANCH   1   2
END_RES ARG D 557
BEGIN_RES GLU D 570
REMARK  3 active torsions:
REMARK  status: ('A' for Active; 'I' for Inactive)
REMARK    5  A    between atoms: CA   and  CB  
REMARK    6  A    between atoms: CB   and  CG  
REMARK    7  A    between atoms: CG   and  CD  
ROOT
ATOM     14  CA  GLU D 570     -18.033  -6.348 -13.375  1.00 32.92     0.160 C 
ENDROOT
BRANCH  14  15
ATOM     15  CB  GLU D 570     -19.500  -6.345 -13.794  1.00 32.92     0.043 C 
BRANCH  15  16
ATOM     16  CG  GLU D 570     -20.449  -5.567 -12.957  1.00 32.92     0.100 C 
BRANCH  16  17
ATOM     17  CD  GLU D 570     -21.677  -5.121 -13.718  1.00 32.92     0.185 C 
ATOM     18  OE1 GLU D 570     -22.727  -4.889 -13.089  1.00 32.92    -0.647 OA
ATOM     19  OE2 GLU D 570     -21.591  -5.019 -14.957  1.00 32.92    -0.647 OA
ENDBRANCH  16  17
ENDBRANCH  15  16
ENDBRANCH  14  15
END_RES GLU D 570
ENDMDL
MODEL 9
REMARK VINA RESULT:      -5.6      7.168      9.577
REMARK  7 active torsions:
REMARK  status: ('A' for Active; 'I' for Inactive)
REMARK    1  A    between atoms: C_1  and  C_2 
REMARK    2  A    between atoms: C_1  and  O_12 
REMARK    3  A    between atoms: C_3  and  O_11 
REMARK    4  A    between atoms: C_4  and  O_10 
REMARK    5  A    between atoms: C_5  and  C_7 
REMARK    6  A    between atoms: C_5  and  O_9 
REMARK    7  A    between atoms: C_7  and  O_8 
ROOT
HETATM    1  C   UNL     1     -37.116   0.018 -15.019  1.00  0.00     0.180 C 
HETATM    2  C   UNL     1     -35.767   0.662 -15.315  1.00  0.00     0.183 C 
HETATM    3  C   UNL     1     -34.897   0.324 -14.105  1.00  0.00     0.213 C 
HETATM    4  C   UNL     1     -35.806  -0.535 -13.204  1.00  0.00     0.213 C 
HETATM    5  O   UNL     1     -36.883  -1.007 -14.027  1.00  0.00    -0.341 OA
ENDROOT
BRANCH   4   6
HETATM    6  C   UNL     1     -35.068  -1.734 -12.583  1.00  0.00     0.235 C 
BRANCH   6   7
HETATM    7  O   UNL     1     -34.653  -2.677 -13.570  1.00  0.00    -0.395 OA
HETATM    8  H   UNL     1     -34.444  -3.500 -13.091  1.00  0.00     0.209 HD
ENDBRANCH   6   7
ENDBRANCH   4   6
BRANCH   4   9
HETATM    9  O   UNL     1     -36.338   0.251 -12.139  1.00  0.00    -0.362 OA
HETATM   10  H   UNL     1     -36.972  -0.317 -11.669  1.00  0.00     0.213 HD
ENDBRANCH   4   9
BRANCH   3  11
HETATM   11  O   UNL     1     -34.450   1.534 -13.469  1.00  0.00    -0.387 OA
HETATM   12  H   UNL     1     -33.690   1.859 -13.995  1.00  0.00     0.210 HD
ENDBRANCH   3  11
BRANCH   2  13
HETATM   13  O   UNL     1     -35.913   2.071 -15.484  1.00  0.00    -0.390 OA
HETATM   14  H   UNL     1     -35.834   2.453 -14.582  1.00  0.00     0.210 HD
ENDBRANCH   2  13
BRANCH   1  15
HETATM   15  C   UNL     1     -37.780  -0.587 -16.246  1.00  0.00     0.198 C 
BRANCH  15  16
HETATM   16  O   UNL     1     -36.815  -0.750 -17.286  1.00  0.00    -0.398 OA
HETATM   17  H   UNL     1     -36.593  -1.698 -17.312  1.00  0.00     0.209 HD
ENDBRANCH  15  16
ENDBRANCH   1  15
TORSDOF 7
BEGIN_RES ARG D 557
REMARK  4 active torsions:
REMARK  status: ('A' for Active; 'I' for Inactive)
REMARK    1  A    between atoms: CA   and  CB  
REMARK    2  A    between atoms: CB   and  CG  
REMARK    3  A    between atoms: CG   and  CD  
REMARK    4  A    between atoms: CD   and  NE  
REMARK       I    between atoms: NE   and  CZ  
REMARK       I    between atoms: CZ   and  NH1 
REMARK       I    between atoms: CZ   and  NH2 
ROOT
ATOM      1  CA  ARG D 557     -26.217   2.705 -17.014  1.00 35.49     0.159 C 
ENDROOT
BRANCH   1   2
ATOM      2  CB  ARG D 557     -26.789   1.319 -17.183  1.00 35.49     0.034 C 
BRANCH   2   3
ATOM      3  CG  ARG D 557     -28.231   1.227 -17.444  1.00 35.49     0.027 C 
BRANCH   3   4
ATOM      4  CD  ARG D 557     -28.916   0.306 -16.508  1.00 35.49     0.116 C 
BRANCH   4   5
ATOM      5  NE  ARG D 557     -29.302  -0.926 -17.144  1.00 35.49    -0.212 N 
ATOM      6  CZ  ARG D 557     -28.672  -2.074 -17.039  1.00 35.49     0.666 C 
ATOM      7  NH1 ARG D 557     -27.571  -2.217 -16.325  1.00 35.49    -0.235 N 
ATOM      8  NH2 ARG D 557     -29.177  -3.095 -17.669  1.00 35.49    -0.235 N 
ATOM      9  HH  ARG D 557     -27.223  -1.559 -15.901  1.00 35.49     0.174 HD
ATOM     10  HH  ARG D 557     -27.205  -2.991 -16.291  1.00 35.49     0.174 HD
ATOM     11  HH  ARG D 557     -29.893  -2.975 -18.117  1.00 35.49     0.174 HD
ATOM     12  HH  ARG D 557     -28.801  -3.854 -17.622  1.00 35.49     0.174 HD
ATOM     13  HE  ARG D 557     -29.960  -0.908 -17.682  1.00 35.49     0.178 HD
ENDBRANCH   4   5
ENDBRANCH   3   4
ENDBRANCH   2   3
ENDBRANCH   1   2
END_RES ARG D 557
BEGIN_RES GLU D 570
REMARK  3 active torsions:
REMARK  status: ('A' for Active; 'I' for Inactive)
REMARK    5  A    between atoms: CA   and  CB  
REMARK    6  A    between atoms: CB   and  CG  
REMARK    7  A    between atoms: CG   and  CD  
ROOT
ATOM     14  CA  GLU D 570     -18.033  -6.348 -13.375  1.00 32.92     0.160 C 
ENDROOT
BRANCH  14  15
ATOM     15  CB  GLU D 570     -19.500  -6.345 -13.794  1.00 32.92     0.043 C 
BRANCH  15  16
ATOM     16  CG  GLU D 570     -20.447  -5.555 -12.966  1.00 32.92     0.100 C 
BRANCH  16  17
ATOM     17  CD  GLU D 570     -21.744  -5.252 -13.680  1.00 32.92     0.185 C 
ATOM     18  OE1 GLU D 570     -22.248  -6.123 -14.414  1.00 32.92    -0.647 OA
ATOM     19  OE2 GLU D 570     -22.252  -4.125 -13.516  1.00 32.92    -0.647 OA
ENDBRANCH  16  17
ENDBRANCH  15  16
ENDBRANCH  14  15
END_RES GLU D 570
ENDMDL
