MODEL 1
REMARK VINA RESULT:      -7.8      0.000      0.000
REMARK  15 active torsions:
REMARK  status: ('A' for Active; 'I' for Inactive)
REMARK    1  A    between atoms: C_1  and  C_2 
REMARK    2  A    between atoms: C_1  and  O_21 
REMARK    3  A    between atoms: C_3  and  O_20 
REMARK    4  A    between atoms: C_4  and  O_19 
REMARK    5  A    between atoms: C_5  and  O_18 
REMARK    6  A    between atoms: C_6  and  O_8 
REMARK    7  A    between atoms: O_8  and  C_9 
REMARK    8  A    between atoms: C_9  and  C_10 
REMARK    9  A    between atoms: C_10  and  C_11 
REMARK   10  A    between atoms: C_10  and  O_17 
REMARK   11  A    between atoms: C_11  and  C_12 
REMARK   12  A    between atoms: C_11  and  O_16 
REMARK   13  A    between atoms: C_12  and  C_13 
REMARK   14  A    between atoms: C_12  and  O_15 
REMARK   15  A    between atoms: C_13  and  O_14 
ROOT
HETATM    1  C   UNL     1     -30.021  -6.978 -17.335  1.00  0.00     0.179 C 
HETATM    2  C   UNL     1     -30.693  -5.594 -17.245  1.00  0.00     0.180 C 
HETATM    3  C   UNL     1     -29.868  -4.536 -17.999  1.00  0.00     0.183 C 
HETATM    4  C   UNL     1     -28.418  -4.545 -17.513  1.00  0.00     0.204 C 
HETATM    5  C   UNL     1     -27.853  -5.965 -17.690  1.00  0.00     0.291 C 
HETATM    6  O   UNL     1     -28.623  -6.924 -16.969  1.00  0.00    -0.348 OA
ENDROOT
BRANCH   5   7
HETATM    7  O   UNL     1     -26.505  -5.940 -17.219  1.00  0.00    -0.356 OA
BRANCH   7   8
HETATM    8  C   UNL     1     -26.242  -6.810 -16.118  1.00  0.00     0.205 C 
BRANCH   8   9
HETATM    9  C   UNL     1     -24.808  -6.753 -15.562  1.00  0.00     0.173 C 
BRANCH   9  10
HETATM   10  C   UNL     1     -23.763  -7.521 -16.400  1.00  0.00     0.179 C 
BRANCH  10  11
HETATM   11  C   UNL     1     -23.513  -6.875 -17.780  1.00  0.00     0.173 C 
BRANCH  11  12
HETATM   12  C   UNL     1     -22.038  -6.833 -18.200  1.00  0.00     0.198 C 
BRANCH  12  13
HETATM   13  O   UNL     1     -21.442  -5.620 -17.748  1.00  0.00    -0.398 OA
HETATM   14  H   UNL     1     -20.551  -5.593 -18.154  1.00  0.00     0.209 HD
ENDBRANCH  12  13
ENDBRANCH  11  12
BRANCH  11  15
HETATM   15  O   UNL     1     -24.207  -7.643 -18.785  1.00  0.00    -0.391 OA
HETATM   16  H   UNL     1     -23.512  -8.035 -19.352  1.00  0.00     0.210 HD
ENDBRANCH  11  15
ENDBRANCH  10  11
BRANCH  10  17
HETATM   17  O   UNL     1     -22.496  -7.690 -15.749  1.00  0.00    -0.390 OA
HETATM   18  H   UNL     1     -21.803  -7.264 -16.273  1.00  0.00     0.210 HD
ENDBRANCH  10  17
ENDBRANCH   9  10
BRANCH   9  19
HETATM   19  O   UNL     1     -24.409  -5.388 -15.416  1.00  0.00    -0.391 OA
HETATM   20  H   UNL     1     -23.435  -5.343 -15.400  1.00  0.00     0.210 HD
ENDBRANCH   9  19
ENDBRANCH   8   9
ENDBRANCH   7   8
ENDBRANCH   5   7
BRANCH   4  21
HETATM   21  O   UNL     1     -28.368  -4.175 -16.116  1.00  0.00    -0.388 OA
HETATM   22  H   UNL     1     -27.939  -3.293 -16.104  1.00  0.00     0.210 HD
ENDBRANCH   4  21
BRANCH   3  23
HETATM   23  O   UNL     1     -30.438  -3.239 -17.822  1.00  0.00    -0.390 OA
HETATM   24  H   UNL     1     -29.758  -2.608 -18.125  1.00  0.00     0.210 HD
ENDBRANCH   3  23
BRANCH   1  25
HETATM   25  C   UNL     1     -30.181  -7.629 -18.718  1.00  0.00     0.198 C 
BRANCH  25  26
HETATM   26  O   UNL     1     -29.465  -8.860 -18.784  1.00  0.00    -0.398 OA
HETATM   27  H   UNL     1     -29.199  -9.105 -17.878  1.00  0.00     0.209 HD
ENDBRANCH  25  26
ENDBRANCH   1  25
BRANCH   2  28
HETATM   28  O   UNL     1     -30.816  -5.212 -15.863  1.00  0.00    -0.390 OA
HETATM   29  H   UNL     1     -31.298  -5.930 -15.401  1.00  0.00     0.210 HD
ENDBRANCH   2  28
TORSDOF 15
BEGIN_RES ARG D 557
REMARK  4 active torsions:
REMARK  status: ('A' for Active; 'I' for Inactive)
REMARK    1  A    between atoms: CA   and  CB  
REMARK    2  A    between atoms: CB   and  CG  
REMARK    3  A    between atoms: CG   and  CD  
REMARK    4  A    between atoms: CD   and  NE  
REMARK       I    between atoms: NE   and  CZ  
REMARK       I    between atoms: CZ   and  NH1 
REMARK       I    between atoms: CZ   and  NH2 
ROOT
ATOM      1  CA  ARG D 557     -26.217   2.705 -17.014  1.00 35.49     0.159 C 
ENDROOT
BRANCH   1   2
ATOM      2  CB  ARG D 557     -26.789   1.319 -17.183  1.00 35.49     0.034 C 
BRANCH   2   3
ATOM      3  CG  ARG D 557     -25.873   0.194 -16.957  1.00 35.49     0.027 C 
BRANCH   3   4
ATOM      4  CD  ARG D 557     -26.346  -0.712 -15.885  1.00 35.49     0.116 C 
BRANCH   4   5
ATOM      5  NE  ARG D 557     -25.321  -0.982 -14.912  1.00 35.49    -0.212 N 
ATOM      6  CZ  ARG D 557     -25.135  -2.124 -14.289  1.00 35.49     0.666 C 
ATOM      7  NH1 ARG D 557     -25.907  -3.176 -14.491  1.00 35.49    -0.235 N 
ATOM      8  NH2 ARG D 557     -24.141  -2.197 -13.452  1.00 35.49    -0.235 N 
ATOM      9  HH  ARG D 557     -26.566  -3.151 -15.039  1.00 35.49     0.174 HD
ATOM     10  HH  ARG D 557     -25.736  -3.896 -14.059  1.00 35.49     0.174 HD
ATOM     11  HH  ARG D 557     -23.655  -1.504 -13.348  1.00 35.49     0.174 HD
ATOM     12  HH  ARG D 557     -23.987  -2.919 -13.035  1.00 35.49     0.174 HD
ATOM     13  HE  ARG D 557     -24.823  -0.338 -14.667  1.00 35.49     0.178 HD
ENDBRANCH   4   5
ENDBRANCH   3   4
ENDBRANCH   2   3
ENDBRANCH   1   2
END_RES ARG D 557
BEGIN_RES GLU D 570
REMARK  3 active torsions:
REMARK  status: ('A' for Active; 'I' for Inactive)
REMARK    5  A    between atoms: CA   and  CB  
REMARK    6  A    between atoms: CB   and  CG  
REMARK    7  A    between atoms: CG   and  CD  
ROOT
ATOM     14  CA  GLU D 570     -18.033  -6.348 -13.375  1.00 32.92     0.160 C 
ENDROOT
BRANCH  14  15
ATOM     15  CB  GLU D 570     -19.500  -6.345 -13.794  1.00 32.92     0.043 C 
BRANCH  15  16
ATOM     16  CG  GLU D 570     -20.454  -5.592 -12.940  1.00 32.92     0.100 C 
BRANCH  16  17
ATOM     17  CD  GLU D 570     -21.663  -5.098 -13.700  1.00 32.92     0.185 C 
ATOM     18  OE1 GLU D 570     -21.596  -4.993 -14.940  1.00 32.92    -0.647 OA
ATOM     19  OE2 GLU D 570     -22.682  -4.797 -13.047  1.00 32.92    -0.647 OA
ENDBRANCH  16  17
ENDBRANCH  15  16
ENDBRANCH  14  15
END_RES GLU D 570
ENDMDL
MODEL 2
REMARK VINA RESULT:      -7.4      2.225      5.990
REMARK  15 active torsions:
REMARK  status: ('A' for Active; 'I' for Inactive)
REMARK    1  A    between atoms: C_1  and  C_2 
REMARK    2  A    between atoms: C_1  and  O_21 
REMARK    3  A    between atoms: C_3  and  O_20 
REMARK    4  A    between atoms: C_4  and  O_19 
REMARK    5  A    between atoms: C_5  and  O_18 
REMARK    6  A    between atoms: C_6  and  O_8 
REMARK    7  A    between atoms: O_8  and  C_9 
REMARK    8  A    between atoms: C_9  and  C_10 
REMARK    9  A    between atoms: C_10  and  C_11 
REMARK   10  A    between atoms: C_10  and  O_17 
REMARK   11  A    between atoms: C_11  and  C_12 
REMARK   12  A    between atoms: C_11  and  O_16 
REMARK   13  A    between atoms: C_12  and  C_13 
REMARK   14  A    between atoms: C_12  and  O_15 
REMARK   15  A    between atoms: C_13  and  O_14 
ROOT
HETATM    1  C   UNL     1     -24.555  -2.544 -13.442  1.00  0.00     0.179 C 
HETATM    2  C   UNL     1     -23.390  -2.568 -12.434  1.00  0.00     0.180 C 
HETATM    3  C   UNL     1     -22.288  -3.538 -12.896  1.00  0.00     0.183 C 
HETATM    4  C   UNL     1     -22.879  -4.919 -13.181  1.00  0.00     0.204 C 
HETATM    5  C   UNL     1     -23.999  -4.764 -14.224  1.00  0.00     0.291 C 
HETATM    6  O   UNL     1     -25.015  -3.876 -13.766  1.00  0.00    -0.348 OA
ENDROOT
BRANCH   5   7
HETATM    7  O   UNL     1     -24.533  -6.068 -14.460  1.00  0.00    -0.356 OA
BRANCH   7   8
HETATM    8  C   UNL     1     -24.238  -6.608 -15.749  1.00  0.00     0.205 C 
BRANCH   8   9
HETATM    9  C   UNL     1     -25.458  -7.087 -16.556  1.00  0.00     0.173 C 
BRANCH   9  10
HETATM   10  C   UNL     1     -26.821  -6.629 -15.993  1.00  0.00     0.179 C 
BRANCH  10  11
HETATM   11  C   UNL     1     -27.888  -6.441 -17.094  1.00  0.00     0.173 C 
BRANCH  11  12
HETATM   12  C   UNL     1     -29.325  -6.320 -16.566  1.00  0.00     0.198 C 
BRANCH  12  13
HETATM   13  O   UNL     1     -29.404  -5.250 -15.626  1.00  0.00    -0.398 OA
HETATM   14  H   UNL     1     -28.770  -5.475 -14.914  1.00  0.00     0.209 HD
ENDBRANCH  12  13
ENDBRANCH  11  12
BRANCH  11  15
HETATM   15  O   UNL     1     -27.607  -5.221 -17.810  1.00  0.00    -0.391 OA
HETATM   16  H   UNL     1     -28.341  -4.609 -17.596  1.00  0.00     0.210 HD
ENDBRANCH  11  15
ENDBRANCH  10  11
BRANCH  10  17
HETATM   17  O   UNL     1     -27.363  -7.496 -14.987  1.00  0.00    -0.390 OA
HETATM   18  H   UNL     1     -28.080  -8.023 -15.367  1.00  0.00     0.210 HD
ENDBRANCH  10  17
ENDBRANCH   9  10
BRANCH   9  19
HETATM   19  O   UNL     1     -25.324  -6.664 -17.916  1.00  0.00    -0.391 OA
HETATM   20  H   UNL     1     -25.045  -5.729 -17.931  1.00  0.00     0.210 HD
ENDBRANCH   9  19
ENDBRANCH   8   9
ENDBRANCH   7   8
ENDBRANCH   5   7
BRANCH   4  21
HETATM   21  O   UNL     1     -23.423  -5.478 -11.965  1.00  0.00    -0.388 OA
HETATM   22  H   UNL     1     -23.599  -4.705 -11.388  1.00  0.00     0.210 HD
ENDBRANCH   4  21
BRANCH   3  23
HETATM   23  O   UNL     1     -21.262  -3.635 -11.908  1.00  0.00    -0.390 OA
HETATM   24  H   UNL     1     -20.557  -4.175 -12.312  1.00  0.00     0.210 HD
ENDBRANCH   3  23
BRANCH   1  25
HETATM   25  C   UNL     1     -24.216  -1.773 -14.728  1.00  0.00     0.198 C 
BRANCH  25  26
HETATM   26  O   UNL     1     -25.112  -0.681 -14.915  1.00  0.00    -0.398 OA
HETATM   27  H   UNL     1     -24.588   0.142 -14.939  1.00  0.00     0.209 HD
ENDBRANCH  25  26
ENDBRANCH   1  25
BRANCH   2  28
HETATM   28  O   UNL     1     -23.882  -2.979 -11.145  1.00  0.00    -0.390 OA
HETATM   29  H   UNL     1     -24.415  -3.791 -11.279  1.00  0.00     0.210 HD
ENDBRANCH   2  28
TORSDOF 15
BEGIN_RES ARG D 557
REMARK  4 active torsions:
REMARK  status: ('A' for Active; 'I' for Inactive)
REMARK    1  A    between atoms: CA   and  CB  
REMARK    2  A    between atoms: CB   and  CG  
REMARK    3  A    between atoms: CG   and  CD  
REMARK    4  A    between atoms: CD   and  NE  
REMARK       I    between atoms: NE   and  CZ  
REMARK       I    between atoms: CZ   and  NH1 
REMARK       I    between atoms: CZ   and  NH2 
ROOT
ATOM      1  CA  ARG D 557     -26.217   2.705 -17.014  1.00 35.49     0.159 C 
ENDROOT
BRANCH   1   2
ATOM      2  CB  ARG D 557     -26.789   1.319 -17.183  1.00 35.49     0.034 C 
BRANCH   2   3
ATOM      3  CG  ARG D 557     -28.228   1.227 -17.456  1.00 35.49     0.027 C 
BRANCH   3   4
ATOM      4  CD  ARG D 557     -28.905   0.236 -16.588  1.00 35.49     0.116 C 
BRANCH   4   5
ATOM      5  NE  ARG D 557     -28.011  -0.806 -16.155  1.00 35.49    -0.212 N 
ATOM      6  CZ  ARG D 557     -28.073  -2.069 -16.515  1.00 35.49     0.666 C 
ATOM      7  NH1 ARG D 557     -29.005  -2.530 -17.328  1.00 35.49    -0.235 N 
ATOM      8  NH2 ARG D 557     -27.165  -2.872 -16.041  1.00 35.49    -0.235 N 
ATOM      9  HH  ARG D 557     -29.610  -2.018 -17.653  1.00 35.49     0.174 HD
ATOM     10  HH  ARG D 557     -28.993  -3.363 -17.529  1.00 35.49     0.174 HD
ATOM     11  HH  ARG D 557     -26.571  -2.545 -15.524  1.00 35.49     0.174 HD
ATOM     12  HH  ARG D 557     -27.170  -3.693 -16.253  1.00 35.49     0.174 HD
ATOM     13  HE  ARG D 557     -27.424  -0.611 -15.572  1.00 35.49     0.178 HD
ENDBRANCH   4   5
ENDBRANCH   3   4
ENDBRANCH   2   3
ENDBRANCH   1   2
END_RES ARG D 557
BEGIN_RES GLU D 570
REMARK  3 active torsions:
REMARK  status: ('A' for Active; 'I' for Inactive)
REMARK    5  A    between atoms: CA   and  CB  
REMARK    6  A    between atoms: CB   and  CG  
REMARK    7  A    between atoms: CG   and  CD  
ROOT
ATOM     14  CA  GLU D 570     -18.033  -6.348 -13.375  1.00 32.92     0.160 C 
ENDROOT
BRANCH  14  15
ATOM     15  CB  GLU D 570     -19.500  -6.345 -13.794  1.00 32.92     0.043 C 
BRANCH  15  16
ATOM     16  CG  GLU D 570     -20.086  -7.634 -14.245  1.00 32.92     0.100 C 
BRANCH  16  17
ATOM     17  CD  GLU D 570     -20.692  -7.554 -15.626  1.00 32.92     0.185 C 
ATOM     18  OE1 GLU D 570     -21.181  -8.583 -16.133  1.00 32.92    -0.647 OA
ATOM     19  OE2 GLU D 570     -20.663  -6.456 -16.216  1.00 32.92    -0.647 OA
ENDBRANCH  16  17
ENDBRANCH  15  16
ENDBRANCH  14  15
END_RES GLU D 570
ENDMDL
MODEL 3
REMARK VINA RESULT:      -7.3      2.641      6.366
REMARK  15 active torsions:
REMARK  status: ('A' for Active; 'I' for Inactive)
REMARK    1  A    between atoms: C_1  and  C_2 
REMARK    2  A    between atoms: C_1  and  O_21 
REMARK    3  A    between atoms: C_3  and  O_20 
REMARK    4  A    between atoms: C_4  and  O_19 
REMARK    5  A    between atoms: C_5  and  O_18 
REMARK    6  A    between atoms: C_6  and  O_8 
REMARK    7  A    between atoms: O_8  and  C_9 
REMARK    8  A    between atoms: C_9  and  C_10 
REMARK    9  A    between atoms: C_10  and  C_11 
REMARK   10  A    between atoms: C_10  and  O_17 
REMARK   11  A    between atoms: C_11  and  C_12 
REMARK   12  A    between atoms: C_11  and  O_16 
REMARK   13  A    between atoms: C_12  and  C_13 
REMARK   14  A    between atoms: C_12  and  O_15 
REMARK   15  A    between atoms: C_13  and  O_14 
ROOT
HETATM    1  C   UNL     1     -23.129  -4.036 -10.885  1.00  0.00     0.179 C 
HETATM    2  C   UNL     1     -22.914  -2.691 -11.606  1.00  0.00     0.180 C 
HETATM    3  C   UNL     1     -23.801  -2.596 -12.860  1.00  0.00     0.183 C 
HETATM    4  C   UNL     1     -23.585  -3.813 -13.759  1.00  0.00     0.204 C 
HETATM    5  C   UNL     1     -23.866  -5.082 -12.937  1.00  0.00     0.291 C 
HETATM    6  O   UNL     1     -23.021  -5.157 -11.791  1.00  0.00    -0.348 OA
ENDROOT
BRANCH   5   7
HETATM    7  O   UNL     1     -23.647  -6.198 -13.802  1.00  0.00    -0.356 OA
BRANCH   7   8
HETATM    8  C   UNL     1     -24.146  -6.029 -15.129  1.00  0.00     0.205 C 
BRANCH   8   9
HETATM    9  C   UNL     1     -25.329  -6.939 -15.508  1.00  0.00     0.173 C 
BRANCH   9  10
HETATM   10  C   UNL     1     -26.475  -6.224 -16.257  1.00  0.00     0.179 C 
BRANCH  10  11
HETATM   11  C   UNL     1     -27.872  -6.654 -15.757  1.00  0.00     0.173 C 
BRANCH  11  12
HETATM   12  C   UNL     1     -28.874  -6.967 -16.877  1.00  0.00     0.198 C 
BRANCH  12  13
HETATM   13  O   UNL     1     -28.628  -6.117 -17.995  1.00  0.00    -0.398 OA
HETATM   14  H   UNL     1     -28.231  -6.691 -18.683  1.00  0.00     0.209 HD
ENDBRANCH  12  13
ENDBRANCH  11  12
BRANCH  11  15
HETATM   15  O   UNL     1     -27.736  -7.859 -14.976  1.00  0.00    -0.391 OA
HETATM   16  H   UNL     1     -28.178  -8.565 -15.491  1.00  0.00     0.210 HD
ENDBRANCH  11  15
ENDBRANCH  10  11
BRANCH  10  17
HETATM   17  O   UNL     1     -26.404  -4.792 -16.212  1.00  0.00    -0.390 OA
HETATM   18  H   UNL     1     -25.564  -4.523 -15.813  1.00  0.00     0.210 HD
ENDBRANCH  10  17
ENDBRANCH   9  10
BRANCH   9  19
HETATM   19  O   UNL     1     -24.851  -8.041 -16.283  1.00  0.00    -0.391 OA
HETATM   20  H   UNL     1     -24.516  -7.707 -17.136  1.00  0.00     0.210 HD
ENDBRANCH   9  19
ENDBRANCH   8   9
ENDBRANCH   7   8
ENDBRANCH   5   7
BRANCH   4  21
HETATM   21  O   UNL     1     -22.219  -3.835 -14.232  1.00  0.00    -0.388 OA
HETATM   22  H   UNL     1     -21.780  -3.089 -13.771  1.00  0.00     0.210 HD
ENDBRANCH   4  21
BRANCH   3  23
HETATM   23  O   UNL     1     -23.520  -1.395 -13.580  1.00  0.00    -0.390 OA
HETATM   24  H   UNL     1     -22.889  -0.897 -13.026  1.00  0.00     0.210 HD
ENDBRANCH   3  23
BRANCH   1  25
HETATM   25  C   UNL     1     -24.462  -4.097 -10.123  1.00  0.00     0.198 C 
BRANCH  25  26
HETATM   26  O   UNL     1     -24.386  -3.354  -8.908  1.00  0.00    -0.398 OA
HETATM   27  H   UNL     1     -24.788  -2.478  -9.063  1.00  0.00     0.209 HD
ENDBRANCH  25  26
ENDBRANCH   1  25
BRANCH   2  28
HETATM   28  O   UNL     1     -21.531  -2.568 -11.985  1.00  0.00    -0.390 OA
HETATM   29  H   UNL     1     -20.990  -2.883 -11.230  1.00  0.00     0.210 HD
ENDBRANCH   2  28
TORSDOF 15
BEGIN_RES ARG D 557
REMARK  4 active torsions:
REMARK  status: ('A' for Active; 'I' for Inactive)
REMARK    1  A    between atoms: CA   and  CB  
REMARK    2  A    between atoms: CB   and  CG  
REMARK    3  A    between atoms: CG   and  CD  
REMARK    4  A    between atoms: CD   and  NE  
REMARK       I    between atoms: NE   and  CZ  
REMARK       I    between atoms: CZ   and  NH1 
REMARK       I    between atoms: CZ   and  NH2 
ROOT
ATOM      1  CA  ARG D 557     -26.217   2.705 -17.014  1.00 35.49     0.159 C 
ENDROOT
BRANCH   1   2
ATOM      2  CB  ARG D 557     -26.789   1.319 -17.183  1.00 35.49     0.034 C 
BRANCH   2   3
ATOM      3  CG  ARG D 557     -28.225   1.228 -17.473  1.00 35.49     0.027 C 
BRANCH   3   4
ATOM      4  CD  ARG D 557     -28.933   0.321 -16.540  1.00 35.49     0.116 C 
BRANCH   4   5
ATOM      5  NE  ARG D 557     -29.205  -0.962 -17.132  1.00 35.49    -0.212 N 
ATOM      6  CZ  ARG D 557     -28.493  -2.053 -16.962  1.00 35.49     0.666 C 
ATOM      7  NH1 ARG D 557     -27.405  -2.081 -16.215  1.00 35.49    -0.235 N 
ATOM      8  NH2 ARG D 557     -28.900  -3.135 -17.560  1.00 35.49    -0.235 N 
ATOM      9  HH  ARG D 557     -27.120  -1.381 -15.810  1.00 35.49     0.174 HD
ATOM     10  HH  ARG D 557     -26.982  -2.822 -16.139  1.00 35.49     0.174 HD
ATOM     11  HH  ARG D 557     -29.610  -3.089 -18.031  1.00 35.49     0.174 HD
ATOM     12  HH  ARG D 557     -28.469  -3.859 -17.472  1.00 35.49     0.174 HD
ATOM     13  HE  ARG D 557     -29.847  -1.017 -17.687  1.00 35.49     0.178 HD
ENDBRANCH   4   5
ENDBRANCH   3   4
ENDBRANCH   2   3
ENDBRANCH   1   2
END_RES ARG D 557
BEGIN_RES GLU D 570
REMARK  3 active torsions:
REMARK  status: ('A' for Active; 'I' for Inactive)
REMARK    5  A    between atoms: CA   and  CB  
REMARK    6  A    between atoms: CB   and  CG  
REMARK    7  A    between atoms: CG   and  CD  
ROOT
ATOM     14  CA  GLU D 570     -18.033  -6.348 -13.375  1.00 32.92     0.160 C 
ENDROOT
BRANCH  14  15
ATOM     15  CB  GLU D 570     -19.500  -6.345 -13.794  1.00 32.92     0.043 C 
BRANCH  15  16
ATOM     16  CG  GLU D 570     -20.056  -7.606 -14.350  1.00 32.92     0.100 C 
BRANCH  16  17
ATOM     17  CD  GLU D 570     -20.817  -7.397 -15.638  1.00 32.92     0.185 C 
ATOM     18  OE1 GLU D 570     -20.615  -6.360 -16.299  1.00 32.92    -0.647 OA
ATOM     19  OE2 GLU D 570     -21.636  -8.273 -15.982  1.00 32.92    -0.647 OA
ENDBRANCH  16  17
ENDBRANCH  15  16
ENDBRANCH  14  15
END_RES GLU D 570
ENDMDL
MODEL 4
REMARK VINA RESULT:      -7.0      2.897      5.773
REMARK  15 active torsions:
REMARK  status: ('A' for Active; 'I' for Inactive)
REMARK    1  A    between atoms: C_1  and  C_2 
REMARK    2  A    between atoms: C_1  and  O_21 
REMARK    3  A    between atoms: C_3  and  O_20 
REMARK    4  A    between atoms: C_4  and  O_19 
REMARK    5  A    between atoms: C_5  and  O_18 
REMARK    6  A    between atoms: C_6  and  O_8 
REMARK    7  A    between atoms: O_8  and  C_9 
REMARK    8  A    between atoms: C_9  and  C_10 
REMARK    9  A    between atoms: C_10  and  C_11 
REMARK   10  A    between atoms: C_10  and  O_17 
REMARK   11  A    between atoms: C_11  and  C_12 
REMARK   12  A    between atoms: C_11  and  O_16 
REMARK   13  A    between atoms: C_12  and  C_13 
REMARK   14  A    between atoms: C_12  and  O_15 
REMARK   15  A    between atoms: C_13  and  O_14 
ROOT
HETATM    1  C   UNL     1     -26.744  -5.833 -16.624  1.00  0.00     0.179 C 
HETATM    2  C   UNL     1     -25.839  -7.014 -17.023  1.00  0.00     0.180 C 
HETATM    3  C   UNL     1     -24.961  -7.454 -15.837  1.00  0.00     0.183 C 
HETATM    4  C   UNL     1     -24.194  -6.260 -15.269  1.00  0.00     0.204 C 
HETATM    5  C   UNL     1     -25.208  -5.171 -14.877  1.00  0.00     0.291 C 
HETATM    6  O   UNL     1     -25.996  -4.768 -15.995  1.00  0.00    -0.348 OA
ENDROOT
BRANCH   5   7
HETATM    7  O   UNL     1     -24.460  -4.070 -14.360  1.00  0.00    -0.356 OA
BRANCH   7   8
HETATM    8  C   UNL     1     -23.759  -4.344 -13.146  1.00  0.00     0.205 C 
BRANCH   8   9
HETATM    9  C   UNL     1     -24.124  -3.436 -11.957  1.00  0.00     0.173 C 
BRANCH   9  10
HETATM   10  C   UNL     1     -24.049  -4.124 -10.577  1.00  0.00     0.179 C 
BRANCH  10  11
HETATM   11  C   UNL     1     -22.850  -3.638  -9.732  1.00  0.00     0.173 C 
BRANCH  11  12
HETATM   12  C   UNL     1     -22.656  -4.400  -8.414  1.00  0.00     0.198 C 
BRANCH  12  13
HETATM   13  O   UNL     1     -23.750  -4.134  -7.539  1.00  0.00    -0.398 OA
HETATM   14  H   UNL     1     -24.483  -3.832  -8.114  1.00  0.00     0.209 HD
ENDBRANCH  12  13
ENDBRANCH  11  12
BRANCH  11  15
HETATM   15  O   UNL     1     -21.640  -3.820 -10.496  1.00  0.00    -0.391 OA
HETATM   16  H   UNL     1     -21.346  -4.737 -10.319  1.00  0.00     0.210 HD
ENDBRANCH  11  15
ENDBRANCH  10  11
BRANCH  10  17
HETATM   17  O   UNL     1     -25.238  -3.989  -9.786  1.00  0.00    -0.390 OA
HETATM   18  H   UNL     1     -25.937  -4.546 -10.156  1.00  0.00     0.210 HD
ENDBRANCH  10  17
ENDBRANCH   9  10
BRANCH   9  19
HETATM   19  O   UNL     1     -23.287  -2.276 -11.971  1.00  0.00    -0.391 OA
HETATM   20  H   UNL     1     -22.985  -2.114 -12.884  1.00  0.00     0.210 HD
ENDBRANCH   9  19
ENDBRANCH   8   9
ENDBRANCH   7   8
ENDBRANCH   5   7
BRANCH   4  21
HETATM   21  O   UNL     1     -23.289  -5.740 -16.269  1.00  0.00    -0.388 OA
HETATM   22  H   UNL     1     -23.666  -4.873 -16.525  1.00  0.00     0.210 HD
ENDBRANCH   4  21
BRANCH   3  23
HETATM   23  O   UNL     1     -24.051  -8.477 -16.242  1.00  0.00    -0.390 OA
HETATM   24  H   UNL     1     -23.795  -8.942 -15.422  1.00  0.00     0.210 HD
ENDBRANCH   3  23
BRANCH   1  25
HETATM   25  C   UNL     1     -27.918  -6.258 -15.727  1.00  0.00     0.198 C 
BRANCH  25  26
HETATM   26  O   UNL     1     -28.793  -5.160 -15.485  1.00  0.00    -0.398 OA
HETATM   27  H   UNL     1     -29.498  -5.179 -16.160  1.00  0.00     0.209 HD
ENDBRANCH  25  26
ENDBRANCH   1  25
BRANCH   2  28
HETATM   28  O   UNL     1     -24.997  -6.621 -18.122  1.00  0.00    -0.390 OA
HETATM   29  H   UNL     1     -24.575  -7.433 -18.474  1.00  0.00     0.210 HD
ENDBRANCH   2  28
TORSDOF 15
BEGIN_RES ARG D 557
REMARK  4 active torsions:
REMARK  status: ('A' for Active; 'I' for Inactive)
REMARK    1  A    between atoms: CA   and  CB  
REMARK    2  A    between atoms: CB   and  CG  
REMARK    3  A    between atoms: CG   and  CD  
REMARK    4  A    between atoms: CD   and  NE  
REMARK       I    between atoms: NE   and  CZ  
REMARK       I    between atoms: CZ   and  NH1 
REMARK       I    between atoms: CZ   and  NH2 
ROOT
ATOM      1  CA  ARG D 557     -26.217   2.705 -17.014  1.00 35.49     0.159 C 
ENDROOT
BRANCH   1   2
ATOM      2  CB  ARG D 557     -26.789   1.319 -17.183  1.00 35.49     0.034 C 
BRANCH   2   3
ATOM      3  CG  ARG D 557     -28.241   1.222 -17.375  1.00 35.49     0.027 C 
BRANCH   3   4
ATOM      4  CD  ARG D 557     -28.868   0.247 -16.454  1.00 35.49     0.116 C 
BRANCH   4   5
ATOM      5  NE  ARG D 557     -29.278  -0.954 -17.132  1.00 35.49    -0.212 N 
ATOM      6  CZ  ARG D 557     -28.688  -2.125 -17.044  1.00 35.49     0.666 C 
ATOM      7  NH1 ARG D 557     -27.611  -2.323 -16.308  1.00 35.49    -0.235 N 
ATOM      8  NH2 ARG D 557     -29.210  -3.112 -17.713  1.00 35.49    -0.235 N 
ATOM      9  HH  ARG D 557     -27.252  -1.688 -15.857  1.00 35.49     0.174 HD
ATOM     10  HH  ARG D 557     -27.271  -3.109 -16.287  1.00 35.49     0.174 HD
ATOM     11  HH  ARG D 557     -29.911  -2.956 -18.175  1.00 35.49     0.174 HD
ATOM     12  HH  ARG D 557     -28.860  -3.883 -17.678  1.00 35.49     0.174 HD
ATOM     13  HE  ARG D 557     -29.922  -0.900 -17.685  1.00 35.49     0.178 HD
ENDBRANCH   4   5
ENDBRANCH   3   4
ENDBRANCH   2   3
ENDBRANCH   1   2
END_RES ARG D 557
BEGIN_RES GLU D 570
REMARK  3 active torsions:
REMARK  status: ('A' for Active; 'I' for Inactive)
REMARK    5  A    between atoms: CA   and  CB  
REMARK    6  A    between atoms: CB   and  CG  
REMARK    7  A    between atoms: CG   and  CD  
ROOT
ATOM     14  CA  GLU D 570     -18.033  -6.348 -13.375  1.00 32.92     0.160 C 
ENDROOT
BRANCH  14  15
ATOM     15  CB  GLU D 570     -19.500  -6.345 -13.794  1.00 32.92     0.043 C 
BRANCH  15  16
ATOM     16  CG  GLU D 570     -19.796  -6.399 -15.249  1.00 32.92     0.100 C 
BRANCH  16  17
ATOM     17  CD  GLU D 570     -20.585  -7.625 -15.645  1.00 32.92     0.185 C 
ATOM     18  OE1 GLU D 570     -21.239  -7.608 -16.705  1.00 32.92    -0.647 OA
ATOM     19  OE2 GLU D 570     -20.561  -8.608 -14.878  1.00 32.92    -0.647 OA
ENDBRANCH  16  17
ENDBRANCH  15  16
ENDBRANCH  14  15
END_RES GLU D 570
ENDMDL
MODEL 5
REMARK VINA RESULT:      -6.8      4.006      8.084
REMARK  15 active torsions:
REMARK  status: ('A' for Active; 'I' for Inactive)
REMARK    1  A    between atoms: C_1  and  C_2 
REMARK    2  A    between atoms: C_1  and  O_21 
REMARK    3  A    between atoms: C_3  and  O_20 
REMARK    4  A    between atoms: C_4  and  O_19 
REMARK    5  A    between atoms: C_5  and  O_18 
REMARK    6  A    between atoms: C_6  and  O_8 
REMARK    7  A    between atoms: O_8  and  C_9 
REMARK    8  A    between atoms: C_9  and  C_10 
REMARK    9  A    between atoms: C_10  and  C_11 
REMARK   10  A    between atoms: C_10  and  O_17 
REMARK   11  A    between atoms: C_11  and  C_12 
REMARK   12  A    between atoms: C_11  and  O_16 
REMARK   13  A    between atoms: C_12  and  C_13 
REMARK   14  A    between atoms: C_12  and  O_15 
REMARK   15  A    between atoms: C_13  and  O_14 
ROOT
HETATM    1  C   UNL     1     -24.046  -2.907 -10.969  1.00  0.00     0.179 C 
HETATM    2  C   UNL     1     -24.517  -3.230 -12.400  1.00  0.00     0.180 C 
HETATM    3  C   UNL     1     -23.913  -4.559 -12.886  1.00  0.00     0.183 C 
HETATM    4  C   UNL     1     -22.392  -4.542 -12.731  1.00  0.00     0.204 C 
HETATM    5  C   UNL     1     -22.055  -4.248 -11.259  1.00  0.00     0.291 C 
HETATM    6  O   UNL     1     -22.609  -3.004 -10.838  1.00  0.00    -0.348 OA
ENDROOT
BRANCH   5   7
HETATM    7  O   UNL     1     -20.630  -4.230 -11.152  1.00  0.00    -0.356 OA
BRANCH   7   8
HETATM    8  C   UNL     1     -20.108  -4.955 -10.038  1.00  0.00     0.205 C 
BRANCH   8   9
HETATM    9  C   UNL     1     -20.440  -4.364  -8.656  1.00  0.00     0.173 C 
BRANCH   9  10
HETATM   10  C   UNL     1     -21.370  -5.241  -7.788  1.00  0.00     0.179 C 
BRANCH  10  11
HETATM   11  C   UNL     1     -20.642  -5.865  -6.577  1.00  0.00     0.173 C 
BRANCH  11  12
HETATM   12  C   UNL     1     -21.522  -6.780  -5.715  1.00  0.00     0.198 C 
BRANCH  12  13
HETATM   13  O   UNL     1     -22.328  -5.990  -4.843  1.00  0.00    -0.398 OA
HETATM   14  H   UNL     1     -21.747  -5.269  -4.524  1.00  0.00     0.209 HD
ENDBRANCH  12  13
ENDBRANCH  11  12
BRANCH  11  15
HETATM   15  O   UNL     1     -19.551  -6.677  -7.060  1.00  0.00    -0.391 OA
HETATM   16  H   UNL     1     -18.912  -6.734  -6.320  1.00  0.00     0.210 HD
ENDBRANCH  11  15
ENDBRANCH  10  11
BRANCH  10  17
HETATM   17  O   UNL     1     -22.538  -4.561  -7.307  1.00  0.00    -0.390 OA
HETATM   18  H   UNL     1     -23.150  -4.411  -8.042  1.00  0.00     0.210 HD
ENDBRANCH  10  17
ENDBRANCH   9  10
BRANCH   9  19
HETATM   19  O   UNL     1     -19.226  -4.094  -7.950  1.00  0.00    -0.391 OA
HETATM   20  H   UNL     1     -18.880  -4.929  -7.584  1.00  0.00     0.210 HD
ENDBRANCH   9  19
ENDBRANCH   8   9
ENDBRANCH   7   8
ENDBRANCH   5   7
BRANCH   4  21
HETATM   21  O   UNL     1     -21.826  -3.512 -13.573  1.00  0.00    -0.388 OA
HETATM   22  H   UNL     1     -22.416  -3.473 -14.355  1.00  0.00     0.210 HD
ENDBRANCH   4  21
BRANCH   3  23
HETATM   23  O   UNL     1     -24.267  -4.800 -14.248  1.00  0.00    -0.390 OA
HETATM   24  H   UNL     1     -25.149  -5.217 -14.221  1.00  0.00     0.210 HD
ENDBRANCH   3  23
BRANCH   1  25
HETATM   25  C   UNL     1     -24.735  -3.775  -9.904  1.00  0.00     0.198 C 
BRANCH  25  26
HETATM   26  O   UNL     1     -26.065  -3.321  -9.665  1.00  0.00    -0.398 OA
HETATM   27  H   UNL     1     -26.183  -3.220  -8.701  1.00  0.00     0.209 HD
ENDBRANCH  25  26
ENDBRANCH   1  25
BRANCH   2  28
HETATM   28  O   UNL     1     -24.116  -2.168 -13.285  1.00  0.00    -0.390 OA
HETATM   29  H   UNL     1     -23.976  -2.562 -14.172  1.00  0.00     0.210 HD
ENDBRANCH   2  28
TORSDOF 15
BEGIN_RES ARG D 557
REMARK  4 active torsions:
REMARK  status: ('A' for Active; 'I' for Inactive)
REMARK    1  A    between atoms: CA   and  CB  
REMARK    2  A    between atoms: CB   and  CG  
REMARK    3  A    between atoms: CG   and  CD  
REMARK    4  A    between atoms: CD   and  NE  
REMARK       I    between atoms: NE   and  CZ  
REMARK       I    between atoms: CZ   and  NH1 
REMARK       I    between atoms: CZ   and  NH2 
ROOT
ATOM      1  CA  ARG D 557     -26.217   2.705 -17.014  1.00 35.49     0.159 C 
ENDROOT
BRANCH   1   2
ATOM      2  CB  ARG D 557     -26.789   1.319 -17.183  1.00 35.49     0.034 C 
BRANCH   2   3
ATOM      3  CG  ARG D 557     -28.232   1.168 -16.962  1.00 35.49     0.027 C 
BRANCH   3   4
ATOM      4  CD  ARG D 557     -28.617  -0.233 -16.679  1.00 35.49     0.116 C 
BRANCH   4   5
ATOM      5  NE  ARG D 557     -27.580  -0.950 -15.983  1.00 35.49    -0.212 N 
ATOM      6  CZ  ARG D 557     -27.366  -2.245 -16.047  1.00 35.49     0.666 C 
ATOM      7  NH1 ARG D 557     -28.117  -3.053 -16.773  1.00 35.49    -0.235 N 
ATOM      8  NH2 ARG D 557     -26.365  -2.722 -15.366  1.00 35.49    -0.235 N 
ATOM      9  HH  ARG D 557     -28.779  -2.760 -17.231  1.00 35.49     0.174 HD
ATOM     10  HH  ARG D 557     -27.928  -3.889 -16.778  1.00 35.49     0.174 HD
ATOM     11  HH  ARG D 557     -25.893  -2.176 -14.912  1.00 35.49     0.174 HD
ATOM     12  HH  ARG D 557     -26.193  -3.552 -15.385  1.00 35.49     0.174 HD
ATOM     13  HE  ARG D 557     -27.094  -0.517 -15.436  1.00 35.49     0.178 HD
ENDBRANCH   4   5
ENDBRANCH   3   4
ENDBRANCH   2   3
ENDBRANCH   1   2
END_RES ARG D 557
BEGIN_RES GLU D 570
REMARK  3 active torsions:
REMARK  status: ('A' for Active; 'I' for Inactive)
REMARK    5  A    between atoms: CA   and  CB  
REMARK    6  A    between atoms: CB   and  CG  
REMARK    7  A    between atoms: CG   and  CD  
ROOT
ATOM     14  CA  GLU D 570     -18.033  -6.348 -13.375  1.00 32.92     0.160 C 
ENDROOT
BRANCH  14  15
ATOM     15  CB  GLU D 570     -19.500  -6.345 -13.794  1.00 32.92     0.043 C 
BRANCH  15  16
ATOM     16  CG  GLU D 570     -19.811  -5.959 -15.195  1.00 32.92     0.100 C 
BRANCH  16  17
ATOM     17  CD  GLU D 570     -21.215  -6.332 -15.611  1.00 32.92     0.185 C 
ATOM     18  OE1 GLU D 570     -21.982  -5.439 -16.020  1.00 32.92    -0.647 OA
ATOM     19  OE2 GLU D 570     -21.557  -7.527 -15.510  1.00 32.92    -0.647 OA
ENDBRANCH  16  17
ENDBRANCH  15  16
ENDBRANCH  14  15
END_RES GLU D 570
ENDMDL
MODEL 6
REMARK VINA RESULT:      -6.7      1.679      3.088
REMARK  15 active torsions:
REMARK  status: ('A' for Active; 'I' for Inactive)
REMARK    1  A    between atoms: C_1  and  C_2 
REMARK    2  A    between atoms: C_1  and  O_21 
REMARK    3  A    between atoms: C_3  and  O_20 
REMARK    4  A    between atoms: C_4  and  O_19 
REMARK    5  A    between atoms: C_5  and  O_18 
REMARK    6  A    between atoms: C_6  and  O_8 
REMARK    7  A    between atoms: O_8  and  C_9 
REMARK    8  A    between atoms: C_9  and  C_10 
REMARK    9  A    between atoms: C_10  and  C_11 
REMARK   10  A    between atoms: C_10  and  O_17 
REMARK   11  A    between atoms: C_11  and  C_12 
REMARK   12  A    between atoms: C_11  and  O_16 
REMARK   13  A    between atoms: C_12  and  C_13 
REMARK   14  A    between atoms: C_12  and  O_15 
REMARK   15  A    between atoms: C_13  and  O_14 
ROOT
HETATM    1  C   UNL     1     -27.876  -4.087 -17.167  1.00  0.00     0.179 C 
HETATM    2  C   UNL     1     -29.313  -4.610 -17.360  1.00  0.00     0.180 C 
HETATM    3  C   UNL     1     -29.664  -5.653 -16.285  1.00  0.00     0.183 C 
HETATM    4  C   UNL     1     -28.609  -6.760 -16.251  1.00  0.00     0.204 C 
HETATM    5  C   UNL     1     -27.233  -6.115 -16.016  1.00  0.00     0.291 C 
HETATM    6  O   UNL     1     -26.923  -5.167 -17.034  1.00  0.00    -0.348 OA
ENDROOT
BRANCH   5   7
HETATM    7  O   UNL     1     -26.273  -7.173 -15.999  1.00  0.00    -0.356 OA
BRANCH   7   8
HETATM    8  C   UNL     1     -24.927  -6.759 -16.236  1.00  0.00     0.205 C 
BRANCH   8   9
HETATM    9  C   UNL     1     -24.202  -7.498 -17.375  1.00  0.00     0.173 C 
BRANCH   9  10
HETATM   10  C   UNL     1     -24.582  -7.020 -18.794  1.00  0.00     0.179 C 
BRANCH  10  11
HETATM   11  C   UNL     1     -24.076  -7.973 -19.900  1.00  0.00     0.173 C 
BRANCH  11  12
HETATM   12  C   UNL     1     -24.643  -7.678 -21.295  1.00  0.00     0.198 C 
BRANCH  12  13
HETATM   13  O   UNL     1     -25.743  -8.547 -21.561  1.00  0.00    -0.398 OA
HETATM   14  H   UNL     1     -26.544  -7.986 -21.504  1.00  0.00     0.209 HD
ENDBRANCH  12  13
ENDBRANCH  11  12
BRANCH  11  15
HETATM   15  O   UNL     1     -22.642  -7.845 -20.002  1.00  0.00    -0.391 OA
HETATM   16  H   UNL     1     -22.386  -7.162 -19.348  1.00  0.00     0.210 HD
ENDBRANCH  11  15
ENDBRANCH  10  11
BRANCH  10  17
HETATM   17  O   UNL     1     -25.988  -6.815 -18.989  1.00  0.00    -0.390 OA
HETATM   18  H   UNL     1     -26.182  -6.784 -19.937  1.00  0.00     0.210 HD
ENDBRANCH  10  17
ENDBRANCH   9  10
BRANCH   9  19
HETATM   19  O   UNL     1     -22.789  -7.393 -17.187  1.00  0.00    -0.391 OA
HETATM   20  H   UNL     1     -22.413  -8.289 -17.106  1.00  0.00     0.210 HD
ENDBRANCH   9  19
ENDBRANCH   8   9
ENDBRANCH   7   8
ENDBRANCH   5   7
BRANCH   4  21
HETATM   21  O   UNL     1     -28.604  -7.468 -17.512  1.00  0.00    -0.388 OA
HETATM   22  H   UNL     1     -29.530  -7.763 -17.639  1.00  0.00     0.210 HD
ENDBRANCH   4  21
BRANCH   3  23
HETATM   23  O   UNL     1     -30.955  -6.210 -16.532  1.00  0.00    -0.390 OA
HETATM   24  H   UNL     1     -31.539  -5.450 -16.716  1.00  0.00     0.210 HD
ENDBRANCH   3  23
BRANCH   1  25
HETATM   25  C   UNL     1     -27.749  -3.118 -15.980  1.00  0.00     0.198 C 
BRANCH  25  26
HETATM   26  O   UNL     1     -26.392  -3.008 -15.560  1.00  0.00    -0.398 OA
HETATM   27  H   UNL     1     -26.148  -2.063 -15.568  1.00  0.00     0.209 HD
ENDBRANCH  25  26
ENDBRANCH   1  25
BRANCH   2  28
HETATM   28  O   UNL     1     -29.433  -5.206 -18.665  1.00  0.00    -0.390 OA
HETATM   29  H   UNL     1     -29.587  -6.166 -18.537  1.00  0.00     0.210 HD
ENDBRANCH   2  28
TORSDOF 15
BEGIN_RES ARG D 557
REMARK  4 active torsions:
REMARK  status: ('A' for Active; 'I' for Inactive)
REMARK    1  A    between atoms: CA   and  CB  
REMARK    2  A    between atoms: CB   and  CG  
REMARK    3  A    between atoms: CG   and  CD  
REMARK    4  A    between atoms: CD   and  NE  
REMARK       I    between atoms: NE   and  CZ  
REMARK       I    between atoms: CZ   and  NH1 
REMARK       I    between atoms: CZ   and  NH2 
ROOT
ATOM      1  CA  ARG D 557     -26.217   2.705 -17.014  1.00 35.49     0.159 C 
ENDROOT
BRANCH   1   2
ATOM      2  CB  ARG D 557     -26.789   1.319 -17.183  1.00 35.49     0.034 C 
BRANCH   2   3
ATOM      3  CG  ARG D 557     -25.835   0.204 -17.162  1.00 35.49     0.027 C 
BRANCH   3   4
ATOM      4  CD  ARG D 557     -24.718   0.433 -16.217  1.00 35.49     0.116 C 
BRANCH   4   5
ATOM      5  NE  ARG D 557     -24.827  -0.387 -15.040  1.00 35.49    -0.212 N 
ATOM      6  CZ  ARG D 557     -23.996  -1.344 -14.691  1.00 35.49     0.666 C 
ATOM      7  NH1 ARG D 557     -22.946  -1.672 -15.421  1.00 35.49    -0.235 N 
ATOM      8  NH2 ARG D 557     -24.237  -1.972 -13.577  1.00 35.49    -0.235 N 
ATOM      9  HH  ARG D 557     -22.766  -1.270 -16.156  1.00 35.49     0.174 HD
ATOM     10  HH  ARG D 557     -22.437  -2.303 -15.142  1.00 35.49     0.174 HD
ATOM     11  HH  ARG D 557     -24.919  -1.734 -13.123  1.00 35.49     0.174 HD
ATOM     12  HH  ARG D 557     -23.722  -2.593 -13.317  1.00 35.49     0.174 HD
ATOM     13  HE  ARG D 557     -25.515  -0.293 -14.550  1.00 35.49     0.178 HD
ENDBRANCH   4   5
ENDBRANCH   3   4
ENDBRANCH   2   3
ENDBRANCH   1   2
END_RES ARG D 557
BEGIN_RES GLU D 570
REMARK  3 active torsions:
REMARK  status: ('A' for Active; 'I' for Inactive)
REMARK    5  A    between atoms: CA   and  CB  
REMARK    6  A    between atoms: CB   and  CG  
REMARK    7  A    between atoms: CG   and  CD  
ROOT
ATOM     14  CA  GLU D 570     -18.033  -6.348 -13.375  1.00 32.92     0.160 C 
ENDROOT
BRANCH  14  15
ATOM     15  CB  GLU D 570     -19.500  -6.345 -13.794  1.00 32.92     0.043 C 
BRANCH  15  16
ATOM     16  CG  GLU D 570     -20.441  -5.528 -12.985  1.00 32.92     0.100 C 
BRANCH  16  17
ATOM     17  CD  GLU D 570     -21.720  -5.200 -13.721  1.00 32.92     0.185 C 
ATOM     18  OE1 GLU D 570     -22.139  -5.992 -14.588  1.00 32.92    -0.647 OA
ATOM     19  OE2 GLU D 570     -22.299  -4.133 -13.440  1.00 32.92    -0.647 OA
ENDBRANCH  16  17
ENDBRANCH  15  16
ENDBRANCH  14  15
END_RES GLU D 570
ENDMDL
MODEL 7
REMARK VINA RESULT:      -6.7      2.967      5.632
REMARK  15 active torsions:
REMARK  status: ('A' for Active; 'I' for Inactive)
REMARK    1  A    between atoms: C_1  and  C_2 
REMARK    2  A    between atoms: C_1  and  O_21 
REMARK    3  A    between atoms: C_3  and  O_20 
REMARK    4  A    between atoms: C_4  and  O_19 
REMARK    5  A    between atoms: C_5  and  O_18 
REMARK    6  A    between atoms: C_6  and  O_8 
REMARK    7  A    between atoms: O_8  and  C_9 
REMARK    8  A    between atoms: C_9  and  C_10 
REMARK    9  A    between atoms: C_10  and  C_11 
REMARK   10  A    between atoms: C_10  and  O_17 
REMARK   11  A    between atoms: C_11  and  C_12 
REMARK   12  A    between atoms: C_11  and  O_16 
REMARK   13  A    between atoms: C_12  and  C_13 
REMARK   14  A    between atoms: C_12  and  O_15 
REMARK   15  A    between atoms: C_13  and  O_14 
ROOT
HETATM    1  C   UNL     1     -24.667  -2.256 -13.570  1.00  0.00     0.179 C 
HETATM    2  C   UNL     1     -23.618  -2.460 -12.460  1.00  0.00     0.180 C 
HETATM    3  C   UNL     1     -22.567  -3.500 -12.886  1.00  0.00     0.183 C 
HETATM    4  C   UNL     1     -23.248  -4.795 -13.330  1.00  0.00     0.204 C 
HETATM    5  C   UNL     1     -24.237  -4.463 -14.460  1.00  0.00     0.291 C 
HETATM    6  O   UNL     1     -25.210  -3.512 -14.036  1.00  0.00    -0.348 OA
ENDROOT
BRANCH   5   7
HETATM    7  O   UNL     1     -24.860  -5.690 -14.844  1.00  0.00    -0.356 OA
BRANCH   7   8
HETATM    8  C   UNL     1     -23.964  -6.791 -14.997  1.00  0.00     0.205 C 
BRANCH   8   9
HETATM    9  C   UNL     1     -24.135  -7.605 -16.292  1.00  0.00     0.173 C 
BRANCH   9  10
HETATM   10  C   UNL     1     -24.554  -6.771 -17.524  1.00  0.00     0.179 C 
BRANCH  10  11
HETATM   11  C   UNL     1     -24.193  -7.458 -18.859  1.00  0.00     0.173 C 
BRANCH  11  12
HETATM   12  C   UNL     1     -24.910  -6.873 -20.084  1.00  0.00     0.198 C 
BRANCH  12  13
HETATM   13  O   UNL     1     -26.178  -7.502 -20.247  1.00  0.00    -0.398 OA
HETATM   14  H   UNL     1     -26.350  -7.976 -19.407  1.00  0.00     0.209 HD
ENDBRANCH  12  13
ENDBRANCH  11  12
BRANCH  11  15
HETATM   15  O   UNL     1     -22.778  -7.302 -19.094  1.00  0.00    -0.391 OA
HETATM   16  H   UNL     1     -22.568  -7.880 -19.856  1.00  0.00     0.210 HD
ENDBRANCH  11  15
ENDBRANCH  10  11
BRANCH  10  17
HETATM   17  O   UNL     1     -25.947  -6.430 -17.557  1.00  0.00    -0.390 OA
HETATM   18  H   UNL     1     -26.475  -7.201 -17.304  1.00  0.00     0.210 HD
ENDBRANCH  10  17
ENDBRANCH   9  10
BRANCH   9  19
HETATM   19  O   UNL     1     -22.926  -8.315 -16.571  1.00  0.00    -0.391 OA
HETATM   20  H   UNL     1     -22.331  -7.737 -17.084  1.00  0.00     0.210 HD
ENDBRANCH   9  19
ENDBRANCH   8   9
ENDBRANCH   7   8
ENDBRANCH   5   7
BRANCH   4  21
HETATM   21  O   UNL     1     -23.962  -5.378 -12.217  1.00  0.00    -0.388 OA
HETATM   22  H   UNL     1     -24.344  -4.615 -11.734  1.00  0.00     0.210 HD
ENDBRANCH   4  21
BRANCH   3  23
HETATM   23  O   UNL     1     -21.661  -3.763 -11.815  1.00  0.00    -0.390 OA
HETATM   24  H   UNL     1     -20.946  -4.305 -12.200  1.00  0.00     0.210 HD
ENDBRANCH   3  23
BRANCH   1  25
HETATM   25  C   UNL     1     -24.129  -1.438 -14.755  1.00  0.00     0.198 C 
BRANCH  25  26
HETATM   26  O   UNL     1     -24.862  -0.225 -14.907  1.00  0.00    -0.398 OA
HETATM   27  H   UNL     1     -25.682  -0.298 -14.382  1.00  0.00     0.209 HD
ENDBRANCH  25  26
ENDBRANCH   1  25
BRANCH   2  28
HETATM   28  O   UNL     1     -24.274  -2.906 -11.258  1.00  0.00    -0.390 OA
HETATM   29  H   UNL     1     -25.106  -3.351 -11.525  1.00  0.00     0.210 HD
ENDBRANCH   2  28
TORSDOF 15
BEGIN_RES ARG D 557
REMARK  4 active torsions:
REMARK  status: ('A' for Active; 'I' for Inactive)
REMARK    1  A    between atoms: CA   and  CB  
REMARK    2  A    between atoms: CB   and  CG  
REMARK    3  A    between atoms: CG   and  CD  
REMARK    4  A    between atoms: CD   and  NE  
REMARK       I    between atoms: NE   and  CZ  
REMARK       I    between atoms: CZ   and  NH1 
REMARK       I    between atoms: CZ   and  NH2 
ROOT
ATOM      1  CA  ARG D 557     -26.217   2.705 -17.014  1.00 35.49     0.159 C 
ENDROOT
BRANCH   1   2
ATOM      2  CB  ARG D 557     -26.789   1.319 -17.183  1.00 35.49     0.034 C 
BRANCH   2   3
ATOM      3  CG  ARG D 557     -28.235   1.225 -17.418  1.00 35.49     0.027 C 
BRANCH   3   4
ATOM      4  CD  ARG D 557     -28.900   0.292 -16.480  1.00 35.49     0.116 C 
BRANCH   4   5
ATOM      5  NE  ARG D 557     -29.157  -0.990 -17.080  1.00 35.49    -0.212 N 
ATOM      6  CZ  ARG D 557     -28.438  -2.077 -16.909  1.00 35.49     0.666 C 
ATOM      7  NH1 ARG D 557     -27.358  -2.100 -16.150  1.00 35.49    -0.235 N 
ATOM      8  NH2 ARG D 557     -28.832  -3.159 -17.516  1.00 35.49    -0.235 N 
ATOM      9  HH  ARG D 557     -27.082  -1.400 -15.740  1.00 35.49     0.174 HD
ATOM     10  HH  ARG D 557     -26.931  -2.839 -16.073  1.00 35.49     0.174 HD
ATOM     11  HH  ARG D 557     -29.537  -3.116 -17.993  1.00 35.49     0.174 HD
ATOM     12  HH  ARG D 557     -28.396  -3.880 -17.426  1.00 35.49     0.174 HD
ATOM     13  HE  ARG D 557     -29.793  -1.047 -17.642  1.00 35.49     0.178 HD
ENDBRANCH   4   5
ENDBRANCH   3   4
ENDBRANCH   2   3
ENDBRANCH   1   2
END_RES ARG D 557
BEGIN_RES GLU D 570
REMARK  3 active torsions:
REMARK  status: ('A' for Active; 'I' for Inactive)
REMARK    5  A    between atoms: CA   and  CB  
REMARK    6  A    between atoms: CB   and  CG  
REMARK    7  A    between atoms: CG   and  CD  
ROOT
ATOM     14  CA  GLU D 570     -18.033  -6.348 -13.375  1.00 32.92     0.160 C 
ENDROOT
BRANCH  14  15
ATOM     15  CB  GLU D 570     -19.500  -6.345 -13.794  1.00 32.92     0.043 C 
BRANCH  15  16
ATOM     16  CG  GLU D 570     -19.840  -6.964 -15.101  1.00 32.92     0.100 C 
BRANCH  16  17
ATOM     17  CD  GLU D 570     -20.532  -6.008 -16.044  1.00 32.92     0.185 C 
ATOM     18  OE1 GLU D 570     -20.875  -4.886 -15.624  1.00 32.92    -0.647 OA
ATOM     19  OE2 GLU D 570     -20.750  -6.391 -17.210  1.00 32.92    -0.647 OA
ENDBRANCH  16  17
ENDBRANCH  15  16
ENDBRANCH  14  15
END_RES GLU D 570
ENDMDL
MODEL 8
REMARK VINA RESULT:      -6.4      2.979      5.998
REMARK  15 active torsions:
REMARK  status: ('A' for Active; 'I' for Inactive)
REMARK    1  A    between atoms: C_1  and  C_2 
REMARK    2  A    between atoms: C_1  and  O_21 
REMARK    3  A    between atoms: C_3  and  O_20 
REMARK    4  A    between atoms: C_4  and  O_19 
REMARK    5  A    between atoms: C_5  and  O_18 
REMARK    6  A    between atoms: C_6  and  O_8 
REMARK    7  A    between atoms: O_8  and  C_9 
REMARK    8  A    between atoms: C_9  and  C_10 
REMARK    9  A    between atoms: C_10  and  C_11 
REMARK   10  A    between atoms: C_10  and  O_17 
REMARK   11  A    between atoms: C_11  and  C_12 
REMARK   12  A    between atoms: C_11  and  O_16 
REMARK   13  A    between atoms: C_12  and  C_13 
REMARK   14  A    between atoms: C_12  and  O_15 
REMARK   15  A    between atoms: C_13  and  O_14 
ROOT
HETATM    1  C   UNL     1     -22.982  -4.514 -10.981  1.00  0.00     0.179 C 
HETATM    2  C   UNL     1     -22.634  -3.107 -11.506  1.00  0.00     0.180 C 
HETATM    3  C   UNL     1     -23.590  -2.696 -12.640  1.00  0.00     0.183 C 
HETATM    4  C   UNL     1     -23.615  -3.767 -13.731  1.00  0.00     0.204 C 
HETATM    5  C   UNL     1     -24.010  -5.108 -13.088  1.00  0.00     0.291 C 
HETATM    6  O   UNL     1     -23.100  -5.476 -12.054  1.00  0.00    -0.348 OA
ENDROOT
BRANCH   5   7
HETATM    7  O   UNL     1     -24.015  -6.085 -14.130  1.00  0.00    -0.356 OA
BRANCH   7   8
HETATM    8  C   UNL     1     -24.975  -5.850 -15.161  1.00  0.00     0.205 C 
BRANCH   8   9
HETATM    9  C   UNL     1     -25.178  -7.014 -16.148  1.00  0.00     0.173 C 
BRANCH   9  10
HETATM   10  C   UNL     1     -25.197  -6.599 -17.636  1.00  0.00     0.179 C 
BRANCH  10  11
HETATM   11  C   UNL     1     -24.162  -7.372 -18.483  1.00  0.00     0.173 C 
BRANCH  11  12
HETATM   12  C   UNL     1     -24.448  -7.362 -19.991  1.00  0.00     0.198 C 
BRANCH  12  13
HETATM   13  O   UNL     1     -23.958  -8.564 -20.582  1.00  0.00    -0.398 OA
HETATM   14  H   UNL     1     -23.240  -8.289 -21.188  1.00  0.00     0.209 HD
ENDBRANCH  12  13
ENDBRANCH  11  12
BRANCH  11  15
HETATM   15  O   UNL     1     -22.867  -6.762 -18.304  1.00  0.00    -0.391 OA
HETATM   16  H   UNL     1     -23.011  -5.993 -17.714  1.00  0.00     0.210 HD
ENDBRANCH  11  15
ENDBRANCH  10  11
BRANCH  10  17
HETATM   17  O   UNL     1     -26.479  -6.729 -18.266  1.00  0.00    -0.390 OA
HETATM   18  H   UNL     1     -26.908  -5.862 -18.307  1.00  0.00     0.210 HD
ENDBRANCH  10  17
ENDBRANCH   9  10
BRANCH   9  19
HETATM   19  O   UNL     1     -24.170  -8.004 -15.930  1.00  0.00    -0.391 OA
HETATM   20  H   UNL     1     -24.601  -8.862 -15.758  1.00  0.00     0.210 HD
ENDBRANCH   9  19
ENDBRANCH   8   9
ENDBRANCH   7   8
ENDBRANCH   5   7
BRANCH   4  21
HETATM   21  O   UNL     1     -22.305  -3.885 -14.331  1.00  0.00    -0.388 OA
HETATM   22  H   UNL     1     -21.683  -3.571 -13.642  1.00  0.00     0.210 HD
ENDBRANCH   4  21
BRANCH   3  23
HETATM   23  O   UNL     1     -23.197  -1.439 -13.192  1.00  0.00    -0.390 OA
HETATM   24  H   UNL     1     -23.362  -1.510 -14.152  1.00  0.00     0.210 HD
ENDBRANCH   3  23
BRANCH   1  25
HETATM   25  C   UNL     1     -24.249  -4.529 -10.112  1.00  0.00     0.198 C 
BRANCH  25  26
HETATM   26  O   UNL     1     -24.107  -3.657  -8.994  1.00  0.00    -0.398 OA
HETATM   27  H   UNL     1     -24.365  -4.149  -8.191  1.00  0.00     0.209 HD
ENDBRANCH  25  26
ENDBRANCH   1  25
BRANCH   2  28
HETATM   28  O   UNL     1     -21.279  -3.101 -11.993  1.00  0.00    -0.390 OA
HETATM   29  H   UNL     1     -20.933  -4.014 -11.911  1.00  0.00     0.210 HD
ENDBRANCH   2  28
TORSDOF 15
BEGIN_RES ARG D 557
REMARK  4 active torsions:
REMARK  status: ('A' for Active; 'I' for Inactive)
REMARK    1  A    between atoms: CA   and  CB  
REMARK    2  A    between atoms: CB   and  CG  
REMARK    3  A    between atoms: CG   and  CD  
REMARK    4  A    between atoms: CD   and  NE  
REMARK       I    between atoms: NE   and  CZ  
REMARK       I    between atoms: CZ   and  NH1 
REMARK       I    between atoms: CZ   and  NH2 
ROOT
ATOM      1  CA  ARG D 557     -26.217   2.705 -17.014  1.00 35.49     0.159 C 
ENDROOT
BRANCH   1   2
ATOM      2  CB  ARG D 557     -26.789   1.319 -17.183  1.00 35.49     0.034 C 
BRANCH   2   3
ATOM      3  CG  ARG D 557     -28.220   1.229 -17.497  1.00 35.49     0.027 C 
BRANCH   3   4
ATOM      4  CD  ARG D 557     -28.925   0.248 -16.640  1.00 35.49     0.116 C 
BRANCH   4   5
ATOM      5  NE  ARG D 557     -28.105  -0.896 -16.337  1.00 35.49    -0.212 N 
ATOM      6  CZ  ARG D 557     -28.335  -2.130 -16.725  1.00 35.49     0.666 C 
ATOM      7  NH1 ARG D 557     -29.389  -2.461 -17.448  1.00 35.49    -0.235 N 
ATOM      8  NH2 ARG D 557     -27.472  -3.040 -16.376  1.00 35.49    -0.235 N 
ATOM      9  HH  ARG D 557     -29.968  -1.878 -17.691  1.00 35.49     0.174 HD
ATOM     10  HH  ARG D 557     -29.485  -3.282 -17.675  1.00 35.49     0.174 HD
ATOM     11  HH  ARG D 557     -26.797  -2.795 -15.916  1.00 35.49     0.174 HD
ATOM     12  HH  ARG D 557     -27.585  -3.846 -16.611  1.00 35.49     0.174 HD
ATOM     13  HE  ARG D 557     -27.443  -0.785 -15.814  1.00 35.49     0.178 HD
ENDBRANCH   4   5
ENDBRANCH   3   4
ENDBRANCH   2   3
ENDBRANCH   1   2
END_RES ARG D 557
BEGIN_RES GLU D 570
REMARK  3 active torsions:
REMARK  status: ('A' for Active; 'I' for Inactive)
REMARK    5  A    between atoms: CA   and  CB  
REMARK    6  A    between atoms: CB   and  CG  
REMARK    7  A    between atoms: CG   and  CD  
ROOT
ATOM     14  CA  GLU D 570     -18.033  -6.348 -13.375  1.00 32.92     0.160 C 
ENDROOT
BRANCH  14  15
ATOM     15  CB  GLU D 570     -19.500  -6.345 -13.794  1.00 32.92     0.043 C 
BRANCH  15  16
ATOM     16  CG  GLU D 570     -20.054  -7.603 -14.357  1.00 32.92     0.100 C 
BRANCH  16  17
ATOM     17  CD  GLU D 570     -20.921  -7.374 -15.573  1.00 32.92     0.185 C 
ATOM     18  OE1 GLU D 570     -21.294  -8.355 -16.244  1.00 32.92    -0.647 OA
ATOM     19  OE2 GLU D 570     -21.215  -6.198 -15.867  1.00 32.92    -0.647 OA
ENDBRANCH  16  17
ENDBRANCH  15  16
ENDBRANCH  14  15
END_RES GLU D 570
ENDMDL
MODEL 9
REMARK VINA RESULT:      -6.3      5.362      9.434
REMARK  15 active torsions:
REMARK  status: ('A' for Active; 'I' for Inactive)
REMARK    1  A    between atoms: C_1  and  C_2 
REMARK    2  A    between atoms: C_1  and  O_21 
REMARK    3  A    between atoms: C_3  and  O_20 
REMARK    4  A    between atoms: C_4  and  O_19 
REMARK    5  A    between atoms: C_5  and  O_18 
REMARK    6  A    between atoms: C_6  and  O_8 
REMARK    7  A    between atoms: O_8  and  C_9 
REMARK    8  A    between atoms: C_9  and  C_10 
REMARK    9  A    between atoms: C_10  and  C_11 
REMARK   10  A    between atoms: C_10  and  O_17 
REMARK   11  A    between atoms: C_11  and  C_12 
REMARK   12  A    between atoms: C_11  and  O_16 
REMARK   13  A    between atoms: C_12  and  C_13 
REMARK   14  A    between atoms: C_12  and  O_15 
REMARK   15  A    between atoms: C_13  and  O_14 
ROOT
HETATM    1  C   UNL     1     -21.947  -4.538 -10.829  1.00  0.00     0.179 C 
HETATM    2  C   UNL     1     -23.474  -4.424 -10.995  1.00  0.00     0.180 C 
HETATM    3  C   UNL     1     -24.031  -3.269 -10.143  1.00  0.00     0.183 C 
HETATM    4  C   UNL     1     -23.582  -3.416  -8.688  1.00  0.00     0.204 C 
HETATM    5  C   UNL     1     -22.046  -3.481  -8.656  1.00  0.00     0.291 C 
HETATM    6  O   UNL     1     -21.556  -4.568  -9.437  1.00  0.00    -0.348 OA
ENDROOT
BRANCH   5   7
HETATM    7  O   UNL     1     -21.662  -3.626  -7.288  1.00  0.00    -0.356 OA
BRANCH   7   8
HETATM    8  C   UNL     1     -20.792  -4.728  -7.028  1.00  0.00     0.205 C 
BRANCH   8   9
HETATM    9  C   UNL     1     -21.451  -5.940  -6.344  1.00  0.00     0.173 C 
BRANCH   9  10
HETATM   10  C   UNL     1     -20.583  -6.618  -5.262  1.00  0.00     0.179 C 
BRANCH  10  11
HETATM   11  C   UNL     1     -21.406  -7.073  -4.036  1.00  0.00     0.173 C 
BRANCH  11  12
HETATM   12  C   UNL     1     -20.689  -8.091  -3.138  1.00  0.00     0.198 C 
BRANCH  12  13
HETATM   13  O   UNL     1     -20.975  -9.414  -3.586  1.00  0.00    -0.398 OA
HETATM   14  H   UNL     1     -21.873  -9.619  -3.252  1.00  0.00     0.209 HD
ENDBRANCH  12  13
ENDBRANCH  11  12
BRANCH  11  15
HETATM   15  O   UNL     1     -21.688  -5.922  -3.213  1.00  0.00    -0.391 OA
HETATM   16  H   UNL     1     -21.300  -5.155  -3.682  1.00  0.00     0.210 HD
ENDBRANCH  11  15
ENDBRANCH  10  11
BRANCH  10  17
HETATM   17  O   UNL     1     -19.825  -7.741  -5.734  1.00  0.00    -0.390 OA
HETATM   18  H   UNL     1     -18.959  -7.438  -6.045  1.00  0.00     0.210 HD
ENDBRANCH  10  17
ENDBRANCH   9  10
BRANCH   9  19
HETATM   19  O   UNL     1     -22.707  -5.546  -5.787  1.00  0.00    -0.391 OA
HETATM   20  H   UNL     1     -22.559  -5.195  -4.889  1.00  0.00     0.210 HD
ENDBRANCH   9  19
ENDBRANCH   8   9
ENDBRANCH   7   8
ENDBRANCH   5   7
BRANCH   4  21
HETATM   21  O   UNL     1     -24.130  -4.631  -8.128  1.00  0.00    -0.388 OA
HETATM   22  H   UNL     1     -24.750  -4.966  -8.809  1.00  0.00     0.210 HD
ENDBRANCH   4  21
BRANCH   3  23
HETATM   23  O   UNL     1     -25.456  -3.236 -10.217  1.00  0.00    -0.390 OA
HETATM   24  H   UNL     1     -25.699  -3.871 -10.918  1.00  0.00     0.210 HD
ENDBRANCH   3  23
BRANCH   1  25
HETATM   25  C   UNL     1     -21.182  -3.431 -11.572  1.00  0.00     0.198 C 
BRANCH  25  26
HETATM   26  O   UNL     1     -21.707  -3.245 -12.884  1.00  0.00    -0.398 OA
HETATM   27  H   UNL     1     -22.680  -3.311 -12.833  1.00  0.00     0.209 HD
ENDBRANCH  25  26
ENDBRANCH   1  25
BRANCH   2  28
HETATM   28  O   UNL     1     -24.093  -5.660 -10.591  1.00  0.00    -0.390 OA
HETATM   29  H   UNL     1     -23.440  -6.376 -10.739  1.00  0.00     0.210 HD
ENDBRANCH   2  28
TORSDOF 15
BEGIN_RES ARG D 557
REMARK  4 active torsions:
REMARK  status: ('A' for Active; 'I' for Inactive)
REMARK    1  A    between atoms: CA   and  CB  
REMARK    2  A    between atoms: CB   and  CG  
REMARK    3  A    between atoms: CG   and  CD  
REMARK    4  A    between atoms: CD   and  NE  
REMARK       I    between atoms: NE   and  CZ  
REMARK       I    between atoms: CZ   and  NH1 
REMARK       I    between atoms: CZ   and  NH2 
ROOT
ATOM      1  CA  ARG D 557     -26.217   2.705 -17.014  1.00 35.49     0.159 C 
ENDROOT
BRANCH   1   2
ATOM      2  CB  ARG D 557     -26.789   1.319 -17.183  1.00 35.49     0.034 C 
BRANCH   2   3
ATOM      3  CG  ARG D 557     -25.835   0.204 -17.164  1.00 35.49     0.027 C 
BRANCH   3   4
ATOM      4  CD  ARG D 557     -24.750   0.405 -16.176  1.00 35.49     0.116 C 
BRANCH   4   5
ATOM      5  NE  ARG D 557     -24.898  -0.448 -15.027  1.00 35.49    -0.212 N 
ATOM      6  CZ  ARG D 557     -24.079  -1.414 -14.677  1.00 35.49     0.666 C 
ATOM      7  NH1 ARG D 557     -23.003  -1.721 -15.379  1.00 35.49    -0.235 N 
ATOM      8  NH2 ARG D 557     -24.358  -2.074 -13.590  1.00 35.49    -0.235 N 
ATOM      9  HH  ARG D 557     -22.799  -1.299 -16.096  1.00 35.49     0.174 HD
ATOM     10  HH  ARG D 557     -22.504  -2.359 -15.100  1.00 35.49     0.174 HD
ATOM     11  HH  ARG D 557     -25.055  -1.849 -13.154  1.00 35.49     0.174 HD
ATOM     12  HH  ARG D 557     -23.850  -2.702 -13.331  1.00 35.49     0.174 HD
ATOM     13  HE  ARG D 557     -25.604  -0.368 -14.558  1.00 35.49     0.178 HD
ENDBRANCH   4   5
ENDBRANCH   3   4
ENDBRANCH   2   3
ENDBRANCH   1   2
END_RES ARG D 557
BEGIN_RES GLU D 570
REMARK  3 active torsions:
REMARK  status: ('A' for Active; 'I' for Inactive)
REMARK    5  A    between atoms: CA   and  CB  
REMARK    6  A    between atoms: CB   and  CG  
REMARK    7  A    between atoms: CG   and  CD  
ROOT
ATOM     14  CA  GLU D 570     -18.033  -6.348 -13.375  1.00 32.92     0.160 C 
ENDROOT
BRANCH  14  15
ATOM     15  CB  GLU D 570     -19.500  -6.345 -13.794  1.00 32.92     0.043 C 
BRANCH  15  16
ATOM     16  CG  GLU D 570     -19.819  -5.871 -15.166  1.00 32.92     0.100 C 
BRANCH  16  17
ATOM     17  CD  GLU D 570     -21.298  -5.655 -15.385  1.00 32.92     0.185 C 
ATOM     18  OE1 GLU D 570     -21.711  -4.508 -15.644  1.00 32.92    -0.647 OA
ATOM     19  OE2 GLU D 570     -22.055  -6.640 -15.280  1.00 32.92    -0.647 OA
ENDBRANCH  16  17
ENDBRANCH  15  16
ENDBRANCH  14  15
END_RES GLU D 570
ENDMDL
