MODEL 1
REMARK VINA RESULT:      -4.0      0.000      0.000
REMARK  2 active torsions:
REMARK  status: ('A' for Active; 'I' for Inactive)
REMARK    1  A    between atoms: C_1  and  O_3 
REMARK    2  A    between atoms: C_1  and  O_4 
ROOT
HETATM    1  C   UNL     1     -24.829  -3.282  -9.766  1.00  0.00     0.329 C 
HETATM    2  O   UNL     1     -24.073  -2.981 -10.733  1.00  0.00    -0.624 OA
ENDROOT
BRANCH   1   3
HETATM    3  O   UNL     1     -24.232  -3.590  -8.644  1.00  0.00    -0.753 OA
HETATM    4  H   UNL     1     -24.413  -4.549  -8.637  1.00  0.00     0.170 HD
ENDBRANCH   1   3
BRANCH   1   5
HETATM    5  O   UNL     1     -26.083  -3.200  -9.849  1.00  0.00    -0.121 OA
HETATM    6 NA   UNL     2     -26.230  -5.282  -9.354  1.00  0.00     0.000 Na
ENDBRANCH   1   5
TORSDOF 2
BEGIN_RES ARG D 557
REMARK  4 active torsions:
REMARK  status: ('A' for Active; 'I' for Inactive)
REMARK    1  A    between atoms: CA   and  CB  
REMARK    2  A    between atoms: CB   and  CG  
REMARK    3  A    between atoms: CG   and  CD  
REMARK    4  A    between atoms: CD   and  NE  
REMARK       I    between atoms: NE   and  CZ  
REMARK       I    between atoms: CZ   and  NH1 
REMARK       I    between atoms: CZ   and  NH2 
ROOT
ATOM      1  CA  ARG D 557     -26.217   2.705 -17.014  1.00 35.49     0.159 C 
ENDROOT
BRANCH   1   2
ATOM      2  CB  ARG D 557     -26.789   1.319 -17.183  1.00 35.49     0.034 C 
BRANCH   2   3
ATOM      3  CG  ARG D 557     -25.835   0.203 -17.160  1.00 35.49     0.027 C 
BRANCH   3   4
ATOM      4  CD  ARG D 557     -24.758   0.403 -16.164  1.00 35.49     0.116 C 
BRANCH   4   5
ATOM      5  NE  ARG D 557     -24.921  -0.445 -15.012  1.00 35.49    -0.212 N 
ATOM      6  CZ  ARG D 557     -24.113  -1.417 -14.653  1.00 35.49     0.666 C 
ATOM      7  NH1 ARG D 557     -23.037  -1.738 -15.348  1.00 35.49    -0.235 N 
ATOM      8  NH2 ARG D 557     -24.405  -2.069 -13.565  1.00 35.49    -0.235 N 
ATOM      9  HH  ARG D 557     -22.825  -1.321 -16.066  1.00 35.49     0.174 HD
ATOM     10  HH  ARG D 557     -22.546  -2.380 -15.064  1.00 35.49     0.174 HD
ATOM     11  HH  ARG D 557     -25.102  -1.836 -13.133  1.00 35.49     0.174 HD
ATOM     12  HH  ARG D 557     -23.905  -2.701 -13.300  1.00 35.49     0.174 HD
ATOM     13  HE  ARG D 557     -25.627  -0.355 -14.547  1.00 35.49     0.178 HD
ENDBRANCH   4   5
ENDBRANCH   3   4
ENDBRANCH   2   3
ENDBRANCH   1   2
END_RES ARG D 557
BEGIN_RES GLU D 570
REMARK  3 active torsions:
REMARK  status: ('A' for Active; 'I' for Inactive)
REMARK    5  A    between atoms: CA   and  CB  
REMARK    6  A    between atoms: CB   and  CG  
REMARK    7  A    between atoms: CG   and  CD  
ROOT
ATOM     14  CA  GLU D 570     -18.033  -6.348 -13.375  1.00 32.92     0.160 C 
ENDROOT
BRANCH  14  15
ATOM     15  CB  GLU D 570     -19.500  -6.345 -13.794  1.00 32.92     0.043 C 
BRANCH  15  16
ATOM     16  CG  GLU D 570     -20.441  -5.526 -12.986  1.00 32.92     0.100 C 
BRANCH  16  17
ATOM     17  CD  GLU D 570     -21.717  -5.196 -13.724  1.00 32.92     0.185 C 
ATOM     18  OE1 GLU D 570     -22.129  -5.978 -14.603  1.00 32.92    -0.647 OA
ATOM     19  OE2 GLU D 570     -22.303  -4.134 -13.433  1.00 32.92    -0.647 OA
ENDBRANCH  16  17
ENDBRANCH  15  16
ENDBRANCH  14  15
END_RES GLU D 570
ENDMDL
MODEL 2
REMARK VINA RESULT:      -3.9      3.672      4.345
REMARK  2 active torsions:
REMARK  status: ('A' for Active; 'I' for Inactive)
REMARK    1  A    between atoms: C_1  and  O_3 
REMARK    2  A    between atoms: C_1  and  O_4 
ROOT
HETATM    1  C   UNL     1     -24.160  -1.970 -14.501  1.00  0.00     0.329 C 
HETATM    2  O   UNL     1     -23.125  -2.081 -15.218  1.00  0.00    -0.624 OA
ENDROOT
BRANCH   1   3
HETATM    3  O   UNL     1     -23.977  -2.060 -13.210  1.00  0.00    -0.753 OA
HETATM    4  H   UNL     1     -24.906  -1.970 -12.921  1.00  0.00     0.170 HD
ENDBRANCH   1   3
BRANCH   1   5
HETATM    5  O   UNL     1     -25.286  -1.695 -14.994  1.00  0.00    -0.121 OA
HETATM    6 NA   UNL     2     -25.031   0.345 -14.384  1.00  0.00     0.000 Na
ENDBRANCH   1   5
TORSDOF 2
BEGIN_RES ARG D 557
REMARK  4 active torsions:
REMARK  status: ('A' for Active; 'I' for Inactive)
REMARK    1  A    between atoms: CA   and  CB  
REMARK    2  A    between atoms: CB   and  CG  
REMARK    3  A    between atoms: CG   and  CD  
REMARK    4  A    between atoms: CD   and  NE  
REMARK       I    between atoms: NE   and  CZ  
REMARK       I    between atoms: CZ   and  NH1 
REMARK       I    between atoms: CZ   and  NH2 
ROOT
ATOM      1  CA  ARG D 557     -26.217   2.705 -17.014  1.00 35.49     0.159 C 
ENDROOT
BRANCH   1   2
ATOM      2  CB  ARG D 557     -26.789   1.319 -17.183  1.00 35.49     0.034 C 
BRANCH   2   3
ATOM      3  CG  ARG D 557     -28.234   1.226 -17.426  1.00 35.49     0.027 C 
BRANCH   3   4
ATOM      4  CD  ARG D 557     -28.905   0.300 -16.485  1.00 35.49     0.116 C 
BRANCH   4   5
ATOM      5  NE  ARG D 557     -28.127  -0.886 -16.242  1.00 35.49    -0.212 N 
ATOM      6  CZ  ARG D 557     -28.380  -2.083 -16.721  1.00 35.49     0.666 C 
ATOM      7  NH1 ARG D 557     -29.422  -2.332 -17.493  1.00 35.49    -0.235 N 
ATOM      8  NH2 ARG D 557     -27.553  -3.040 -16.414  1.00 35.49    -0.235 N 
ATOM      9  HH  ARG D 557     -29.978  -1.717 -17.709  1.00 35.49     0.174 HD
ATOM     10  HH  ARG D 557     -29.535  -3.132 -17.778  1.00 35.49     0.174 HD
ATOM     11  HH  ARG D 557     -26.885  -2.848 -15.921  1.00 35.49     0.174 HD
ATOM     12  HH  ARG D 557     -27.682  -3.825 -16.708  1.00 35.49     0.174 HD
ATOM     13  HE  ARG D 557     -27.477  -0.832 -15.696  1.00 35.49     0.178 HD
ENDBRANCH   4   5
ENDBRANCH   3   4
ENDBRANCH   2   3
ENDBRANCH   1   2
END_RES ARG D 557
BEGIN_RES GLU D 570
REMARK  3 active torsions:
REMARK  status: ('A' for Active; 'I' for Inactive)
REMARK    5  A    between atoms: CA   and  CB  
REMARK    6  A    between atoms: CB   and  CG  
REMARK    7  A    between atoms: CG   and  CD  
ROOT
ATOM     14  CA  GLU D 570     -18.033  -6.348 -13.375  1.00 32.92     0.160 C 
ENDROOT
BRANCH  14  15
ATOM     15  CB  GLU D 570     -19.500  -6.345 -13.794  1.00 32.92     0.043 C 
BRANCH  15  16
ATOM     16  CG  GLU D 570     -20.447  -5.554 -12.966  1.00 32.92     0.100 C 
BRANCH  16  17
ATOM     17  CD  GLU D 570     -21.688  -5.141 -13.723  1.00 32.92     0.185 C 
ATOM     18  OE1 GLU D 570     -21.654  -5.105 -14.968  1.00 32.92    -0.647 OA
ATOM     19  OE2 GLU D 570     -22.700  -4.834 -13.062  1.00 32.92    -0.647 OA
ENDBRANCH  16  17
ENDBRANCH  15  16
ENDBRANCH  14  15
END_RES GLU D 570
ENDMDL
MODEL 3
REMARK VINA RESULT:      -3.8      3.424      4.582
REMARK  2 active torsions:
REMARK  status: ('A' for Active; 'I' for Inactive)
REMARK    1  A    between atoms: C_1  and  O_3 
REMARK    2  A    between atoms: C_1  and  O_4 
ROOT
HETATM    1  C   UNL     1     -24.932  -7.065 -15.750  1.00  0.00     0.329 C 
HETATM    2  O   UNL     1     -26.111  -7.338 -15.382  1.00  0.00    -0.624 OA
ENDROOT
BRANCH   1   3
HETATM    3  O   UNL     1     -24.533  -5.838 -15.539  1.00  0.00    -0.753 OA
HETATM    4  H   UNL     1     -25.258  -5.544 -14.955  1.00  0.00     0.170 HD
ENDBRANCH   1   3
BRANCH   1   5
HETATM    5  O   UNL     1     -24.157  -7.946 -16.207  1.00  0.00    -0.121 OA
HETATM    6 NA   UNL     2     -22.688  -6.428 -16.580  1.00  0.00     0.000 Na
ENDBRANCH   1   5
TORSDOF 2
BEGIN_RES ARG D 557
REMARK  4 active torsions:
REMARK  status: ('A' for Active; 'I' for Inactive)
REMARK    1  A    between atoms: CA   and  CB  
REMARK    2  A    between atoms: CB   and  CG  
REMARK    3  A    between atoms: CG   and  CD  
REMARK    4  A    between atoms: CD   and  NE  
REMARK       I    between atoms: NE   and  CZ  
REMARK       I    between atoms: CZ   and  NH1 
REMARK       I    between atoms: CZ   and  NH2 
ROOT
ATOM      1  CA  ARG D 557     -26.217   2.705 -17.014  1.00 35.49     0.159 C 
ENDROOT
BRANCH   1   2
ATOM      2  CB  ARG D 557     -26.789   1.319 -17.183  1.00 35.49     0.034 C 
BRANCH   2   3
ATOM      3  CG  ARG D 557     -25.927   0.196 -16.793  1.00 35.49     0.027 C 
BRANCH   3   4
ATOM      4  CD  ARG D 557     -26.672  -0.866 -16.080  1.00 35.49     0.116 C 
BRANCH   4   5
ATOM      5  NE  ARG D 557     -25.859  -1.530 -15.095  1.00 35.49    -0.212 N 
ATOM      6  CZ  ARG D 557     -25.900  -2.811 -14.803  1.00 35.49     0.666 C 
ATOM      7  NH1 ARG D 557     -26.733  -3.647 -15.395  1.00 35.49    -0.235 N 
ATOM      8  NH2 ARG D 557     -25.075  -3.246 -13.896  1.00 35.49    -0.235 N 
ATOM      9  HH  ARG D 557     -27.283  -3.383 -15.996  1.00 35.49     0.174 HD
ATOM     10  HH  ARG D 557     -26.713  -4.472 -15.165  1.00 35.49     0.174 HD
ATOM     11  HH  ARG D 557     -24.543  -2.685 -13.536  1.00 35.49     0.174 HD
ATOM     12  HH  ARG D 557     -25.069  -4.067 -13.683  1.00 35.49     0.174 HD
ATOM     13  HE  ARG D 557     -25.345  -1.053 -14.614  1.00 35.49     0.178 HD
ENDBRANCH   4   5
ENDBRANCH   3   4
ENDBRANCH   2   3
ENDBRANCH   1   2
END_RES ARG D 557
BEGIN_RES GLU D 570
REMARK  3 active torsions:
REMARK  status: ('A' for Active; 'I' for Inactive)
REMARK    5  A    between atoms: CA   and  CB  
REMARK    6  A    between atoms: CB   and  CG  
REMARK    7  A    between atoms: CG   and  CD  
ROOT
ATOM     14  CA  GLU D 570     -18.033  -6.348 -13.375  1.00 32.92     0.160 C 
ENDROOT
BRANCH  14  15
ATOM     15  CB  GLU D 570     -19.500  -6.345 -13.794  1.00 32.92     0.043 C 
BRANCH  15  16
ATOM     16  CG  GLU D 570     -20.438  -5.514 -12.996  1.00 32.92     0.100 C 
BRANCH  16  17
ATOM     17  CD  GLU D 570     -21.711  -5.183 -13.740  1.00 32.92     0.185 C 
ATOM     18  OE1 GLU D 570     -21.657  -4.968 -14.966  1.00 32.92    -0.647 OA
ATOM     19  OE2 GLU D 570     -22.771  -5.121 -13.086  1.00 32.92    -0.647 OA
ENDBRANCH  16  17
ENDBRANCH  15  16
ENDBRANCH  14  15
END_RES GLU D 570
ENDMDL
MODEL 4
REMARK VINA RESULT:      -3.8      1.076      1.587
REMARK  2 active torsions:
REMARK  status: ('A' for Active; 'I' for Inactive)
REMARK    1  A    between atoms: C_1  and  O_3 
REMARK    2  A    between atoms: C_1  and  O_4 
ROOT
HETATM    1  C   UNL     1     -24.669  -3.564 -10.287  1.00  0.00     0.329 C 
HETATM    2  O   UNL     1     -24.204  -4.724 -10.094  1.00  0.00    -0.624 OA
ENDROOT
BRANCH   1   3
HETATM    3  O   UNL     1     -24.898  -3.236 -11.532  1.00  0.00    -0.753 OA
HETATM    4  H   UNL     1     -24.070  -2.751 -11.712  1.00  0.00     0.170 HD
ENDBRANCH   1   3
BRANCH   1   5
HETATM    5  O   UNL     1     -24.982  -2.804  -9.333  1.00  0.00    -0.121 OA
HETATM    6 NA   UNL     2     -26.969  -3.611  -9.370  1.00  0.00     0.000 Na
ENDBRANCH   1   5
TORSDOF 2
BEGIN_RES ARG D 557
REMARK  4 active torsions:
REMARK  status: ('A' for Active; 'I' for Inactive)
REMARK    1  A    between atoms: CA   and  CB  
REMARK    2  A    between atoms: CB   and  CG  
REMARK    3  A    between atoms: CG   and  CD  
REMARK    4  A    between atoms: CD   and  NE  
REMARK       I    between atoms: NE   and  CZ  
REMARK       I    between atoms: CZ   and  NH1 
REMARK       I    between atoms: CZ   and  NH2 
ROOT
ATOM      1  CA  ARG D 557     -26.217   2.705 -17.014  1.00 35.49     0.159 C 
ENDROOT
BRANCH   1   2
ATOM      2  CB  ARG D 557     -26.789   1.319 -17.183  1.00 35.49     0.034 C 
BRANCH   2   3
ATOM      3  CG  ARG D 557     -25.855   0.196 -17.033  1.00 35.49     0.027 C 
BRANCH   3   4
ATOM      4  CD  ARG D 557     -26.146  -0.624 -15.835  1.00 35.49     0.116 C 
BRANCH   4   5
ATOM      5  NE  ARG D 557     -25.008  -0.731 -14.961  1.00 35.49    -0.212 N 
ATOM      6  CZ  ARG D 557     -24.565  -1.838 -14.408  1.00 35.49     0.666 C 
ATOM      7  NH1 ARG D 557     -25.152  -3.006 -14.592  1.00 35.49    -0.235 N 
ATOM      8  NH2 ARG D 557     -23.504  -1.752 -13.659  1.00 35.49    -0.235 N 
ATOM      9  HH  ARG D 557     -25.850  -3.086 -15.083  1.00 35.49     0.174 HD
ATOM     10  HH  ARG D 557     -24.817  -3.695 -14.208  1.00 35.49     0.174 HD
ATOM     11  HH  ARG D 557     -23.143  -0.986 -13.564  1.00 35.49     0.174 HD
ATOM     12  HH  ARG D 557     -23.187  -2.445 -13.288  1.00 35.49     0.174 HD
ATOM     13  HE  ARG D 557     -24.613  -0.014 -14.730  1.00 35.49     0.178 HD
ENDBRANCH   4   5
ENDBRANCH   3   4
ENDBRANCH   2   3
ENDBRANCH   1   2
END_RES ARG D 557
BEGIN_RES GLU D 570
REMARK  3 active torsions:
REMARK  status: ('A' for Active; 'I' for Inactive)
REMARK    5  A    between atoms: CA   and  CB  
REMARK    6  A    between atoms: CB   and  CG  
REMARK    7  A    between atoms: CG   and  CD  
ROOT
ATOM     14  CA  GLU D 570     -18.033  -6.348 -13.375  1.00 32.92     0.160 C 
ENDROOT
BRANCH  14  15
ATOM     15  CB  GLU D 570     -19.500  -6.345 -13.794  1.00 32.92     0.043 C 
BRANCH  15  16
ATOM     16  CG  GLU D 570     -20.445  -5.547 -12.971  1.00 32.92     0.100 C 
BRANCH  16  17
ATOM     17  CD  GLU D 570     -21.707  -5.176 -13.716  1.00 32.92     0.185 C 
ATOM     18  OE1 GLU D 570     -22.599  -4.544 -13.119  1.00 32.92    -0.647 OA
ATOM     19  OE2 GLU D 570     -21.811  -5.537 -14.905  1.00 32.92    -0.647 OA
ENDBRANCH  16  17
ENDBRANCH  15  16
ENDBRANCH  14  15
END_RES GLU D 570
ENDMDL
MODEL 5
REMARK VINA RESULT:      -3.5      4.481      4.890
REMARK  2 active torsions:
REMARK  status: ('A' for Active; 'I' for Inactive)
REMARK    1  A    between atoms: C_1  and  O_3 
REMARK    2  A    between atoms: C_1  and  O_4 
ROOT
HETATM    1  C   UNL     1     -25.724  -6.170 -15.832  1.00  0.00     0.329 C 
HETATM    2  O   UNL     1     -25.895  -7.345 -15.400  1.00  0.00    -0.624 OA
ENDROOT
BRANCH   1   3
HETATM    3  O   UNL     1     -24.711  -5.514 -15.329  1.00  0.00    -0.753 OA
HETATM    4  H   UNL     1     -24.353  -5.137 -16.155  1.00  0.00     0.170 HD
ENDBRANCH   1   3
BRANCH   1   5
HETATM    5  O   UNL     1     -26.429  -5.692 -16.759  1.00  0.00    -0.121 OA
HETATM    6 NA   UNL     2     -27.477  -7.558 -16.895  1.00  0.00     0.000 Na
ENDBRANCH   1   5
TORSDOF 2
BEGIN_RES ARG D 557
REMARK  4 active torsions:
REMARK  status: ('A' for Active; 'I' for Inactive)
REMARK    1  A    between atoms: CA   and  CB  
REMARK    2  A    between atoms: CB   and  CG  
REMARK    3  A    between atoms: CG   and  CD  
REMARK    4  A    between atoms: CD   and  NE  
REMARK       I    between atoms: NE   and  CZ  
REMARK       I    between atoms: CZ   and  NH1 
REMARK       I    between atoms: CZ   and  NH2 
ROOT
ATOM      1  CA  ARG D 557     -26.217   2.705 -17.014  1.00 35.49     0.159 C 
ENDROOT
BRANCH   1   2
ATOM      2  CB  ARG D 557     -26.789   1.319 -17.183  1.00 35.49     0.034 C 
BRANCH   2   3
ATOM      3  CG  ARG D 557     -28.211   1.147 -16.862  1.00 35.49     0.027 C 
BRANCH   3   4
ATOM      4  CD  ARG D 557     -28.580  -0.275 -16.678  1.00 35.49     0.116 C 
BRANCH   4   5
ATOM      5  NE  ARG D 557     -27.573  -1.008 -15.958  1.00 35.49    -0.212 N 
ATOM      6  CZ  ARG D 557     -27.373  -2.305 -16.024  1.00 35.49     0.666 C 
ATOM      7  NH1 ARG D 557     -28.113  -3.100 -16.775  1.00 35.49    -0.235 N 
ATOM      8  NH2 ARG D 557     -26.399  -2.799 -15.317  1.00 35.49    -0.235 N 
ATOM      9  HH  ARG D 557     -28.758  -2.796 -17.251  1.00 35.49     0.174 HD
ATOM     10  HH  ARG D 557     -27.934  -3.938 -16.781  1.00 35.49     0.174 HD
ATOM     11  HH  ARG D 557     -25.933  -2.261 -14.846  1.00 35.49     0.174 HD
ATOM     12  HH  ARG D 557     -26.237  -3.631 -15.336  1.00 35.49     0.174 HD
ATOM     13  HE  ARG D 557     -27.098  -0.585 -15.394  1.00 35.49     0.178 HD
ENDBRANCH   4   5
ENDBRANCH   3   4
ENDBRANCH   2   3
ENDBRANCH   1   2
END_RES ARG D 557
BEGIN_RES GLU D 570
REMARK  3 active torsions:
REMARK  status: ('A' for Active; 'I' for Inactive)
REMARK    5  A    between atoms: CA   and  CB  
REMARK    6  A    between atoms: CB   and  CG  
REMARK    7  A    between atoms: CG   and  CD  
ROOT
ATOM     14  CA  GLU D 570     -18.033  -6.348 -13.375  1.00 32.92     0.160 C 
ENDROOT
BRANCH  14  15
ATOM     15  CB  GLU D 570     -19.500  -6.345 -13.794  1.00 32.92     0.043 C 
BRANCH  15  16
ATOM     16  CG  GLU D 570     -19.814  -5.930 -15.186  1.00 32.92     0.100 C 
BRANCH  16  17
ATOM     17  CD  GLU D 570     -21.296  -5.783 -15.437  1.00 32.92     0.185 C 
ATOM     18  OE1 GLU D 570     -21.711  -4.773 -16.037  1.00 32.92    -0.647 OA
ATOM     19  OE2 GLU D 570     -22.053  -6.680 -15.014  1.00 32.92    -0.647 OA
ENDBRANCH  16  17
ENDBRANCH  15  16
ENDBRANCH  14  15
END_RES GLU D 570
ENDMDL
MODEL 6
REMARK VINA RESULT:      -3.4      7.071      8.412
REMARK  2 active torsions:
REMARK  status: ('A' for Active; 'I' for Inactive)
REMARK    1  A    between atoms: C_1  and  O_3 
REMARK    2  A    between atoms: C_1  and  O_4 
ROOT
HETATM    1  C   UNL     1     -29.738 -14.075 -18.719  1.00  0.00     0.329 C 
HETATM    2  O   UNL     1     -29.221 -14.958 -17.976  1.00  0.00    -0.624 OA
ENDROOT
BRANCH   1   3
HETATM    3  O   UNL     1     -30.980 -14.276 -19.073  1.00  0.00    -0.753 OA
HETATM    4  H   UNL     1     -31.242 -14.886 -18.356  1.00  0.00     0.170 HD
ENDBRANCH   1   3
BRANCH   1   5
HETATM    5  O   UNL     1     -29.124 -13.018 -19.024  1.00  0.00    -0.121 OA
HETATM    6 NA   UNL     2     -27.401 -13.741 -17.970  1.00  0.00     0.000 Na
ENDBRANCH   1   5
TORSDOF 2
BEGIN_RES ARG D 557
REMARK  4 active torsions:
REMARK  status: ('A' for Active; 'I' for Inactive)
REMARK    1  A    between atoms: CA   and  CB  
REMARK    2  A    between atoms: CB   and  CG  
REMARK    3  A    between atoms: CG   and  CD  
REMARK    4  A    between atoms: CD   and  NE  
REMARK       I    between atoms: NE   and  CZ  
REMARK       I    between atoms: CZ   and  NH1 
REMARK       I    between atoms: CZ   and  NH2 
ROOT
ATOM      1  CA  ARG D 557     -26.217   2.705 -17.014  1.00 35.49     0.159 C 
ENDROOT
BRANCH   1   2
ATOM      2  CB  ARG D 557     -26.789   1.319 -17.183  1.00 35.49     0.034 C 
BRANCH   2   3
ATOM      3  CG  ARG D 557     -25.856   0.196 -17.030  1.00 35.49     0.027 C 
BRANCH   3   4
ATOM      4  CD  ARG D 557     -26.235  -0.706 -15.919  1.00 35.49     0.116 C 
BRANCH   4   5
ATOM      5  NE  ARG D 557     -25.188  -0.828 -14.939  1.00 35.49    -0.212 N 
ATOM      6  CZ  ARG D 557     -24.803  -1.945 -14.362  1.00 35.49     0.666 C 
ATOM      7  NH1 ARG D 557     -25.367  -3.109 -14.623  1.00 35.49    -0.235 N 
ATOM      8  NH2 ARG D 557     -23.821  -1.873 -13.511  1.00 35.49    -0.235 N 
ATOM      9  HH  ARG D 557     -26.014  -3.180 -15.181  1.00 35.49     0.174 HD
ATOM     10  HH  ARG D 557     -25.072  -3.804 -14.218  1.00 35.49     0.174 HD
ATOM     11  HH  ARG D 557     -23.470  -1.108 -13.368  1.00 35.49     0.174 HD
ATOM     12  HH  ARG D 557     -23.542  -2.573 -13.122  1.00 35.49     0.174 HD
ATOM     13  HE  ARG D 557     -24.819  -0.116 -14.658  1.00 35.49     0.178 HD
ENDBRANCH   4   5
ENDBRANCH   3   4
ENDBRANCH   2   3
ENDBRANCH   1   2
END_RES ARG D 557
BEGIN_RES GLU D 570
REMARK  3 active torsions:
REMARK  status: ('A' for Active; 'I' for Inactive)
REMARK    5  A    between atoms: CA   and  CB  
REMARK    6  A    between atoms: CB   and  CG  
REMARK    7  A    between atoms: CG   and  CD  
ROOT
ATOM     14  CA  GLU D 570     -18.033  -6.348 -13.375  1.00 32.92     0.160 C 
ENDROOT
BRANCH  14  15
ATOM     15  CB  GLU D 570     -19.500  -6.345 -13.794  1.00 32.92     0.043 C 
BRANCH  15  16
ATOM     16  CG  GLU D 570     -20.432  -5.489 -13.016  1.00 32.92     0.100 C 
BRANCH  16  17
ATOM     17  CD  GLU D 570     -21.767  -5.299 -13.699  1.00 32.92     0.185 C 
ATOM     18  OE1 GLU D 570     -22.104  -6.090 -14.600  1.00 32.92    -0.647 OA
ATOM     19  OE2 GLU D 570     -22.475  -4.337 -13.340  1.00 32.92    -0.647 OA
ENDBRANCH  16  17
ENDBRANCH  15  16
ENDBRANCH  14  15
END_RES GLU D 570
ENDMDL
MODEL 7
REMARK VINA RESULT:      -3.1     10.666     12.035
REMARK  2 active torsions:
REMARK  status: ('A' for Active; 'I' for Inactive)
REMARK    1  A    between atoms: C_1  and  O_3 
REMARK    2  A    between atoms: C_1  and  O_4 
ROOT
HETATM    1  C   UNL     1      -9.782   6.272 -19.126  1.00  0.00     0.329 C 
HETATM    2  O   UNL     1      -8.930   6.099 -20.043  1.00  0.00    -0.624 OA
ENDROOT
BRANCH   1   3
HETATM    3  O   UNL     1      -9.543   5.661 -17.995  1.00  0.00    -0.753 OA
HETATM    4  H   UNL     1     -10.438   5.710 -17.607  1.00  0.00     0.170 HD
ENDBRANCH   1   3
BRANCH   1   5
HETATM    5  O   UNL     1     -10.755   7.060 -19.261  1.00  0.00    -0.121 OA
HETATM    6 NA   UNL     2      -9.827   8.409 -17.877  1.00  0.00     0.000 Na
ENDBRANCH   1   5
TORSDOF 2
BEGIN_RES ARG D 557
REMARK  4 active torsions:
REMARK  status: ('A' for Active; 'I' for Inactive)
REMARK    1  A    between atoms: CA   and  CB  
REMARK    2  A    between atoms: CB   and  CG  
REMARK    3  A    between atoms: CG   and  CD  
REMARK    4  A    between atoms: CD   and  NE  
REMARK       I    between atoms: NE   and  CZ  
REMARK       I    between atoms: CZ   and  NH1 
REMARK       I    between atoms: CZ   and  NH2 
ROOT
ATOM      1  CA  ARG D 557     -26.217   2.705 -17.014  1.00 35.49     0.159 C 
ENDROOT
BRANCH   1   2
ATOM      2  CB  ARG D 557     -26.789   1.319 -17.183  1.00 35.49     0.034 C 
BRANCH   2   3
ATOM      3  CG  ARG D 557     -25.865   0.195 -16.991  1.00 35.49     0.027 C 
BRANCH   3   4
ATOM      4  CD  ARG D 557     -26.288  -0.703 -15.893  1.00 35.49     0.116 C 
BRANCH   4   5
ATOM      5  NE  ARG D 557     -25.236  -0.925 -14.937  1.00 35.49    -0.212 N 
ATOM      6  CZ  ARG D 557     -24.951  -2.070 -14.359  1.00 35.49     0.666 C 
ATOM      7  NH1 ARG D 557     -25.637  -3.173 -14.595  1.00 35.49    -0.235 N 
ATOM      8  NH2 ARG D 557     -23.947  -2.092 -13.532  1.00 35.49    -0.235 N 
ATOM      9  HH  ARG D 557     -26.301  -3.182 -15.137  1.00 35.49     0.174 HD
ATOM     10  HH  ARG D 557     -25.404  -3.892 -14.191  1.00 35.49     0.174 HD
ATOM     11  HH  ARG D 557     -23.517  -1.367 -13.404  1.00 35.49     0.174 HD
ATOM     12  HH  ARG D 557     -23.730  -2.814 -13.143  1.00 35.49     0.174 HD
ATOM     13  HE  ARG D 557     -24.789  -0.251 -14.671  1.00 35.49     0.178 HD
ENDBRANCH   4   5
ENDBRANCH   3   4
ENDBRANCH   2   3
ENDBRANCH   1   2
END_RES ARG D 557
BEGIN_RES GLU D 570
REMARK  3 active torsions:
REMARK  status: ('A' for Active; 'I' for Inactive)
REMARK    5  A    between atoms: CA   and  CB  
REMARK    6  A    between atoms: CB   and  CG  
REMARK    7  A    between atoms: CG   and  CD  
ROOT
ATOM     14  CA  GLU D 570     -18.033  -6.348 -13.375  1.00 32.92     0.160 C 
ENDROOT
BRANCH  14  15
ATOM     15  CB  GLU D 570     -19.500  -6.345 -13.794  1.00 32.92     0.043 C 
BRANCH  15  16
ATOM     16  CG  GLU D 570     -20.446  -5.550 -12.969  1.00 32.92     0.100 C 
BRANCH  16  17
ATOM     17  CD  GLU D 570     -21.681  -5.128 -13.731  1.00 32.92     0.185 C 
ATOM     18  OE1 GLU D 570     -22.737  -4.920 -13.103  1.00 32.92    -0.647 OA
ATOM     19  OE2 GLU D 570     -21.595  -5.020 -14.970  1.00 32.92    -0.647 OA
ENDBRANCH  16  17
ENDBRANCH  15  16
ENDBRANCH  14  15
END_RES GLU D 570
ENDMDL
MODEL 8
REMARK VINA RESULT:      -3.1      2.235      2.721
REMARK  2 active torsions:
REMARK  status: ('A' for Active; 'I' for Inactive)
REMARK    1  A    between atoms: C_1  and  O_3 
REMARK    2  A    between atoms: C_1  and  O_4 
ROOT
HETATM    1  C   UNL     1     -24.741  -3.747  -9.703  1.00  0.00     0.329 C 
HETATM    2  O   UNL     1     -25.761  -3.006  -9.796  1.00  0.00    -0.624 OA
ENDROOT
BRANCH   1   3
HETATM    3  O   UNL     1     -24.157  -3.778  -8.534  1.00  0.00    -0.753 OA
HETATM    4  H   UNL     1     -24.494  -4.640  -8.222  1.00  0.00     0.170 HD
ENDBRANCH   1   3
BRANCH   1   5
HETATM    5  O   UNL     1     -24.363  -4.483 -10.652  1.00  0.00    -0.121 OA
HETATM    6 NA   UNL     2     -25.533  -3.300 -12.006  1.00  0.00     0.000 Na
ENDBRANCH   1   5
TORSDOF 2
BEGIN_RES ARG D 557
REMARK  4 active torsions:
REMARK  status: ('A' for Active; 'I' for Inactive)
REMARK    1  A    between atoms: CA   and  CB  
REMARK    2  A    between atoms: CB   and  CG  
REMARK    3  A    between atoms: CG   and  CD  
REMARK    4  A    between atoms: CD   and  NE  
REMARK       I    between atoms: NE   and  CZ  
REMARK       I    between atoms: CZ   and  NH1 
REMARK       I    between atoms: CZ   and  NH2 
ROOT
ATOM      1  CA  ARG D 557     -26.217   2.705 -17.014  1.00 35.49     0.159 C 
ENDROOT
BRANCH   1   2
ATOM      2  CB  ARG D 557     -26.789   1.319 -17.183  1.00 35.49     0.034 C 
BRANCH   2   3
ATOM      3  CG  ARG D 557     -28.219   1.155 -16.897  1.00 35.49     0.027 C 
BRANCH   3   4
ATOM      4  CD  ARG D 557     -28.594  -0.262 -16.687  1.00 35.49     0.116 C 
BRANCH   4   5
ATOM      5  NE  ARG D 557     -27.587  -0.987 -15.959  1.00 35.49    -0.212 N 
ATOM      6  CZ  ARG D 557     -27.380  -2.284 -16.019  1.00 35.49     0.666 C 
ATOM      7  NH1 ARG D 557     -28.111  -3.085 -16.773  1.00 35.49    -0.235 N 
ATOM      8  NH2 ARG D 557     -26.406  -2.770 -15.305  1.00 35.49    -0.235 N 
ATOM      9  HH  ARG D 557     -28.755  -2.786 -17.252  1.00 35.49     0.174 HD
ATOM     10  HH  ARG D 557     -27.927  -3.922 -16.774  1.00 35.49     0.174 HD
ATOM     11  HH  ARG D 557     -25.946  -2.228 -14.834  1.00 35.49     0.174 HD
ATOM     12  HH  ARG D 557     -26.239  -3.601 -15.321  1.00 35.49     0.174 HD
ATOM     13  HE  ARG D 557     -27.117  -0.560 -15.394  1.00 35.49     0.178 HD
ENDBRANCH   4   5
ENDBRANCH   3   4
ENDBRANCH   2   3
ENDBRANCH   1   2
END_RES ARG D 557
BEGIN_RES GLU D 570
REMARK  3 active torsions:
REMARK  status: ('A' for Active; 'I' for Inactive)
REMARK    5  A    between atoms: CA   and  CB  
REMARK    6  A    between atoms: CB   and  CG  
REMARK    7  A    between atoms: CG   and  CD  
ROOT
ATOM     14  CA  GLU D 570     -18.033  -6.348 -13.375  1.00 32.92     0.160 C 
ENDROOT
BRANCH  14  15
ATOM     15  CB  GLU D 570     -19.500  -6.345 -13.794  1.00 32.92     0.043 C 
BRANCH  15  16
ATOM     16  CG  GLU D 570     -20.442  -5.533 -12.982  1.00 32.92     0.100 C 
BRANCH  16  17
ATOM     17  CD  GLU D 570     -21.744  -5.251 -13.695  1.00 32.92     0.185 C 
ATOM     18  OE1 GLU D 570     -22.329  -4.171 -13.484  1.00 32.92    -0.647 OA
ATOM     19  OE2 GLU D 570     -22.192  -6.127 -14.461  1.00 32.92    -0.647 OA
ENDBRANCH  16  17
ENDBRANCH  15  16
ENDBRANCH  14  15
END_RES GLU D 570
ENDMDL
MODEL 9
REMARK VINA RESULT:      -3.1      8.260      9.776
REMARK  2 active torsions:
REMARK  status: ('A' for Active; 'I' for Inactive)
REMARK    1  A    between atoms: C_1  and  O_3 
REMARK    2  A    between atoms: C_1  and  O_4 
ROOT
HETATM    1  C   UNL     1     -30.442 -14.579 -20.672  1.00  0.00     0.329 C 
HETATM    2  O   UNL     1     -31.258 -14.213 -21.566  1.00  0.00    -0.624 OA
ENDROOT
BRANCH   1   3
HETATM    3  O   UNL     1     -30.743 -15.681 -20.036  1.00  0.00    -0.753 OA
HETATM    4  H   UNL     1     -29.938 -16.195 -20.240  1.00  0.00     0.170 HD
ENDBRANCH   1   3
BRANCH   1   5
HETATM    5  O   UNL     1     -29.359 -13.970 -20.469  1.00  0.00    -0.121 OA
HETATM    6 NA   UNL     2     -30.223 -13.054 -18.733  1.00  0.00     0.000 Na
ENDBRANCH   1   5
TORSDOF 2
BEGIN_RES ARG D 557
REMARK  4 active torsions:
REMARK  status: ('A' for Active; 'I' for Inactive)
REMARK    1  A    between atoms: CA   and  CB  
REMARK    2  A    between atoms: CB   and  CG  
REMARK    3  A    between atoms: CG   and  CD  
REMARK    4  A    between atoms: CD   and  NE  
REMARK       I    between atoms: NE   and  CZ  
REMARK       I    between atoms: CZ   and  NH1 
REMARK       I    between atoms: CZ   and  NH2 
ROOT
ATOM      1  CA  ARG D 557     -26.217   2.705 -17.014  1.00 35.49     0.159 C 
ENDROOT
BRANCH   1   2
ATOM      2  CB  ARG D 557     -26.789   1.319 -17.183  1.00 35.49     0.034 C 
BRANCH   2   3
ATOM      3  CG  ARG D 557     -28.229   1.227 -17.450  1.00 35.49     0.027 C 
BRANCH   3   4
ATOM      4  CD  ARG D 557     -28.920   0.313 -16.512  1.00 35.49     0.116 C 
BRANCH   4   5
ATOM      5  NE  ARG D 557     -29.311  -0.919 -17.144  1.00 35.49    -0.212 N 
ATOM      6  CZ  ARG D 557     -28.693  -2.073 -17.026  1.00 35.49     0.666 C 
ATOM      7  NH1 ARG D 557     -27.600  -2.220 -16.300  1.00 35.49    -0.235 N 
ATOM      8  NH2 ARG D 557     -29.201  -3.093 -17.654  1.00 35.49    -0.235 N 
ATOM      9  HH  ARG D 557     -27.249  -1.563 -15.877  1.00 35.49     0.174 HD
ATOM     10  HH  ARG D 557     -27.241  -2.997 -16.259  1.00 35.49     0.174 HD
ATOM     11  HH  ARG D 557     -29.911  -2.970 -18.109  1.00 35.49     0.174 HD
ATOM     12  HH  ARG D 557     -28.832  -3.855 -17.599  1.00 35.49     0.174 HD
ATOM     13  HE  ARG D 557     -29.964  -0.899 -17.688  1.00 35.49     0.178 HD
ENDBRANCH   4   5
ENDBRANCH   3   4
ENDBRANCH   2   3
ENDBRANCH   1   2
END_RES ARG D 557
BEGIN_RES GLU D 570
REMARK  3 active torsions:
REMARK  status: ('A' for Active; 'I' for Inactive)
REMARK    5  A    between atoms: CA   and  CB  
REMARK    6  A    between atoms: CB   and  CG  
REMARK    7  A    between atoms: CG   and  CD  
ROOT
ATOM     14  CA  GLU D 570     -18.033  -6.348 -13.375  1.00 32.92     0.160 C 
ENDROOT
BRANCH  14  15
ATOM     15  CB  GLU D 570     -19.500  -6.345 -13.794  1.00 32.92     0.043 C 
BRANCH  15  16
ATOM     16  CG  GLU D 570     -20.439  -5.520 -12.991  1.00 32.92     0.100 C 
BRANCH  16  17
ATOM     17  CD  GLU D 570     -21.742  -5.247 -13.706  1.00 32.92     0.185 C 
ATOM     18  OE1 GLU D 570     -22.195  -6.105 -14.487  1.00 32.92    -0.647 OA
ATOM     19  OE2 GLU D 570     -22.307  -4.155 -13.495  1.00 32.92    -0.647 OA
ENDBRANCH  16  17
ENDBRANCH  15  16
ENDBRANCH  14  15
END_RES GLU D 570
ENDMDL
