MODEL 1
REMARK VINA RESULT:      -6.3      0.000      0.000
REMARK  10 active torsions:
REMARK  status: ('A' for Active; 'I' for Inactive)
REMARK    1  A    between atoms: N_2  and  C_5 
REMARK    2  A    between atoms: C_5  and  C_6 
REMARK    3  A    between atoms: C_6  and  O_7 
REMARK    4  A    between atoms: O_7  and  P_8 
REMARK    5  A    between atoms: P_8  and  O_11 
REMARK    6  A    between atoms: O_11  and  C_12 
REMARK    7  A    between atoms: C_12  and  C_13 
REMARK    8  A    between atoms: C_13  and  C_14 
REMARK    9  A    between atoms: C_13  and  O_16 
REMARK   10  A    between atoms: C_14  and  O_15 
ROOT
HETATM    1  P   UNL     1     -24.124  -5.874 -14.999  1.00  0.00     0.408 P 
HETATM    2  O   UNL     1     -25.217  -4.868 -15.386  1.00  0.00    -0.624 OA
HETATM    3  O   UNL     1     -23.841  -6.212 -13.540  1.00  0.00    -0.624 OA
ENDROOT
BRANCH   1   4
HETATM    4  O   UNL     1     -25.336  -7.108 -15.011  1.00  0.00    -0.288 OA
BRANCH   4   5
HETATM    5  C   UNL     1     -26.205  -6.941 -16.115  1.00  0.00     0.209 C 
BRANCH   5   6
HETATM    6  C   UNL     1     -27.639  -7.191 -15.675  1.00  0.00     0.262 C 
BRANCH   6   7
HETATM    7  N   UNL     1     -28.723  -6.607 -16.612  1.00  0.00    -0.077 N 
HETATM    8  C   UNL     1     -28.020  -5.902 -17.752  1.00  0.00     0.271 C 
HETATM    9  C   UNL     1     -29.623  -5.634 -15.874  1.00  0.00     0.271 C 
HETATM   10  C   UNL     1     -29.602  -7.729 -17.188  1.00  0.00     0.271 C 
ENDBRANCH   6   7
ENDBRANCH   5   6
ENDBRANCH   4   5
ENDBRANCH   1   4
BRANCH   1  11
HETATM   11  O   UNL     1     -22.912  -4.640 -14.987  1.00  0.00    -0.287 OA
BRANCH  11  12
HETATM   12  C   UNL     1     -22.613  -4.166 -13.683  1.00  0.00     0.215 C 
BRANCH  12  13
HETATM   13  C   UNL     1     -23.297  -2.846 -13.323  1.00  0.00     0.166 C 
BRANCH  13  14
HETATM   14  C   UNL     1     -23.420  -1.893 -14.529  1.00  0.00     0.198 C 
BRANCH  14  15
HETATM   15  O   UNL     1     -24.696  -2.091 -15.156  1.00  0.00    -0.398 OA
HETATM   16  H   UNL     1     -24.499  -2.608 -15.955  1.00  0.00     0.209 HD
ENDBRANCH  14  15
ENDBRANCH  13  14
BRANCH  13  17
HETATM   17  O   UNL     1     -24.594  -3.144 -12.777  1.00  0.00    -0.391 OA
HETATM   18  H   UNL     1     -24.782  -4.074 -12.992  1.00  0.00     0.210 HD
ENDBRANCH  13  17
ENDBRANCH  12  13
ENDBRANCH  11  12
ENDBRANCH   1  11
TORSDOF 10
BEGIN_RES ARG D 557
REMARK  4 active torsions:
REMARK  status: ('A' for Active; 'I' for Inactive)
REMARK    1  A    between atoms: CA   and  CB  
REMARK    2  A    between atoms: CB   and  CG  
REMARK    3  A    between atoms: CG   and  CD  
REMARK    4  A    between atoms: CD   and  NE  
REMARK       I    between atoms: NE   and  CZ  
REMARK       I    between atoms: CZ   and  NH1 
REMARK       I    between atoms: CZ   and  NH2 
ROOT
ATOM      1  CA  ARG D 557     -26.217   2.705 -17.014  1.00 35.49     0.159 C 
ENDROOT
BRANCH   1   2
ATOM      2  CB  ARG D 557     -26.789   1.319 -17.183  1.00 35.49     0.034 C 
BRANCH   2   3
ATOM      3  CG  ARG D 557     -28.231   1.226 -17.443  1.00 35.49     0.027 C 
BRANCH   3   4
ATOM      4  CD  ARG D 557     -28.910   0.280 -16.529  1.00 35.49     0.116 C 
BRANCH   4   5
ATOM      5  NE  ARG D 557     -28.052  -0.809 -16.141  1.00 35.49    -0.212 N 
ATOM      6  CZ  ARG D 557     -28.142  -2.047 -16.571  1.00 35.49     0.666 C 
ATOM      7  NH1 ARG D 557     -29.071  -2.437 -17.424  1.00 35.49    -0.235 N 
ATOM      8  NH2 ARG D 557     -27.265  -2.901 -16.128  1.00 35.49    -0.235 N 
ATOM      9  HH  ARG D 557     -29.657  -1.891 -17.730  1.00 35.49     0.174 HD
ATOM     10  HH  ARG D 557     -29.079  -3.257 -17.671  1.00 35.49     0.174 HD
ATOM     11  HH  ARG D 557     -26.671  -2.620 -15.584  1.00 35.49     0.174 HD
ATOM     12  HH  ARG D 557     -27.288  -3.709 -16.386  1.00 35.49     0.174 HD
ATOM     13  HE  ARG D 557     -27.470  -0.663 -15.538  1.00 35.49     0.178 HD
ENDBRANCH   4   5
ENDBRANCH   3   4
ENDBRANCH   2   3
ENDBRANCH   1   2
END_RES ARG D 557
BEGIN_RES GLU D 570
REMARK  3 active torsions:
REMARK  status: ('A' for Active; 'I' for Inactive)
REMARK    5  A    between atoms: CA   and  CB  
REMARK    6  A    between atoms: CB   and  CG  
REMARK    7  A    between atoms: CG   and  CD  
ROOT
ATOM     14  CA  GLU D 570     -18.033  -6.348 -13.375  1.00 32.92     0.160 C 
ENDROOT
BRANCH  14  15
ATOM     15  CB  GLU D 570     -19.500  -6.345 -13.794  1.00 32.92     0.043 C 
BRANCH  15  16
ATOM     16  CG  GLU D 570     -20.087  -7.634 -14.242  1.00 32.92     0.100 C 
BRANCH  16  17
ATOM     17  CD  GLU D 570     -20.668  -7.565 -15.635  1.00 32.92     0.185 C 
ATOM     18  OE1 GLU D 570     -21.257  -8.562 -16.095  1.00 32.92    -0.647 OA
ATOM     19  OE2 GLU D 570     -20.517  -6.509 -16.279  1.00 32.92    -0.647 OA
ENDBRANCH  16  17
ENDBRANCH  15  16
ENDBRANCH  14  15
END_RES GLU D 570
ENDMDL
MODEL 2
REMARK VINA RESULT:      -6.1      2.472      5.073
REMARK  10 active torsions:
REMARK  status: ('A' for Active; 'I' for Inactive)
REMARK    1  A    between atoms: N_2  and  C_5 
REMARK    2  A    between atoms: C_5  and  C_6 
REMARK    3  A    between atoms: C_6  and  O_7 
REMARK    4  A    between atoms: O_7  and  P_8 
REMARK    5  A    between atoms: P_8  and  O_11 
REMARK    6  A    between atoms: O_11  and  C_12 
REMARK    7  A    between atoms: C_12  and  C_13 
REMARK    8  A    between atoms: C_13  and  C_14 
REMARK    9  A    between atoms: C_13  and  O_16 
REMARK   10  A    between atoms: C_14  and  O_15 
ROOT
HETATM    1  P   UNL     1     -23.372  -4.031 -13.987  1.00  0.00     0.408 P 
HETATM    2  O   UNL     1     -24.627  -3.400 -13.364  1.00  0.00    -0.624 OA
HETATM    3  O   UNL     1     -22.629  -3.348 -15.129  1.00  0.00    -0.624 OA
ENDROOT
BRANCH   1   4
HETATM    4  O   UNL     1     -22.426  -3.110 -12.870  1.00  0.00    -0.288 OA
BRANCH   4   5
HETATM    5  C   UNL     1     -21.856  -3.953 -11.887  1.00  0.00     0.209 C 
BRANCH   5   6
HETATM    6  C   UNL     1     -22.142  -3.387 -10.505  1.00  0.00     0.262 C 
BRANCH   6   7
HETATM    7  N   UNL     1     -23.331  -4.041  -9.762  1.00  0.00    -0.077 N 
HETATM    8  C   UNL     1     -22.906  -4.286  -8.330  1.00  0.00     0.271 C 
HETATM    9  C   UNL     1     -23.737  -5.348 -10.416  1.00  0.00     0.271 C 
HETATM   10  C   UNL     1     -24.552  -3.105  -9.765  1.00  0.00     0.271 C 
ENDBRANCH   6   7
ENDBRANCH   5   6
ENDBRANCH   4   5
ENDBRANCH   1   4
BRANCH   1  11
HETATM   11  O   UNL     1     -24.321  -4.950 -15.104  1.00  0.00    -0.287 OA
BRANCH  11  12
HETATM   12  C   UNL     1     -24.150  -6.352 -14.957  1.00  0.00     0.215 C 
BRANCH  12  13
HETATM   13  C   UNL     1     -25.131  -7.192 -15.778  1.00  0.00     0.166 C 
BRANCH  13  14
HETATM   14  C   UNL     1     -25.976  -6.341 -16.747  1.00  0.00     0.198 C 
BRANCH  14  15
HETATM   15  O   UNL     1     -27.012  -5.677 -16.007  1.00  0.00    -0.398 OA
HETATM   16  H   UNL     1     -27.111  -4.815 -16.445  1.00  0.00     0.209 HD
ENDBRANCH  14  15
ENDBRANCH  13  14
BRANCH  13  17
HETATM   17  O   UNL     1     -24.380  -8.186 -16.498  1.00  0.00    -0.391 OA
HETATM   18  H   UNL     1     -23.640  -8.450 -15.924  1.00  0.00     0.210 HD
ENDBRANCH  13  17
ENDBRANCH  12  13
ENDBRANCH  11  12
ENDBRANCH   1  11
TORSDOF 10
BEGIN_RES ARG D 557
REMARK  4 active torsions:
REMARK  status: ('A' for Active; 'I' for Inactive)
REMARK    1  A    between atoms: CA   and  CB  
REMARK    2  A    between atoms: CB   and  CG  
REMARK    3  A    between atoms: CG   and  CD  
REMARK    4  A    between atoms: CD   and  NE  
REMARK       I    between atoms: NE   and  CZ  
REMARK       I    between atoms: CZ   and  NH1 
REMARK       I    between atoms: CZ   and  NH2 
ROOT
ATOM      1  CA  ARG D 557     -26.217   2.705 -17.014  1.00 35.49     0.159 C 
ENDROOT
BRANCH   1   2
ATOM      2  CB  ARG D 557     -26.789   1.319 -17.183  1.00 35.49     0.034 C 
BRANCH   2   3
ATOM      3  CG  ARG D 557     -28.245   1.185 -17.056  1.00 35.49     0.027 C 
BRANCH   3   4
ATOM      4  CD  ARG D 557     -28.662  -0.210 -16.786  1.00 35.49     0.116 C 
BRANCH   4   5
ATOM      5  NE  ARG D 557     -27.648  -0.953 -16.086  1.00 35.49    -0.212 N 
ATOM      6  CZ  ARG D 557     -27.469  -2.254 -16.148  1.00 35.49     0.666 C 
ATOM      7  NH1 ARG D 557     -28.240  -3.042 -16.874  1.00 35.49    -0.235 N 
ATOM      8  NH2 ARG D 557     -26.484  -2.758 -15.462  1.00 35.49    -0.235 N 
ATOM      9  HH  ARG D 557     -28.893  -2.732 -17.335  1.00 35.49     0.174 HD
ATOM     10  HH  ARG D 557     -28.075  -3.883 -16.878  1.00 35.49     0.174 HD
ATOM     11  HH  ARG D 557     -25.999  -2.224 -15.008  1.00 35.49     0.174 HD
ATOM     12  HH  ARG D 557     -26.336  -3.592 -15.480  1.00 35.49     0.174 HD
ATOM     13  HE  ARG D 557     -27.152  -0.534 -15.538  1.00 35.49     0.178 HD
ENDBRANCH   4   5
ENDBRANCH   3   4
ENDBRANCH   2   3
ENDBRANCH   1   2
END_RES ARG D 557
BEGIN_RES GLU D 570
REMARK  3 active torsions:
REMARK  status: ('A' for Active; 'I' for Inactive)
REMARK    5  A    between atoms: CA   and  CB  
REMARK    6  A    between atoms: CB   and  CG  
REMARK    7  A    between atoms: CG   and  CD  
ROOT
ATOM     14  CA  GLU D 570     -18.033  -6.348 -13.375  1.00 32.92     0.160 C 
ENDROOT
BRANCH  14  15
ATOM     15  CB  GLU D 570     -19.500  -6.345 -13.794  1.00 32.92     0.043 C 
BRANCH  15  16
ATOM     16  CG  GLU D 570     -20.079  -7.628 -14.269  1.00 32.92     0.100 C 
BRANCH  16  17
ATOM     17  CD  GLU D 570     -20.796  -7.497 -15.592  1.00 32.92     0.185 C 
ATOM     18  OE1 GLU D 570     -21.353  -8.499 -16.081  1.00 32.92    -0.647 OA
ATOM     19  OE2 GLU D 570     -20.786  -6.385 -16.155  1.00 32.92    -0.647 OA
ENDBRANCH  16  17
ENDBRANCH  15  16
ENDBRANCH  14  15
END_RES GLU D 570
ENDMDL
MODEL 3
REMARK VINA RESULT:      -6.1      4.159      6.498
REMARK  10 active torsions:
REMARK  status: ('A' for Active; 'I' for Inactive)
REMARK    1  A    between atoms: N_2  and  C_5 
REMARK    2  A    between atoms: C_5  and  C_6 
REMARK    3  A    between atoms: C_6  and  O_7 
REMARK    4  A    between atoms: O_7  and  P_8 
REMARK    5  A    between atoms: P_8  and  O_11 
REMARK    6  A    between atoms: O_11  and  C_12 
REMARK    7  A    between atoms: C_12  and  C_13 
REMARK    8  A    between atoms: C_13  and  C_14 
REMARK    9  A    between atoms: C_13  and  O_16 
REMARK   10  A    between atoms: C_14  and  O_15 
ROOT
HETATM    1  P   UNL     1     -24.160  -3.447 -10.378  1.00  0.00     0.408 P 
HETATM    2  O   UNL     1     -23.783  -4.854 -10.863  1.00  0.00    -0.624 OA
HETATM    3  O   UNL     1     -25.575  -3.125  -9.912  1.00  0.00    -0.624 OA
ENDROOT
BRANCH   1   4
HETATM    4  O   UNL     1     -23.788  -3.965  -8.770  1.00  0.00    -0.288 OA
BRANCH   4   5
HETATM    5  C   UNL     1     -22.424  -4.326  -8.666  1.00  0.00     0.209 C 
BRANCH   5   6
HETATM    6  C   UNL     1     -21.962  -4.154  -7.227  1.00  0.00     0.262 C 
BRANCH   6   7
HETATM    7  N   UNL     1     -20.660  -4.907  -6.863  1.00  0.00    -0.077 N 
HETATM    8  C   UNL     1     -20.940  -6.391  -6.964  1.00  0.00     0.271 C 
HETATM    9  C   UNL     1     -20.197  -4.559  -5.461  1.00  0.00     0.271 C 
HETATM   10  C   UNL     1     -19.533  -4.545  -7.843  1.00  0.00     0.271 C 
ENDBRANCH   6   7
ENDBRANCH   5   6
ENDBRANCH   4   5
ENDBRANCH   1   4
BRANCH   1  11
HETATM   11  O   UNL     1     -24.532  -2.930 -11.986  1.00  0.00    -0.287 OA
BRANCH  11  12
HETATM   12  C   UNL     1     -23.377  -2.685 -12.774  1.00  0.00     0.215 C 
BRANCH  12  13
HETATM   13  C   UNL     1     -23.627  -2.729 -14.283  1.00  0.00     0.166 C 
BRANCH  13  14
HETATM   14  C   UNL     1     -24.122  -1.381 -14.843  1.00  0.00     0.198 C 
BRANCH  14  15
HETATM   15  O   UNL     1     -25.501  -1.203 -14.488  1.00  0.00    -0.398 OA
HETATM   16  H   UNL     1     -25.881  -0.699 -15.227  1.00  0.00     0.209 HD
ENDBRANCH  14  15
ENDBRANCH  13  14
BRANCH  13  17
HETATM   17  O   UNL     1     -22.406  -3.132 -14.930  1.00  0.00    -0.391 OA
HETATM   18  H   UNL     1     -21.860  -2.331 -15.023  1.00  0.00     0.210 HD
ENDBRANCH  13  17
ENDBRANCH  12  13
ENDBRANCH  11  12
ENDBRANCH   1  11
TORSDOF 10
BEGIN_RES ARG D 557
REMARK  4 active torsions:
REMARK  status: ('A' for Active; 'I' for Inactive)
REMARK    1  A    between atoms: CA   and  CB  
REMARK    2  A    between atoms: CB   and  CG  
REMARK    3  A    between atoms: CG   and  CD  
REMARK    4  A    between atoms: CD   and  NE  
REMARK       I    between atoms: NE   and  CZ  
REMARK       I    between atoms: CZ   and  NH1 
REMARK       I    between atoms: CZ   and  NH2 
ROOT
ATOM      1  CA  ARG D 557     -26.217   2.705 -17.014  1.00 35.49     0.159 C 
ENDROOT
BRANCH   1   2
ATOM      2  CB  ARG D 557     -26.789   1.319 -17.183  1.00 35.49     0.034 C 
BRANCH   2   3
ATOM      3  CG  ARG D 557     -28.207   1.144 -16.845  1.00 35.49     0.027 C 
BRANCH   3   4
ATOM      4  CD  ARG D 557     -28.691  -0.225 -17.135  1.00 35.49     0.116 C 
BRANCH   4   5
ATOM      5  NE  ARG D 557     -27.889  -1.232 -16.491  1.00 35.49    -0.212 N 
ATOM      6  CZ  ARG D 557     -28.019  -2.531 -16.642  1.00 35.49     0.666 C 
ATOM      7  NH1 ARG D 557     -28.944  -3.065 -17.419  1.00 35.49    -0.235 N 
ATOM      8  NH2 ARG D 557     -27.190  -3.297 -15.996  1.00 35.49    -0.235 N 
ATOM      9  HH  ARG D 557     -29.499  -2.580 -17.855  1.00 35.49     0.174 HD
ATOM     10  HH  ARG D 557     -28.980  -3.919 -17.481  1.00 35.49     0.174 HD
ATOM     11  HH  ARG D 557     -26.598  -2.924 -15.507  1.00 35.49     0.174 HD
ATOM     12  HH  ARG D 557     -27.240  -4.140 -16.071  1.00 35.49     0.174 HD
ATOM     13  HE  ARG D 557     -27.316  -0.979 -15.916  1.00 35.49     0.178 HD
ENDBRANCH   4   5
ENDBRANCH   3   4
ENDBRANCH   2   3
ENDBRANCH   1   2
END_RES ARG D 557
BEGIN_RES GLU D 570
REMARK  3 active torsions:
REMARK  status: ('A' for Active; 'I' for Inactive)
REMARK    5  A    between atoms: CA   and  CB  
REMARK    6  A    between atoms: CB   and  CG  
REMARK    7  A    between atoms: CG   and  CD  
ROOT
ATOM     14  CA  GLU D 570     -18.033  -6.348 -13.375  1.00 32.92     0.160 C 
ENDROOT
BRANCH  14  15
ATOM     15  CB  GLU D 570     -19.500  -6.345 -13.794  1.00 32.92     0.043 C 
BRANCH  15  16
ATOM     16  CG  GLU D 570     -19.798  -6.484 -15.243  1.00 32.92     0.100 C 
BRANCH  16  17
ATOM     17  CD  GLU D 570     -21.165  -5.959 -15.616  1.00 32.92     0.185 C 
ATOM     18  OE1 GLU D 570     -21.284  -5.253 -16.636  1.00 32.92    -0.647 OA
ATOM     19  OE2 GLU D 570     -22.124  -6.242 -14.871  1.00 32.92    -0.647 OA
ENDBRANCH  16  17
ENDBRANCH  15  16
ENDBRANCH  14  15
END_RES GLU D 570
ENDMDL
MODEL 4
REMARK VINA RESULT:      -6.1      2.161      4.872
REMARK  10 active torsions:
REMARK  status: ('A' for Active; 'I' for Inactive)
REMARK    1  A    between atoms: N_2  and  C_5 
REMARK    2  A    between atoms: C_5  and  C_6 
REMARK    3  A    between atoms: C_6  and  O_7 
REMARK    4  A    between atoms: O_7  and  P_8 
REMARK    5  A    between atoms: P_8  and  O_11 
REMARK    6  A    between atoms: O_11  and  C_12 
REMARK    7  A    between atoms: C_12  and  C_13 
REMARK    8  A    between atoms: C_13  and  C_14 
REMARK    9  A    between atoms: C_13  and  O_16 
REMARK   10  A    between atoms: C_14  and  O_15 
ROOT
HETATM    1  P   UNL     1     -25.442  -6.484 -15.999  1.00  0.00     0.408 P 
HETATM    2  O   UNL     1     -24.365  -6.951 -16.989  1.00  0.00    -0.624 OA
HETATM    3  O   UNL     1     -26.438  -7.466 -15.393  1.00  0.00    -0.624 OA
ENDROOT
BRANCH   1   4
HETATM    4  O   UNL     1     -24.346  -6.862 -14.716  1.00  0.00    -0.288 OA
BRANCH   4   5
HETATM    5  C   UNL     1     -23.833  -5.679 -14.135  1.00  0.00     0.209 C 
BRANCH   5   6
HETATM    6  C   UNL     1     -24.718  -4.502 -14.513  1.00  0.00     0.262 C 
BRANCH   6   7
HETATM    7  N   UNL     1     -24.248  -3.129 -13.976  1.00  0.00    -0.077 N 
HETATM    8  C   UNL     1     -22.814  -2.925 -14.417  1.00  0.00     0.271 C 
HETATM    9  C   UNL     1     -24.341  -3.068 -12.463  1.00  0.00     0.271 C 
HETATM   10  C   UNL     1     -25.112  -1.996 -14.554  1.00  0.00     0.271 C 
ENDBRANCH   6   7
ENDBRANCH   5   6
ENDBRANCH   4   5
ENDBRANCH   1   4
BRANCH   1  11
HETATM   11  O   UNL     1     -26.539  -6.106 -17.283  1.00  0.00    -0.287 OA
BRANCH  11  12
HETATM   12  C   UNL     1     -27.843  -6.625 -17.071  1.00  0.00     0.215 C 
BRANCH  12  13
HETATM   13  C   UNL     1     -28.700  -6.701 -18.337  1.00  0.00     0.166 C 
BRANCH  13  14
HETATM   14  C   UNL     1     -29.985  -7.528 -18.136  1.00  0.00     0.198 C 
BRANCH  14  15
HETATM   15  O   UNL     1     -30.025  -8.579 -19.112  1.00  0.00    -0.398 OA
HETATM   16  H   UNL     1     -29.113  -8.915 -19.146  1.00  0.00     0.209 HD
ENDBRANCH  14  15
ENDBRANCH  13  14
BRANCH  13  17
HETATM   17  O   UNL     1     -29.018  -5.359 -18.747  1.00  0.00    -0.391 OA
HETATM   18  H   UNL     1     -28.640  -5.240 -19.636  1.00  0.00     0.210 HD
ENDBRANCH  13  17
ENDBRANCH  12  13
ENDBRANCH  11  12
ENDBRANCH   1  11
TORSDOF 10
BEGIN_RES ARG D 557
REMARK  4 active torsions:
REMARK  status: ('A' for Active; 'I' for Inactive)
REMARK    1  A    between atoms: CA   and  CB  
REMARK    2  A    between atoms: CB   and  CG  
REMARK    3  A    between atoms: CG   and  CD  
REMARK    4  A    between atoms: CD   and  NE  
REMARK       I    between atoms: NE   and  CZ  
REMARK       I    between atoms: CZ   and  NH1 
REMARK       I    between atoms: CZ   and  NH2 
ROOT
ATOM      1  CA  ARG D 557     -26.217   2.705 -17.014  1.00 35.49     0.159 C 
ENDROOT
BRANCH   1   2
ATOM      2  CB  ARG D 557     -26.789   1.319 -17.183  1.00 35.49     0.034 C 
BRANCH   2   3
ATOM      3  CG  ARG D 557     -28.187   1.128 -16.779  1.00 35.49     0.027 C 
BRANCH   3   4
ATOM      4  CD  ARG D 557     -28.776  -0.105 -17.351  1.00 35.49     0.116 C 
BRANCH   4   5
ATOM      5  NE  ARG D 557     -28.135  -1.294 -16.853  1.00 35.49    -0.212 N 
ATOM      6  CZ  ARG D 557     -28.587  -2.521 -16.982  1.00 35.49     0.666 C 
ATOM      7  NH1 ARG D 557     -29.724  -2.798 -17.592  1.00 35.49    -0.235 N 
ATOM      8  NH2 ARG D 557     -27.862  -3.482 -16.486  1.00 35.49    -0.235 N 
ATOM      9  HH  ARG D 557     -30.216  -2.181 -17.927  1.00 35.49     0.174 HD
ATOM     10  HH  ARG D 557     -29.967  -3.618 -17.648  1.00 35.49     0.174 HD
ATOM     11  HH  ARG D 557     -27.129  -3.274 -16.104  1.00 35.49     0.174 HD
ATOM     12  HH  ARG D 557     -28.119  -4.287 -16.553  1.00 35.49     0.174 HD
ATOM     13  HE  ARG D 557     -27.432  -1.201 -16.384  1.00 35.49     0.178 HD
ENDBRANCH   4   5
ENDBRANCH   3   4
ENDBRANCH   2   3
ENDBRANCH   1   2
END_RES ARG D 557
BEGIN_RES GLU D 570
REMARK  3 active torsions:
REMARK  status: ('A' for Active; 'I' for Inactive)
REMARK    5  A    between atoms: CA   and  CB  
REMARK    6  A    between atoms: CB   and  CG  
REMARK    7  A    between atoms: CG   and  CD  
ROOT
ATOM     14  CA  GLU D 570     -18.033  -6.348 -13.375  1.00 32.92     0.160 C 
ENDROOT
BRANCH  14  15
ATOM     15  CB  GLU D 570     -19.500  -6.345 -13.794  1.00 32.92     0.043 C 
BRANCH  15  16
ATOM     16  CG  GLU D 570     -20.086  -7.634 -14.245  1.00 32.92     0.100 C 
BRANCH  16  17
ATOM     17  CD  GLU D 570     -20.796  -7.525 -15.574  1.00 32.92     0.185 C 
ATOM     18  OE1 GLU D 570     -21.300  -8.548 -16.076  1.00 32.92    -0.647 OA
ATOM     19  OE2 GLU D 570     -20.834  -6.409 -16.127  1.00 32.92    -0.647 OA
ENDBRANCH  16  17
ENDBRANCH  15  16
ENDBRANCH  14  15
END_RES GLU D 570
ENDMDL
MODEL 5
REMARK VINA RESULT:      -5.9      1.967      2.799
REMARK  10 active torsions:
REMARK  status: ('A' for Active; 'I' for Inactive)
REMARK    1  A    between atoms: N_2  and  C_5 
REMARK    2  A    between atoms: C_5  and  C_6 
REMARK    3  A    between atoms: C_6  and  O_7 
REMARK    4  A    between atoms: O_7  and  P_8 
REMARK    5  A    between atoms: P_8  and  O_11 
REMARK    6  A    between atoms: O_11  and  C_12 
REMARK    7  A    between atoms: C_12  and  C_13 
REMARK    8  A    between atoms: C_13  and  C_14 
REMARK    9  A    between atoms: C_13  and  O_16 
REMARK   10  A    between atoms: C_14  and  O_15 
ROOT
HETATM    1  P   UNL     1     -23.766  -5.678 -14.491  1.00  0.00     0.408 P 
HETATM    2  O   UNL     1     -24.793  -4.670 -15.028  1.00  0.00    -0.624 OA
HETATM    3  O   UNL     1     -23.807  -6.152 -13.043  1.00  0.00    -0.624 OA
ENDROOT
BRANCH   1   4
HETATM    4  O   UNL     1     -24.877  -6.939 -14.897  1.00  0.00    -0.288 OA
BRANCH   4   5
HETATM    5  C   UNL     1     -25.719  -6.538 -15.960  1.00  0.00     0.209 C 
BRANCH   5   6
HETATM    6  C   UNL     1     -27.123  -7.077 -15.728  1.00  0.00     0.262 C 
BRANCH   6   7
HETATM    7  N   UNL     1     -28.225  -6.432 -16.602  1.00  0.00    -0.077 N 
HETATM    8  C   UNL     1     -29.245  -7.502 -16.926  1.00  0.00     0.271 C 
HETATM    9  C   UNL     1     -27.648  -5.858 -17.881  1.00  0.00     0.271 C 
HETATM   10  C   UNL     1     -28.923  -5.294 -15.838  1.00  0.00     0.271 C 
ENDBRANCH   6   7
ENDBRANCH   5   6
ENDBRANCH   4   5
ENDBRANCH   1   4
BRANCH   1  11
HETATM   11  O   UNL     1     -22.655  -4.415 -14.085  1.00  0.00    -0.287 OA
BRANCH  11  12
HETATM   12  C   UNL     1     -21.975  -4.644 -12.860  1.00  0.00     0.215 C 
BRANCH  12  13
HETATM   13  C   UNL     1     -21.852  -3.405 -11.971  1.00  0.00     0.166 C 
BRANCH  13  14
HETATM   14  C   UNL     1     -22.811  -3.442 -10.764  1.00  0.00     0.198 C 
BRANCH  14  15
HETATM   15  O   UNL     1     -24.100  -3.897 -11.202  1.00  0.00    -0.398 OA
HETATM   16  H   UNL     1     -24.718  -3.212 -10.897  1.00  0.00     0.209 HD
ENDBRANCH  14  15
ENDBRANCH  13  14
BRANCH  13  17
HETATM   17  O   UNL     1     -20.486  -3.299 -11.531  1.00  0.00    -0.391 OA
HETATM   18  H   UNL     1     -20.511  -3.132 -10.573  1.00  0.00     0.210 HD
ENDBRANCH  13  17
ENDBRANCH  12  13
ENDBRANCH  11  12
ENDBRANCH   1  11
TORSDOF 10
BEGIN_RES ARG D 557
REMARK  4 active torsions:
REMARK  status: ('A' for Active; 'I' for Inactive)
REMARK    1  A    between atoms: CA   and  CB  
REMARK    2  A    between atoms: CB   and  CG  
REMARK    3  A    between atoms: CG   and  CD  
REMARK    4  A    between atoms: CD   and  NE  
REMARK       I    between atoms: NE   and  CZ  
REMARK       I    between atoms: CZ   and  NH1 
REMARK       I    between atoms: CZ   and  NH2 
ROOT
ATOM      1  CA  ARG D 557     -26.217   2.705 -17.014  1.00 35.49     0.159 C 
ENDROOT
BRANCH   1   2
ATOM      2  CB  ARG D 557     -26.789   1.319 -17.183  1.00 35.49     0.034 C 
BRANCH   2   3
ATOM      3  CG  ARG D 557     -25.831   0.207 -17.204  1.00 35.49     0.027 C 
BRANCH   3   4
ATOM      4  CD  ARG D 557     -24.750   0.374 -16.207  1.00 35.49     0.116 C 
BRANCH   4   5
ATOM      5  NE  ARG D 557     -24.963  -0.433 -15.035  1.00 35.49    -0.212 N 
ATOM      6  CZ  ARG D 557     -24.204  -1.431 -14.641  1.00 35.49     0.666 C 
ATOM      7  NH1 ARG D 557     -23.135  -1.817 -15.313  1.00 35.49    -0.235 N 
ATOM      8  NH2 ARG D 557     -24.536  -2.040 -13.540  1.00 35.49    -0.235 N 
ATOM      9  HH  ARG D 557     -22.896  -1.429 -16.039  1.00 35.49     0.174 HD
ATOM     10  HH  ARG D 557     -22.676  -2.473 -15.007  1.00 35.49     0.174 HD
ATOM     11  HH  ARG D 557     -25.227  -1.764 -13.123  1.00 35.49     0.174 HD
ATOM     12  HH  ARG D 557     -24.068  -2.686 -13.252  1.00 35.49     0.174 HD
ATOM     13  HE  ARG D 557     -25.670  -0.300 -14.582  1.00 35.49     0.178 HD
ENDBRANCH   4   5
ENDBRANCH   3   4
ENDBRANCH   2   3
ENDBRANCH   1   2
END_RES ARG D 557
BEGIN_RES GLU D 570
REMARK  3 active torsions:
REMARK  status: ('A' for Active; 'I' for Inactive)
REMARK    5  A    between atoms: CA   and  CB  
REMARK    6  A    between atoms: CB   and  CG  
REMARK    7  A    between atoms: CG   and  CD  
ROOT
ATOM     14  CA  GLU D 570     -18.033  -6.348 -13.375  1.00 32.92     0.160 C 
ENDROOT
BRANCH  14  15
ATOM     15  CB  GLU D 570     -19.500  -6.345 -13.794  1.00 32.92     0.043 C 
BRANCH  15  16
ATOM     16  CG  GLU D 570     -20.083  -7.632 -14.254  1.00 32.92     0.100 C 
BRANCH  16  17
ATOM     17  CD  GLU D 570     -20.669  -7.550 -15.645  1.00 32.92     0.185 C 
ATOM     18  OE1 GLU D 570     -20.564  -6.485 -16.283  1.00 32.92    -0.647 OA
ATOM     19  OE2 GLU D 570     -21.252  -8.556 -16.094  1.00 32.92    -0.647 OA
ENDBRANCH  16  17
ENDBRANCH  15  16
ENDBRANCH  14  15
END_RES GLU D 570
ENDMDL
MODEL 6
REMARK VINA RESULT:      -5.8      4.171      6.494
REMARK  10 active torsions:
REMARK  status: ('A' for Active; 'I' for Inactive)
REMARK    1  A    between atoms: N_2  and  C_5 
REMARK    2  A    between atoms: C_5  and  C_6 
REMARK    3  A    between atoms: C_6  and  O_7 
REMARK    4  A    between atoms: O_7  and  P_8 
REMARK    5  A    between atoms: P_8  and  O_11 
REMARK    6  A    between atoms: O_11  and  C_12 
REMARK    7  A    between atoms: C_12  and  C_13 
REMARK    8  A    between atoms: C_13  and  C_14 
REMARK    9  A    between atoms: C_13  and  O_16 
REMARK   10  A    between atoms: C_14  and  O_15 
ROOT
HETATM    1  P   UNL     1     -23.976  -3.599 -10.527  1.00  0.00     0.408 P 
HETATM    2  O   UNL     1     -23.611  -5.082 -10.690  1.00  0.00    -0.624 OA
HETATM    3  O   UNL     1     -25.403  -3.167 -10.209  1.00  0.00    -0.624 OA
ENDROOT
BRANCH   1   4
HETATM    4  O   UNL     1     -23.691  -3.775  -8.830  1.00  0.00    -0.288 OA
BRANCH   4   5
HETATM    5  C   UNL     1     -22.454  -4.418  -8.597  1.00  0.00     0.209 C 
BRANCH   5   6
HETATM    6  C   UNL     1     -22.263  -4.627  -7.102  1.00  0.00     0.262 C 
BRANCH   6   7
HETATM    7  N   UNL     1     -20.977  -5.392  -6.706  1.00  0.00    -0.077 N 
HETATM    8  C   UNL     1     -20.260  -4.578  -5.651  1.00  0.00     0.271 C 
HETATM    9  C   UNL     1     -20.072  -5.604  -7.904  1.00  0.00     0.271 C 
HETATM   10  C   UNL     1     -21.327  -6.770  -6.120  1.00  0.00     0.271 C 
ENDBRANCH   6   7
ENDBRANCH   5   6
ENDBRANCH   4   5
ENDBRANCH   1   4
BRANCH   1  11
HETATM   11  O   UNL     1     -24.261  -3.423 -12.224  1.00  0.00    -0.287 OA
BRANCH  11  12
HETATM   12  C   UNL     1     -23.103  -3.034 -12.946  1.00  0.00     0.215 C 
BRANCH  12  13
HETATM   13  C   UNL     1     -22.716  -3.993 -14.074  1.00  0.00     0.166 C 
BRANCH  13  14
HETATM   14  C   UNL     1     -23.854  -4.966 -14.444  1.00  0.00     0.198 C 
BRANCH  14  15
HETATM   15  O   UNL     1     -23.755  -6.139 -13.623  1.00  0.00    -0.398 OA
HETATM   16  H   UNL     1     -22.911  -6.547 -13.881  1.00  0.00     0.209 HD
ENDBRANCH  14  15
ENDBRANCH  13  14
BRANCH  13  17
HETATM   17  O   UNL     1     -22.324  -3.212 -15.216  1.00  0.00    -0.391 OA
HETATM   18  H   UNL     1     -22.799  -2.364 -15.153  1.00  0.00     0.210 HD
ENDBRANCH  13  17
ENDBRANCH  12  13
ENDBRANCH  11  12
ENDBRANCH   1  11
TORSDOF 10
BEGIN_RES ARG D 557
REMARK  4 active torsions:
REMARK  status: ('A' for Active; 'I' for Inactive)
REMARK    1  A    between atoms: CA   and  CB  
REMARK    2  A    between atoms: CB   and  CG  
REMARK    3  A    between atoms: CG   and  CD  
REMARK    4  A    between atoms: CD   and  NE  
REMARK       I    between atoms: NE   and  CZ  
REMARK       I    between atoms: CZ   and  NH1 
REMARK       I    between atoms: CZ   and  NH2 
ROOT
ATOM      1  CA  ARG D 557     -26.217   2.705 -17.014  1.00 35.49     0.159 C 
ENDROOT
BRANCH   1   2
ATOM      2  CB  ARG D 557     -26.789   1.319 -17.183  1.00 35.49     0.034 C 
BRANCH   2   3
ATOM      3  CG  ARG D 557     -28.226   1.228 -17.467  1.00 35.49     0.027 C 
BRANCH   3   4
ATOM      4  CD  ARG D 557     -28.933   0.334 -16.521  1.00 35.49     0.116 C 
BRANCH   4   5
ATOM      5  NE  ARG D 557     -29.293  -0.921 -17.126  1.00 35.49    -0.212 N 
ATOM      6  CZ  ARG D 557     -28.631  -2.050 -17.005  1.00 35.49     0.666 C 
ATOM      7  NH1 ARG D 557     -27.519  -2.148 -16.300  1.00 35.49    -0.235 N 
ATOM      8  NH2 ARG D 557     -29.116  -3.097 -17.606  1.00 35.49    -0.235 N 
ATOM      9  HH  ARG D 557     -27.184  -1.472 -15.894  1.00 35.49     0.174 HD
ATOM     10  HH  ARG D 557     -27.132  -2.911 -16.254  1.00 35.49     0.174 HD
ATOM     11  HH  ARG D 557     -29.840  -3.006 -18.048  1.00 35.49     0.174 HD
ATOM     12  HH  ARG D 557     -28.719  -3.844 -17.548  1.00 35.49     0.174 HD
ATOM     13  HE  ARG D 557     -29.957  -0.932 -17.657  1.00 35.49     0.178 HD
ENDBRANCH   4   5
ENDBRANCH   3   4
ENDBRANCH   2   3
ENDBRANCH   1   2
END_RES ARG D 557
BEGIN_RES GLU D 570
REMARK  3 active torsions:
REMARK  status: ('A' for Active; 'I' for Inactive)
REMARK    5  A    between atoms: CA   and  CB  
REMARK    6  A    between atoms: CB   and  CG  
REMARK    7  A    between atoms: CG   and  CD  
ROOT
ATOM     14  CA  GLU D 570     -18.033  -6.348 -13.375  1.00 32.92     0.160 C 
ENDROOT
BRANCH  14  15
ATOM     15  CB  GLU D 570     -19.500  -6.345 -13.794  1.00 32.92     0.043 C 
BRANCH  15  16
ATOM     16  CG  GLU D 570     -19.937  -7.381 -14.765  1.00 32.92     0.100 C 
BRANCH  16  17
ATOM     17  CD  GLU D 570     -20.991  -6.882 -15.726  1.00 32.92     0.185 C 
ATOM     18  OE1 GLU D 570     -22.030  -7.550 -15.884  1.00 32.92    -0.647 OA
ATOM     19  OE2 GLU D 570     -20.767  -5.819 -16.338  1.00 32.92    -0.647 OA
ENDBRANCH  16  17
ENDBRANCH  15  16
ENDBRANCH  14  15
END_RES GLU D 570
ENDMDL
MODEL 7
REMARK VINA RESULT:      -5.6      2.132      4.964
REMARK  10 active torsions:
REMARK  status: ('A' for Active; 'I' for Inactive)
REMARK    1  A    between atoms: N_2  and  C_5 
REMARK    2  A    between atoms: C_5  and  C_6 
REMARK    3  A    between atoms: C_6  and  O_7 
REMARK    4  A    between atoms: O_7  and  P_8 
REMARK    5  A    between atoms: P_8  and  O_11 
REMARK    6  A    between atoms: O_11  and  C_12 
REMARK    7  A    between atoms: C_12  and  C_13 
REMARK    8  A    between atoms: C_13  and  C_14 
REMARK    9  A    between atoms: C_13  and  O_16 
REMARK   10  A    between atoms: C_14  and  O_15 
ROOT
HETATM    1  P   UNL     1     -24.691  -5.702 -15.105  1.00  0.00     0.408 P 
HETATM    2  O   UNL     1     -25.758  -4.670 -15.500  1.00  0.00    -0.624 OA
HETATM    3  O   UNL     1     -23.745  -6.297 -16.142  1.00  0.00    -0.624 OA
ENDROOT
BRANCH   1   4
HETATM    4  O   UNL     1     -23.582  -4.390 -14.900  1.00  0.00    -0.288 OA
BRANCH   4   5
HETATM    5  C   UNL     1     -22.598  -4.716 -13.938  1.00  0.00     0.209 C 
BRANCH   5   6
HETATM    6  C   UNL     1     -23.273  -5.066 -12.620  1.00  0.00     0.262 C 
BRANCH   6   7
HETATM    7  N   UNL     1     -23.152  -3.988 -11.516  1.00  0.00    -0.077 N 
HETATM    8  C   UNL     1     -22.835  -4.691 -10.214  1.00  0.00     0.271 C 
HETATM    9  C   UNL     1     -24.437  -3.194 -11.379  1.00  0.00     0.271 C 
HETATM   10  C   UNL     1     -22.015  -3.005 -11.841  1.00  0.00     0.271 C 
ENDBRANCH   6   7
ENDBRANCH   5   6
ENDBRANCH   4   5
ENDBRANCH   1   4
BRANCH   1  11
HETATM   11  O   UNL     1     -25.801  -7.013 -15.311  1.00  0.00    -0.287 OA
BRANCH  11  12
HETATM   12  C   UNL     1     -26.846  -6.719 -16.224  1.00  0.00     0.215 C 
BRANCH  12  13
HETATM   13  C   UNL     1     -28.242  -7.091 -15.719  1.00  0.00     0.166 C 
BRANCH  13  14
HETATM   14  C   UNL     1     -29.080  -5.857 -15.327  1.00  0.00     0.198 C 
BRANCH  14  15
HETATM   15  O   UNL     1     -30.264  -5.817 -16.137  1.00  0.00    -0.398 OA
HETATM   16  H   UNL     1     -30.998  -5.852 -15.500  1.00  0.00     0.209 HD
ENDBRANCH  14  15
ENDBRANCH  13  14
BRANCH  13  17
HETATM   17  O   UNL     1     -28.905  -7.851 -16.745  1.00  0.00    -0.391 OA
HETATM   18  H   UNL     1     -29.365  -7.211 -17.316  1.00  0.00     0.210 HD
ENDBRANCH  13  17
ENDBRANCH  12  13
ENDBRANCH  11  12
ENDBRANCH   1  11
TORSDOF 10
BEGIN_RES ARG D 557
REMARK  4 active torsions:
REMARK  status: ('A' for Active; 'I' for Inactive)
REMARK    1  A    between atoms: CA   and  CB  
REMARK    2  A    between atoms: CB   and  CG  
REMARK    3  A    between atoms: CG   and  CD  
REMARK    4  A    between atoms: CD   and  NE  
REMARK       I    between atoms: NE   and  CZ  
REMARK       I    between atoms: CZ   and  NH1 
REMARK       I    between atoms: CZ   and  NH2 
ROOT
ATOM      1  CA  ARG D 557     -26.217   2.705 -17.014  1.00 35.49     0.159 C 
ENDROOT
BRANCH   1   2
ATOM      2  CB  ARG D 557     -26.789   1.319 -17.183  1.00 35.49     0.034 C 
BRANCH   2   3
ATOM      3  CG  ARG D 557     -28.242   1.222 -17.369  1.00 35.49     0.027 C 
BRANCH   3   4
ATOM      4  CD  ARG D 557     -28.865   0.248 -16.444  1.00 35.49     0.116 C 
BRANCH   4   5
ATOM      5  NE  ARG D 557     -29.272  -0.957 -17.119  1.00 35.49    -0.212 N 
ATOM      6  CZ  ARG D 557     -28.675  -2.124 -17.033  1.00 35.49     0.666 C 
ATOM      7  NH1 ARG D 557     -27.592  -2.315 -16.304  1.00 35.49    -0.235 N 
ATOM      8  NH2 ARG D 557     -29.196  -3.115 -17.699  1.00 35.49    -0.235 N 
ATOM      9  HH  ARG D 557     -27.234  -1.678 -15.856  1.00 35.49     0.174 HD
ATOM     10  HH  ARG D 557     -27.247  -3.099 -16.284  1.00 35.49     0.174 HD
ATOM     11  HH  ARG D 557     -29.900  -2.964 -18.156  1.00 35.49     0.174 HD
ATOM     12  HH  ARG D 557     -28.841  -3.884 -17.665  1.00 35.49     0.174 HD
ATOM     13  HE  ARG D 557     -29.920  -0.907 -17.668  1.00 35.49     0.178 HD
ENDBRANCH   4   5
ENDBRANCH   3   4
ENDBRANCH   2   3
ENDBRANCH   1   2
END_RES ARG D 557
BEGIN_RES GLU D 570
REMARK  3 active torsions:
REMARK  status: ('A' for Active; 'I' for Inactive)
REMARK    5  A    between atoms: CA   and  CB  
REMARK    6  A    between atoms: CB   and  CG  
REMARK    7  A    between atoms: CG   and  CD  
ROOT
ATOM     14  CA  GLU D 570     -18.033  -6.348 -13.375  1.00 32.92     0.160 C 
ENDROOT
BRANCH  14  15
ATOM     15  CB  GLU D 570     -19.500  -6.345 -13.794  1.00 32.92     0.043 C 
BRANCH  15  16
ATOM     16  CG  GLU D 570     -20.089  -7.636 -14.235  1.00 32.92     0.100 C 
BRANCH  16  17
ATOM     17  CD  GLU D 570     -20.616  -7.591 -15.650  1.00 32.92     0.185 C 
ATOM     18  OE1 GLU D 570     -21.132  -8.615 -16.137  1.00 32.92    -0.647 OA
ATOM     19  OE2 GLU D 570     -20.498  -6.524 -16.284  1.00 32.92    -0.647 OA
ENDBRANCH  16  17
ENDBRANCH  15  16
ENDBRANCH  14  15
END_RES GLU D 570
ENDMDL
MODEL 8
REMARK VINA RESULT:      -5.6      4.293      6.600
REMARK  10 active torsions:
REMARK  status: ('A' for Active; 'I' for Inactive)
REMARK    1  A    between atoms: N_2  and  C_5 
REMARK    2  A    between atoms: C_5  and  C_6 
REMARK    3  A    between atoms: C_6  and  O_7 
REMARK    4  A    between atoms: O_7  and  P_8 
REMARK    5  A    between atoms: P_8  and  O_11 
REMARK    6  A    between atoms: O_11  and  C_12 
REMARK    7  A    between atoms: C_12  and  C_13 
REMARK    8  A    between atoms: C_13  and  C_14 
REMARK    9  A    between atoms: C_13  and  O_16 
REMARK   10  A    between atoms: C_14  and  O_15 
ROOT
HETATM    1  P   UNL     1     -24.357  -3.811 -10.247  1.00  0.00     0.408 P 
HETATM    2  O   UNL     1     -25.582  -2.994  -9.813  1.00  0.00    -0.624 OA
HETATM    3  O   UNL     1     -23.001  -3.149 -10.462  1.00  0.00    -0.624 OA
ENDROOT
BRANCH   1   4
HETATM    4  O   UNL     1     -23.960  -3.996  -8.574  1.00  0.00    -0.288 OA
BRANCH   4   5
HETATM    5  C   UNL     1     -22.596  -4.338  -8.420  1.00  0.00     0.209 C 
BRANCH   5   6
HETATM    6  C   UNL     1     -22.330  -4.727  -6.974  1.00  0.00     0.262 C 
BRANCH   6   7
HETATM    7  N   UNL     1     -20.962  -5.404  -6.719  1.00  0.00    -0.077 N 
HETATM    8  C   UNL     1     -20.212  -4.567  -5.704  1.00  0.00     0.271 C 
HETATM    9  C   UNL     1     -20.156  -5.517  -7.998  1.00  0.00     0.271 C 
HETATM   10  C   UNL     1     -21.157  -6.819  -6.149  1.00  0.00     0.271 C 
ENDBRANCH   6   7
ENDBRANCH   5   6
ENDBRANCH   4   5
ENDBRANCH   1   4
BRANCH   1  11
HETATM   11  O   UNL     1     -24.754  -3.626 -11.921  1.00  0.00    -0.287 OA
BRANCH  11  12
HETATM   12  C   UNL     1     -23.910  -2.706 -12.595  1.00  0.00     0.215 C 
BRANCH  12  13
HETATM   13  C   UNL     1     -24.361  -2.368 -14.017  1.00  0.00     0.166 C 
BRANCH  13  14
HETATM   14  C   UNL     1     -23.390  -1.411 -14.737  1.00  0.00     0.198 C 
BRANCH  14  15
HETATM   15  O   UNL     1     -22.593  -2.161 -15.666  1.00  0.00    -0.398 OA
HETATM   16  H   UNL     1     -22.012  -2.704 -15.107  1.00  0.00     0.209 HD
ENDBRANCH  14  15
ENDBRANCH  13  14
BRANCH  13  17
HETATM   17  O   UNL     1     -24.499  -3.598 -14.751  1.00  0.00    -0.391 OA
HETATM   18  H   UNL     1     -25.072  -3.407 -15.514  1.00  0.00     0.210 HD
ENDBRANCH  13  17
ENDBRANCH  12  13
ENDBRANCH  11  12
ENDBRANCH   1  11
TORSDOF 10
BEGIN_RES ARG D 557
REMARK  4 active torsions:
REMARK  status: ('A' for Active; 'I' for Inactive)
REMARK    1  A    between atoms: CA   and  CB  
REMARK    2  A    between atoms: CB   and  CG  
REMARK    3  A    between atoms: CG   and  CD  
REMARK    4  A    between atoms: CD   and  NE  
REMARK       I    between atoms: NE   and  CZ  
REMARK       I    between atoms: CZ   and  NH1 
REMARK       I    between atoms: CZ   and  NH2 
ROOT
ATOM      1  CA  ARG D 557     -26.217   2.705 -17.014  1.00 35.49     0.159 C 
ENDROOT
BRANCH   1   2
ATOM      2  CB  ARG D 557     -26.789   1.319 -17.183  1.00 35.49     0.034 C 
BRANCH   2   3
ATOM      3  CG  ARG D 557     -25.971   0.202 -16.694  1.00 35.49     0.027 C 
BRANCH   3   4
ATOM      4  CD  ARG D 557     -26.779  -0.833 -16.011  1.00 35.49     0.116 C 
BRANCH   4   5
ATOM      5  NE  ARG D 557     -27.971  -1.164 -16.747  1.00 35.49    -0.212 N 
ATOM      6  CZ  ARG D 557     -28.444  -2.375 -16.938  1.00 35.49     0.666 C 
ATOM      7  NH1 ARG D 557     -27.844  -3.453 -16.469  1.00 35.49    -0.235 N 
ATOM      8  NH2 ARG D 557     -29.551  -2.487 -17.614  1.00 35.49    -0.235 N 
ATOM      9  HH  ARG D 557     -27.116  -3.402 -16.020  1.00 35.49     0.174 HD
ATOM     10  HH  ARG D 557     -28.200  -4.217 -16.623  1.00 35.49     0.174 HD
ATOM     11  HH  ARG D 557     -29.920  -1.773 -17.898  1.00 35.49     0.174 HD
ATOM     12  HH  ARG D 557     -29.889  -3.252 -17.754  1.00 35.49     0.174 HD
ATOM     13  HE  ARG D 557     -28.382  -0.535 -17.145  1.00 35.49     0.178 HD
ENDBRANCH   4   5
ENDBRANCH   3   4
ENDBRANCH   2   3
ENDBRANCH   1   2
END_RES ARG D 557
BEGIN_RES GLU D 570
REMARK  3 active torsions:
REMARK  status: ('A' for Active; 'I' for Inactive)
REMARK    5  A    between atoms: CA   and  CB  
REMARK    6  A    between atoms: CB   and  CG  
REMARK    7  A    between atoms: CG   and  CD  
ROOT
ATOM     14  CA  GLU D 570     -18.033  -6.348 -13.375  1.00 32.92     0.160 C 
ENDROOT
BRANCH  14  15
ATOM     15  CB  GLU D 570     -19.500  -6.345 -13.794  1.00 32.92     0.043 C 
BRANCH  15  16
ATOM     16  CG  GLU D 570     -20.426  -5.461 -13.040  1.00 32.92     0.100 C 
BRANCH  16  17
ATOM     17  CD  GLU D 570     -21.742  -5.243 -13.749  1.00 32.92     0.185 C 
ATOM     18  OE1 GLU D 570     -22.778  -5.737 -13.266  1.00 32.92    -0.647 OA
ATOM     19  OE2 GLU D 570     -21.733  -4.585 -14.808  1.00 32.92    -0.647 OA
ENDBRANCH  16  17
ENDBRANCH  15  16
ENDBRANCH  14  15
END_RES GLU D 570
ENDMDL
MODEL 9
REMARK VINA RESULT:      -5.3      2.553      4.065
REMARK  10 active torsions:
REMARK  status: ('A' for Active; 'I' for Inactive)
REMARK    1  A    between atoms: N_2  and  C_5 
REMARK    2  A    between atoms: C_5  and  C_6 
REMARK    3  A    between atoms: C_6  and  O_7 
REMARK    4  A    between atoms: O_7  and  P_8 
REMARK    5  A    between atoms: P_8  and  O_11 
REMARK    6  A    between atoms: O_11  and  C_12 
REMARK    7  A    between atoms: C_12  and  C_13 
REMARK    8  A    between atoms: C_13  and  C_14 
REMARK    9  A    between atoms: C_13  and  O_16 
REMARK   10  A    between atoms: C_14  and  O_15 
ROOT
HETATM    1  P   UNL     1     -25.569  -6.809 -16.210  1.00  0.00     0.408 P 
HETATM    2  O   UNL     1     -26.083  -5.396 -16.525  1.00  0.00    -0.624 OA
HETATM    3  O   UNL     1     -24.708  -7.081 -14.982  1.00  0.00    -0.624 OA
ENDROOT
BRANCH   1   4
HETATM    4  O   UNL     1     -26.975  -7.039 -15.230  1.00  0.00    -0.288 OA
BRANCH   4   5
HETATM    5  C   UNL     1     -28.141  -7.060 -16.030  1.00  0.00     0.209 C 
BRANCH   5   6
HETATM    6  C   UNL     1     -29.001  -5.847 -15.708  1.00  0.00     0.262 C 
BRANCH   6   7
HETATM    7  N   UNL     1     -29.660  -5.167 -16.931  1.00  0.00    -0.077 N 
HETATM    8  C   UNL     1     -28.950  -3.852 -17.169  1.00  0.00     0.271 C 
HETATM    9  C   UNL     1     -31.139  -4.926 -16.697  1.00  0.00     0.271 C 
HETATM   10  C   UNL     1     -29.511  -6.047 -18.184  1.00  0.00     0.271 C 
ENDBRANCH   6   7
ENDBRANCH   5   6
ENDBRANCH   4   5
ENDBRANCH   1   4
BRANCH   1  11
HETATM   11  O   UNL     1     -24.162  -6.577 -17.190  1.00  0.00    -0.287 OA
BRANCH  11  12
HETATM   12  C   UNL     1     -24.120  -7.439 -18.317  1.00  0.00     0.215 C 
BRANCH  12  13
HETATM   13  C   UNL     1     -24.794  -6.869 -19.567  1.00  0.00     0.166 C 
BRANCH  13  14
HETATM   14  C   UNL     1     -24.566  -7.744 -20.816  1.00  0.00     0.198 C 
BRANCH  14  15
HETATM   15  O   UNL     1     -23.426  -8.588 -20.596  1.00  0.00    -0.398 OA
HETATM   16  H   UNL     1     -23.733  -9.480 -20.834  1.00  0.00     0.209 HD
ENDBRANCH  14  15
ENDBRANCH  13  14
BRANCH  13  17
HETATM   17  O   UNL     1     -26.200  -6.726 -19.296  1.00  0.00    -0.391 OA
HETATM   18  H   UNL     1     -26.522  -7.600 -19.015  1.00  0.00     0.210 HD
ENDBRANCH  13  17
ENDBRANCH  12  13
ENDBRANCH  11  12
ENDBRANCH   1  11
TORSDOF 10
BEGIN_RES ARG D 557
REMARK  4 active torsions:
REMARK  status: ('A' for Active; 'I' for Inactive)
REMARK    1  A    between atoms: CA   and  CB  
REMARK    2  A    between atoms: CB   and  CG  
REMARK    3  A    between atoms: CG   and  CD  
REMARK    4  A    between atoms: CD   and  NE  
REMARK       I    between atoms: NE   and  CZ  
REMARK       I    between atoms: CZ   and  NH1 
REMARK       I    between atoms: CZ   and  NH2 
ROOT
ATOM      1  CA  ARG D 557     -26.217   2.705 -17.014  1.00 35.49     0.159 C 
ENDROOT
BRANCH   1   2
ATOM      2  CB  ARG D 557     -26.789   1.319 -17.183  1.00 35.49     0.034 C 
BRANCH   2   3
ATOM      3  CG  ARG D 557     -25.875   0.194 -16.949  1.00 35.49     0.027 C 
BRANCH   3   4
ATOM      4  CD  ARG D 557     -26.358  -0.713 -15.882  1.00 35.49     0.116 C 
BRANCH   4   5
ATOM      5  NE  ARG D 557     -25.356  -0.949 -14.877  1.00 35.49    -0.212 N 
ATOM      6  CZ  ARG D 557     -25.087  -2.108 -14.318  1.00 35.49     0.666 C 
ATOM      7  NH1 ARG D 557     -25.744  -3.212 -14.624  1.00 35.49    -0.235 N 
ATOM      8  NH2 ARG D 557     -24.129  -2.143 -13.439  1.00 35.49    -0.235 N 
ATOM      9  HH  ARG D 557     -26.377  -3.213 -15.201  1.00 35.49     0.174 HD
ATOM     10  HH  ARG D 557     -25.524  -3.940 -14.229  1.00 35.49     0.174 HD
ATOM     11  HH  ARG D 557     -23.717  -1.416 -13.267  1.00 35.49     0.174 HD
ATOM     12  HH  ARG D 557     -23.924  -2.873 -13.059  1.00 35.49     0.174 HD
ATOM     13  HE  ARG D 557     -24.934  -0.279 -14.568  1.00 35.49     0.178 HD
ENDBRANCH   4   5
ENDBRANCH   3   4
ENDBRANCH   2   3
ENDBRANCH   1   2
END_RES ARG D 557
BEGIN_RES GLU D 570
REMARK  3 active torsions:
REMARK  status: ('A' for Active; 'I' for Inactive)
REMARK    5  A    between atoms: CA   and  CB  
REMARK    6  A    between atoms: CB   and  CG  
REMARK    7  A    between atoms: CG   and  CD  
ROOT
ATOM     14  CA  GLU D 570     -18.033  -6.348 -13.375  1.00 32.92     0.160 C 
ENDROOT
BRANCH  14  15
ATOM     15  CB  GLU D 570     -19.500  -6.345 -13.794  1.00 32.92     0.043 C 
BRANCH  15  16
ATOM     16  CG  GLU D 570     -20.079  -7.629 -14.268  1.00 32.92     0.100 C 
BRANCH  16  17
ATOM     17  CD  GLU D 570     -20.829  -7.491 -15.572  1.00 32.92     0.185 C 
ATOM     18  OE1 GLU D 570     -21.018  -6.354 -16.045  1.00 32.92    -0.647 OA
ATOM     19  OE2 GLU D 570     -21.245  -8.531 -16.120  1.00 32.92    -0.647 OA
ENDBRANCH  16  17
ENDBRANCH  15  16
ENDBRANCH  14  15
END_RES GLU D 570
ENDMDL
