MODEL 1
REMARK VINA RESULT:      -5.2      0.000      0.000
REMARK  4 active torsions:
REMARK  status: ('A' for Active; 'I' for Inactive)
REMARK    1  A    between atoms: C_2  and  C_4 
REMARK    2  A    between atoms: C_4  and  C_5 
REMARK    3  A    between atoms: C_5  and  C_6 
REMARK    4  A    between atoms: C_6  and  O_8 
ROOT
HETATM    1  C   UNL     1     -23.642  -4.577  -9.909  1.00  0.00     0.117 C 
ENDROOT
BRANCH   1   2
HETATM    2  C   UNL     1     -22.320  -4.013  -9.401  1.00  0.00     0.088 C 
BRANCH   2   3
HETATM    3  C   UNL     1     -22.210  -4.112  -7.895  1.00  0.00     0.123 C 
HETATM    4  C   UNL     1     -20.863  -3.789  -7.299  1.00  0.00     0.091 C 
HETATM    5  O   UNL     1     -23.162  -4.437  -7.187  1.00  0.00    -0.298 OA
ENDBRANCH   2   3
ENDBRANCH   1   2
BRANCH   1   6
HETATM    6  C   UNL     1     -24.617  -3.473 -10.224  1.00  0.00     0.139 C 
HETATM    7  O   UNL     1     -24.990  -3.169 -11.346  1.00  0.00    -0.650 OA
BRANCH   6   8
HETATM    8  O   UNL     1     -25.052  -2.833  -9.116  1.00  0.00    -0.776 OA
HETATM    9  H   UNL     1     -25.694  -3.347  -8.589  1.00  0.00     0.167 HD
ENDBRANCH   6   8
ENDBRANCH   1   6
TORSDOF 4
BEGIN_RES ARG D 557
REMARK  4 active torsions:
REMARK  status: ('A' for Active; 'I' for Inactive)
REMARK    1  A    between atoms: CA   and  CB  
REMARK    2  A    between atoms: CB   and  CG  
REMARK    3  A    between atoms: CG   and  CD  
REMARK    4  A    between atoms: CD   and  NE  
REMARK       I    between atoms: NE   and  CZ  
REMARK       I    between atoms: CZ   and  NH1 
REMARK       I    between atoms: CZ   and  NH2 
ROOT
ATOM      1  CA  ARG D 557     -26.217   2.705 -17.014  1.00 35.49     0.159 C 
ENDROOT
BRANCH   1   2
ATOM      2  CB  ARG D 557     -26.789   1.319 -17.183  1.00 35.49     0.034 C 
BRANCH   2   3
ATOM      3  CG  ARG D 557     -25.856   0.196 -17.031  1.00 35.49     0.027 C 
BRANCH   3   4
ATOM      4  CD  ARG D 557     -26.172  -0.645 -15.855  1.00 35.49     0.116 C 
BRANCH   4   5
ATOM      5  NE  ARG D 557     -25.063  -0.740 -14.942  1.00 35.49    -0.212 N 
ATOM      6  CZ  ARG D 557     -24.648  -1.837 -14.349  1.00 35.49     0.666 C 
ATOM      7  NH1 ARG D 557     -25.237  -3.005 -14.526  1.00 35.49    -0.235 N 
ATOM      8  NH2 ARG D 557     -23.611  -1.742 -13.568  1.00 35.49    -0.235 N 
ATOM      9  HH  ARG D 557     -25.920  -3.092 -15.037  1.00 35.49     0.174 HD
ATOM     10  HH  ARG D 557     -24.921  -3.687 -14.115  1.00 35.49     0.174 HD
ATOM     11  HH  ARG D 557     -23.247  -0.976 -13.479  1.00 35.49     0.174 HD
ATOM     12  HH  ARG D 557     -23.312  -2.429 -13.171  1.00 35.49     0.174 HD
ATOM     13  HE  ARG D 557     -24.671  -0.021 -14.714  1.00 35.49     0.178 HD
ENDBRANCH   4   5
ENDBRANCH   3   4
ENDBRANCH   2   3
ENDBRANCH   1   2
END_RES ARG D 557
BEGIN_RES GLU D 570
REMARK  3 active torsions:
REMARK  status: ('A' for Active; 'I' for Inactive)
REMARK    5  A    between atoms: CA   and  CB  
REMARK    6  A    between atoms: CB   and  CG  
REMARK    7  A    between atoms: CG   and  CD  
ROOT
ATOM     14  CA  GLU D 570     -18.033  -6.348 -13.375  1.00 32.92     0.160 C 
ENDROOT
BRANCH  14  15
ATOM     15  CB  GLU D 570     -19.500  -6.345 -13.794  1.00 32.92     0.043 C 
BRANCH  15  16
ATOM     16  CG  GLU D 570     -20.442  -5.533 -12.982  1.00 32.92     0.100 C 
BRANCH  16  17
ATOM     17  CD  GLU D 570     -21.764  -5.296 -13.674  1.00 32.92     0.185 C 
ATOM     18  OE1 GLU D 570     -22.499  -4.371 -13.277  1.00 32.92    -0.647 OA
ATOM     19  OE2 GLU D 570     -22.077  -6.055 -14.613  1.00 32.92    -0.647 OA
ENDBRANCH  16  17
ENDBRANCH  15  16
ENDBRANCH  14  15
END_RES GLU D 570
ENDMDL
MODEL 2
REMARK VINA RESULT:      -4.6      3.306      6.088
REMARK  4 active torsions:
REMARK  status: ('A' for Active; 'I' for Inactive)
REMARK    1  A    between atoms: C_2  and  C_4 
REMARK    2  A    between atoms: C_4  and  C_5 
REMARK    3  A    between atoms: C_5  and  C_6 
REMARK    4  A    between atoms: C_6  and  O_8 
ROOT
HETATM    1  C   UNL     1     -26.660  -6.713 -15.892  1.00  0.00     0.117 C 
ENDROOT
BRANCH   1   2
HETATM    2  C   UNL     1     -27.062  -5.936 -17.141  1.00  0.00     0.088 C 
BRANCH   2   3
HETATM    3  C   UNL     1     -28.102  -4.881 -16.835  1.00  0.00     0.123 C 
HETATM    4  C   UNL     1     -29.543  -5.312 -16.934  1.00  0.00     0.091 C 
HETATM    5  O   UNL     1     -27.798  -3.730 -16.522  1.00  0.00    -0.298 OA
ENDBRANCH   2   3
ENDBRANCH   1   2
BRANCH   1   6
HETATM    6  C   UNL     1     -25.162  -6.828 -15.785  1.00  0.00     0.139 C 
HETATM    7  O   UNL     1     -24.523  -7.847 -15.993  1.00  0.00    -0.650 OA
BRANCH   6   8
HETATM    8  O   UNL     1     -24.575  -5.664 -15.429  1.00  0.00    -0.776 OA
HETATM    9  H   UNL     1     -24.919  -5.287 -14.596  1.00  0.00     0.167 HD
ENDBRANCH   6   8
ENDBRANCH   1   6
TORSDOF 4
BEGIN_RES ARG D 557
REMARK  4 active torsions:
REMARK  status: ('A' for Active; 'I' for Inactive)
REMARK    1  A    between atoms: CA   and  CB  
REMARK    2  A    between atoms: CB   and  CG  
REMARK    3  A    between atoms: CG   and  CD  
REMARK    4  A    between atoms: CD   and  NE  
REMARK       I    between atoms: NE   and  CZ  
REMARK       I    between atoms: CZ   and  NH1 
REMARK       I    between atoms: CZ   and  NH2 
ROOT
ATOM      1  CA  ARG D 557     -26.217   2.705 -17.014  1.00 35.49     0.159 C 
ENDROOT
BRANCH   1   2
ATOM      2  CB  ARG D 557     -26.789   1.319 -17.183  1.00 35.49     0.034 C 
BRANCH   2   3
ATOM      3  CG  ARG D 557     -25.865   0.195 -16.988  1.00 35.49     0.027 C 
BRANCH   3   4
ATOM      4  CD  ARG D 557     -26.281  -0.690 -15.876  1.00 35.49     0.116 C 
BRANCH   4   5
ATOM      5  NE  ARG D 557     -25.208  -0.938 -14.949  1.00 35.49    -0.212 N 
ATOM      6  CZ  ARG D 557     -24.978  -2.071 -14.326  1.00 35.49     0.666 C 
ATOM      7  NH1 ARG D 557     -25.745  -3.135 -14.481  1.00 35.49    -0.235 N 
ATOM      8  NH2 ARG D 557     -23.945  -2.123 -13.536  1.00 35.49    -0.235 N 
ATOM      9  HH  ARG D 557     -26.428  -3.124 -14.997  1.00 35.49     0.174 HD
ATOM     10  HH  ARG D 557     -25.544  -3.848 -14.050  1.00 35.49     0.174 HD
ATOM     11  HH  ARG D 557     -23.463  -1.423 -13.461  1.00 35.49     0.174 HD
ATOM     12  HH  ARG D 557     -23.762  -2.838 -13.119  1.00 35.49     0.174 HD
ATOM     13  HE  ARG D 557     -24.708  -0.285 -14.734  1.00 35.49     0.178 HD
ENDBRANCH   4   5
ENDBRANCH   3   4
ENDBRANCH   2   3
ENDBRANCH   1   2
END_RES ARG D 557
BEGIN_RES GLU D 570
REMARK  3 active torsions:
REMARK  status: ('A' for Active; 'I' for Inactive)
REMARK    5  A    between atoms: CA   and  CB  
REMARK    6  A    between atoms: CB   and  CG  
REMARK    7  A    between atoms: CG   and  CD  
ROOT
ATOM     14  CA  GLU D 570     -18.033  -6.348 -13.375  1.00 32.92     0.160 C 
ENDROOT
BRANCH  14  15
ATOM     15  CB  GLU D 570     -19.500  -6.345 -13.794  1.00 32.92     0.043 C 
BRANCH  15  16
ATOM     16  CG  GLU D 570     -20.446  -5.548 -12.970  1.00 32.92     0.100 C 
BRANCH  16  17
ATOM     17  CD  GLU D 570     -21.696  -5.156 -13.722  1.00 32.92     0.185 C 
ATOM     18  OE1 GLU D 570     -22.740  -4.926 -13.082  1.00 32.92    -0.647 OA
ATOM     19  OE2 GLU D 570     -21.636  -5.095 -14.966  1.00 32.92    -0.647 OA
ENDBRANCH  16  17
ENDBRANCH  15  16
ENDBRANCH  14  15
END_RES GLU D 570
ENDMDL
MODEL 3
REMARK VINA RESULT:      -4.4      2.239      3.537
REMARK  4 active torsions:
REMARK  status: ('A' for Active; 'I' for Inactive)
REMARK    1  A    between atoms: C_2  and  C_4 
REMARK    2  A    between atoms: C_4  and  C_5 
REMARK    3  A    between atoms: C_5  and  C_6 
REMARK    4  A    between atoms: C_6  and  O_8 
ROOT
HETATM    1  C   UNL     1     -23.634  -4.717 -10.508  1.00  0.00     0.117 C 
ENDROOT
BRANCH   1   2
HETATM    2  C   UNL     1     -22.757  -3.955 -11.496  1.00  0.00     0.088 C 
BRANCH   2   3
HETATM    3  C   UNL     1     -23.338  -3.974 -12.892  1.00  0.00     0.123 C 
HETATM    4  C   UNL     1     -23.381  -5.313 -13.582  1.00  0.00     0.091 C 
HETATM    5  O   UNL     1     -23.756  -2.956 -13.443  1.00  0.00    -0.298 OA
ENDBRANCH   2   3
ENDBRANCH   1   2
BRANCH   1   6
HETATM    6  C   UNL     1     -24.507  -3.774  -9.722  1.00  0.00     0.139 C 
HETATM    7  O   UNL     1     -25.470  -3.174 -10.172  1.00  0.00    -0.650 OA
BRANCH   6   8
HETATM    8  O   UNL     1     -24.114  -3.654  -8.434  1.00  0.00    -0.776 OA
HETATM    9  H   UNL     1     -24.481  -2.870  -7.981  1.00  0.00     0.167 HD
ENDBRANCH   6   8
ENDBRANCH   1   6
TORSDOF 4
BEGIN_RES ARG D 557
REMARK  4 active torsions:
REMARK  status: ('A' for Active; 'I' for Inactive)
REMARK    1  A    between atoms: CA   and  CB  
REMARK    2  A    between atoms: CB   and  CG  
REMARK    3  A    between atoms: CG   and  CD  
REMARK    4  A    between atoms: CD   and  NE  
REMARK       I    between atoms: NE   and  CZ  
REMARK       I    between atoms: CZ   and  NH1 
REMARK       I    between atoms: CZ   and  NH2 
ROOT
ATOM      1  CA  ARG D 557     -26.217   2.705 -17.014  1.00 35.49     0.159 C 
ENDROOT
BRANCH   1   2
ATOM      2  CB  ARG D 557     -26.789   1.319 -17.183  1.00 35.49     0.034 C 
BRANCH   2   3
ATOM      3  CG  ARG D 557     -28.226   1.161 -16.927  1.00 35.49     0.027 C 
BRANCH   3   4
ATOM      4  CD  ARG D 557     -28.590  -0.235 -16.597  1.00 35.49     0.116 C 
BRANCH   4   5
ATOM      5  NE  ARG D 557     -27.542  -0.915 -15.882  1.00 35.49    -0.212 N 
ATOM      6  CZ  ARG D 557     -27.267  -2.198 -15.959  1.00 35.49     0.666 C 
ATOM      7  NH1 ARG D 557     -27.959  -3.027 -16.717  1.00 35.49    -0.235 N 
ATOM      8  NH2 ARG D 557     -26.265  -2.640 -15.255  1.00 35.49    -0.235 N 
ATOM      9  HH  ARG D 557     -28.620  -2.758 -17.191  1.00 35.49     0.174 HD
ATOM     10  HH  ARG D 557     -27.731  -3.853 -16.730  1.00 35.49     0.174 HD
ATOM     11  HH  ARG D 557     -25.832  -2.080 -14.780  1.00 35.49     0.174 HD
ATOM     12  HH  ARG D 557     -26.055  -3.461 -15.281  1.00 35.49     0.174 HD
ATOM     13  HE  ARG D 557     -27.093  -0.470 -15.314  1.00 35.49     0.178 HD
ENDBRANCH   4   5
ENDBRANCH   3   4
ENDBRANCH   2   3
ENDBRANCH   1   2
END_RES ARG D 557
BEGIN_RES GLU D 570
REMARK  3 active torsions:
REMARK  status: ('A' for Active; 'I' for Inactive)
REMARK    5  A    between atoms: CA   and  CB  
REMARK    6  A    between atoms: CB   and  CG  
REMARK    7  A    between atoms: CG   and  CD  
ROOT
ATOM     14  CA  GLU D 570     -18.033  -6.348 -13.375  1.00 32.92     0.160 C 
ENDROOT
BRANCH  14  15
ATOM     15  CB  GLU D 570     -19.500  -6.345 -13.794  1.00 32.92     0.043 C 
BRANCH  15  16
ATOM     16  CG  GLU D 570     -20.087  -7.635 -14.241  1.00 32.92     0.100 C 
BRANCH  16  17
ATOM     17  CD  GLU D 570     -20.755  -7.542 -15.593  1.00 32.92     0.185 C 
ATOM     18  OE1 GLU D 570     -21.162  -8.584 -16.140  1.00 32.92    -0.647 OA
ATOM     19  OE2 GLU D 570     -20.858  -6.415 -16.118  1.00 32.92    -0.647 OA
ENDBRANCH  16  17
ENDBRANCH  15  16
ENDBRANCH  14  15
END_RES GLU D 570
ENDMDL
MODEL 4
REMARK VINA RESULT:      -4.4      4.364      6.911
REMARK  4 active torsions:
REMARK  status: ('A' for Active; 'I' for Inactive)
REMARK    1  A    between atoms: C_2  and  C_4 
REMARK    2  A    between atoms: C_4  and  C_5 
REMARK    3  A    between atoms: C_5  and  C_6 
REMARK    4  A    between atoms: C_6  and  O_8 
ROOT
HETATM    1  C   UNL     1     -30.327  -5.087 -17.625  1.00  0.00     0.117 C 
ENDROOT
BRANCH   1   2
HETATM    2  C   UNL     1     -29.027  -4.357 -17.945  1.00  0.00     0.088 C 
BRANCH   2   3
HETATM    3  C   UNL     1     -28.200  -4.112 -16.701  1.00  0.00     0.123 C 
HETATM    4  C   UNL     1     -28.034  -5.283 -15.766  1.00  0.00     0.091 C 
HETATM    5  O   UNL     1     -27.688  -3.020 -16.458  1.00  0.00    -0.298 OA
ENDBRANCH   2   3
ENDBRANCH   1   2
BRANCH   1   6
HETATM    6  C   UNL     1     -31.380  -4.128 -17.136  1.00  0.00     0.139 C 
HETATM    7  O   UNL     1     -31.626  -3.044 -17.640  1.00  0.00    -0.650 OA
BRANCH   6   8
HETATM    8  O   UNL     1     -32.045  -4.594 -16.055  1.00  0.00    -0.776 OA
HETATM    9  H   UNL     1     -33.013  -4.467 -16.102  1.00  0.00     0.167 HD
ENDBRANCH   6   8
ENDBRANCH   1   6
TORSDOF 4
BEGIN_RES ARG D 557
REMARK  4 active torsions:
REMARK  status: ('A' for Active; 'I' for Inactive)
REMARK    1  A    between atoms: CA   and  CB  
REMARK    2  A    between atoms: CB   and  CG  
REMARK    3  A    between atoms: CG   and  CD  
REMARK    4  A    between atoms: CD   and  NE  
REMARK       I    between atoms: NE   and  CZ  
REMARK       I    between atoms: CZ   and  NH1 
REMARK       I    between atoms: CZ   and  NH2 
ROOT
ATOM      1  CA  ARG D 557     -26.217   2.705 -17.014  1.00 35.49     0.159 C 
ENDROOT
BRANCH   1   2
ATOM      2  CB  ARG D 557     -26.789   1.319 -17.183  1.00 35.49     0.034 C 
BRANCH   2   3
ATOM      3  CG  ARG D 557     -25.842   0.200 -17.109  1.00 35.49     0.027 C 
BRANCH   3   4
ATOM      4  CD  ARG D 557     -25.368  -0.047 -15.728  1.00 35.49     0.116 C 
BRANCH   4   5
ATOM      5  NE  ARG D 557     -25.698  -1.371 -15.270  1.00 35.49    -0.212 N 
ATOM      6  CZ  ARG D 557     -24.990  -2.091 -14.428  1.00 35.49     0.666 C 
ATOM      7  NH1 ARG D 557     -23.855  -1.662 -13.907  1.00 35.49    -0.235 N 
ATOM      8  NH2 ARG D 557     -25.452  -3.264 -14.106  1.00 35.49    -0.235 N 
ATOM      9  HH  ARG D 557     -23.534  -0.892 -14.103  1.00 35.49     0.174 HD
ATOM     10  HH  ARG D 557     -23.439  -2.174 -13.361  1.00 35.49     0.174 HD
ATOM     11  HH  ARG D 557     -26.192  -3.512 -14.452  1.00 35.49     0.174 HD
ATOM     12  HH  ARG D 557     -25.026  -3.756 -13.563  1.00 35.49     0.174 HD
ATOM     13  HE  ARG D 557     -26.376  -1.754 -15.610  1.00 35.49     0.178 HD
ENDBRANCH   4   5
ENDBRANCH   3   4
ENDBRANCH   2   3
ENDBRANCH   1   2
END_RES ARG D 557
BEGIN_RES GLU D 570
REMARK  3 active torsions:
REMARK  status: ('A' for Active; 'I' for Inactive)
REMARK    5  A    between atoms: CA   and  CB  
REMARK    6  A    between atoms: CB   and  CG  
REMARK    7  A    between atoms: CG   and  CD  
ROOT
ATOM     14  CA  GLU D 570     -18.033  -6.348 -13.375  1.00 32.92     0.160 C 
ENDROOT
BRANCH  14  15
ATOM     15  CB  GLU D 570     -19.500  -6.345 -13.794  1.00 32.92     0.043 C 
BRANCH  15  16
ATOM     16  CG  GLU D 570     -20.439  -5.518 -12.993  1.00 32.92     0.100 C 
BRANCH  16  17
ATOM     17  CD  GLU D 570     -21.763  -5.292 -13.685  1.00 32.92     0.185 C 
ATOM     18  OE1 GLU D 570     -22.427  -4.276 -13.403  1.00 32.92    -0.647 OA
ATOM     19  OE2 GLU D 570     -22.148  -6.148 -14.506  1.00 32.92    -0.647 OA
ENDBRANCH  16  17
ENDBRANCH  15  16
ENDBRANCH  14  15
END_RES GLU D 570
ENDMDL
MODEL 5
REMARK VINA RESULT:      -4.3      4.990      7.382
REMARK  4 active torsions:
REMARK  status: ('A' for Active; 'I' for Inactive)
REMARK    1  A    between atoms: C_2  and  C_4 
REMARK    2  A    between atoms: C_4  and  C_5 
REMARK    3  A    between atoms: C_5  and  C_6 
REMARK    4  A    between atoms: C_6  and  O_8 
ROOT
HETATM    1  C   UNL     1     -30.875  -4.948 -17.006  1.00  0.00     0.117 C 
ENDROOT
BRANCH   1   2
HETATM    2  C   UNL     1     -29.800  -5.665 -17.816  1.00  0.00     0.088 C 
BRANCH   2   3
HETATM    3  C   UNL     1     -29.373  -6.960 -17.160  1.00  0.00     0.123 C 
HETATM    4  C   UNL     1     -28.350  -6.847 -16.059  1.00  0.00     0.091 C 
HETATM    5  O   UNL     1     -29.831  -8.050 -17.500  1.00  0.00    -0.298 OA
ENDBRANCH   2   3
ENDBRANCH   1   2
BRANCH   1   6
HETATM    6  C   UNL     1     -31.121  -3.562 -17.541  1.00  0.00     0.139 C 
HETATM    7  O   UNL     1     -32.223  -3.072 -17.733  1.00  0.00    -0.650 OA
BRANCH   6   8
HETATM    8  O   UNL     1     -29.975  -2.892 -17.795  1.00  0.00    -0.776 OA
HETATM    9  H   UNL     1     -29.817  -2.725 -18.745  1.00  0.00     0.167 HD
ENDBRANCH   6   8
ENDBRANCH   1   6
TORSDOF 4
BEGIN_RES ARG D 557
REMARK  4 active torsions:
REMARK  status: ('A' for Active; 'I' for Inactive)
REMARK    1  A    between atoms: CA   and  CB  
REMARK    2  A    between atoms: CB   and  CG  
REMARK    3  A    between atoms: CG   and  CD  
REMARK    4  A    between atoms: CD   and  NE  
REMARK       I    between atoms: NE   and  CZ  
REMARK       I    between atoms: CZ   and  NH1 
REMARK       I    between atoms: CZ   and  NH2 
ROOT
ATOM      1  CA  ARG D 557     -26.217   2.705 -17.014  1.00 35.49     0.159 C 
ENDROOT
BRANCH   1   2
ATOM      2  CB  ARG D 557     -26.789   1.319 -17.183  1.00 35.49     0.034 C 
BRANCH   2   3
ATOM      3  CG  ARG D 557     -25.866   0.195 -16.986  1.00 35.49     0.027 C 
BRANCH   3   4
ATOM      4  CD  ARG D 557     -26.295  -0.703 -15.890  1.00 35.49     0.116 C 
BRANCH   4   5
ATOM      5  NE  ARG D 557     -25.245  -0.931 -14.933  1.00 35.49    -0.212 N 
ATOM      6  CZ  ARG D 557     -24.963  -2.080 -14.360  1.00 35.49     0.666 C 
ATOM      7  NH1 ARG D 557     -25.651  -3.180 -14.603  1.00 35.49    -0.235 N 
ATOM      8  NH2 ARG D 557     -23.960  -2.108 -13.531  1.00 35.49    -0.235 N 
ATOM      9  HH  ARG D 557     -26.313  -3.185 -15.147  1.00 35.49     0.174 HD
ATOM     10  HH  ARG D 557     -25.419  -3.901 -14.202  1.00 35.49     0.174 HD
ATOM     11  HH  ARG D 557     -23.530  -1.383 -13.399  1.00 35.49     0.174 HD
ATOM     12  HH  ARG D 557     -23.746  -2.832 -13.145  1.00 35.49     0.174 HD
ATOM     13  HE  ARG D 557     -24.797  -0.259 -14.663  1.00 35.49     0.178 HD
ENDBRANCH   4   5
ENDBRANCH   3   4
ENDBRANCH   2   3
ENDBRANCH   1   2
END_RES ARG D 557
BEGIN_RES GLU D 570
REMARK  3 active torsions:
REMARK  status: ('A' for Active; 'I' for Inactive)
REMARK    5  A    between atoms: CA   and  CB  
REMARK    6  A    between atoms: CB   and  CG  
REMARK    7  A    between atoms: CG   and  CD  
ROOT
ATOM     14  CA  GLU D 570     -18.033  -6.348 -13.375  1.00 32.92     0.160 C 
ENDROOT
BRANCH  14  15
ATOM     15  CB  GLU D 570     -19.500  -6.345 -13.794  1.00 32.92     0.043 C 
BRANCH  15  16
ATOM     16  CG  GLU D 570     -20.444  -5.543 -12.974  1.00 32.92     0.100 C 
BRANCH  16  17
ATOM     17  CD  GLU D 570     -21.686  -5.137 -13.733  1.00 32.92     0.185 C 
ATOM     18  OE1 GLU D 570     -21.620  -4.994 -14.969  1.00 32.92    -0.647 OA
ATOM     19  OE2 GLU D 570     -22.732  -4.943 -13.083  1.00 32.92    -0.647 OA
ENDBRANCH  16  17
ENDBRANCH  15  16
ENDBRANCH  14  15
END_RES GLU D 570
ENDMDL
MODEL 6
REMARK VINA RESULT:      -4.3      4.403      6.889
REMARK  4 active torsions:
REMARK  status: ('A' for Active; 'I' for Inactive)
REMARK    1  A    between atoms: C_2  and  C_4 
REMARK    2  A    between atoms: C_4  and  C_5 
REMARK    3  A    between atoms: C_5  and  C_6 
REMARK    4  A    between atoms: C_6  and  O_8 
ROOT
HETATM    1  C   UNL     1     -27.761  -7.296 -15.613  1.00  0.00     0.117 C 
ENDROOT
BRANCH   1   2
HETATM    2  C   UNL     1     -28.774  -6.200 -15.924  1.00  0.00     0.088 C 
BRANCH   2   3
HETATM    3  C   UNL     1     -29.272  -6.284 -17.349  1.00  0.00     0.123 C 
HETATM    4  C   UNL     1     -30.448  -7.194 -17.596  1.00  0.00     0.091 C 
HETATM    5  O   UNL     1     -28.753  -5.646 -18.265  1.00  0.00    -0.298 OA
ENDBRANCH   2   3
ENDBRANCH   1   2
BRANCH   1   6
HETATM    6  C   UNL     1     -26.351  -6.795 -15.786  1.00  0.00     0.139 C 
HETATM    7  O   UNL     1     -25.348  -7.395 -15.433  1.00  0.00    -0.650 OA
BRANCH   6   8
HETATM    8  O   UNL     1     -26.300  -5.585 -16.386  1.00  0.00    -0.776 OA
HETATM    9  H   UNL     1     -26.885  -4.917 -15.979  1.00  0.00     0.167 HD
ENDBRANCH   6   8
ENDBRANCH   1   6
TORSDOF 4
BEGIN_RES ARG D 557
REMARK  4 active torsions:
REMARK  status: ('A' for Active; 'I' for Inactive)
REMARK    1  A    between atoms: CA   and  CB  
REMARK    2  A    between atoms: CB   and  CG  
REMARK    3  A    between atoms: CG   and  CD  
REMARK    4  A    between atoms: CD   and  NE  
REMARK       I    between atoms: NE   and  CZ  
REMARK       I    between atoms: CZ   and  NH1 
REMARK       I    between atoms: CZ   and  NH2 
ROOT
ATOM      1  CA  ARG D 557     -26.217   2.705 -17.014  1.00 35.49     0.159 C 
ENDROOT
BRANCH   1   2
ATOM      2  CB  ARG D 557     -26.789   1.319 -17.183  1.00 35.49     0.034 C 
BRANCH   2   3
ATOM      3  CG  ARG D 557     -28.235   1.171 -16.976  1.00 35.49     0.027 C 
BRANCH   3   4
ATOM      4  CD  ARG D 557     -28.621  -0.225 -16.666  1.00 35.49     0.116 C 
BRANCH   4   5
ATOM      5  NE  ARG D 557     -27.596  -0.920 -15.932  1.00 35.49    -0.212 N 
ATOM      6  CZ  ARG D 557     -27.317  -2.201 -16.029  1.00 35.49     0.666 C 
ATOM      7  NH1 ARG D 557     -27.983  -3.013 -16.830  1.00 35.49    -0.235 N 
ATOM      8  NH2 ARG D 557     -26.340  -2.659 -15.303  1.00 35.49    -0.235 N 
ATOM      9  HH  ARG D 557     -28.628  -2.733 -17.318  1.00 35.49     0.174 HD
ATOM     10  HH  ARG D 557     -27.754  -3.838 -16.853  1.00 35.49     0.174 HD
ATOM     11  HH  ARG D 557     -25.923  -2.110 -14.801  1.00 35.49     0.174 HD
ATOM     12  HH  ARG D 557     -26.128  -3.479 -15.341  1.00 35.49     0.174 HD
ATOM     13  HE  ARG D 557     -27.166  -0.488 -15.339  1.00 35.49     0.178 HD
ENDBRANCH   4   5
ENDBRANCH   3   4
ENDBRANCH   2   3
ENDBRANCH   1   2
END_RES ARG D 557
BEGIN_RES GLU D 570
REMARK  3 active torsions:
REMARK  status: ('A' for Active; 'I' for Inactive)
REMARK    5  A    between atoms: CA   and  CB  
REMARK    6  A    between atoms: CB   and  CG  
REMARK    7  A    between atoms: CG   and  CD  
ROOT
ATOM     14  CA  GLU D 570     -18.033  -6.348 -13.375  1.00 32.92     0.160 C 
ENDROOT
BRANCH  14  15
ATOM     15  CB  GLU D 570     -19.500  -6.345 -13.794  1.00 32.92     0.043 C 
BRANCH  15  16
ATOM     16  CG  GLU D 570     -20.429  -5.474 -13.029  1.00 32.92     0.100 C 
BRANCH  16  17
ATOM     17  CD  GLU D 570     -21.720  -5.200 -13.764  1.00 32.92     0.185 C 
ATOM     18  OE1 GLU D 570     -22.800  -5.320 -13.155  1.00 32.92    -0.647 OA
ATOM     19  OE2 GLU D 570     -21.651  -4.877 -14.966  1.00 32.92    -0.647 OA
ENDBRANCH  16  17
ENDBRANCH  15  16
ENDBRANCH  14  15
END_RES GLU D 570
ENDMDL
MODEL 7
REMARK VINA RESULT:      -4.2      1.556      1.903
REMARK  4 active torsions:
REMARK  status: ('A' for Active; 'I' for Inactive)
REMARK    1  A    between atoms: C_2  and  C_4 
REMARK    2  A    between atoms: C_4  and  C_5 
REMARK    3  A    between atoms: C_5  and  C_6 
REMARK    4  A    between atoms: C_6  and  O_8 
ROOT
HETATM    1  C   UNL     1     -22.998  -4.258 -10.363  1.00  0.00     0.117 C 
ENDROOT
BRANCH   1   2
HETATM    2  C   UNL     1     -21.867  -3.670  -9.526  1.00  0.00     0.088 C 
BRANCH   2   3
HETATM    3  C   UNL     1     -20.609  -4.506  -9.616  1.00  0.00     0.123 C 
HETATM    4  C   UNL     1     -20.084  -5.069  -8.320  1.00  0.00     0.091 C 
HETATM    5  O   UNL     1     -20.039  -4.721 -10.685  1.00  0.00    -0.298 OA
ENDBRANCH   2   3
ENDBRANCH   1   2
BRANCH   1   6
HETATM    6  C   UNL     1     -24.315  -3.613 -10.021  1.00  0.00     0.139 C 
HETATM    7  O   UNL     1     -25.127  -3.207 -10.837  1.00  0.00    -0.650 OA
BRANCH   6   8
HETATM    8  O   UNL     1     -24.520  -3.524  -8.688  1.00  0.00    -0.776 OA
HETATM    9  H   UNL     1     -25.462  -3.537  -8.430  1.00  0.00     0.167 HD
ENDBRANCH   6   8
ENDBRANCH   1   6
TORSDOF 4
BEGIN_RES ARG D 557
REMARK  4 active torsions:
REMARK  status: ('A' for Active; 'I' for Inactive)
REMARK    1  A    between atoms: CA   and  CB  
REMARK    2  A    between atoms: CB   and  CG  
REMARK    3  A    between atoms: CG   and  CD  
REMARK    4  A    between atoms: CD   and  NE  
REMARK       I    between atoms: NE   and  CZ  
REMARK       I    between atoms: CZ   and  NH1 
REMARK       I    between atoms: CZ   and  NH2 
ROOT
ATOM      1  CA  ARG D 557     -26.217   2.705 -17.014  1.00 35.49     0.159 C 
ENDROOT
BRANCH   1   2
ATOM      2  CB  ARG D 557     -26.789   1.319 -17.183  1.00 35.49     0.034 C 
BRANCH   2   3
ATOM      3  CG  ARG D 557     -25.923   0.196 -16.804  1.00 35.49     0.027 C 
BRANCH   3   4
ATOM      4  CD  ARG D 557     -26.663  -0.872 -16.093  1.00 35.49     0.116 C 
BRANCH   4   5
ATOM      5  NE  ARG D 557     -25.864  -1.498 -15.073  1.00 35.49    -0.212 N 
ATOM      6  CZ  ARG D 557     -25.896  -2.771 -14.745  1.00 35.49     0.666 C 
ATOM      7  NH1 ARG D 557     -26.706  -3.634 -15.331  1.00 35.49    -0.235 N 
ATOM      8  NH2 ARG D 557     -25.085  -3.170 -13.809  1.00 35.49    -0.235 N 
ATOM      9  HH  ARG D 557     -27.246  -3.393 -15.951  1.00 35.49     0.174 HD
ATOM     10  HH  ARG D 557     -26.681  -4.452 -15.077  1.00 35.49     0.174 HD
ATOM     11  HH  ARG D 557     -24.569  -2.592 -13.453  1.00 35.49     0.174 HD
ATOM     12  HH  ARG D 557     -25.075  -3.984 -13.573  1.00 35.49     0.174 HD
ATOM     13  HE  ARG D 557     -25.366  -1.002 -14.595  1.00 35.49     0.178 HD
ENDBRANCH   4   5
ENDBRANCH   3   4
ENDBRANCH   2   3
ENDBRANCH   1   2
END_RES ARG D 557
BEGIN_RES GLU D 570
REMARK  3 active torsions:
REMARK  status: ('A' for Active; 'I' for Inactive)
REMARK    5  A    between atoms: CA   and  CB  
REMARK    6  A    between atoms: CB   and  CG  
REMARK    7  A    between atoms: CG   and  CD  
ROOT
ATOM     14  CA  GLU D 570     -18.033  -6.348 -13.375  1.00 32.92     0.160 C 
ENDROOT
BRANCH  14  15
ATOM     15  CB  GLU D 570     -19.500  -6.345 -13.794  1.00 32.92     0.043 C 
BRANCH  15  16
ATOM     16  CG  GLU D 570     -19.808  -6.003 -15.207  1.00 32.92     0.100 C 
BRANCH  16  17
ATOM     17  CD  GLU D 570     -21.250  -5.605 -15.416  1.00 32.92     0.185 C 
ATOM     18  OE1 GLU D 570     -21.550  -4.918 -16.412  1.00 32.92    -0.647 OA
ATOM     19  OE2 GLU D 570     -22.086  -5.969 -14.566  1.00 32.92    -0.647 OA
ENDBRANCH  16  17
ENDBRANCH  15  16
ENDBRANCH  14  15
END_RES GLU D 570
ENDMDL
MODEL 8
REMARK VINA RESULT:      -4.1     10.651     12.715
REMARK  4 active torsions:
REMARK  status: ('A' for Active; 'I' for Inactive)
REMARK    1  A    between atoms: C_2  and  C_4 
REMARK    2  A    between atoms: C_4  and  C_5 
REMARK    3  A    between atoms: C_5  and  C_6 
REMARK    4  A    between atoms: C_6  and  O_8 
ROOT
HETATM    1  C   UNL     1     -10.770   4.673 -19.737  1.00  0.00     0.117 C 
ENDROOT
BRANCH   1   2
HETATM    2  C   UNL     1     -11.667   5.330 -20.780  1.00  0.00     0.088 C 
BRANCH   2   3
HETATM    3  C   UNL     1     -12.966   5.817 -20.177  1.00  0.00     0.123 C 
HETATM    4  C   UNL     1     -14.162   4.914 -20.345  1.00  0.00     0.091 C 
HETATM    5  O   UNL     1     -13.052   6.889 -19.579  1.00  0.00    -0.298 OA
ENDBRANCH   2   3
ENDBRANCH   1   2
BRANCH   1   6
HETATM    6  C   UNL     1      -9.665   5.603 -19.311  1.00  0.00     0.139 C 
HETATM    7  O   UNL     1      -8.883   6.154 -20.070  1.00  0.00    -0.650 OA
BRANCH   6   8
HETATM    8  O   UNL     1      -9.619   5.776 -17.971  1.00  0.00    -0.776 OA
HETATM    9  H   UNL     1     -10.267   6.425 -17.634  1.00  0.00     0.167 HD
ENDBRANCH   6   8
ENDBRANCH   1   6
TORSDOF 4
BEGIN_RES ARG D 557
REMARK  4 active torsions:
REMARK  status: ('A' for Active; 'I' for Inactive)
REMARK    1  A    between atoms: CA   and  CB  
REMARK    2  A    between atoms: CB   and  CG  
REMARK    3  A    between atoms: CG   and  CD  
REMARK    4  A    between atoms: CD   and  NE  
REMARK       I    between atoms: NE   and  CZ  
REMARK       I    between atoms: CZ   and  NH1 
REMARK       I    between atoms: CZ   and  NH2 
ROOT
ATOM      1  CA  ARG D 557     -26.217   2.705 -17.014  1.00 35.49     0.159 C 
ENDROOT
BRANCH   1   2
ATOM      2  CB  ARG D 557     -26.789   1.319 -17.183  1.00 35.49     0.034 C 
BRANCH   2   3
ATOM      3  CG  ARG D 557     -25.926   0.196 -16.797  1.00 35.49     0.027 C 
BRANCH   3   4
ATOM      4  CD  ARG D 557     -26.671  -0.874 -16.096  1.00 35.49     0.116 C 
BRANCH   4   5
ATOM      5  NE  ARG D 557     -25.868  -1.532 -15.099  1.00 35.49    -0.212 N 
ATOM      6  CZ  ARG D 557     -25.918  -2.809 -14.793  1.00 35.49     0.666 C 
ATOM      7  NH1 ARG D 557     -26.750  -3.647 -15.381  1.00 35.49    -0.235 N 
ATOM      8  NH2 ARG D 557     -25.099  -3.238 -13.876  1.00 35.49    -0.235 N 
ATOM      9  HH  ARG D 557     -27.296  -3.387 -15.988  1.00 35.49     0.174 HD
ATOM     10  HH  ARG D 557     -26.736  -4.470 -15.142  1.00 35.49     0.174 HD
ATOM     11  HH  ARG D 557     -24.568  -2.675 -13.519  1.00 35.49     0.174 HD
ATOM     12  HH  ARG D 557     -25.099  -4.056 -13.655  1.00 35.49     0.174 HD
ATOM     13  HE  ARG D 557     -25.355  -1.052 -14.620  1.00 35.49     0.178 HD
ENDBRANCH   4   5
ENDBRANCH   3   4
ENDBRANCH   2   3
ENDBRANCH   1   2
END_RES ARG D 557
BEGIN_RES GLU D 570
REMARK  3 active torsions:
REMARK  status: ('A' for Active; 'I' for Inactive)
REMARK    5  A    between atoms: CA   and  CB  
REMARK    6  A    between atoms: CB   and  CG  
REMARK    7  A    between atoms: CG   and  CD  
ROOT
ATOM     14  CA  GLU D 570     -18.033  -6.348 -13.375  1.00 32.92     0.160 C 
ENDROOT
BRANCH  14  15
ATOM     15  CB  GLU D 570     -19.500  -6.345 -13.794  1.00 32.92     0.043 C 
BRANCH  15  16
ATOM     16  CG  GLU D 570     -20.450  -5.571 -12.954  1.00 32.92     0.100 C 
BRANCH  16  17
ATOM     17  CD  GLU D 570     -21.690  -5.146 -13.706  1.00 32.92     0.185 C 
ATOM     18  OE1 GLU D 570     -21.633  -5.019 -14.944  1.00 32.92    -0.647 OA
ATOM     19  OE2 GLU D 570     -22.725  -4.922 -13.048  1.00 32.92    -0.647 OA
ENDBRANCH  16  17
ENDBRANCH  15  16
ENDBRANCH  14  15
END_RES GLU D 570
ENDMDL
MODEL 9
REMARK VINA RESULT:      -4.0      4.131      5.223
REMARK  4 active torsions:
REMARK  status: ('A' for Active; 'I' for Inactive)
REMARK    1  A    between atoms: C_2  and  C_4 
REMARK    2  A    between atoms: C_4  and  C_5 
REMARK    3  A    between atoms: C_5  and  C_6 
REMARK    4  A    between atoms: C_6  and  O_8 
ROOT
HETATM    1  C   UNL     1     -21.364  -6.170  -3.036  1.00  0.00     0.117 C 
ENDROOT
BRANCH   1   2
HETATM    2  C   UNL     1     -22.266  -6.311  -1.815  1.00  0.00     0.088 C 
BRANCH   2   3
HETATM    3  C   UNL     1     -21.837  -7.461  -0.930  1.00  0.00     0.123 C 
HETATM    4  C   UNL     1     -22.804  -7.872   0.151  1.00  0.00     0.091 C 
HETATM    5  O   UNL     1     -20.759  -8.035  -1.077  1.00  0.00    -0.298 OA
ENDBRANCH   2   3
ENDBRANCH   1   2
BRANCH   1   6
HETATM    6  C   UNL     1     -21.947  -6.889  -4.225  1.00  0.00     0.139 C 
HETATM    7  O   UNL     1     -21.780  -8.071  -4.477  1.00  0.00    -0.650 OA
BRANCH   6   8
HETATM    8  O   UNL     1     -22.693  -6.078  -5.008  1.00  0.00    -0.776 OA
HETATM    9  H   UNL     1     -22.678  -6.319  -5.955  1.00  0.00     0.167 HD
ENDBRANCH   6   8
ENDBRANCH   1   6
TORSDOF 4
BEGIN_RES ARG D 557
REMARK  4 active torsions:
REMARK  status: ('A' for Active; 'I' for Inactive)
REMARK    1  A    between atoms: CA   and  CB  
REMARK    2  A    between atoms: CB   and  CG  
REMARK    3  A    between atoms: CG   and  CD  
REMARK    4  A    between atoms: CD   and  NE  
REMARK       I    between atoms: NE   and  CZ  
REMARK       I    between atoms: CZ   and  NH1 
REMARK       I    between atoms: CZ   and  NH2 
ROOT
ATOM      1  CA  ARG D 557     -26.217   2.705 -17.014  1.00 35.49     0.159 C 
ENDROOT
BRANCH   1   2
ATOM      2  CB  ARG D 557     -26.789   1.319 -17.183  1.00 35.49     0.034 C 
BRANCH   2   3
ATOM      3  CG  ARG D 557     -25.836   0.203 -17.153  1.00 35.49     0.027 C 
BRANCH   3   4
ATOM      4  CD  ARG D 557     -24.750   0.415 -16.169  1.00 35.49     0.116 C 
BRANCH   4   5
ATOM      5  NE  ARG D 557     -24.892  -0.431 -15.014  1.00 35.49    -0.212 N 
ATOM      6  CZ  ARG D 557     -24.077  -1.403 -14.668  1.00 35.49     0.666 C 
ATOM      7  NH1 ARG D 557     -23.012  -1.723 -15.380  1.00 35.49    -0.235 N 
ATOM      8  NH2 ARG D 557     -24.349  -2.054 -13.575  1.00 35.49    -0.235 N 
ATOM      9  HH  ARG D 557     -22.813  -1.306 -16.102  1.00 35.49     0.174 HD
ATOM     10  HH  ARG D 557     -22.516  -2.364 -15.104  1.00 35.49     0.174 HD
ATOM     11  HH  ARG D 557     -25.039  -1.821 -13.131  1.00 35.49     0.174 HD
ATOM     12  HH  ARG D 557     -23.844  -2.685 -13.317  1.00 35.49     0.174 HD
ATOM     13  HE  ARG D 557     -25.591  -0.343 -14.537  1.00 35.49     0.178 HD
ENDBRANCH   4   5
ENDBRANCH   3   4
ENDBRANCH   2   3
ENDBRANCH   1   2
END_RES ARG D 557
BEGIN_RES GLU D 570
REMARK  3 active torsions:
REMARK  status: ('A' for Active; 'I' for Inactive)
REMARK    5  A    between atoms: CA   and  CB  
REMARK    6  A    between atoms: CB   and  CG  
REMARK    7  A    between atoms: CG   and  CD  
ROOT
ATOM     14  CA  GLU D 570     -18.033  -6.348 -13.375  1.00 32.92     0.160 C 
ENDROOT
BRANCH  14  15
ATOM     15  CB  GLU D 570     -19.500  -6.345 -13.794  1.00 32.92     0.043 C 
BRANCH  15  16
ATOM     16  CG  GLU D 570     -20.442  -5.533 -12.981  1.00 32.92     0.100 C 
BRANCH  16  17
ATOM     17  CD  GLU D 570     -21.743  -5.248 -13.696  1.00 32.92     0.185 C 
ATOM     18  OE1 GLU D 570     -22.288  -4.138 -13.542  1.00 32.92    -0.647 OA
ATOM     19  OE2 GLU D 570     -22.230  -6.150 -14.406  1.00 32.92    -0.647 OA
ENDBRANCH  16  17
ENDBRANCH  15  16
ENDBRANCH  14  15
END_RES GLU D 570
ENDMDL
