MODEL 1
REMARK VINA RESULT:      -6.3      0.000      0.000
REMARK  0 active torsions:
REMARK  status: ('A' for Active; 'I' for Inactive)
ROOT
HETATM    1  C   UNL     1     -22.624  -3.741  -8.959  1.00  0.00     0.018 C 
HETATM    2  C   UNL     1     -23.014  -4.098 -10.382  1.00  0.00     0.060 C 
HETATM    3  C   UNL     1     -21.983  -3.617 -11.416  1.00  0.00     0.024 C 
HETATM    4  C   UNL     1     -22.713  -3.154 -12.690  1.00  0.00     0.060 C 
HETATM    5  C   UNL     1     -24.158  -3.070 -12.280  1.00  0.00     0.199 C 
HETATM    6  O   UNL     1     -25.104  -2.793 -12.991  1.00  0.00    -0.289 OA
HETATM    7  C   UNL     1     -24.282  -3.429 -10.820  1.00  0.00     0.199 C 
HETATM    8  O   UNL     1     -25.281  -3.226 -10.157  1.00  0.00    -0.289 OA
HETATM    9  C   UNL     1     -22.506  -4.078 -13.875  1.00  0.00     0.018 C 
ENDROOT
TORSDOF 0
BEGIN_RES ARG D 557
REMARK  4 active torsions:
REMARK  status: ('A' for Active; 'I' for Inactive)
REMARK    1  A    between atoms: CA   and  CB  
REMARK    2  A    between atoms: CB   and  CG  
REMARK    3  A    between atoms: CG   and  CD  
REMARK    4  A    between atoms: CD   and  NE  
REMARK       I    between atoms: NE   and  CZ  
REMARK       I    between atoms: CZ   and  NH1 
REMARK       I    between atoms: CZ   and  NH2 
ROOT
ATOM      1  CA  ARG D 557     -26.217   2.705 -17.014  1.00 35.49     0.159 C 
ENDROOT
BRANCH   1   2
ATOM      2  CB  ARG D 557     -26.789   1.319 -17.183  1.00 35.49     0.034 C 
BRANCH   2   3
ATOM      3  CG  ARG D 557     -28.216   1.152 -16.883  1.00 35.49     0.027 C 
BRANCH   3   4
ATOM      4  CD  ARG D 557     -28.611  -0.272 -16.793  1.00 35.49     0.116 C 
BRANCH   4   5
ATOM      5  NE  ARG D 557     -27.632  -1.064 -16.095  1.00 35.49    -0.212 N 
ATOM      6  CZ  ARG D 557     -27.506  -2.370 -16.169  1.00 35.49     0.666 C 
ATOM      7  NH1 ARG D 557     -28.304  -3.118 -16.908  1.00 35.49    -0.235 N 
ATOM      8  NH2 ARG D 557     -26.546  -2.920 -15.484  1.00 35.49    -0.235 N 
ATOM      9  HH  ARG D 557     -28.940  -2.777 -17.369  1.00 35.49     0.174 HD
ATOM     10  HH  ARG D 557     -28.172  -3.965 -16.919  1.00 35.49     0.174 HD
ATOM     11  HH  ARG D 557     -26.042  -2.411 -15.022  1.00 35.49     0.174 HD
ATOM     12  HH  ARG D 557     -26.431  -3.759 -15.510  1.00 35.49     0.174 HD
ATOM     13  HE  ARG D 557     -27.122  -0.670 -15.540  1.00 35.49     0.178 HD
ENDBRANCH   4   5
ENDBRANCH   3   4
ENDBRANCH   2   3
ENDBRANCH   1   2
END_RES ARG D 557
BEGIN_RES GLU D 570
REMARK  3 active torsions:
REMARK  status: ('A' for Active; 'I' for Inactive)
REMARK    5  A    between atoms: CA   and  CB  
REMARK    6  A    between atoms: CB   and  CG  
REMARK    7  A    between atoms: CG   and  CD  
ROOT
ATOM     14  CA  GLU D 570     -18.033  -6.348 -13.375  1.00 32.92     0.160 C 
ENDROOT
BRANCH  14  15
ATOM     15  CB  GLU D 570     -19.500  -6.345 -13.794  1.00 32.92     0.043 C 
BRANCH  15  16
ATOM     16  CG  GLU D 570     -19.796  -6.385 -15.249  1.00 32.92     0.100 C 
BRANCH  16  17
ATOM     17  CD  GLU D 570     -20.874  -7.383 -15.605  1.00 32.92     0.185 C 
ATOM     18  OE1 GLU D 570     -22.032  -6.974 -15.815  1.00 32.92    -0.647 OA
ATOM     19  OE2 GLU D 570     -20.560  -8.588 -15.656  1.00 32.92    -0.647 OA
ENDBRANCH  16  17
ENDBRANCH  15  16
ENDBRANCH  14  15
END_RES GLU D 570
ENDMDL
MODEL 2
REMARK VINA RESULT:      -6.2      1.302      2.432
REMARK  0 active torsions:
REMARK  status: ('A' for Active; 'I' for Inactive)
ROOT
HETATM    1  C   UNL     1     -24.870  -2.873 -13.301  1.00  0.00     0.018 C 
HETATM    2  C   UNL     1     -23.737  -2.830 -12.290  1.00  0.00     0.060 C 
HETATM    3  C   UNL     1     -22.552  -3.721 -12.692  1.00  0.00     0.024 C 
HETATM    4  C   UNL     1     -21.946  -4.365 -11.432  1.00  0.00     0.060 C 
HETATM    5  C   UNL     1     -22.961  -4.101 -10.355  1.00  0.00     0.199 C 
HETATM    6  O   UNL     1     -22.869  -4.389  -9.178  1.00  0.00    -0.289 OA
HETATM    7  C   UNL     1     -24.138  -3.368 -10.950  1.00  0.00     0.199 C 
HETATM    8  O   UNL     1     -25.203  -3.227 -10.382  1.00  0.00    -0.289 OA
HETATM    9  C   UNL     1     -20.576  -3.819 -11.074  1.00  0.00     0.018 C 
ENDROOT
TORSDOF 0
BEGIN_RES ARG D 557
REMARK  4 active torsions:
REMARK  status: ('A' for Active; 'I' for Inactive)
REMARK    1  A    between atoms: CA   and  CB  
REMARK    2  A    between atoms: CB   and  CG  
REMARK    3  A    between atoms: CG   and  CD  
REMARK    4  A    between atoms: CD   and  NE  
REMARK       I    between atoms: NE   and  CZ  
REMARK       I    between atoms: CZ   and  NH1 
REMARK       I    between atoms: CZ   and  NH2 
ROOT
ATOM      1  CA  ARG D 557     -26.217   2.705 -17.014  1.00 35.49     0.159 C 
ENDROOT
BRANCH   1   2
ATOM      2  CB  ARG D 557     -26.789   1.319 -17.183  1.00 35.49     0.034 C 
BRANCH   2   3
ATOM      3  CG  ARG D 557     -28.231   1.226 -17.441  1.00 35.49     0.027 C 
BRANCH   3   4
ATOM      4  CD  ARG D 557     -28.914   0.307 -16.503  1.00 35.49     0.116 C 
BRANCH   4   5
ATOM      5  NE  ARG D 557     -29.320  -0.917 -17.142  1.00 35.49    -0.212 N 
ATOM      6  CZ  ARG D 557     -28.705  -2.075 -17.046  1.00 35.49     0.666 C 
ATOM      7  NH1 ARG D 557     -27.602  -2.235 -16.338  1.00 35.49    -0.235 N 
ATOM      8  NH2 ARG D 557     -29.226  -3.086 -17.677  1.00 35.49    -0.235 N 
ATOM      9  HH  ARG D 557     -27.242  -1.584 -15.912  1.00 35.49     0.174 HD
ATOM     10  HH  ARG D 557     -27.246  -3.014 -16.309  1.00 35.49     0.174 HD
ATOM     11  HH  ARG D 557     -29.943  -2.955 -18.121  1.00 35.49     0.174 HD
ATOM     12  HH  ARG D 557     -28.860  -3.850 -17.636  1.00 35.49     0.174 HD
ATOM     13  HE  ARG D 557     -29.980  -0.889 -17.677  1.00 35.49     0.178 HD
ENDBRANCH   4   5
ENDBRANCH   3   4
ENDBRANCH   2   3
ENDBRANCH   1   2
END_RES ARG D 557
BEGIN_RES GLU D 570
REMARK  3 active torsions:
REMARK  status: ('A' for Active; 'I' for Inactive)
REMARK    5  A    between atoms: CA   and  CB  
REMARK    6  A    between atoms: CB   and  CG  
REMARK    7  A    between atoms: CG   and  CD  
ROOT
ATOM     14  CA  GLU D 570     -18.033  -6.348 -13.375  1.00 32.92     0.160 C 
ENDROOT
BRANCH  14  15
ATOM     15  CB  GLU D 570     -19.500  -6.345 -13.794  1.00 32.92     0.043 C 
BRANCH  15  16
ATOM     16  CG  GLU D 570     -19.810  -5.977 -15.200  1.00 32.92     0.100 C 
BRANCH  16  17
ATOM     17  CD  GLU D 570     -21.281  -5.723 -15.432  1.00 32.92     0.185 C 
ATOM     18  OE1 GLU D 570     -21.624  -4.735 -16.109  1.00 32.92    -0.647 OA
ATOM     19  OE2 GLU D 570     -22.099  -6.510 -14.917  1.00 32.92    -0.647 OA
ENDBRANCH  16  17
ENDBRANCH  15  16
ENDBRANCH  14  15
END_RES GLU D 570
ENDMDL
MODEL 3
REMARK VINA RESULT:      -6.2      0.599      2.164
REMARK  0 active torsions:
REMARK  status: ('A' for Active; 'I' for Inactive)
ROOT
HETATM    1  C   UNL     1     -22.505  -3.969 -13.702  1.00  0.00     0.018 C 
HETATM    2  C   UNL     1     -22.722  -3.450 -12.291  1.00  0.00     0.060 C 
HETATM    3  C   UNL     1     -22.337  -4.479 -11.217  1.00  0.00     0.024 C 
HETATM    4  C   UNL     1     -23.319  -4.378 -10.035  1.00  0.00     0.060 C 
HETATM    5  C   UNL     1     -24.441  -3.524 -10.558  1.00  0.00     0.199 C 
HETATM    6  O   UNL     1     -25.415  -3.140  -9.940  1.00  0.00    -0.289 OA
HETATM    7  C   UNL     1     -24.164  -3.164 -11.996  1.00  0.00     0.199 C 
HETATM    8  O   UNL     1     -24.993  -2.684 -12.744  1.00  0.00    -0.289 OA
HETATM    9  C   UNL     1     -22.695  -3.798  -8.779  1.00  0.00     0.018 C 
ENDROOT
TORSDOF 0
BEGIN_RES ARG D 557
REMARK  4 active torsions:
REMARK  status: ('A' for Active; 'I' for Inactive)
REMARK    1  A    between atoms: CA   and  CB  
REMARK    2  A    between atoms: CB   and  CG  
REMARK    3  A    between atoms: CG   and  CD  
REMARK    4  A    between atoms: CD   and  NE  
REMARK       I    between atoms: NE   and  CZ  
REMARK       I    between atoms: CZ   and  NH1 
REMARK       I    between atoms: CZ   and  NH2 
ROOT
ATOM      1  CA  ARG D 557     -26.217   2.705 -17.014  1.00 35.49     0.159 C 
ENDROOT
BRANCH   1   2
ATOM      2  CB  ARG D 557     -26.789   1.319 -17.183  1.00 35.49     0.034 C 
BRANCH   2   3
ATOM      3  CG  ARG D 557     -28.225   1.160 -16.922  1.00 35.49     0.027 C 
BRANCH   3   4
ATOM      4  CD  ARG D 557     -28.609  -0.256 -16.720  1.00 35.49     0.116 C 
BRANCH   4   5
ATOM      5  NE  ARG D 557     -27.592  -1.000 -16.025  1.00 35.49    -0.212 N 
ATOM      6  CZ  ARG D 557     -27.414  -2.300 -16.087  1.00 35.49     0.666 C 
ATOM      7  NH1 ARG D 557     -28.188  -3.088 -16.810  1.00 35.49    -0.235 N 
ATOM      8  NH2 ARG D 557     -26.426  -2.804 -15.406  1.00 35.49    -0.235 N 
ATOM      9  HH  ARG D 557     -28.842  -2.778 -17.268  1.00 35.49     0.174 HD
ATOM     10  HH  ARG D 557     -28.022  -3.929 -16.815  1.00 35.49     0.174 HD
ATOM     11  HH  ARG D 557     -25.938  -2.270 -14.954  1.00 35.49     0.174 HD
ATOM     12  HH  ARG D 557     -26.277  -3.639 -15.425  1.00 35.49     0.174 HD
ATOM     13  HE  ARG D 557     -27.093  -0.580 -15.479  1.00 35.49     0.178 HD
ENDBRANCH   4   5
ENDBRANCH   3   4
ENDBRANCH   2   3
ENDBRANCH   1   2
END_RES ARG D 557
BEGIN_RES GLU D 570
REMARK  3 active torsions:
REMARK  status: ('A' for Active; 'I' for Inactive)
REMARK    5  A    between atoms: CA   and  CB  
REMARK    6  A    between atoms: CB   and  CG  
REMARK    7  A    between atoms: CG   and  CD  
ROOT
ATOM     14  CA  GLU D 570     -18.033  -6.348 -13.375  1.00 32.92     0.160 C 
ENDROOT
BRANCH  14  15
ATOM     15  CB  GLU D 570     -19.500  -6.345 -13.794  1.00 32.92     0.043 C 
BRANCH  15  16
ATOM     16  CG  GLU D 570     -20.083  -7.631 -14.256  1.00 32.92     0.100 C 
BRANCH  16  17
ATOM     17  CD  GLU D 570     -20.761  -7.522 -15.601  1.00 32.92     0.185 C 
ATOM     18  OE1 GLU D 570     -20.900  -6.397 -16.120  1.00 32.92    -0.647 OA
ATOM     19  OE2 GLU D 570     -21.174  -8.570 -16.135  1.00 32.92    -0.647 OA
ENDBRANCH  16  17
ENDBRANCH  15  16
ENDBRANCH  14  15
END_RES GLU D 570
ENDMDL
MODEL 4
REMARK VINA RESULT:      -6.0      1.225      1.674
REMARK  0 active torsions:
REMARK  status: ('A' for Active; 'I' for Inactive)
ROOT
HETATM    1  C   UNL     1     -20.678  -4.166  -9.389  1.00  0.00     0.018 C 
HETATM    2  C   UNL     1     -21.928  -4.344 -10.231  1.00  0.00     0.060 C 
HETATM    3  C   UNL     1     -21.958  -3.408 -11.450  1.00  0.00     0.024 C 
HETATM    4  C   UNL     1     -23.402  -2.936 -11.699  1.00  0.00     0.060 C 
HETATM    5  C   UNL     1     -24.143  -3.339 -10.455  1.00  0.00     0.199 C 
HETATM    6  O   UNL     1     -25.333  -3.209 -10.239  1.00  0.00    -0.289 OA
HETATM    7  C   UNL     1     -23.181  -3.986  -9.490  1.00  0.00     0.199 C 
HETATM    8  O   UNL     1     -23.438  -4.200  -8.321  1.00  0.00    -0.289 OA
HETATM    9  C   UNL     1     -24.022  -3.526 -12.953  1.00  0.00     0.018 C 
ENDROOT
TORSDOF 0
BEGIN_RES ARG D 557
REMARK  4 active torsions:
REMARK  status: ('A' for Active; 'I' for Inactive)
REMARK    1  A    between atoms: CA   and  CB  
REMARK    2  A    between atoms: CB   and  CG  
REMARK    3  A    between atoms: CG   and  CD  
REMARK    4  A    between atoms: CD   and  NE  
REMARK       I    between atoms: NE   and  CZ  
REMARK       I    between atoms: CZ   and  NH1 
REMARK       I    between atoms: CZ   and  NH2 
ROOT
ATOM      1  CA  ARG D 557     -26.217   2.705 -17.014  1.00 35.49     0.159 C 
ENDROOT
BRANCH   1   2
ATOM      2  CB  ARG D 557     -26.789   1.319 -17.183  1.00 35.49     0.034 C 
BRANCH   2   3
ATOM      3  CG  ARG D 557     -28.230   1.166 -16.949  1.00 35.49     0.027 C 
BRANCH   3   4
ATOM      4  CD  ARG D 557     -28.629  -0.252 -16.793  1.00 35.49     0.116 C 
BRANCH   4   5
ATOM      5  NE  ARG D 557     -27.633  -1.022 -16.096  1.00 35.49    -0.212 N 
ATOM      6  CZ  ARG D 557     -27.489  -2.327 -16.158  1.00 35.49     0.666 C 
ATOM      7  NH1 ARG D 557     -28.282  -3.094 -16.883  1.00 35.49    -0.235 N 
ATOM      8  NH2 ARG D 557     -26.516  -2.856 -15.475  1.00 35.49    -0.235 N 
ATOM      9  HH  ARG D 557     -28.927  -2.767 -17.342  1.00 35.49     0.174 HD
ATOM     10  HH  ARG D 557     -28.138  -3.939 -16.887  1.00 35.49     0.174 HD
ATOM     11  HH  ARG D 557     -26.015  -2.335 -15.022  1.00 35.49     0.174 HD
ATOM     12  HH  ARG D 557     -26.389  -3.694 -15.493  1.00 35.49     0.174 HD
ATOM     13  HE  ARG D 557     -27.125  -0.615 -15.549  1.00 35.49     0.178 HD
ENDBRANCH   4   5
ENDBRANCH   3   4
ENDBRANCH   2   3
ENDBRANCH   1   2
END_RES ARG D 557
BEGIN_RES GLU D 570
REMARK  3 active torsions:
REMARK  status: ('A' for Active; 'I' for Inactive)
REMARK    5  A    between atoms: CA   and  CB  
REMARK    6  A    between atoms: CB   and  CG  
REMARK    7  A    between atoms: CG   and  CD  
ROOT
ATOM     14  CA  GLU D 570     -18.033  -6.348 -13.375  1.00 32.92     0.160 C 
ENDROOT
BRANCH  14  15
ATOM     15  CB  GLU D 570     -19.500  -6.345 -13.794  1.00 32.92     0.043 C 
BRANCH  15  16
ATOM     16  CG  GLU D 570     -19.809  -5.980 -15.201  1.00 32.92     0.100 C 
BRANCH  16  17
ATOM     17  CD  GLU D 570     -21.271  -5.668 -15.421  1.00 32.92     0.185 C 
ATOM     18  OE1 GLU D 570     -22.129  -6.295 -14.769  1.00 32.92    -0.647 OA
ATOM     19  OE2 GLU D 570     -21.563  -4.799 -16.266  1.00 32.92    -0.647 OA
ENDBRANCH  16  17
ENDBRANCH  15  16
ENDBRANCH  14  15
END_RES GLU D 570
ENDMDL
MODEL 5
REMARK VINA RESULT:      -5.9      3.199      5.575
REMARK  0 active torsions:
REMARK  status: ('A' for Active; 'I' for Inactive)
ROOT
HETATM    1  C   UNL     1     -27.590  -2.801 -16.209  1.00  0.00     0.018 C 
HETATM    2  C   UNL     1     -27.627  -4.250 -16.663  1.00  0.00     0.060 C 
HETATM    3  C   UNL     1     -29.001  -4.902 -16.444  1.00  0.00     0.024 C 
HETATM    4  C   UNL     1     -28.810  -6.372 -16.027  1.00  0.00     0.060 C 
HETATM    5  C   UNL     1     -27.345  -6.477 -15.703  1.00  0.00     0.199 C 
HETATM    6  O   UNL     1     -26.740  -7.480 -15.378  1.00  0.00    -0.289 OA
HETATM    7  C   UNL     1     -26.698  -5.126 -15.879  1.00  0.00     0.199 C 
HETATM    8  O   UNL     1     -25.587  -4.851 -15.470  1.00  0.00    -0.289 OA
HETATM    9  C   UNL     1     -29.233  -7.363 -17.096  1.00  0.00     0.018 C 
ENDROOT
TORSDOF 0
BEGIN_RES ARG D 557
REMARK  4 active torsions:
REMARK  status: ('A' for Active; 'I' for Inactive)
REMARK    1  A    between atoms: CA   and  CB  
REMARK    2  A    between atoms: CB   and  CG  
REMARK    3  A    between atoms: CG   and  CD  
REMARK    4  A    between atoms: CD   and  NE  
REMARK       I    between atoms: NE   and  CZ  
REMARK       I    between atoms: CZ   and  NH1 
REMARK       I    between atoms: CZ   and  NH2 
ROOT
ATOM      1  CA  ARG D 557     -26.217   2.705 -17.014  1.00 35.49     0.159 C 
ENDROOT
BRANCH   1   2
ATOM      2  CB  ARG D 557     -26.789   1.319 -17.183  1.00 35.49     0.034 C 
BRANCH   2   3
ATOM      3  CG  ARG D 557     -25.835   0.204 -17.164  1.00 35.49     0.027 C 
BRANCH   3   4
ATOM      4  CD  ARG D 557     -24.821   0.347 -16.094  1.00 35.49     0.116 C 
BRANCH   4   5
ATOM      5  NE  ARG D 557     -25.050  -0.565 -15.004  1.00 35.49    -0.212 N 
ATOM      6  CZ  ARG D 557     -24.257  -1.551 -14.648  1.00 35.49     0.666 C 
ATOM      7  NH1 ARG D 557     -23.135  -1.824 -15.287  1.00 35.49    -0.235 N 
ATOM      8  NH2 ARG D 557     -24.612  -2.265 -13.620  1.00 35.49    -0.235 N 
ATOM      9  HH  ARG D 557     -22.880  -1.366 -15.965  1.00 35.49     0.174 HD
ATOM     10  HH  ARG D 557     -22.656  -2.478 -15.008  1.00 35.49     0.174 HD
ATOM     11  HH  ARG D 557     -25.339  -2.060 -13.222  1.00 35.49     0.174 HD
ATOM     12  HH  ARG D 557     -24.124  -2.907 -13.358  1.00 35.49     0.174 HD
ATOM     13  HE  ARG D 557     -25.786  -0.507 -14.583  1.00 35.49     0.178 HD
ENDBRANCH   4   5
ENDBRANCH   3   4
ENDBRANCH   2   3
ENDBRANCH   1   2
END_RES ARG D 557
BEGIN_RES GLU D 570
REMARK  3 active torsions:
REMARK  status: ('A' for Active; 'I' for Inactive)
REMARK    5  A    between atoms: CA   and  CB  
REMARK    6  A    between atoms: CB   and  CG  
REMARK    7  A    between atoms: CG   and  CD  
ROOT
ATOM     14  CA  GLU D 570     -18.033  -6.348 -13.375  1.00 32.92     0.160 C 
ENDROOT
BRANCH  14  15
ATOM     15  CB  GLU D 570     -19.500  -6.345 -13.794  1.00 32.92     0.043 C 
BRANCH  15  16
ATOM     16  CG  GLU D 570     -20.444  -5.541 -12.976  1.00 32.92     0.100 C 
BRANCH  16  17
ATOM     17  CD  GLU D 570     -21.735  -5.233 -13.698  1.00 32.92     0.185 C 
ATOM     18  OE1 GLU D 570     -22.323  -4.161 -13.456  1.00 32.92    -0.647 OA
ATOM     19  OE2 GLU D 570     -22.172  -6.080 -14.501  1.00 32.92    -0.647 OA
ENDBRANCH  16  17
ENDBRANCH  15  16
ENDBRANCH  14  15
END_RES GLU D 570
ENDMDL
MODEL 6
REMARK VINA RESULT:      -5.8      2.590      3.560
REMARK  0 active torsions:
REMARK  status: ('A' for Active; 'I' for Inactive)
ROOT
HETATM    1  C   UNL     1     -24.485  -3.535 -10.117  1.00  0.00     0.018 C 
HETATM    2  C   UNL     1     -23.227  -4.364  -9.926  1.00  0.00     0.060 C 
HETATM    3  C   UNL     1     -22.417  -3.932  -8.693  1.00  0.00     0.024 C 
HETATM    4  C   UNL     1     -20.913  -4.052  -9.002  1.00  0.00     0.060 C 
HETATM    5  C   UNL     1     -20.854  -4.246 -10.492  1.00  0.00     0.199 C 
HETATM    6  O   UNL     1     -19.860  -4.440 -11.164  1.00  0.00    -0.289 OA
HETATM    7  C   UNL     1     -22.253  -4.205 -11.054  1.00  0.00     0.199 C 
HETATM    8  O   UNL     1     -22.502  -4.100 -12.239  1.00  0.00    -0.289 OA
HETATM    9  C   UNL     1     -20.231  -5.180  -8.249  1.00  0.00     0.018 C 
ENDROOT
TORSDOF 0
BEGIN_RES ARG D 557
REMARK  4 active torsions:
REMARK  status: ('A' for Active; 'I' for Inactive)
REMARK    1  A    between atoms: CA   and  CB  
REMARK    2  A    between atoms: CB   and  CG  
REMARK    3  A    between atoms: CG   and  CD  
REMARK    4  A    between atoms: CD   and  NE  
REMARK       I    between atoms: NE   and  CZ  
REMARK       I    between atoms: CZ   and  NH1 
REMARK       I    between atoms: CZ   and  NH2 
ROOT
ATOM      1  CA  ARG D 557     -26.217   2.705 -17.014  1.00 35.49     0.159 C 
ENDROOT
BRANCH   1   2
ATOM      2  CB  ARG D 557     -26.789   1.319 -17.183  1.00 35.49     0.034 C 
BRANCH   2   3
ATOM      3  CG  ARG D 557     -25.839   0.201 -17.132  1.00 35.49     0.027 C 
BRANCH   3   4
ATOM      4  CD  ARG D 557     -24.756   0.425 -16.147  1.00 35.49     0.116 C 
BRANCH   4   5
ATOM      5  NE  ARG D 557     -24.877  -0.439 -15.003  1.00 35.49    -0.212 N 
ATOM      6  CZ  ARG D 557     -24.048  -1.407 -14.680  1.00 35.49     0.666 C 
ATOM      7  NH1 ARG D 557     -22.987  -1.704 -15.408  1.00 35.49    -0.235 N 
ATOM      8  NH2 ARG D 557     -24.301  -2.077 -13.594  1.00 35.49    -0.235 N 
ATOM      9  HH  ARG D 557     -22.800  -1.275 -16.126  1.00 35.49     0.174 HD
ATOM     10  HH  ARG D 557     -22.481  -2.344 -15.147  1.00 35.49     0.174 HD
ATOM     11  HH  ARG D 557     -24.989  -1.858 -13.139  1.00 35.49     0.174 HD
ATOM     12  HH  ARG D 557     -23.787  -2.706 -13.351  1.00 35.49     0.174 HD
ATOM     13  HE  ARG D 557     -25.571  -0.365 -14.518  1.00 35.49     0.178 HD
ENDBRANCH   4   5
ENDBRANCH   3   4
ENDBRANCH   2   3
ENDBRANCH   1   2
END_RES ARG D 557
BEGIN_RES GLU D 570
REMARK  3 active torsions:
REMARK  status: ('A' for Active; 'I' for Inactive)
REMARK    5  A    between atoms: CA   and  CB  
REMARK    6  A    between atoms: CB   and  CG  
REMARK    7  A    between atoms: CG   and  CD  
ROOT
ATOM     14  CA  GLU D 570     -18.033  -6.348 -13.375  1.00 32.92     0.160 C 
ENDROOT
BRANCH  14  15
ATOM     15  CB  GLU D 570     -19.500  -6.345 -13.794  1.00 32.92     0.043 C 
BRANCH  15  16
ATOM     16  CG  GLU D 570     -19.823  -5.840 -15.154  1.00 32.92     0.100 C 
BRANCH  16  17
ATOM     17  CD  GLU D 570     -21.299  -5.592 -15.355  1.00 32.92     0.185 C 
ATOM     18  OE1 GLU D 570     -21.678  -4.466 -15.732  1.00 32.92    -0.647 OA
ATOM     19  OE2 GLU D 570     -22.087  -6.528 -15.116  1.00 32.92    -0.647 OA
ENDBRANCH  16  17
ENDBRANCH  15  16
ENDBRANCH  14  15
END_RES GLU D 570
ENDMDL
MODEL 7
REMARK VINA RESULT:      -5.7      2.445      3.189
REMARK  0 active torsions:
REMARK  status: ('A' for Active; 'I' for Inactive)
ROOT
HETATM    1  C   UNL     1     -20.086  -4.791  -7.179  1.00  0.00     0.018 C 
HETATM    2  C   UNL     1     -20.976  -4.943  -8.400  1.00  0.00     0.060 C 
HETATM    3  C   UNL     1     -20.432  -4.190  -9.625  1.00  0.00     0.024 C 
HETATM    4  C   UNL     1     -21.607  -3.598 -10.425  1.00  0.00     0.060 C 
HETATM    5  C   UNL     1     -22.789  -3.738  -9.506  1.00  0.00     0.199 C 
HETATM    6  O   UNL     1     -23.943  -3.446  -9.751  1.00  0.00    -0.289 OA
HETATM    7  C   UNL     1     -22.337  -4.347  -8.202  1.00  0.00     0.199 C 
HETATM    8  O   UNL     1     -23.015  -4.365  -7.194  1.00  0.00    -0.289 OA
HETATM    9  C   UNL     1     -21.835  -4.284 -11.759  1.00  0.00     0.018 C 
ENDROOT
TORSDOF 0
BEGIN_RES ARG D 557
REMARK  4 active torsions:
REMARK  status: ('A' for Active; 'I' for Inactive)
REMARK    1  A    between atoms: CA   and  CB  
REMARK    2  A    between atoms: CB   and  CG  
REMARK    3  A    between atoms: CG   and  CD  
REMARK    4  A    between atoms: CD   and  NE  
REMARK       I    between atoms: NE   and  CZ  
REMARK       I    between atoms: CZ   and  NH1 
REMARK       I    between atoms: CZ   and  NH2 
ROOT
ATOM      1  CA  ARG D 557     -26.217   2.705 -17.014  1.00 35.49     0.159 C 
ENDROOT
BRANCH   1   2
ATOM      2  CB  ARG D 557     -26.789   1.319 -17.183  1.00 35.49     0.034 C 
BRANCH   2   3
ATOM      3  CG  ARG D 557     -25.839   0.201 -17.131  1.00 35.49     0.027 C 
BRANCH   3   4
ATOM      4  CD  ARG D 557     -24.742   0.437 -16.164  1.00 35.49     0.116 C 
BRANCH   4   5
ATOM      5  NE  ARG D 557     -24.840  -0.422 -15.013  1.00 35.49    -0.212 N 
ATOM      6  CZ  ARG D 557     -24.000  -1.383 -14.700  1.00 35.49     0.666 C 
ATOM      7  NH1 ARG D 557     -22.951  -1.679 -15.444  1.00 35.49    -0.235 N 
ATOM      8  NH2 ARG D 557     -24.232  -2.049 -13.606  1.00 35.49    -0.235 N 
ATOM      9  HH  ARG D 557     -22.778  -1.253 -16.167  1.00 35.49     0.174 HD
ATOM     10  HH  ARG D 557     -22.437  -2.315 -15.188  1.00 35.49     0.174 HD
ATOM     11  HH  ARG D 557     -24.913  -1.831 -13.141  1.00 35.49     0.174 HD
ATOM     12  HH  ARG D 557     -23.711  -2.674 -13.369  1.00 35.49     0.174 HD
ATOM     13  HE  ARG D 557     -25.526  -0.349 -14.517  1.00 35.49     0.178 HD
ENDBRANCH   4   5
ENDBRANCH   3   4
ENDBRANCH   2   3
ENDBRANCH   1   2
END_RES ARG D 557
BEGIN_RES GLU D 570
REMARK  3 active torsions:
REMARK  status: ('A' for Active; 'I' for Inactive)
REMARK    5  A    between atoms: CA   and  CB  
REMARK    6  A    between atoms: CB   and  CG  
REMARK    7  A    between atoms: CG   and  CD  
ROOT
ATOM     14  CA  GLU D 570     -18.033  -6.348 -13.375  1.00 32.92     0.160 C 
ENDROOT
BRANCH  14  15
ATOM     15  CB  GLU D 570     -19.500  -6.345 -13.794  1.00 32.92     0.043 C 
BRANCH  15  16
ATOM     16  CG  GLU D 570     -19.826  -5.809 -15.141  1.00 32.92     0.100 C 
BRANCH  16  17
ATOM     17  CD  GLU D 570     -21.305  -5.565 -15.336  1.00 32.92     0.185 C 
ATOM     18  OE1 GLU D 570     -21.686  -4.451 -15.744  1.00 32.92    -0.647 OA
ATOM     19  OE2 GLU D 570     -22.091  -6.492 -15.061  1.00 32.92    -0.647 OA
ENDBRANCH  16  17
ENDBRANCH  15  16
ENDBRANCH  14  15
END_RES GLU D 570
ENDMDL
MODEL 8
REMARK VINA RESULT:      -5.5      2.264      3.099
REMARK  0 active torsions:
REMARK  status: ('A' for Active; 'I' for Inactive)
ROOT
HETATM    1  C   UNL     1     -20.078  -4.650  -8.077  1.00  0.00     0.018 C 
HETATM    2  C   UNL     1     -21.159  -3.961  -8.892  1.00  0.00     0.060 C 
HETATM    3  C   UNL     1     -22.575  -4.392  -8.479  1.00  0.00     0.024 C 
HETATM    4  C   UNL     1     -23.472  -4.471  -9.728  1.00  0.00     0.060 C 
HETATM    5  C   UNL     1     -22.509  -4.395 -10.881  1.00  0.00     0.199 C 
HETATM    6  O   UNL     1     -22.787  -4.368 -12.064  1.00  0.00    -0.289 OA
HETATM    7  C   UNL     1     -21.100  -4.315 -10.347  1.00  0.00     0.199 C 
HETATM    8  O   UNL     1     -20.109  -4.477 -11.032  1.00  0.00    -0.289 OA
HETATM    9  C   UNL     1     -24.523  -3.378  -9.786  1.00  0.00     0.018 C 
ENDROOT
TORSDOF 0
BEGIN_RES ARG D 557
REMARK  4 active torsions:
REMARK  status: ('A' for Active; 'I' for Inactive)
REMARK    1  A    between atoms: CA   and  CB  
REMARK    2  A    between atoms: CB   and  CG  
REMARK    3  A    between atoms: CG   and  CD  
REMARK    4  A    between atoms: CD   and  NE  
REMARK       I    between atoms: NE   and  CZ  
REMARK       I    between atoms: CZ   and  NH1 
REMARK       I    between atoms: CZ   and  NH2 
ROOT
ATOM      1  CA  ARG D 557     -26.217   2.705 -17.014  1.00 35.49     0.159 C 
ENDROOT
BRANCH   1   2
ATOM      2  CB  ARG D 557     -26.789   1.319 -17.183  1.00 35.49     0.034 C 
BRANCH   2   3
ATOM      3  CG  ARG D 557     -25.861   0.195 -17.007  1.00 35.49     0.027 C 
BRANCH   3   4
ATOM      4  CD  ARG D 557     -26.304  -0.742 -15.949  1.00 35.49     0.116 C 
BRANCH   4   5
ATOM      5  NE  ARG D 557     -25.292  -0.944 -14.946  1.00 35.49    -0.212 N 
ATOM      6  CZ  ARG D 557     -25.035  -2.077 -14.332  1.00 35.49     0.666 C 
ATOM      7  NH1 ARG D 557     -25.714  -3.184 -14.572  1.00 35.49    -0.235 N 
ATOM      8  NH2 ARG D 557     -24.066  -2.083 -13.463  1.00 35.49    -0.235 N 
ATOM      9  HH  ARG D 557     -26.354  -3.204 -15.141  1.00 35.49     0.174 HD
ATOM     10  HH  ARG D 557     -25.500  -3.894 -14.143  1.00 35.49     0.174 HD
ATOM     11  HH  ARG D 557     -23.640  -1.355 -13.334  1.00 35.49     0.174 HD
ATOM     12  HH  ARG D 557     -23.868  -2.796 -13.050  1.00 35.49     0.174 HD
ATOM     13  HE  ARG D 557     -24.856  -0.266 -14.677  1.00 35.49     0.178 HD
ENDBRANCH   4   5
ENDBRANCH   3   4
ENDBRANCH   2   3
ENDBRANCH   1   2
END_RES ARG D 557
BEGIN_RES GLU D 570
REMARK  3 active torsions:
REMARK  status: ('A' for Active; 'I' for Inactive)
REMARK    5  A    between atoms: CA   and  CB  
REMARK    6  A    between atoms: CB   and  CG  
REMARK    7  A    between atoms: CG   and  CD  
ROOT
ATOM     14  CA  GLU D 570     -18.033  -6.348 -13.375  1.00 32.92     0.160 C 
ENDROOT
BRANCH  14  15
ATOM     15  CB  GLU D 570     -19.500  -6.345 -13.794  1.00 32.92     0.043 C 
BRANCH  15  16
ATOM     16  CG  GLU D 570     -19.803  -6.071 -15.222  1.00 32.92     0.100 C 
BRANCH  16  17
ATOM     17  CD  GLU D 570     -21.262  -5.759 -15.466  1.00 32.92     0.185 C 
ATOM     18  OE1 GLU D 570     -22.128  -6.366 -14.807  1.00 32.92    -0.647 OA
ATOM     19  OE2 GLU D 570     -21.541  -4.912 -16.337  1.00 32.92    -0.647 OA
ENDBRANCH  16  17
ENDBRANCH  15  16
ENDBRANCH  14  15
END_RES GLU D 570
ENDMDL
MODEL 9
REMARK VINA RESULT:      -5.4      2.257      3.119
REMARK  0 active torsions:
REMARK  status: ('A' for Active; 'I' for Inactive)
ROOT
HETATM    1  C   UNL     1     -20.302  -4.821  -5.854  1.00  0.00     0.018 C 
HETATM    2  C   UNL     1     -20.747  -5.039  -7.290  1.00  0.00     0.060 C 
HETATM    3  C   UNL     1     -19.870  -4.285  -8.301  1.00  0.00     0.024 C 
HETATM    4  C   UNL     1     -20.749  -3.765  -9.454  1.00  0.00     0.060 C 
HETATM    5  C   UNL     1     -22.157  -3.941  -8.955  1.00  0.00     0.199 C 
HETATM    6  O   UNL     1     -23.182  -3.709  -9.566  1.00  0.00    -0.289 OA
HETATM    7  C   UNL     1     -22.122  -4.503  -7.556  1.00  0.00     0.199 C 
HETATM    8  O   UNL     1     -23.086  -4.533  -6.816  1.00  0.00    -0.289 OA
HETATM    9  C   UNL     1     -20.511  -4.486 -10.768  1.00  0.00     0.018 C 
ENDROOT
TORSDOF 0
BEGIN_RES ARG D 557
REMARK  4 active torsions:
REMARK  status: ('A' for Active; 'I' for Inactive)
REMARK    1  A    between atoms: CA   and  CB  
REMARK    2  A    between atoms: CB   and  CG  
REMARK    3  A    between atoms: CG   and  CD  
REMARK    4  A    between atoms: CD   and  NE  
REMARK       I    between atoms: NE   and  CZ  
REMARK       I    between atoms: CZ   and  NH1 
REMARK       I    between atoms: CZ   and  NH2 
ROOT
ATOM      1  CA  ARG D 557     -26.217   2.705 -17.014  1.00 35.49     0.159 C 
ENDROOT
BRANCH   1   2
ATOM      2  CB  ARG D 557     -26.789   1.319 -17.183  1.00 35.49     0.034 C 
BRANCH   2   3
ATOM      3  CG  ARG D 557     -28.237   1.224 -17.405  1.00 35.49     0.027 C 
BRANCH   3   4
ATOM      4  CD  ARG D 557     -28.891   0.282 -16.468  1.00 35.49     0.116 C 
BRANCH   4   5
ATOM      5  NE  ARG D 557     -29.273  -0.946 -17.113  1.00 35.49    -0.212 N 
ATOM      6  CZ  ARG D 557     -28.640  -2.093 -17.017  1.00 35.49     0.666 C 
ATOM      7  NH1 ARG D 557     -27.539  -2.238 -16.303  1.00 35.49    -0.235 N 
ATOM      8  NH2 ARG D 557     -29.142  -3.111 -17.654  1.00 35.49    -0.235 N 
ATOM      9  HH  ARG D 557     -27.192  -1.582 -15.874  1.00 35.49     0.174 HD
ATOM     10  HH  ARG D 557     -27.170  -3.011 -16.275  1.00 35.49     0.174 HD
ATOM     11  HH  ARG D 557     -29.858  -2.990 -18.101  1.00 35.49     0.174 HD
ATOM     12  HH  ARG D 557     -28.763  -3.869 -17.612  1.00 35.49     0.174 HD
ATOM     13  HE  ARG D 557     -29.931  -0.927 -17.651  1.00 35.49     0.178 HD
ENDBRANCH   4   5
ENDBRANCH   3   4
ENDBRANCH   2   3
ENDBRANCH   1   2
END_RES ARG D 557
BEGIN_RES GLU D 570
REMARK  3 active torsions:
REMARK  status: ('A' for Active; 'I' for Inactive)
REMARK    5  A    between atoms: CA   and  CB  
REMARK    6  A    between atoms: CB   and  CG  
REMARK    7  A    between atoms: CG   and  CD  
ROOT
ATOM     14  CA  GLU D 570     -18.033  -6.348 -13.375  1.00 32.92     0.160 C 
ENDROOT
BRANCH  14  15
ATOM     15  CB  GLU D 570     -19.500  -6.345 -13.794  1.00 32.92     0.043 C 
BRANCH  15  16
ATOM     16  CG  GLU D 570     -19.807  -6.011 -15.209  1.00 32.92     0.100 C 
BRANCH  16  17
ATOM     17  CD  GLU D 570     -21.158  -5.355 -15.379  1.00 32.92     0.185 C 
ATOM     18  OE1 GLU D 570     -21.839  -5.100 -14.368  1.00 32.92    -0.647 OA
ATOM     19  OE2 GLU D 570     -21.546  -5.110 -16.539  1.00 32.92    -0.647 OA
ENDBRANCH  16  17
ENDBRANCH  15  16
ENDBRANCH  14  15
END_RES GLU D 570
ENDMDL
