MODEL 1
REMARK VINA RESULT:      -7.1      0.000      0.000
REMARK  16 active torsions:
REMARK  status: ('A' for Active; 'I' for Inactive)
REMARK    1  A    between atoms: C_2  and  C_3 
REMARK    2  A    between atoms: C_3  and  C_4 
REMARK    3  A    between atoms: C_4  and  C_5 
REMARK    4  A    between atoms: C_5  and  C_6 
REMARK    5  A    between atoms: C_6  and  C_7 
REMARK    6  A    between atoms: C_7  and  C_8 
REMARK    7  A    between atoms: C_8  and  C_9 
REMARK    8  A    between atoms: C_9  and  C_10 
REMARK    9  A    between atoms: C_10  and  C_11 
REMARK   10  A    between atoms: C_11  and  C_12 
REMARK   11  A    between atoms: C_12  and  O_14 
REMARK   12  A    between atoms: O_14  and  C_15 
REMARK   13  A    between atoms: C_15  and  C_16 
REMARK   14  A    between atoms: C_16  and  C_17 
REMARK   15  A    between atoms: C_16  and  O_19 
REMARK   16  A    between atoms: C_17  and  O_18 
ROOT
HETATM    1  C   UNL     1     -23.420  -4.338 -10.686  1.00  0.00     0.111 C 
ENDROOT
BRANCH   1   2
HETATM    2  C   UNL     1     -22.474  -4.002  -9.534  1.00  0.00     0.010 C 
BRANCH   2   3
HETATM    3  C   UNL     1     -21.015  -4.047  -9.957  1.00  0.00     0.000 C 
BRANCH   3   4
HETATM    4  C   UNL     1     -20.120  -4.143  -8.729  1.00  0.00     0.000 C 
BRANCH   4   5
HETATM    5  C   UNL     1     -20.925  -3.880  -7.467  1.00  0.00     0.000 C 
BRANCH   5   6
HETATM    6  C   UNL     1     -20.505  -4.840  -6.367  1.00  0.00     0.000 C 
BRANCH   6   7
HETATM    7  C   UNL     1     -21.084  -6.219  -6.632  1.00  0.00     0.000 C 
BRANCH   7   8
HETATM    8  C   UNL     1     -21.156  -7.010  -5.338  1.00  0.00     0.000 C 
BRANCH   8   9
HETATM    9  C   UNL     1     -21.192  -6.064  -4.149  1.00  0.00    -0.000 C 
BRANCH   9  10
HETATM   10  C   UNL     1     -21.211  -6.850  -2.847  1.00  0.00    -0.005 C 
HETATM   11  C   UNL     1     -22.235  -6.263  -1.896  1.00  0.00     0.005 C 
ENDBRANCH   9  10
ENDBRANCH   8   9
ENDBRANCH   7   8
ENDBRANCH   6   7
ENDBRANCH   5   6
ENDBRANCH   4   5
ENDBRANCH   3   4
ENDBRANCH   2   3
ENDBRANCH   1   2
BRANCH   1  12
HETATM   12  C   UNL     1     -24.526  -3.304 -10.753  1.00  0.00     0.258 C 
HETATM   13  O   UNL     1     -25.199  -2.955  -9.807  1.00  0.00    -0.265 OA
BRANCH  12  14
HETATM   14  O   UNL     1     -24.738  -2.916 -12.049  1.00  0.00    -0.319 OA
BRANCH  14  15
HETATM   15  C   UNL     1     -23.543  -2.869 -12.848  1.00  0.00     0.212 C 
BRANCH  15  16
HETATM   16  C   UNL     1     -23.796  -2.729 -14.353  1.00  0.00     0.166 C 
BRANCH  16  17
HETATM   17  C   UNL     1     -24.647  -1.493 -14.655  1.00  0.00     0.198 C 
BRANCH  17  18
HETATM   18  O   UNL     1     -26.038  -1.801 -14.688  1.00  0.00    -0.398 OA
HETATM   19  H   UNL     1     -26.326  -1.941 -13.767  1.00  0.00     0.209 HD
ENDBRANCH  17  18
ENDBRANCH  16  17
BRANCH  16  20
HETATM   20  O   UNL     1     -22.554  -2.652 -15.071  1.00  0.00    -0.391 OA
HETATM   21  H   UNL     1     -22.376  -3.514 -15.481  1.00  0.00     0.210 HD
ENDBRANCH  16  20
ENDBRANCH  15  16
ENDBRANCH  14  15
ENDBRANCH  12  14
ENDBRANCH   1  12
TORSDOF 16
BEGIN_RES ARG D 557
REMARK  4 active torsions:
REMARK  status: ('A' for Active; 'I' for Inactive)
REMARK    1  A    between atoms: CA   and  CB  
REMARK    2  A    between atoms: CB   and  CG  
REMARK    3  A    between atoms: CG   and  CD  
REMARK    4  A    between atoms: CD   and  NE  
REMARK       I    between atoms: NE   and  CZ  
REMARK       I    between atoms: CZ   and  NH1 
REMARK       I    between atoms: CZ   and  NH2 
ROOT
ATOM      1  CA  ARG D 557     -26.217   2.705 -17.014  1.00 35.49     0.159 C 
ENDROOT
BRANCH   1   2
ATOM      2  CB  ARG D 557     -26.789   1.319 -17.183  1.00 35.49     0.034 C 
BRANCH   2   3
ATOM      3  CG  ARG D 557     -28.147   1.098 -16.671  1.00 35.49     0.027 C 
BRANCH   3   4
ATOM      4  CD  ARG D 557     -28.779  -0.110 -17.250  1.00 35.49     0.116 C 
BRANCH   4   5
ATOM      5  NE  ARG D 557     -28.139  -1.321 -16.811  1.00 35.49    -0.212 N 
ATOM      6  CZ  ARG D 557     -28.594  -2.540 -16.993  1.00 35.49     0.666 C 
ATOM      7  NH1 ARG D 557     -29.736  -2.786 -17.608  1.00 35.49    -0.235 N 
ATOM      8  NH2 ARG D 557     -27.870  -3.525 -16.545  1.00 35.49    -0.235 N 
ATOM      9  HH  ARG D 557     -30.227  -2.154 -17.913  1.00 35.49     0.174 HD
ATOM     10  HH  ARG D 557     -29.981  -3.602 -17.700  1.00 35.49     0.174 HD
ATOM     11  HH  ARG D 557     -27.134  -3.337 -16.158  1.00 35.49     0.174 HD
ATOM     12  HH  ARG D 557     -28.130  -4.326 -16.647  1.00 35.49     0.174 HD
ATOM     13  HE  ARG D 557     -27.433  -1.252 -16.341  1.00 35.49     0.178 HD
ENDBRANCH   4   5
ENDBRANCH   3   4
ENDBRANCH   2   3
ENDBRANCH   1   2
END_RES ARG D 557
BEGIN_RES GLU D 570
REMARK  3 active torsions:
REMARK  status: ('A' for Active; 'I' for Inactive)
REMARK    5  A    between atoms: CA   and  CB  
REMARK    6  A    between atoms: CB   and  CG  
REMARK    7  A    between atoms: CG   and  CD  
ROOT
ATOM     14  CA  GLU D 570     -18.033  -6.348 -13.375  1.00 32.92     0.160 C 
ENDROOT
BRANCH  14  15
ATOM     15  CB  GLU D 570     -19.500  -6.345 -13.794  1.00 32.92     0.043 C 
BRANCH  15  16
ATOM     16  CG  GLU D 570     -19.803  -6.084 -15.225  1.00 32.92     0.100 C 
BRANCH  16  17
ATOM     17  CD  GLU D 570     -21.212  -5.586 -15.448  1.00 32.92     0.185 C 
ATOM     18  OE1 GLU D 570     -21.508  -5.079 -16.547  1.00 32.92    -0.647 OA
ATOM     19  OE2 GLU D 570     -22.024  -5.690 -14.508  1.00 32.92    -0.647 OA
ENDBRANCH  16  17
ENDBRANCH  15  16
ENDBRANCH  14  15
END_RES GLU D 570
ENDMDL
MODEL 2
REMARK VINA RESULT:      -6.9      7.511     11.042
REMARK  16 active torsions:
REMARK  status: ('A' for Active; 'I' for Inactive)
REMARK    1  A    between atoms: C_2  and  C_3 
REMARK    2  A    between atoms: C_3  and  C_4 
REMARK    3  A    between atoms: C_4  and  C_5 
REMARK    4  A    between atoms: C_5  and  C_6 
REMARK    5  A    between atoms: C_6  and  C_7 
REMARK    6  A    between atoms: C_7  and  C_8 
REMARK    7  A    between atoms: C_8  and  C_9 
REMARK    8  A    between atoms: C_9  and  C_10 
REMARK    9  A    between atoms: C_10  and  C_11 
REMARK   10  A    between atoms: C_11  and  C_12 
REMARK   11  A    between atoms: C_12  and  O_14 
REMARK   12  A    between atoms: O_14  and  C_15 
REMARK   13  A    between atoms: C_15  and  C_16 
REMARK   14  A    between atoms: C_16  and  C_17 
REMARK   15  A    between atoms: C_16  and  O_19 
REMARK   16  A    between atoms: C_17  and  O_18 
ROOT
HETATM    1  C   UNL     1     -36.463  -0.029 -11.375  1.00  0.00     0.111 C 
ENDROOT
BRANCH   1   2
HETATM    2  C   UNL     1     -36.809  -1.233 -10.500  1.00  0.00     0.010 C 
BRANCH   2   3
HETATM    3  C   UNL     1     -35.829  -2.379 -10.688  1.00  0.00     0.000 C 
BRANCH   3   4
HETATM    4  C   UNL     1     -34.502  -2.044 -10.022  1.00  0.00     0.000 C 
BRANCH   4   5
HETATM    5  C   UNL     1     -33.352  -2.283 -10.987  1.00  0.00     0.000 C 
BRANCH   5   6
HETATM    6  C   UNL     1     -33.795  -3.205 -12.111  1.00  0.00     0.000 C 
BRANCH   6   7
HETATM    7  C   UNL     1     -32.836  -4.377 -12.231  1.00  0.00     0.000 C 
BRANCH   7   8
HETATM    8  C   UNL     1     -33.107  -5.386 -11.129  1.00  0.00     0.000 C 
BRANCH   8   9
HETATM    9  C   UNL     1     -34.567  -5.808 -11.156  1.00  0.00    -0.000 C 
BRANCH   9  10
HETATM   10  C   UNL     1     -34.898  -6.650  -9.934  1.00  0.00    -0.005 C 
HETATM   11  C   UNL     1     -34.451  -8.082 -10.147  1.00  0.00     0.005 C 
ENDBRANCH   9  10
ENDBRANCH   8   9
ENDBRANCH   7   8
ENDBRANCH   6   7
ENDBRANCH   5   6
ENDBRANCH   4   5
ENDBRANCH   3   4
ENDBRANCH   2   3
ENDBRANCH   1   2
BRANCH   1  12
HETATM   12  C   UNL     1     -36.675  -0.383 -12.833  1.00  0.00     0.258 C 
HETATM   13  O   UNL     1     -37.731  -0.749 -13.305  1.00  0.00    -0.265 OA
BRANCH  12  14
HETATM   14  O   UNL     1     -35.485  -0.352 -13.509  1.00  0.00    -0.319 OA
BRANCH  14  15
HETATM   15  C   UNL     1     -35.270   0.857 -14.258  1.00  0.00     0.212 C 
BRANCH  15  16
HETATM   16  C   UNL     1     -35.807   0.815 -15.693  1.00  0.00     0.166 C 
BRANCH  16  17
HETATM   17  C   UNL     1     -35.706  -0.597 -16.276  1.00  0.00     0.198 C 
BRANCH  17  18
HETATM   18  O   UNL     1     -36.556  -0.765 -17.408  1.00  0.00    -0.398 OA
HETATM   19  H   UNL     1     -35.984  -0.951 -18.175  1.00  0.00     0.209 HD
ENDBRANCH  17  18
ENDBRANCH  16  17
BRANCH  16  20
HETATM   20  O   UNL     1     -37.171   1.265 -15.737  1.00  0.00    -0.391 OA
HETATM   21  H   UNL     1     -37.756   0.497 -15.632  1.00  0.00     0.210 HD
ENDBRANCH  16  20
ENDBRANCH  15  16
ENDBRANCH  14  15
ENDBRANCH  12  14
ENDBRANCH   1  12
TORSDOF 16
BEGIN_RES ARG D 557
REMARK  4 active torsions:
REMARK  status: ('A' for Active; 'I' for Inactive)
REMARK    1  A    between atoms: CA   and  CB  
REMARK    2  A    between atoms: CB   and  CG  
REMARK    3  A    between atoms: CG   and  CD  
REMARK    4  A    between atoms: CD   and  NE  
REMARK       I    between atoms: NE   and  CZ  
REMARK       I    between atoms: CZ   and  NH1 
REMARK       I    between atoms: CZ   and  NH2 
ROOT
ATOM      1  CA  ARG D 557     -26.217   2.705 -17.014  1.00 35.49     0.159 C 
ENDROOT
BRANCH   1   2
ATOM      2  CB  ARG D 557     -26.789   1.319 -17.183  1.00 35.49     0.034 C 
BRANCH   2   3
ATOM      3  CG  ARG D 557     -28.235   1.225 -17.418  1.00 35.49     0.027 C 
BRANCH   3   4
ATOM      4  CD  ARG D 557     -28.900   0.295 -16.477  1.00 35.49     0.116 C 
BRANCH   4   5
ATOM      5  NE  ARG D 557     -29.314  -0.924 -17.121  1.00 35.49    -0.212 N 
ATOM      6  CZ  ARG D 557     -28.699  -2.082 -17.039  1.00 35.49     0.666 C 
ATOM      7  NH1 ARG D 557     -27.590  -2.249 -16.344  1.00 35.49    -0.235 N 
ATOM      8  NH2 ARG D 557     -29.229  -3.089 -17.673  1.00 35.49    -0.235 N 
ATOM      9  HH  ARG D 557     -27.225  -1.601 -15.918  1.00 35.49     0.174 HD
ATOM     10  HH  ARG D 557     -27.235  -3.029 -16.325  1.00 35.49     0.174 HD
ATOM     11  HH  ARG D 557     -29.950  -2.953 -18.108  1.00 35.49     0.174 HD
ATOM     12  HH  ARG D 557     -28.863  -3.853 -17.640  1.00 35.49     0.174 HD
ATOM     13  HE  ARG D 557     -29.980  -0.890 -17.649  1.00 35.49     0.178 HD
ENDBRANCH   4   5
ENDBRANCH   3   4
ENDBRANCH   2   3
ENDBRANCH   1   2
END_RES ARG D 557
BEGIN_RES GLU D 570
REMARK  3 active torsions:
REMARK  status: ('A' for Active; 'I' for Inactive)
REMARK    5  A    between atoms: CA   and  CB  
REMARK    6  A    between atoms: CB   and  CG  
REMARK    7  A    between atoms: CG   and  CD  
ROOT
ATOM     14  CA  GLU D 570     -18.033  -6.348 -13.375  1.00 32.92     0.160 C 
ENDROOT
BRANCH  14  15
ATOM     15  CB  GLU D 570     -19.500  -6.345 -13.794  1.00 32.92     0.043 C 
BRANCH  15  16
ATOM     16  CG  GLU D 570     -20.444  -5.539 -12.977  1.00 32.92     0.100 C 
BRANCH  16  17
ATOM     17  CD  GLU D 570     -21.744  -5.251 -13.691  1.00 32.92     0.185 C 
ATOM     18  OE1 GLU D 570     -22.250  -6.136 -14.406  1.00 32.92    -0.647 OA
ATOM     19  OE2 GLU D 570     -22.252  -4.122 -13.547  1.00 32.92    -0.647 OA
ENDBRANCH  16  17
ENDBRANCH  15  16
ENDBRANCH  14  15
END_RES GLU D 570
ENDMDL
MODEL 3
REMARK VINA RESULT:      -6.8      6.557     10.760
REMARK  16 active torsions:
REMARK  status: ('A' for Active; 'I' for Inactive)
REMARK    1  A    between atoms: C_2  and  C_3 
REMARK    2  A    between atoms: C_3  and  C_4 
REMARK    3  A    between atoms: C_4  and  C_5 
REMARK    4  A    between atoms: C_5  and  C_6 
REMARK    5  A    between atoms: C_6  and  C_7 
REMARK    6  A    between atoms: C_7  and  C_8 
REMARK    7  A    between atoms: C_8  and  C_9 
REMARK    8  A    between atoms: C_9  and  C_10 
REMARK    9  A    between atoms: C_10  and  C_11 
REMARK   10  A    between atoms: C_11  and  C_12 
REMARK   11  A    between atoms: C_12  and  O_14 
REMARK   12  A    between atoms: O_14  and  C_15 
REMARK   13  A    between atoms: C_15  and  C_16 
REMARK   14  A    between atoms: C_16  and  C_17 
REMARK   15  A    between atoms: C_16  and  O_19 
REMARK   16  A    between atoms: C_17  and  O_18 
ROOT
HETATM    1  C   UNL     1     -35.312   0.346 -15.471  1.00  0.00     0.111 C 
ENDROOT
BRANCH   1   2
HETATM    2  C   UNL     1     -36.026   0.408 -14.122  1.00  0.00     0.010 C 
BRANCH   2   3
HETATM    3  C   UNL     1     -35.056   0.322 -12.955  1.00  0.00     0.000 C 
BRANCH   3   4
HETATM    4  C   UNL     1     -34.888  -1.129 -12.523  1.00  0.00     0.000 C 
BRANCH   4   5
HETATM    5  C   UNL     1     -35.433  -1.327 -11.118  1.00  0.00     0.000 C 
BRANCH   5   6
HETATM    6  C   UNL     1     -34.613  -2.372 -10.380  1.00  0.00     0.000 C 
BRANCH   6   7
HETATM    7  C   UNL     1     -33.315  -2.634 -11.123  1.00  0.00     0.000 C 
BRANCH   7   8
HETATM    8  C   UNL     1     -33.161  -4.120 -11.393  1.00  0.00     0.000 C 
BRANCH   8   9
HETATM    9  C   UNL     1     -34.027  -4.917 -10.432  1.00  0.00    -0.000 C 
BRANCH   9  10
HETATM   10  C   UNL     1     -34.083  -6.378 -10.854  1.00  0.00    -0.005 C 
HETATM   11  C   UNL     1     -34.885  -7.182  -9.852  1.00  0.00     0.005 C 
ENDBRANCH   9  10
ENDBRANCH   8   9
ENDBRANCH   7   8
ENDBRANCH   6   7
ENDBRANCH   5   6
ENDBRANCH   4   5
ENDBRANCH   3   4
ENDBRANCH   2   3
ENDBRANCH   1   2
BRANCH   1  12
HETATM   12  C   UNL     1     -35.812  -0.851 -16.255  1.00  0.00     0.258 C 
HETATM   13  O   UNL     1     -36.717  -0.816 -17.061  1.00  0.00    -0.265 OA
BRANCH  12  14
HETATM   14  O   UNL     1     -35.185  -1.993 -15.833  1.00  0.00    -0.319 OA
BRANCH  14  15
HETATM   15  C   UNL     1     -34.461  -2.679 -16.869  1.00  0.00     0.212 C 
BRANCH  15  16
HETATM   16  C   UNL     1     -33.797  -3.984 -16.417  1.00  0.00     0.166 C 
BRANCH  16  17
HETATM   17  C   UNL     1     -32.380  -4.105 -16.984  1.00  0.00     0.198 C 
BRANCH  17  18
HETATM   18  O   UNL     1     -31.981  -2.922 -17.671  1.00  0.00    -0.398 OA
HETATM   19  H   UNL     1     -32.218  -3.037 -18.609  1.00  0.00     0.209 HD
ENDBRANCH  17  18
ENDBRANCH  16  17
BRANCH  16  20
HETATM   20  O   UNL     1     -33.756  -4.062 -14.983  1.00  0.00    -0.391 OA
HETATM   21  H   UNL     1     -34.194  -4.881 -14.702  1.00  0.00     0.210 HD
ENDBRANCH  16  20
ENDBRANCH  15  16
ENDBRANCH  14  15
ENDBRANCH  12  14
ENDBRANCH   1  12
TORSDOF 16
BEGIN_RES ARG D 557
REMARK  4 active torsions:
REMARK  status: ('A' for Active; 'I' for Inactive)
REMARK    1  A    between atoms: CA   and  CB  
REMARK    2  A    between atoms: CB   and  CG  
REMARK    3  A    between atoms: CG   and  CD  
REMARK    4  A    between atoms: CD   and  NE  
REMARK       I    between atoms: NE   and  CZ  
REMARK       I    between atoms: CZ   and  NH1 
REMARK       I    between atoms: CZ   and  NH2 
ROOT
ATOM      1  CA  ARG D 557     -26.217   2.705 -17.014  1.00 35.49     0.159 C 
ENDROOT
BRANCH   1   2
ATOM      2  CB  ARG D 557     -26.789   1.319 -17.183  1.00 35.49     0.034 C 
BRANCH   2   3
ATOM      3  CG  ARG D 557     -28.229   1.227 -17.453  1.00 35.49     0.027 C 
BRANCH   3   4
ATOM      4  CD  ARG D 557     -28.921   0.310 -16.519  1.00 35.49     0.116 C 
BRANCH   4   5
ATOM      5  NE  ARG D 557     -29.262  -0.942 -17.141  1.00 35.49    -0.212 N 
ATOM      6  CZ  ARG D 557     -28.600  -2.070 -17.011  1.00 35.49     0.666 C 
ATOM      7  NH1 ARG D 557     -27.505  -2.170 -16.280  1.00 35.49    -0.235 N 
ATOM      8  NH2 ARG D 557     -29.066  -3.115 -17.632  1.00 35.49    -0.235 N 
ATOM      9  HH  ARG D 557     -27.182  -1.496 -15.861  1.00 35.49     0.174 HD
ATOM     10  HH  ARG D 557     -27.117  -2.932 -16.230  1.00 35.49     0.174 HD
ATOM     11  HH  ARG D 557     -29.779  -3.023 -18.091  1.00 35.49     0.174 HD
ATOM     12  HH  ARG D 557     -28.669  -3.861 -17.569  1.00 35.49     0.174 HD
ATOM     13  HE  ARG D 557     -29.913  -0.952 -17.689  1.00 35.49     0.178 HD
ENDBRANCH   4   5
ENDBRANCH   3   4
ENDBRANCH   2   3
ENDBRANCH   1   2
END_RES ARG D 557
BEGIN_RES GLU D 570
REMARK  3 active torsions:
REMARK  status: ('A' for Active; 'I' for Inactive)
REMARK    5  A    between atoms: CA   and  CB  
REMARK    6  A    between atoms: CB   and  CG  
REMARK    7  A    between atoms: CG   and  CD  
ROOT
ATOM     14  CA  GLU D 570     -18.033  -6.348 -13.375  1.00 32.92     0.160 C 
ENDROOT
BRANCH  14  15
ATOM     15  CB  GLU D 570     -19.500  -6.345 -13.794  1.00 32.92     0.043 C 
BRANCH  15  16
ATOM     16  CG  GLU D 570     -20.084  -7.632 -14.252  1.00 32.92     0.100 C 
BRANCH  16  17
ATOM     17  CD  GLU D 570     -20.938  -7.484 -15.490  1.00 32.92     0.185 C 
ATOM     18  OE1 GLU D 570     -21.251  -6.342 -15.876  1.00 32.92    -0.647 OA
ATOM     19  OE2 GLU D 570     -21.312  -8.523 -16.069  1.00 32.92    -0.647 OA
ENDBRANCH  16  17
ENDBRANCH  15  16
ENDBRANCH  14  15
END_RES GLU D 570
ENDMDL
MODEL 4
REMARK VINA RESULT:      -6.7      7.948     11.330
REMARK  16 active torsions:
REMARK  status: ('A' for Active; 'I' for Inactive)
REMARK    1  A    between atoms: C_2  and  C_3 
REMARK    2  A    between atoms: C_3  and  C_4 
REMARK    3  A    between atoms: C_4  and  C_5 
REMARK    4  A    between atoms: C_5  and  C_6 
REMARK    5  A    between atoms: C_6  and  C_7 
REMARK    6  A    between atoms: C_7  and  C_8 
REMARK    7  A    between atoms: C_8  and  C_9 
REMARK    8  A    between atoms: C_9  and  C_10 
REMARK    9  A    between atoms: C_10  and  C_11 
REMARK   10  A    between atoms: C_11  and  C_12 
REMARK   11  A    between atoms: C_12  and  O_14 
REMARK   12  A    between atoms: O_14  and  C_15 
REMARK   13  A    between atoms: C_15  and  C_16 
REMARK   14  A    between atoms: C_16  and  C_17 
REMARK   15  A    between atoms: C_16  and  O_19 
REMARK   16  A    between atoms: C_17  and  O_18 
ROOT
HETATM    1  C   UNL     1     -35.884  -0.891 -12.011  1.00  0.00     0.111 C 
ENDROOT
BRANCH   1   2
HETATM    2  C   UNL     1     -35.998  -1.693 -10.715  1.00  0.00     0.010 C 
BRANCH   2   3
HETATM    3  C   UNL     1     -34.639  -2.013 -10.116  1.00  0.00     0.000 C 
BRANCH   3   4
HETATM    4  C   UNL     1     -33.575  -2.007 -11.206  1.00  0.00     0.000 C 
BRANCH   4   5
HETATM    5  C   UNL     1     -33.093  -3.422 -11.481  1.00  0.00     0.000 C 
BRANCH   5   6
HETATM    6  C   UNL     1     -34.030  -4.115 -12.457  1.00  0.00     0.000 C 
BRANCH   6   7
HETATM    7  C   UNL     1     -34.491  -5.442 -11.882  1.00  0.00     0.000 C 
BRANCH   7   8
HETATM    8  C   UNL     1     -34.106  -5.536 -10.416  1.00  0.00     0.000 C 
BRANCH   8   9
HETATM    9  C   UNL     1     -34.916  -6.625  -9.732  1.00  0.00    -0.000 C 
BRANCH   9  10
HETATM   10  C   UNL     1     -34.775  -7.941 -10.481  1.00  0.00    -0.005 C 
HETATM   11  C   UNL     1     -33.838  -8.870  -9.736  1.00  0.00     0.005 C 
ENDBRANCH   9  10
ENDBRANCH   8   9
ENDBRANCH   7   8
ENDBRANCH   6   7
ENDBRANCH   5   6
ENDBRANCH   4   5
ENDBRANCH   3   4
ENDBRANCH   2   3
ENDBRANCH   1   2
BRANCH   1  12
HETATM   12  C   UNL     1     -37.245  -0.344 -12.392  1.00  0.00     0.258 C 
HETATM   13  O   UNL     1     -37.938   0.338 -11.668  1.00  0.00    -0.265 OA
BRANCH  12  14
HETATM   14  O   UNL     1     -37.630  -0.831 -13.612  1.00  0.00    -0.319 OA
BRANCH  14  15
HETATM   15  C   UNL     1     -37.724   0.172 -14.638  1.00  0.00     0.212 C 
BRANCH  15  16
HETATM   16  C   UNL     1     -36.381   0.561 -15.266  1.00  0.00     0.166 C 
BRANCH  16  17
HETATM   17  C   UNL     1     -35.838  -0.568 -16.146  1.00  0.00     0.198 C 
BRANCH  17  18
HETATM   18  O   UNL     1     -36.611  -0.734 -17.332  1.00  0.00    -0.398 OA
HETATM   19  H   UNL     1     -37.280  -1.419 -17.149  1.00  0.00     0.209 HD
ENDBRANCH  17  18
ENDBRANCH  16  17
BRANCH  16  20
HETATM   20  O   UNL     1     -36.513   1.763 -16.042  1.00  0.00    -0.391 OA
HETATM   21  H   UNL     1     -36.842   2.473 -15.466  1.00  0.00     0.210 HD
ENDBRANCH  16  20
ENDBRANCH  15  16
ENDBRANCH  14  15
ENDBRANCH  12  14
ENDBRANCH   1  12
TORSDOF 16
BEGIN_RES ARG D 557
REMARK  4 active torsions:
REMARK  status: ('A' for Active; 'I' for Inactive)
REMARK    1  A    between atoms: CA   and  CB  
REMARK    2  A    between atoms: CB   and  CG  
REMARK    3  A    between atoms: CG   and  CD  
REMARK    4  A    between atoms: CD   and  NE  
REMARK       I    between atoms: NE   and  CZ  
REMARK       I    between atoms: CZ   and  NH1 
REMARK       I    between atoms: CZ   and  NH2 
ROOT
ATOM      1  CA  ARG D 557     -26.217   2.705 -17.014  1.00 35.49     0.159 C 
ENDROOT
BRANCH   1   2
ATOM      2  CB  ARG D 557     -26.789   1.319 -17.183  1.00 35.49     0.034 C 
BRANCH   2   3
ATOM      3  CG  ARG D 557     -25.839   0.201 -17.132  1.00 35.49     0.027 C 
BRANCH   3   4
ATOM      4  CD  ARG D 557     -24.774   0.411 -16.124  1.00 35.49     0.116 C 
BRANCH   4   5
ATOM      5  NE  ARG D 557     -24.934  -0.446 -14.980  1.00 35.49    -0.212 N 
ATOM      6  CZ  ARG D 557     -24.137  -1.436 -14.644  1.00 35.49     0.666 C 
ATOM      7  NH1 ARG D 557     -23.076  -1.765 -15.358  1.00 35.49    -0.235 N 
ATOM      8  NH2 ARG D 557     -24.423  -2.096 -13.560  1.00 35.49    -0.235 N 
ATOM      9  HH  ARG D 557     -22.868  -1.343 -16.074  1.00 35.49     0.174 HD
ATOM     10  HH  ARG D 557     -22.591  -2.418 -15.088  1.00 35.49     0.174 HD
ATOM     11  HH  ARG D 557     -25.110  -1.856 -13.115  1.00 35.49     0.174 HD
ATOM     12  HH  ARG D 557     -23.930  -2.738 -13.309  1.00 35.49     0.174 HD
ATOM     13  HE  ARG D 557     -25.632  -0.351 -14.504  1.00 35.49     0.178 HD
ENDBRANCH   4   5
ENDBRANCH   3   4
ENDBRANCH   2   3
ENDBRANCH   1   2
END_RES ARG D 557
BEGIN_RES GLU D 570
REMARK  3 active torsions:
REMARK  status: ('A' for Active; 'I' for Inactive)
REMARK    5  A    between atoms: CA   and  CB  
REMARK    6  A    between atoms: CB   and  CG  
REMARK    7  A    between atoms: CG   and  CD  
ROOT
ATOM     14  CA  GLU D 570     -18.033  -6.348 -13.375  1.00 32.92     0.160 C 
ENDROOT
BRANCH  14  15
ATOM     15  CB  GLU D 570     -19.500  -6.345 -13.794  1.00 32.92     0.043 C 
BRANCH  15  16
ATOM     16  CG  GLU D 570     -20.451  -5.574 -12.952  1.00 32.92     0.100 C 
BRANCH  16  17
ATOM     17  CD  GLU D 570     -21.752  -5.271 -13.658  1.00 32.92     0.185 C 
ATOM     18  OE1 GLU D 570     -22.315  -6.177 -14.303  1.00 32.92    -0.647 OA
ATOM     19  OE2 GLU D 570     -22.204  -4.112 -13.580  1.00 32.92    -0.647 OA
ENDBRANCH  16  17
ENDBRANCH  15  16
ENDBRANCH  14  15
END_RES GLU D 570
ENDMDL
MODEL 5
REMARK VINA RESULT:      -6.6      1.311      1.808
REMARK  16 active torsions:
REMARK  status: ('A' for Active; 'I' for Inactive)
REMARK    1  A    between atoms: C_2  and  C_3 
REMARK    2  A    between atoms: C_3  and  C_4 
REMARK    3  A    between atoms: C_4  and  C_5 
REMARK    4  A    between atoms: C_5  and  C_6 
REMARK    5  A    between atoms: C_6  and  C_7 
REMARK    6  A    between atoms: C_7  and  C_8 
REMARK    7  A    between atoms: C_8  and  C_9 
REMARK    8  A    between atoms: C_9  and  C_10 
REMARK    9  A    between atoms: C_10  and  C_11 
REMARK   10  A    between atoms: C_11  and  C_12 
REMARK   11  A    between atoms: C_12  and  O_14 
REMARK   12  A    between atoms: O_14  and  C_15 
REMARK   13  A    between atoms: C_15  and  C_16 
REMARK   14  A    between atoms: C_16  and  C_17 
REMARK   15  A    between atoms: C_16  and  O_19 
REMARK   16  A    between atoms: C_17  and  O_18 
ROOT
HETATM    1  C   UNL     1     -23.421  -3.961  -8.768  1.00  0.00     0.111 C 
ENDROOT
BRANCH   1   2
HETATM    2  C   UNL     1     -22.158  -4.762  -9.083  1.00  0.00     0.010 C 
BRANCH   2   3
HETATM    3  C   UNL     1     -20.892  -4.000  -8.728  1.00  0.00     0.000 C 
BRANCH   3   4
HETATM    4  C   UNL     1     -20.523  -4.253  -7.272  1.00  0.00     0.000 C 
BRANCH   4   5
HETATM    5  C   UNL     1     -19.858  -5.612  -7.126  1.00  0.00     0.000 C 
BRANCH   5   6
HETATM    6  C   UNL     1     -20.266  -6.257  -5.812  1.00  0.00     0.000 C 
BRANCH   6   7
HETATM    7  C   UNL     1     -21.770  -6.152  -5.627  1.00  0.00     0.000 C 
BRANCH   7   8
HETATM    8  C   UNL     1     -22.177  -6.792  -4.311  1.00  0.00     0.000 C 
BRANCH   8   9
HETATM    9  C   UNL     1     -21.365  -6.201  -3.170  1.00  0.00    -0.000 C 
BRANCH   9  10
HETATM   10  C   UNL     1     -22.196  -6.154  -1.896  1.00  0.00    -0.005 C 
HETATM   11  C   UNL     1     -21.933  -7.386  -1.054  1.00  0.00     0.005 C 
ENDBRANCH   9  10
ENDBRANCH   8   9
ENDBRANCH   7   8
ENDBRANCH   6   7
ENDBRANCH   5   6
ENDBRANCH   4   5
ENDBRANCH   3   4
ENDBRANCH   2   3
ENDBRANCH   1   2
BRANCH   1  12
HETATM   12  C   UNL     1     -24.116  -3.581 -10.060  1.00  0.00     0.258 C 
HETATM   13  O   UNL     1     -25.248  -3.152 -10.131  1.00  0.00    -0.265 OA
BRANCH  12  14
HETATM   14  O   UNL     1     -23.335  -3.907 -11.136  1.00  0.00    -0.319 OA
BRANCH  14  15
HETATM   15  C   UNL     1     -22.834  -2.770 -11.861  1.00  0.00     0.212 C 
BRANCH  15  16
HETATM   16  C   UNL     1     -23.477  -2.566 -13.238  1.00  0.00     0.166 C 
BRANCH  16  17
HETATM   17  C   UNL     1     -22.791  -3.431 -14.298  1.00  0.00     0.198 C 
BRANCH  17  18
HETATM   18  O   UNL     1     -22.337  -2.654 -15.403  1.00  0.00    -0.398 OA
HETATM   19  H   UNL     1     -21.434  -2.954 -15.617  1.00  0.00     0.209 HD
ENDBRANCH  17  18
ENDBRANCH  16  17
BRANCH  16  20
HETATM   20  O   UNL     1     -24.880  -2.873 -13.192  1.00  0.00    -0.391 OA
HETATM   21  H   UNL     1     -25.083  -3.510 -13.896  1.00  0.00     0.210 HD
ENDBRANCH  16  20
ENDBRANCH  15  16
ENDBRANCH  14  15
ENDBRANCH  12  14
ENDBRANCH   1  12
TORSDOF 16
BEGIN_RES ARG D 557
REMARK  4 active torsions:
REMARK  status: ('A' for Active; 'I' for Inactive)
REMARK    1  A    between atoms: CA   and  CB  
REMARK    2  A    between atoms: CB   and  CG  
REMARK    3  A    between atoms: CG   and  CD  
REMARK    4  A    between atoms: CD   and  NE  
REMARK       I    between atoms: NE   and  CZ  
REMARK       I    between atoms: CZ   and  NH1 
REMARK       I    between atoms: CZ   and  NH2 
ROOT
ATOM      1  CA  ARG D 557     -26.217   2.705 -17.014  1.00 35.49     0.159 C 
ENDROOT
BRANCH   1   2
ATOM      2  CB  ARG D 557     -26.789   1.319 -17.183  1.00 35.49     0.034 C 
BRANCH   2   3
ATOM      3  CG  ARG D 557     -28.245   1.184 -17.051  1.00 35.49     0.027 C 
BRANCH   3   4
ATOM      4  CD  ARG D 557     -28.658  -0.205 -16.748  1.00 35.49     0.116 C 
BRANCH   4   5
ATOM      5  NE  ARG D 557     -27.616  -0.950 -16.092  1.00 35.49    -0.212 N 
ATOM      6  CZ  ARG D 557     -27.438  -2.250 -16.164  1.00 35.49     0.666 C 
ATOM      7  NH1 ARG D 557     -28.237  -3.037 -16.861  1.00 35.49    -0.235 N 
ATOM      8  NH2 ARG D 557     -26.426  -2.754 -15.521  1.00 35.49    -0.235 N 
ATOM      9  HH  ARG D 557     -28.908  -2.726 -17.294  1.00 35.49     0.174 HD
ATOM     10  HH  ARG D 557     -28.071  -3.877 -16.874  1.00 35.49     0.174 HD
ATOM     11  HH  ARG D 557     -25.923  -2.221 -15.085  1.00 35.49     0.174 HD
ATOM     12  HH  ARG D 557     -26.277  -3.589 -15.547  1.00 35.49     0.174 HD
ATOM     13  HE  ARG D 557     -27.098  -0.531 -15.563  1.00 35.49     0.178 HD
ENDBRANCH   4   5
ENDBRANCH   3   4
ENDBRANCH   2   3
ENDBRANCH   1   2
END_RES ARG D 557
BEGIN_RES GLU D 570
REMARK  3 active torsions:
REMARK  status: ('A' for Active; 'I' for Inactive)
REMARK    5  A    between atoms: CA   and  CB  
REMARK    6  A    between atoms: CB   and  CG  
REMARK    7  A    between atoms: CG   and  CD  
ROOT
ATOM     14  CA  GLU D 570     -18.033  -6.348 -13.375  1.00 32.92     0.160 C 
ENDROOT
BRANCH  14  15
ATOM     15  CB  GLU D 570     -19.500  -6.345 -13.794  1.00 32.92     0.043 C 
BRANCH  15  16
ATOM     16  CG  GLU D 570     -20.092  -7.638 -14.225  1.00 32.92     0.100 C 
BRANCH  16  17
ATOM     17  CD  GLU D 570     -20.883  -7.526 -15.507  1.00 32.92     0.185 C 
ATOM     18  OE1 GLU D 570     -20.878  -8.482 -16.307  1.00 32.92    -0.647 OA
ATOM     19  OE2 GLU D 570     -21.501  -6.465 -15.722  1.00 32.92    -0.647 OA
ENDBRANCH  16  17
ENDBRANCH  15  16
ENDBRANCH  14  15
END_RES GLU D 570
ENDMDL
MODEL 6
REMARK VINA RESULT:      -6.5      2.391      4.089
REMARK  16 active torsions:
REMARK  status: ('A' for Active; 'I' for Inactive)
REMARK    1  A    between atoms: C_2  and  C_3 
REMARK    2  A    between atoms: C_3  and  C_4 
REMARK    3  A    between atoms: C_4  and  C_5 
REMARK    4  A    between atoms: C_5  and  C_6 
REMARK    5  A    between atoms: C_6  and  C_7 
REMARK    6  A    between atoms: C_7  and  C_8 
REMARK    7  A    between atoms: C_8  and  C_9 
REMARK    8  A    between atoms: C_9  and  C_10 
REMARK    9  A    between atoms: C_10  and  C_11 
REMARK   10  A    between atoms: C_11  and  C_12 
REMARK   11  A    between atoms: C_12  and  O_14 
REMARK   12  A    between atoms: O_14  and  C_15 
REMARK   13  A    between atoms: C_15  and  C_16 
REMARK   14  A    between atoms: C_16  and  C_17 
REMARK   15  A    between atoms: C_16  and  O_19 
REMARK   16  A    between atoms: C_17  and  O_18 
ROOT
HETATM    1  C   UNL     1     -19.483  -4.391  -8.244  1.00  0.00     0.111 C 
ENDROOT
BRANCH   1   2
HETATM    2  C   UNL     1     -19.836  -5.408  -7.160  1.00  0.00     0.010 C 
BRANCH   2   3
HETATM    3  C   UNL     1     -20.094  -4.747  -5.816  1.00  0.00     0.000 C 
BRANCH   3   4
HETATM    4  C   UNL     1     -20.894  -5.683  -4.920  1.00  0.00     0.000 C 
BRANCH   4   5
HETATM    5  C   UNL     1     -20.492  -7.127  -5.174  1.00  0.00     0.000 C 
BRANCH   5   6
HETATM    6  C   UNL     1     -20.846  -7.989  -3.974  1.00  0.00     0.000 C 
BRANCH   6   7
HETATM    7  C   UNL     1     -21.473  -7.133  -2.886  1.00  0.00     0.000 C 
BRANCH   7   8
HETATM    8  C   UNL     1     -21.648  -7.950  -1.618  1.00  0.00     0.000 C 
BRANCH   8   9
HETATM    9  C   UNL     1     -22.441  -7.157  -0.592  1.00  0.00    -0.000 C 
BRANCH   9  10
HETATM   10  C   UNL     1     -22.629  -7.973   0.678  1.00  0.00    -0.005 C 
HETATM   11  C   UNL     1     -21.301  -8.536   1.140  1.00  0.00     0.005 C 
ENDBRANCH   9  10
ENDBRANCH   8   9
ENDBRANCH   7   8
ENDBRANCH   6   7
ENDBRANCH   5   6
ENDBRANCH   4   5
ENDBRANCH   3   4
ENDBRANCH   2   3
ENDBRANCH   1   2
BRANCH   1  12
HETATM   12  C   UNL     1     -20.635  -4.269  -9.221  1.00  0.00     0.258 C 
HETATM   13  O   UNL     1     -20.608  -3.606 -10.236  1.00  0.00    -0.265 OA
BRANCH  12  14
HETATM   14  O   UNL     1     -21.743  -4.909  -8.734  1.00  0.00    -0.319 OA
BRANCH  14  15
HETATM   15  C   UNL     1     -22.897  -4.060  -8.602  1.00  0.00     0.212 C 
BRANCH  15  16
HETATM   16  C   UNL     1     -24.095  -4.485  -9.458  1.00  0.00     0.166 C 
BRANCH  16  17
HETATM   17  C   UNL     1     -24.896  -3.268  -9.927  1.00  0.00     0.198 C 
BRANCH  17  18
HETATM   18  O   UNL     1     -24.938  -3.175 -11.348  1.00  0.00    -0.398 OA
HETATM   19  H   UNL     1     -25.460  -2.383 -11.572  1.00  0.00     0.209 HD
ENDBRANCH  17  18
ENDBRANCH  16  17
BRANCH  16  20
HETATM   20  O   UNL     1     -23.659  -5.249 -10.595  1.00  0.00    -0.391 OA
HETATM   21  H   UNL     1     -24.426  -5.425 -11.165  1.00  0.00     0.210 HD
ENDBRANCH  16  20
ENDBRANCH  15  16
ENDBRANCH  14  15
ENDBRANCH  12  14
ENDBRANCH   1  12
TORSDOF 16
BEGIN_RES ARG D 557
REMARK  4 active torsions:
REMARK  status: ('A' for Active; 'I' for Inactive)
REMARK    1  A    between atoms: CA   and  CB  
REMARK    2  A    between atoms: CB   and  CG  
REMARK    3  A    between atoms: CG   and  CD  
REMARK    4  A    between atoms: CD   and  NE  
REMARK       I    between atoms: NE   and  CZ  
REMARK       I    between atoms: CZ   and  NH1 
REMARK       I    between atoms: CZ   and  NH2 
ROOT
ATOM      1  CA  ARG D 557     -26.217   2.705 -17.014  1.00 35.49     0.159 C 
ENDROOT
BRANCH   1   2
ATOM      2  CB  ARG D 557     -26.789   1.319 -17.183  1.00 35.49     0.034 C 
BRANCH   2   3
ATOM      3  CG  ARG D 557     -25.851   0.197 -17.053  1.00 35.49     0.027 C 
BRANCH   3   4
ATOM      4  CD  ARG D 557     -26.173  -0.677 -15.901  1.00 35.49     0.116 C 
BRANCH   4   5
ATOM      5  NE  ARG D 557     -25.072  -0.789 -14.982  1.00 35.49    -0.212 N 
ATOM      6  CZ  ARG D 557     -24.677  -1.893 -14.388  1.00 35.49     0.666 C 
ATOM      7  NH1 ARG D 557     -25.282  -3.052 -14.570  1.00 35.49    -0.235 N 
ATOM      8  NH2 ARG D 557     -23.644  -1.814 -13.600  1.00 35.49    -0.235 N 
ATOM      9  HH  ARG D 557     -25.962  -3.127 -15.086  1.00 35.49     0.174 HD
ATOM     10  HH  ARG D 557     -24.978  -3.739 -14.158  1.00 35.49     0.174 HD
ATOM     11  HH  ARG D 557     -23.269  -1.054 -13.507  1.00 35.49     0.174 HD
ATOM     12  HH  ARG D 557     -23.357  -2.506 -13.202  1.00 35.49     0.174 HD
ATOM     13  HE  ARG D 557     -24.670  -0.076 -14.750  1.00 35.49     0.178 HD
ENDBRANCH   4   5
ENDBRANCH   3   4
ENDBRANCH   2   3
ENDBRANCH   1   2
END_RES ARG D 557
BEGIN_RES GLU D 570
REMARK  3 active torsions:
REMARK  status: ('A' for Active; 'I' for Inactive)
REMARK    5  A    between atoms: CA   and  CB  
REMARK    6  A    between atoms: CB   and  CG  
REMARK    7  A    between atoms: CG   and  CD  
ROOT
ATOM     14  CA  GLU D 570     -18.033  -6.348 -13.375  1.00 32.92     0.160 C 
ENDROOT
BRANCH  14  15
ATOM     15  CB  GLU D 570     -19.500  -6.345 -13.794  1.00 32.92     0.043 C 
BRANCH  15  16
ATOM     16  CG  GLU D 570     -20.453  -5.583 -12.946  1.00 32.92     0.100 C 
BRANCH  16  17
ATOM     17  CD  GLU D 570     -21.720  -5.205 -13.677  1.00 32.92     0.185 C 
ATOM     18  OE1 GLU D 570     -21.890  -5.609 -14.843  1.00 32.92    -0.647 OA
ATOM     19  OE2 GLU D 570     -22.544  -4.482 -13.082  1.00 32.92    -0.647 OA
ENDBRANCH  16  17
ENDBRANCH  15  16
ENDBRANCH  14  15
END_RES GLU D 570
ENDMDL
MODEL 7
REMARK VINA RESULT:      -6.3      6.103     10.625
REMARK  16 active torsions:
REMARK  status: ('A' for Active; 'I' for Inactive)
REMARK    1  A    between atoms: C_2  and  C_3 
REMARK    2  A    between atoms: C_3  and  C_4 
REMARK    3  A    between atoms: C_4  and  C_5 
REMARK    4  A    between atoms: C_5  and  C_6 
REMARK    5  A    between atoms: C_6  and  C_7 
REMARK    6  A    between atoms: C_7  and  C_8 
REMARK    7  A    between atoms: C_8  and  C_9 
REMARK    8  A    between atoms: C_9  and  C_10 
REMARK    9  A    between atoms: C_10  and  C_11 
REMARK   10  A    between atoms: C_11  and  C_12 
REMARK   11  A    between atoms: C_12  and  O_14 
REMARK   12  A    between atoms: O_14  and  C_15 
REMARK   13  A    between atoms: C_15  and  C_16 
REMARK   14  A    between atoms: C_16  and  C_17 
REMARK   15  A    between atoms: C_16  and  O_19 
REMARK   16  A    between atoms: C_17  and  O_18 
ROOT
HETATM    1  C   UNL     1     -35.476  -1.245 -16.719  1.00  0.00     0.111 C 
ENDROOT
BRANCH   1   2
HETATM    2  C   UNL     1     -35.937  -0.672 -15.380  1.00  0.00     0.010 C 
BRANCH   2   3
HETATM    3  C   UNL     1     -35.103   0.524 -14.949  1.00  0.00     0.000 C 
BRANCH   3   4
HETATM    4  C   UNL     1     -34.918   0.513 -13.438  1.00  0.00     0.000 C 
BRANCH   4   5
HETATM    5  C   UNL     1     -35.099  -0.895 -12.895  1.00  0.00     0.000 C 
BRANCH   5   6
HETATM    6  C   UNL     1     -35.620  -0.843 -11.468  1.00  0.00     0.000 C 
BRANCH   6   7
HETATM    7  C   UNL     1     -35.088  -2.026 -10.677  1.00  0.00     0.000 C 
BRANCH   7   8
HETATM    8  C   UNL     1     -33.578  -2.108 -10.818  1.00  0.00     0.000 C 
BRANCH   8   9
HETATM    9  C   UNL     1     -33.166  -3.517 -11.214  1.00  0.00    -0.000 C 
BRANCH   9  10
HETATM   10  C   UNL     1     -34.060  -4.542 -10.532  1.00  0.00    -0.005 C 
HETATM   11  C   UNL     1     -33.747  -5.933 -11.044  1.00  0.00     0.005 C 
ENDBRANCH   9  10
ENDBRANCH   8   9
ENDBRANCH   7   8
ENDBRANCH   6   7
ENDBRANCH   5   6
ENDBRANCH   4   5
ENDBRANCH   3   4
ENDBRANCH   2   3
ENDBRANCH   1   2
BRANCH   1  12
HETATM   12  C   UNL     1     -34.625  -2.476 -16.478  1.00  0.00     0.258 C 
HETATM   13  O   UNL     1     -34.767  -3.238 -15.545  1.00  0.00    -0.265 OA
BRANCH  12  14
HETATM   14  O   UNL     1     -33.602  -2.534 -17.386  1.00  0.00    -0.319 OA
BRANCH  14  15
HETATM   15  C   UNL     1     -32.944  -3.812 -17.444  1.00  0.00     0.212 C 
BRANCH  15  16
HETATM   16  C   UNL     1     -31.425  -3.749 -17.251  1.00  0.00     0.166 C 
BRANCH  16  17
HETATM   17  C   UNL     1     -30.817  -5.153 -17.209  1.00  0.00     0.198 C 
BRANCH  17  18
HETATM   18  O   UNL     1     -29.731  -5.289 -18.121  1.00  0.00    -0.398 OA
HETATM   19  H   UNL     1     -29.341  -4.404 -18.240  1.00  0.00     0.209 HD
ENDBRANCH  17  18
ENDBRANCH  16  17
BRANCH  16  20
HETATM   20  O   UNL     1     -30.812  -2.984 -18.302  1.00  0.00    -0.391 OA
HETATM   21  H   UNL     1     -30.196  -2.347 -17.905  1.00  0.00     0.210 HD
ENDBRANCH  16  20
ENDBRANCH  15  16
ENDBRANCH  14  15
ENDBRANCH  12  14
ENDBRANCH   1  12
TORSDOF 16
BEGIN_RES ARG D 557
REMARK  4 active torsions:
REMARK  status: ('A' for Active; 'I' for Inactive)
REMARK    1  A    between atoms: CA   and  CB  
REMARK    2  A    between atoms: CB   and  CG  
REMARK    3  A    between atoms: CG   and  CD  
REMARK    4  A    between atoms: CD   and  NE  
REMARK       I    between atoms: NE   and  CZ  
REMARK       I    between atoms: CZ   and  NH1 
REMARK       I    between atoms: CZ   and  NH2 
ROOT
ATOM      1  CA  ARG D 557     -26.217   2.705 -17.014  1.00 35.49     0.159 C 
ENDROOT
BRANCH   1   2
ATOM      2  CB  ARG D 557     -26.789   1.319 -17.183  1.00 35.49     0.034 C 
BRANCH   2   3
ATOM      3  CG  ARG D 557     -28.217   1.153 -16.886  1.00 35.49     0.027 C 
BRANCH   3   4
ATOM      4  CD  ARG D 557     -28.576  -0.258 -16.614  1.00 35.49     0.116 C 
BRANCH   4   5
ATOM      5  NE  ARG D 557     -27.539  -0.954 -15.900  1.00 35.49    -0.212 N 
ATOM      6  CZ  ARG D 557     -27.282  -2.240 -15.979  1.00 35.49     0.666 C 
ATOM      7  NH1 ARG D 557     -27.985  -3.059 -16.740  1.00 35.49    -0.235 N 
ATOM      8  NH2 ARG D 557     -26.288  -2.698 -15.275  1.00 35.49    -0.235 N 
ATOM      9  HH  ARG D 557     -28.643  -2.778 -17.213  1.00 35.49     0.174 HD
ATOM     10  HH  ARG D 557     -27.770  -3.888 -16.753  1.00 35.49     0.174 HD
ATOM     11  HH  ARG D 557     -25.847  -2.146 -14.798  1.00 35.49     0.174 HD
ATOM     12  HH  ARG D 557     -26.089  -3.522 -15.303  1.00 35.49     0.174 HD
ATOM     13  HE  ARG D 557     -27.083  -0.516 -15.330  1.00 35.49     0.178 HD
ENDBRANCH   4   5
ENDBRANCH   3   4
ENDBRANCH   2   3
ENDBRANCH   1   2
END_RES ARG D 557
BEGIN_RES GLU D 570
REMARK  3 active torsions:
REMARK  status: ('A' for Active; 'I' for Inactive)
REMARK    5  A    between atoms: CA   and  CB  
REMARK    6  A    between atoms: CB   and  CG  
REMARK    7  A    between atoms: CG   and  CD  
ROOT
ATOM     14  CA  GLU D 570     -18.033  -6.348 -13.375  1.00 32.92     0.160 C 
ENDROOT
BRANCH  14  15
ATOM     15  CB  GLU D 570     -19.500  -6.345 -13.794  1.00 32.92     0.043 C 
BRANCH  15  16
ATOM     16  CG  GLU D 570     -20.099  -7.643 -14.198  1.00 32.92     0.100 C 
BRANCH  16  17
ATOM     17  CD  GLU D 570     -20.812  -7.574 -15.529  1.00 32.92     0.185 C 
ATOM     18  OE1 GLU D 570     -21.164  -6.464 -15.970  1.00 32.92    -0.647 OA
ATOM     19  OE2 GLU D 570     -21.035  -8.645 -16.128  1.00 32.92    -0.647 OA
ENDBRANCH  16  17
ENDBRANCH  15  16
ENDBRANCH  14  15
END_RES GLU D 570
ENDMDL
MODEL 8
REMARK VINA RESULT:      -6.3      1.895      3.161
REMARK  16 active torsions:
REMARK  status: ('A' for Active; 'I' for Inactive)
REMARK    1  A    between atoms: C_2  and  C_3 
REMARK    2  A    between atoms: C_3  and  C_4 
REMARK    3  A    between atoms: C_4  and  C_5 
REMARK    4  A    between atoms: C_5  and  C_6 
REMARK    5  A    between atoms: C_6  and  C_7 
REMARK    6  A    between atoms: C_7  and  C_8 
REMARK    7  A    between atoms: C_8  and  C_9 
REMARK    8  A    between atoms: C_9  and  C_10 
REMARK    9  A    between atoms: C_10  and  C_11 
REMARK   10  A    between atoms: C_11  and  C_12 
REMARK   11  A    between atoms: C_12  and  O_14 
REMARK   12  A    between atoms: O_14  and  C_15 
REMARK   13  A    between atoms: C_15  and  C_16 
REMARK   14  A    between atoms: C_16  and  C_17 
REMARK   15  A    between atoms: C_16  and  O_19 
REMARK   16  A    between atoms: C_17  and  O_18 
ROOT
HETATM    1  C   UNL     1     -20.956  -4.058  -8.485  1.00  0.00     0.111 C 
ENDROOT
BRANCH   1   2
HETATM    2  C   UNL     1     -20.330  -4.451  -7.147  1.00  0.00     0.010 C 
BRANCH   2   3
HETATM    3  C   UNL     1     -19.773  -5.865  -7.168  1.00  0.00     0.000 C 
BRANCH   3   4
HETATM    4  C   UNL     1     -20.160  -6.596  -5.889  1.00  0.00     0.000 C 
BRANCH   4   5
HETATM    5  C   UNL     1     -20.968  -5.681  -4.983  1.00  0.00     0.000 C 
BRANCH   5   6
HETATM    6  C   UNL     1     -22.012  -6.483  -4.224  1.00  0.00     0.000 C 
BRANCH   6   7
HETATM    7  C   UNL     1     -21.798  -6.331  -2.728  1.00  0.00     0.000 C 
BRANCH   7   8
HETATM    8  C   UNL     1     -20.900  -7.443  -2.216  1.00  0.00     0.000 C 
BRANCH   8   9
HETATM    9  C   UNL     1     -21.697  -8.393  -1.337  1.00  0.00    -0.000 C 
BRANCH   9  10
HETATM   10  C   UNL     1     -22.492  -7.616  -0.299  1.00  0.00    -0.005 C 
HETATM   11  C   UNL     1     -22.063  -8.017   1.098  1.00  0.00     0.005 C 
ENDBRANCH   9  10
ENDBRANCH   8   9
ENDBRANCH   7   8
ENDBRANCH   6   7
ENDBRANCH   5   6
ENDBRANCH   4   5
ENDBRANCH   3   4
ENDBRANCH   2   3
ENDBRANCH   1   2
BRANCH   1  12
HETATM   12  C   UNL     1     -22.450  -4.307  -8.438  1.00  0.00     0.258 C 
HETATM   13  O   UNL     1     -23.106  -4.362  -7.420  1.00  0.00    -0.265 OA
BRANCH  12  14
HETATM   14  O   UNL     1     -22.926  -4.585  -9.691  1.00  0.00    -0.319 OA
BRANCH  14  15
HETATM   15  C   UNL     1     -23.479  -3.445 -10.372  1.00  0.00     0.212 C 
BRANCH  15  16
HETATM   16  C   UNL     1     -22.672  -2.985 -11.591  1.00  0.00     0.166 C 
BRANCH  16  17
HETATM   17  C   UNL     1     -22.142  -4.183 -12.383  1.00  0.00     0.198 C 
BRANCH  17  18
HETATM   18  O   UNL     1     -23.166  -5.137 -12.650  1.00  0.00    -0.398 OA
HETATM   19  H   UNL     1     -22.739  -5.916 -13.051  1.00  0.00     0.209 HD
ENDBRANCH  17  18
ENDBRANCH  16  17
BRANCH  16  20
HETATM   20  O   UNL     1     -23.472  -2.151 -12.445  1.00  0.00    -0.391 OA
HETATM   21  H   UNL     1     -24.410  -2.347 -12.282  1.00  0.00     0.210 HD
ENDBRANCH  16  20
ENDBRANCH  15  16
ENDBRANCH  14  15
ENDBRANCH  12  14
ENDBRANCH   1  12
TORSDOF 16
BEGIN_RES ARG D 557
REMARK  4 active torsions:
REMARK  status: ('A' for Active; 'I' for Inactive)
REMARK    1  A    between atoms: CA   and  CB  
REMARK    2  A    between atoms: CB   and  CG  
REMARK    3  A    between atoms: CG   and  CD  
REMARK    4  A    between atoms: CD   and  NE  
REMARK       I    between atoms: NE   and  CZ  
REMARK       I    between atoms: CZ   and  NH1 
REMARK       I    between atoms: CZ   and  NH2 
ROOT
ATOM      1  CA  ARG D 557     -26.217   2.705 -17.014  1.00 35.49     0.159 C 
ENDROOT
BRANCH   1   2
ATOM      2  CB  ARG D 557     -26.789   1.319 -17.183  1.00 35.49     0.034 C 
BRANCH   2   3
ATOM      3  CG  ARG D 557     -25.966   0.202 -16.705  1.00 35.49     0.027 C 
BRANCH   3   4
ATOM      4  CD  ARG D 557     -26.774  -0.862 -16.066  1.00 35.49     0.116 C 
BRANCH   4   5
ATOM      5  NE  ARG D 557     -25.992  -1.677 -15.175  1.00 35.49    -0.212 N 
ATOM      6  CZ  ARG D 557     -26.127  -2.972 -15.000  1.00 35.49     0.666 C 
ATOM      7  NH1 ARG D 557     -27.040  -3.682 -15.637  1.00 35.49    -0.235 N 
ATOM      8  NH2 ARG D 557     -25.315  -3.554 -14.166  1.00 35.49    -0.235 N 
ATOM      9  HH  ARG D 557     -27.583  -3.321 -16.193  1.00 35.49     0.174 HD
ATOM     10  HH  ARG D 557     -27.080  -4.525 -15.485  1.00 35.49     0.174 HD
ATOM     11  HH  ARG D 557     -24.731  -3.071 -13.774  1.00 35.49     0.174 HD
ATOM     12  HH  ARG D 557     -25.370  -4.389 -14.029  1.00 35.49     0.174 HD
ATOM     13  HE  ARG D 557     -25.428  -1.289 -14.670  1.00 35.49     0.178 HD
ENDBRANCH   4   5
ENDBRANCH   3   4
ENDBRANCH   2   3
ENDBRANCH   1   2
END_RES ARG D 557
BEGIN_RES GLU D 570
REMARK  3 active torsions:
REMARK  status: ('A' for Active; 'I' for Inactive)
REMARK    5  A    between atoms: CA   and  CB  
REMARK    6  A    between atoms: CB   and  CG  
REMARK    7  A    between atoms: CG   and  CD  
ROOT
ATOM     14  CA  GLU D 570     -18.033  -6.348 -13.375  1.00 32.92     0.160 C 
ENDROOT
BRANCH  14  15
ATOM     15  CB  GLU D 570     -19.500  -6.345 -13.794  1.00 32.92     0.043 C 
BRANCH  15  16
ATOM     16  CG  GLU D 570     -19.800  -6.146 -15.236  1.00 32.92     0.100 C 
BRANCH  16  17
ATOM     17  CD  GLU D 570     -21.266  -5.901 -15.504  1.00 32.92     0.185 C 
ATOM     18  OE1 GLU D 570     -22.111  -6.659 -14.991  1.00 32.92    -0.647 OA
ATOM     19  OE2 GLU D 570     -21.573  -4.949 -16.250  1.00 32.92    -0.647 OA
ENDBRANCH  16  17
ENDBRANCH  15  16
ENDBRANCH  14  15
END_RES GLU D 570
ENDMDL
MODEL 9
REMARK VINA RESULT:      -6.2      5.050      9.786
REMARK  16 active torsions:
REMARK  status: ('A' for Active; 'I' for Inactive)
REMARK    1  A    between atoms: C_2  and  C_3 
REMARK    2  A    between atoms: C_3  and  C_4 
REMARK    3  A    between atoms: C_4  and  C_5 
REMARK    4  A    between atoms: C_5  and  C_6 
REMARK    5  A    between atoms: C_6  and  C_7 
REMARK    6  A    between atoms: C_7  and  C_8 
REMARK    7  A    between atoms: C_8  and  C_9 
REMARK    8  A    between atoms: C_9  and  C_10 
REMARK    9  A    between atoms: C_10  and  C_11 
REMARK   10  A    between atoms: C_11  and  C_12 
REMARK   11  A    between atoms: C_12  and  O_14 
REMARK   12  A    between atoms: O_14  and  C_15 
REMARK   13  A    between atoms: C_15  and  C_16 
REMARK   14  A    between atoms: C_16  and  C_17 
REMARK   15  A    between atoms: C_16  and  O_19 
REMARK   16  A    between atoms: C_17  and  O_18 
ROOT
HETATM    1  C   UNL     1     -26.744  -7.102 -20.417  1.00  0.00     0.111 C 
ENDROOT
BRANCH   1   2
HETATM    2  C   UNL     1     -27.472  -6.283 -19.352  1.00  0.00     0.010 C 
BRANCH   2   3
HETATM    3  C   UNL     1     -28.846  -6.849 -19.032  1.00  0.00     0.000 C 
BRANCH   3   4
HETATM    4  C   UNL     1     -28.991  -7.046 -17.529  1.00  0.00     0.000 C 
BRANCH   4   5
HETATM    5  C   UNL     1     -30.451  -7.255 -17.163  1.00  0.00     0.000 C 
BRANCH   5   6
HETATM    6  C   UNL     1     -31.230  -5.965 -17.360  1.00  0.00     0.000 C 
BRANCH   6   7
HETATM    7  C   UNL     1     -30.527  -4.820 -16.652  1.00  0.00     0.000 C 
BRANCH   7   8
HETATM    8  C   UNL     1     -30.200  -3.718 -17.645  1.00  0.00     0.000 C 
BRANCH   8   9
HETATM    9  C   UNL     1     -28.984  -2.936 -17.174  1.00  0.00    -0.000 C 
BRANCH   9  10
HETATM   10  C   UNL     1     -27.903  -3.884 -16.677  1.00  0.00    -0.005 C 
HETATM   11  C   UNL     1     -27.020  -3.187 -15.663  1.00  0.00     0.005 C 
ENDBRANCH   9  10
ENDBRANCH   8   9
ENDBRANCH   7   8
ENDBRANCH   6   7
ENDBRANCH   5   6
ENDBRANCH   4   5
ENDBRANCH   3   4
ENDBRANCH   2   3
ENDBRANCH   1   2
BRANCH   1  12
HETATM   12  C   UNL     1     -25.249  -7.024 -20.183  1.00  0.00     0.258 C 
HETATM   13  O   UNL     1     -24.410  -7.450 -20.948  1.00  0.00    -0.265 OA
BRANCH  12  14
HETATM   14  O   UNL     1     -24.987  -6.523 -18.936  1.00  0.00    -0.319 OA
BRANCH  14  15
HETATM   15  C   UNL     1     -23.904  -7.183 -18.256  1.00  0.00     0.212 C 
BRANCH  15  16
HETATM   16  C   UNL     1     -24.071  -7.266 -16.735  1.00  0.00     0.166 C 
BRANCH  16  17
HETATM   17  C   UNL     1     -25.392  -6.633 -16.292  1.00  0.00     0.198 C 
BRANCH  17  18
HETATM   18  O   UNL     1     -26.194  -7.545 -15.547  1.00  0.00    -0.398 OA
HETATM   19  H   UNL     1     -26.834  -7.942 -16.166  1.00  0.00     0.209 HD
ENDBRANCH  17  18
ENDBRANCH  16  17
BRANCH  16  20
HETATM   20  O   UNL     1     -24.012  -8.632 -16.292  1.00  0.00    -0.391 OA
HETATM   21  H   UNL     1     -24.751  -9.121 -16.690  1.00  0.00     0.210 HD
ENDBRANCH  16  20
ENDBRANCH  15  16
ENDBRANCH  14  15
ENDBRANCH  12  14
ENDBRANCH   1  12
TORSDOF 16
BEGIN_RES ARG D 557
REMARK  4 active torsions:
REMARK  status: ('A' for Active; 'I' for Inactive)
REMARK    1  A    between atoms: CA   and  CB  
REMARK    2  A    between atoms: CB   and  CG  
REMARK    3  A    between atoms: CG   and  CD  
REMARK    4  A    between atoms: CD   and  NE  
REMARK       I    between atoms: NE   and  CZ  
REMARK       I    between atoms: CZ   and  NH1 
REMARK       I    between atoms: CZ   and  NH2 
ROOT
ATOM      1  CA  ARG D 557     -26.217   2.705 -17.014  1.00 35.49     0.159 C 
ENDROOT
BRANCH   1   2
ATOM      2  CB  ARG D 557     -26.789   1.319 -17.183  1.00 35.49     0.034 C 
BRANCH   2   3
ATOM      3  CG  ARG D 557     -25.841   0.200 -17.117  1.00 35.49     0.027 C 
BRANCH   3   4
ATOM      4  CD  ARG D 557     -24.736   0.453 -16.164  1.00 35.49     0.116 C 
BRANCH   4   5
ATOM      5  NE  ARG D 557     -24.809  -0.402 -15.009  1.00 35.49    -0.212 N 
ATOM      6  CZ  ARG D 557     -23.954  -1.351 -14.700  1.00 35.49     0.666 C 
ATOM      7  NH1 ARG D 557     -22.908  -1.636 -15.454  1.00 35.49    -0.235 N 
ATOM      8  NH2 ARG D 557     -24.165  -2.015 -13.601  1.00 35.49    -0.235 N 
ATOM      9  HH  ARG D 557     -22.749  -1.211 -16.181  1.00 35.49     0.174 HD
ATOM     10  HH  ARG D 557     -22.383  -2.264 -15.201  1.00 35.49     0.174 HD
ATOM     11  HH  ARG D 557     -24.844  -1.804 -13.130  1.00 35.49     0.174 HD
ATOM     12  HH  ARG D 557     -23.633  -2.632 -13.366  1.00 35.49     0.174 HD
ATOM     13  HE  ARG D 557     -25.491  -0.336 -14.506  1.00 35.49     0.178 HD
ENDBRANCH   4   5
ENDBRANCH   3   4
ENDBRANCH   2   3
ENDBRANCH   1   2
END_RES ARG D 557
BEGIN_RES GLU D 570
REMARK  3 active torsions:
REMARK  status: ('A' for Active; 'I' for Inactive)
REMARK    5  A    between atoms: CA   and  CB  
REMARK    6  A    between atoms: CB   and  CG  
REMARK    7  A    between atoms: CG   and  CD  
ROOT
ATOM     14  CA  GLU D 570     -18.033  -6.348 -13.375  1.00 32.92     0.160 C 
ENDROOT
BRANCH  14  15
ATOM     15  CB  GLU D 570     -19.500  -6.345 -13.794  1.00 32.92     0.043 C 
BRANCH  15  16
ATOM     16  CG  GLU D 570     -20.444  -5.540 -12.976  1.00 32.92     0.100 C 
BRANCH  16  17
ATOM     17  CD  GLU D 570     -21.654  -5.080 -13.755  1.00 32.92     0.185 C 
ATOM     18  OE1 GLU D 570     -21.628  -5.131 -15.000  1.00 32.92    -0.647 OA
ATOM     19  OE2 GLU D 570     -22.632  -4.648 -13.114  1.00 32.92    -0.647 OA
ENDBRANCH  16  17
ENDBRANCH  15  16
ENDBRANCH  14  15
END_RES GLU D 570
ENDMDL
