MODEL 1
REMARK VINA RESULT:      -6.4      0.000      0.000
REMARK  18 active torsions:
REMARK  status: ('A' for Active; 'I' for Inactive)
REMARK    1  A    between atoms: C_1  and  C_2 
REMARK    2  A    between atoms: C_1  and  O_34 
REMARK    3  A    between atoms: C_3  and  O_33 
REMARK    4  A    between atoms: C_4  and  O_32 
REMARK    5  A    between atoms: C_5  and  O_31 
REMARK    6  A    between atoms: C_6  and  O_8 
REMARK    7  A    between atoms: O_8  and  C_9 
REMARK    8  A    between atoms: C_10  and  C_29 
REMARK    9  A    between atoms: C_12  and  O_17 
REMARK   10  A    between atoms: C_13  and  O_16 
REMARK   11  A    between atoms: C_14  and  O_15 
REMARK   12  A    between atoms: O_17  and  C_18 
REMARK   13  A    between atoms: C_19  and  C_27 
REMARK   14  A    between atoms: C_21  and  O_26 
REMARK   15  A    between atoms: C_22  and  O_25 
REMARK   16  A    between atoms: C_23  and  O_24 
REMARK   17  A    between atoms: C_27  and  O_28 
REMARK   18  A    between atoms: C_29  and  O_30 
ROOT
HETATM    1  C   UNL     1     -20.970  -4.746  -7.685  1.00  0.00     0.187 C 
HETATM    2  C   UNL     1     -22.432  -4.722  -8.180  1.00  0.00     0.180 C 
HETATM    3  O   UNL     1     -22.561  -5.386  -9.446  1.00  0.00    -0.348 OA
HETATM    4  C   UNL     1     -21.744  -4.932 -10.523  1.00  0.00     0.292 C 
HETATM    5  C   UNL     1     -20.265  -4.610 -10.118  1.00  0.00     0.204 C 
HETATM    6  C   UNL     1     -20.105  -4.008  -8.713  1.00  0.00     0.183 C 
ENDROOT
BRANCH   1   7
HETATM    7  O   UNL     1     -20.624  -6.136  -7.497  1.00  0.00    -0.348 OA
BRANCH   7   8
HETATM    8  C   UNL     1     -21.064  -6.874  -6.352  1.00  0.00     0.292 C 
HETATM    9  C   UNL     1     -21.564  -6.040  -5.140  1.00  0.00     0.204 C 
HETATM   10  C   UNL     1     -22.019  -6.995  -4.027  1.00  0.00     0.183 C 
HETATM   11  C   UNL     1     -20.916  -8.011  -3.676  1.00  0.00     0.180 C 
HETATM   12  C   UNL     1     -20.471  -8.772  -4.934  1.00  0.00     0.179 C 
HETATM   13  O   UNL     1     -20.102  -7.872  -6.010  1.00  0.00    -0.348 OA
BRANCH   9  14
HETATM   14  O   UNL     1     -20.590  -5.152  -4.565  1.00  0.00    -0.388 OA
HETATM   15  H   UNL     1     -20.696  -4.270  -4.995  1.00  0.00     0.210 HD
ENDBRANCH   9  14
BRANCH  10  16
HETATM   16  O   UNL     1     -22.384  -6.256  -2.852  1.00  0.00    -0.390 OA
HETATM   17  H   UNL     1     -23.352  -6.342  -2.747  1.00  0.00     0.210 HD
ENDBRANCH  10  16
BRANCH  11  18
HETATM   18  O   UNL     1     -19.757  -7.359  -3.136  1.00  0.00    -0.390 OA
HETATM   19  H   UNL     1     -20.024  -6.473  -2.827  1.00  0.00     0.210 HD
ENDBRANCH  11  18
BRANCH  12  20
HETATM   20  C   UNL     1     -21.506  -9.808  -5.394  1.00  0.00     0.198 C 
BRANCH  20  21
HETATM   21  O   UNL     1     -20.962 -10.655  -6.400  1.00  0.00    -0.398 OA
HETATM   22  H   UNL     1     -20.644 -11.464  -5.958  1.00  0.00     0.209 HD
ENDBRANCH  20  21
ENDBRANCH  12  20
ENDBRANCH   7   8
ENDBRANCH   1   7
BRANCH   2  23
HETATM   23  C   UNL     1     -23.108  -3.333  -8.139  1.00  0.00     0.198 C 
BRANCH  23  24
HETATM   24  O   UNL     1     -24.484  -3.346  -8.506  1.00  0.00    -0.398 OA
HETATM   25  H   UNL     1     -24.659  -4.180  -8.984  1.00  0.00     0.209 HD
ENDBRANCH  23  24
ENDBRANCH   2  23
BRANCH   6  26
HETATM   26  O   UNL     1     -18.744  -3.948  -8.259  1.00  0.00    -0.390 OA
HETATM   27  H   UNL     1     -18.533  -4.829  -7.880  1.00  0.00     0.210 HD
ENDBRANCH   6  26
BRANCH   5  28
HETATM   28  O   UNL     1     -19.601  -3.795 -11.092  1.00  0.00    -0.388 OA
HETATM   29  H   UNL     1     -19.672  -4.266 -11.942  1.00  0.00     0.210 HD
ENDBRANCH   5  28
BRANCH   4  30
HETATM   30  O   UNL     1     -22.406  -3.924 -11.328  1.00  0.00    -0.348 OA
BRANCH  30  31
HETATM   31  C   UNL     1     -23.422  -4.496 -12.216  1.00  0.00     0.187 C 
HETATM   32  C   UNL     1     -22.877  -4.900 -13.612  1.00  0.00     0.180 C 
HETATM   33  O   UNL     1     -22.629  -3.759 -14.448  1.00  0.00    -0.349 OA
HETATM   34  C   UNL     1     -23.708  -2.872 -14.662  1.00  0.00     0.288 C 
HETATM   35  C   UNL     1     -24.346  -2.364 -13.356  1.00  0.00     0.204 C 
HETATM   36  C   UNL     1     -24.605  -3.520 -12.371  1.00  0.00     0.183 C 
BRANCH  32  37
HETATM   37  C   UNL     1     -23.780  -5.944 -14.301  1.00  0.00     0.198 C 
BRANCH  37  38
HETATM   38  O   UNL     1     -23.477  -6.014 -15.691  1.00  0.00    -0.398 OA
HETATM   39  H   UNL     1     -23.757  -5.156 -16.069  1.00  0.00     0.209 HD
ENDBRANCH  37  38
ENDBRANCH  32  37
BRANCH  34  40
HETATM   40  O   UNL     1     -24.672  -3.446 -15.540  1.00  0.00    -0.369 OA
HETATM   41  H   UNL     1     -24.208  -3.741 -16.345  1.00  0.00     0.212 HD
ENDBRANCH  34  40
BRANCH  35  42
HETATM   42  O   UNL     1     -25.602  -1.724 -13.668  1.00  0.00    -0.388 OA
HETATM   43  H   UNL     1     -26.306  -2.398 -13.659  1.00  0.00     0.210 HD
ENDBRANCH  35  42
BRANCH  36  44
HETATM   44  O   UNL     1     -25.002  -3.018 -11.086  1.00  0.00    -0.390 OA
HETATM   45  H   UNL     1     -25.887  -2.621 -11.203  1.00  0.00     0.210 HD
ENDBRANCH  36  44
ENDBRANCH  30  31
ENDBRANCH   4  30
TORSDOF 18
BEGIN_RES ARG D 557
REMARK  4 active torsions:
REMARK  status: ('A' for Active; 'I' for Inactive)
REMARK    1  A    between atoms: CA   and  CB  
REMARK    2  A    between atoms: CB   and  CG  
REMARK    3  A    between atoms: CG   and  CD  
REMARK    4  A    between atoms: CD   and  NE  
REMARK       I    between atoms: NE   and  CZ  
REMARK       I    between atoms: CZ   and  NH1 
REMARK       I    between atoms: CZ   and  NH2 
ROOT
ATOM      1  CA  ARG D 557     -26.217   2.705 -17.014  1.00 35.49     0.159 C 
ENDROOT
BRANCH   1   2
ATOM      2  CB  ARG D 557     -26.789   1.319 -17.183  1.00 35.49     0.034 C 
BRANCH   2   3
ATOM      3  CG  ARG D 557     -28.228   1.227 -17.461  1.00 35.49     0.027 C 
BRANCH   3   4
ATOM      4  CD  ARG D 557     -28.926   0.319 -16.522  1.00 35.49     0.116 C 
BRANCH   4   5
ATOM      5  NE  ARG D 557     -29.238  -0.949 -17.126  1.00 35.49    -0.212 N 
ATOM      6  CZ  ARG D 557     -28.555  -2.061 -16.973  1.00 35.49     0.666 C 
ATOM      7  NH1 ARG D 557     -27.464  -2.127 -16.233  1.00 35.49    -0.235 N 
ATOM      8  NH2 ARG D 557     -28.996  -3.125 -17.580  1.00 35.49    -0.235 N 
ATOM      9  HH  ARG D 557     -27.157  -1.440 -15.824  1.00 35.49     0.174 HD
ATOM     10  HH  ARG D 557     -27.061  -2.881 -16.168  1.00 35.49     0.174 HD
ATOM     11  HH  ARG D 557     -29.707  -3.054 -18.045  1.00 35.49     0.174 HD
ATOM     12  HH  ARG D 557     -28.584  -3.862 -17.502  1.00 35.49     0.174 HD
ATOM     13  HE  ARG D 557     -29.885  -0.981 -17.678  1.00 35.49     0.178 HD
ENDBRANCH   4   5
ENDBRANCH   3   4
ENDBRANCH   2   3
ENDBRANCH   1   2
END_RES ARG D 557
BEGIN_RES GLU D 570
REMARK  3 active torsions:
REMARK  status: ('A' for Active; 'I' for Inactive)
REMARK    5  A    between atoms: CA   and  CB  
REMARK    6  A    between atoms: CB   and  CG  
REMARK    7  A    between atoms: CG   and  CD  
ROOT
ATOM     14  CA  GLU D 570     -18.033  -6.348 -13.375  1.00 32.92     0.160 C 
ENDROOT
BRANCH  14  15
ATOM     15  CB  GLU D 570     -19.500  -6.345 -13.794  1.00 32.92     0.043 C 
BRANCH  15  16
ATOM     16  CG  GLU D 570     -20.093  -7.639 -14.219  1.00 32.92     0.100 C 
BRANCH  16  17
ATOM     17  CD  GLU D 570     -20.561  -7.629 -15.656  1.00 32.92     0.185 C 
ATOM     18  OE1 GLU D 570     -20.821  -8.712 -16.215  1.00 32.92    -0.647 OA
ATOM     19  OE2 GLU D 570     -20.652  -6.528 -16.234  1.00 32.92    -0.647 OA
ENDBRANCH  16  17
ENDBRANCH  15  16
ENDBRANCH  14  15
END_RES GLU D 570
ENDMDL
MODEL 2
REMARK VINA RESULT:      -6.3      4.190      9.654
REMARK  18 active torsions:
REMARK  status: ('A' for Active; 'I' for Inactive)
REMARK    1  A    between atoms: C_1  and  C_2 
REMARK    2  A    between atoms: C_1  and  O_34 
REMARK    3  A    between atoms: C_3  and  O_33 
REMARK    4  A    between atoms: C_4  and  O_32 
REMARK    5  A    between atoms: C_5  and  O_31 
REMARK    6  A    between atoms: C_6  and  O_8 
REMARK    7  A    between atoms: O_8  and  C_9 
REMARK    8  A    between atoms: C_10  and  C_29 
REMARK    9  A    between atoms: C_12  and  O_17 
REMARK   10  A    between atoms: C_13  and  O_16 
REMARK   11  A    between atoms: C_14  and  O_15 
REMARK   12  A    between atoms: O_17  and  C_18 
REMARK   13  A    between atoms: C_19  and  C_27 
REMARK   14  A    between atoms: C_21  and  O_26 
REMARK   15  A    between atoms: C_22  and  O_25 
REMARK   16  A    between atoms: C_23  and  O_24 
REMARK   17  A    between atoms: C_27  and  O_28 
REMARK   18  A    between atoms: C_29  and  O_30 
ROOT
HETATM    1  C   UNL     1     -26.592  -6.459 -16.687  1.00  0.00     0.187 C 
HETATM    2  C   UNL     1     -27.293  -5.229 -16.071  1.00  0.00     0.180 C 
HETATM    3  O   UNL     1     -26.356  -4.170 -15.822  1.00  0.00    -0.348 OA
HETATM    4  C   UNL     1     -25.223  -4.461 -15.007  1.00  0.00     0.292 C 
HETATM    5  C   UNL     1     -24.556  -5.847 -15.302  1.00  0.00     0.204 C 
HETATM    6  C   UNL     1     -25.543  -6.961 -15.688  1.00  0.00     0.183 C 
ENDROOT
BRANCH   1   7
HETATM    7  O   UNL     1     -26.054  -6.031 -17.957  1.00  0.00    -0.348 OA
BRANCH   7   8
HETATM    8  C   UNL     1     -25.757  -6.964 -19.003  1.00  0.00     0.292 C 
HETATM    9  C   UNL     1     -24.254  -7.243 -19.276  1.00  0.00     0.204 C 
HETATM   10  C   UNL     1     -24.132  -8.281 -20.401  1.00  0.00     0.183 C 
HETATM   11  C   UNL     1     -24.926  -7.849 -21.648  1.00  0.00     0.180 C 
HETATM   12  C   UNL     1     -26.392  -7.576 -21.280  1.00  0.00     0.179 C 
HETATM   13  O   UNL     1     -26.508  -6.645 -20.174  1.00  0.00    -0.348 OA
BRANCH   9  14
HETATM   14  O   UNL     1     -23.480  -6.097 -19.671  1.00  0.00    -0.388 OA
HETATM   15  H   UNL     1     -23.785  -5.823 -20.569  1.00  0.00     0.210 HD
ENDBRANCH   9  14
BRANCH  10  16
HETATM   16  O   UNL     1     -22.755  -8.480 -20.752  1.00  0.00    -0.390 OA
HETATM   17  H   UNL     1     -22.217  -8.118 -20.022  1.00  0.00     0.210 HD
ENDBRANCH  10  16
BRANCH  11  18
HETATM   18  O   UNL     1     -24.393  -6.644 -22.215  1.00  0.00    -0.390 OA
HETATM   19  H   UNL     1     -24.978  -5.905 -21.962  1.00  0.00     0.210 HD
ENDBRANCH  11  18
BRANCH  12  20
HETATM   20  C   UNL     1     -27.185  -8.863 -21.021  1.00  0.00     0.198 C 
BRANCH  20  21
HETATM   21  O   UNL     1     -28.349  -8.914 -21.838  1.00  0.00    -0.398 OA
HETATM   22  H   UNL     1     -28.213  -9.626 -22.492  1.00  0.00     0.209 HD
ENDBRANCH  20  21
ENDBRANCH  12  20
ENDBRANCH   7   8
ENDBRANCH   1   7
BRANCH   2  23
HETATM   23  C   UNL     1     -28.209  -5.540 -14.866  1.00  0.00     0.198 C 
BRANCH  23  24
HETATM   24  O   UNL     1     -29.600  -5.469 -15.160  1.00  0.00    -0.398 OA
HETATM   25  H   UNL     1     -29.708  -5.564 -16.126  1.00  0.00     0.209 HD
ENDBRANCH  23  24
ENDBRANCH   2  23
BRANCH   6  26
HETATM   26  O   UNL     1     -24.910  -8.147 -16.193  1.00  0.00    -0.390 OA
HETATM   27  H   UNL     1     -24.972  -8.106 -17.172  1.00  0.00     0.210 HD
ENDBRANCH   6  26
BRANCH   5  28
HETATM   28  O   UNL     1     -23.705  -6.279 -14.234  1.00  0.00    -0.388 OA
HETATM   29  H   UNL     1     -24.288  -6.482 -13.479  1.00  0.00     0.210 HD
ENDBRANCH   5  28
BRANCH   4  30
HETATM   30  O   UNL     1     -25.462  -4.168 -13.608  1.00  0.00    -0.348 OA
BRANCH  30  31
HETATM   31  C   UNL     1     -24.713  -2.996 -13.145  1.00  0.00     0.187 C 
HETATM   32  C   UNL     1     -23.420  -2.720 -13.958  1.00  0.00     0.180 C 
HETATM   33  O   UNL     1     -22.373  -3.651 -13.643  1.00  0.00    -0.349 OA
HETATM   34  C   UNL     1     -21.997  -3.762 -12.286  1.00  0.00     0.288 C 
HETATM   35  C   UNL     1     -23.183  -4.058 -11.349  1.00  0.00     0.204 C 
HETATM   36  C   UNL     1     -24.379  -3.133 -11.648  1.00  0.00     0.183 C 
BRANCH  32  37
HETATM   37  C   UNL     1     -22.958  -1.254 -13.823  1.00  0.00     0.198 C 
BRANCH  37  38
HETATM   38  O   UNL     1     -23.778  -0.406 -14.619  1.00  0.00    -0.398 OA
HETATM   39  H   UNL     1     -24.665  -0.819 -14.624  1.00  0.00     0.209 HD
ENDBRANCH  37  38
ENDBRANCH  32  37
BRANCH  34  40
HETATM   40  O   UNL     1     -21.257  -2.618 -11.868  1.00  0.00    -0.369 OA
HETATM   41  H   UNL     1     -21.640  -1.837 -12.305  1.00  0.00     0.212 HD
ENDBRANCH  34  40
BRANCH  35  42
HETATM   42  O   UNL     1     -22.761  -3.852  -9.983  1.00  0.00    -0.388 OA
HETATM   43  H   UNL     1     -23.139  -4.560  -9.430  1.00  0.00     0.210 HD
ENDBRANCH  35  42
BRANCH  36  44
HETATM   44  O   UNL     1     -25.542  -3.551 -10.919  1.00  0.00    -0.390 OA
HETATM   45  H   UNL     1     -26.291  -3.025 -11.263  1.00  0.00     0.210 HD
ENDBRANCH  36  44
ENDBRANCH  30  31
ENDBRANCH   4  30
TORSDOF 18
BEGIN_RES ARG D 557
REMARK  4 active torsions:
REMARK  status: ('A' for Active; 'I' for Inactive)
REMARK    1  A    between atoms: CA   and  CB  
REMARK    2  A    between atoms: CB   and  CG  
REMARK    3  A    between atoms: CG   and  CD  
REMARK    4  A    between atoms: CD   and  NE  
REMARK       I    between atoms: NE   and  CZ  
REMARK       I    between atoms: CZ   and  NH1 
REMARK       I    between atoms: CZ   and  NH2 
ROOT
ATOM      1  CA  ARG D 557     -26.217   2.705 -17.014  1.00 35.49     0.159 C 
ENDROOT
BRANCH   1   2
ATOM      2  CB  ARG D 557     -26.789   1.319 -17.183  1.00 35.49     0.034 C 
BRANCH   2   3
ATOM      3  CG  ARG D 557     -28.161   1.229 -17.696  1.00 35.49     0.027 C 
BRANCH   3   4
ATOM      4  CD  ARG D 557     -29.068   0.525 -16.761  1.00 35.49     0.116 C 
BRANCH   4   5
ATOM      5  NE  ARG D 557     -29.369  -0.812 -17.200  1.00 35.49    -0.212 N 
ATOM      6  CZ  ARG D 557     -28.651  -1.883 -16.947  1.00 35.49     0.666 C 
ATOM      7  NH1 ARG D 557     -27.530  -1.838 -16.251  1.00 35.49    -0.235 N 
ATOM      8  NH2 ARG D 557     -29.086  -3.020 -17.408  1.00 35.49    -0.235 N 
ATOM      9  HH  ARG D 557     -27.226  -1.101 -15.936  1.00 35.49     0.174 HD
ATOM     10  HH  ARG D 557     -27.105  -2.569 -16.115  1.00 35.49     0.174 HD
ATOM     11  HH  ARG D 557     -29.816  -3.021 -17.848  1.00 35.49     0.174 HD
ATOM     12  HH  ARG D 557     -28.652  -3.734 -17.262  1.00 35.49     0.174 HD
ATOM     13  HE  ARG D 557     -30.035  -0.923 -17.717  1.00 35.49     0.178 HD
ENDBRANCH   4   5
ENDBRANCH   3   4
ENDBRANCH   2   3
ENDBRANCH   1   2
END_RES ARG D 557
BEGIN_RES GLU D 570
REMARK  3 active torsions:
REMARK  status: ('A' for Active; 'I' for Inactive)
REMARK    5  A    between atoms: CA   and  CB  
REMARK    6  A    between atoms: CB   and  CG  
REMARK    7  A    between atoms: CG   and  CD  
ROOT
ATOM     14  CA  GLU D 570     -18.033  -6.348 -13.375  1.00 32.92     0.160 C 
ENDROOT
BRANCH  14  15
ATOM     15  CB  GLU D 570     -19.500  -6.345 -13.794  1.00 32.92     0.043 C 
BRANCH  15  16
ATOM     16  CG  GLU D 570     -20.022  -7.562 -14.469  1.00 32.92     0.100 C 
BRANCH  16  17
ATOM     17  CD  GLU D 570     -20.829  -7.249 -15.707  1.00 32.92     0.185 C 
ATOM     18  OE1 GLU D 570     -20.504  -6.272 -16.410  1.00 32.92    -0.647 OA
ATOM     19  OE2 GLU D 570     -21.806  -7.977 -15.968  1.00 32.92    -0.647 OA
ENDBRANCH  16  17
ENDBRANCH  15  16
ENDBRANCH  14  15
END_RES GLU D 570
ENDMDL
MODEL 3
REMARK VINA RESULT:      -6.2      1.036      2.025
REMARK  18 active torsions:
REMARK  status: ('A' for Active; 'I' for Inactive)
REMARK    1  A    between atoms: C_1  and  C_2 
REMARK    2  A    between atoms: C_1  and  O_34 
REMARK    3  A    between atoms: C_3  and  O_33 
REMARK    4  A    between atoms: C_4  and  O_32 
REMARK    5  A    between atoms: C_5  and  O_31 
REMARK    6  A    between atoms: C_6  and  O_8 
REMARK    7  A    between atoms: O_8  and  C_9 
REMARK    8  A    between atoms: C_10  and  C_29 
REMARK    9  A    between atoms: C_12  and  O_17 
REMARK   10  A    between atoms: C_13  and  O_16 
REMARK   11  A    between atoms: C_14  and  O_15 
REMARK   12  A    between atoms: O_17  and  C_18 
REMARK   13  A    between atoms: C_19  and  C_27 
REMARK   14  A    between atoms: C_21  and  O_26 
REMARK   15  A    between atoms: C_22  and  O_25 
REMARK   16  A    between atoms: C_23  and  O_24 
REMARK   17  A    between atoms: C_27  and  O_28 
REMARK   18  A    between atoms: C_29  and  O_30 
ROOT
HETATM    1  C   UNL     1     -20.954  -4.950  -7.057  1.00  0.00     0.187 C 
HETATM    2  C   UNL     1     -22.398  -4.821  -7.591  1.00  0.00     0.180 C 
HETATM    3  O   UNL     1     -22.546  -5.494  -8.850  1.00  0.00    -0.348 OA
HETATM    4  C   UNL     1     -21.670  -5.121  -9.911  1.00  0.00     0.292 C 
HETATM    5  C   UNL     1     -20.181  -4.908  -9.473  1.00  0.00     0.204 C 
HETATM    6  C   UNL     1     -20.010  -4.298  -8.074  1.00  0.00     0.183 C 
ENDROOT
BRANCH   1   7
HETATM    7  O   UNL     1     -20.722  -6.359  -6.841  1.00  0.00    -0.348 OA
BRANCH   7   8
HETATM    8  C   UNL     1     -20.616  -6.911  -5.524  1.00  0.00     0.292 C 
HETATM    9  C   UNL     1     -19.802  -8.227  -5.388  1.00  0.00     0.204 C 
HETATM   10  C   UNL     1     -19.773  -8.649  -3.911  1.00  0.00     0.183 C 
HETATM   11  C   UNL     1     -21.195  -8.729  -3.325  1.00  0.00     0.180 C 
HETATM   12  C   UNL     1     -21.930  -7.395  -3.523  1.00  0.00     0.179 C 
HETATM   13  O   UNL     1     -21.902  -6.961  -4.907  1.00  0.00    -0.348 OA
BRANCH   9  14
HETATM   14  O   UNL     1     -20.312  -9.343  -6.138  1.00  0.00    -0.388 OA
HETATM   15  H   UNL     1     -20.838  -9.906  -5.521  1.00  0.00     0.210 HD
ENDBRANCH   9  14
BRANCH  10  16
HETATM   16  O   UNL     1     -19.121  -9.920  -3.766  1.00  0.00    -0.390 OA
HETATM   17  H   UNL     1     -19.510 -10.520  -4.432  1.00  0.00     0.210 HD
ENDBRANCH  10  16
BRANCH  11  18
HETATM   18  O   UNL     1     -21.972  -9.747  -3.973  1.00  0.00    -0.390 OA
HETATM   19  H   UNL     1     -21.678  -9.808  -4.901  1.00  0.00     0.210 HD
ENDBRANCH  11  18
BRANCH  12  20
HETATM   20  C   UNL     1     -21.426  -6.297  -2.577  1.00  0.00     0.198 C 
BRANCH  20  21
HETATM   21  O   UNL     1     -22.506  -5.712  -1.858  1.00  0.00    -0.398 OA
HETATM   22  H   UNL     1     -22.867  -4.994  -2.412  1.00  0.00     0.209 HD
ENDBRANCH  20  21
ENDBRANCH  12  20
ENDBRANCH   7   8
ENDBRANCH   1   7
BRANCH   2  23
HETATM   23  C   UNL     1     -22.964  -3.383  -7.588  1.00  0.00     0.198 C 
BRANCH  23  24
HETATM   24  O   UNL     1     -24.183  -3.239  -8.309  1.00  0.00    -0.398 OA
HETATM   25  H   UNL     1     -24.826  -3.877  -7.943  1.00  0.00     0.209 HD
ENDBRANCH  23  24
ENDBRANCH   2  23
BRANCH   6  26
HETATM   26  O   UNL     1     -18.660  -4.336  -7.585  1.00  0.00    -0.390 OA
HETATM   27  H   UNL     1     -18.265  -5.176  -7.907  1.00  0.00     0.210 HD
ENDBRANCH   6  26
BRANCH   5  28
HETATM   28  O   UNL     1     -19.432  -4.164 -10.441  1.00  0.00    -0.388 OA
HETATM   29  H   UNL     1     -19.310  -3.270 -10.070  1.00  0.00     0.210 HD
ENDBRANCH   5  28
BRANCH   4  30
HETATM   30  O   UNL     1     -22.231  -4.079 -10.748  1.00  0.00    -0.348 OA
BRANCH  30  31
HETATM   31  C   UNL     1     -23.217  -4.596 -11.701  1.00  0.00     0.187 C 
HETATM   32  C   UNL     1     -22.592  -5.152 -13.008  1.00  0.00     0.180 C 
HETATM   33  O   UNL     1     -22.136  -4.105 -13.879  1.00  0.00    -0.349 OA
HETATM   34  C   UNL     1     -23.080  -3.122 -14.253  1.00  0.00     0.288 C 
HETATM   35  C   UNL     1     -23.777  -2.460 -13.050  1.00  0.00     0.204 C 
HETATM   36  C   UNL     1     -24.259  -3.510 -12.032  1.00  0.00     0.183 C 
BRANCH  32  37
HETATM   37  C   UNL     1     -23.540  -6.136 -13.725  1.00  0.00     0.198 C 
BRANCH  37  38
HETATM   38  O   UNL     1     -23.193  -6.236 -15.103  1.00  0.00    -0.398 OA
HETATM   39  H   UNL     1     -23.330  -7.173 -15.346  1.00  0.00     0.209 HD
ENDBRANCH  37  38
ENDBRANCH  32  37
BRANCH  34  40
HETATM   40  O   UNL     1     -24.016  -3.647 -15.191  1.00  0.00    -0.369 OA
HETATM   41  H   UNL     1     -23.712  -4.534 -15.454  1.00  0.00     0.212 HD
ENDBRANCH  34  40
BRANCH  35  42
HETATM   42  O   UNL     1     -24.916  -1.710 -13.525  1.00  0.00    -0.388 OA
HETATM   43  H   UNL     1     -25.146  -2.024 -14.418  1.00  0.00     0.210 HD
ENDBRANCH  35  42
BRANCH  36  44
HETATM   44  O   UNL     1     -24.717  -2.881 -10.825  1.00  0.00    -0.390 OA
HETATM   45  H   UNL     1     -24.211  -2.050 -10.735  1.00  0.00     0.210 HD
ENDBRANCH  36  44
ENDBRANCH  30  31
ENDBRANCH   4  30
TORSDOF 18
BEGIN_RES ARG D 557
REMARK  4 active torsions:
REMARK  status: ('A' for Active; 'I' for Inactive)
REMARK    1  A    between atoms: CA   and  CB  
REMARK    2  A    between atoms: CB   and  CG  
REMARK    3  A    between atoms: CG   and  CD  
REMARK    4  A    between atoms: CD   and  NE  
REMARK       I    between atoms: NE   and  CZ  
REMARK       I    between atoms: CZ   and  NH1 
REMARK       I    between atoms: CZ   and  NH2 
ROOT
ATOM      1  CA  ARG D 557     -26.217   2.705 -17.014  1.00 35.49     0.159 C 
ENDROOT
BRANCH   1   2
ATOM      2  CB  ARG D 557     -26.789   1.319 -17.183  1.00 35.49     0.034 C 
BRANCH   2   3
ATOM      3  CG  ARG D 557     -28.228   1.163 -16.936  1.00 35.49     0.027 C 
BRANCH   3   4
ATOM      4  CD  ARG D 557     -28.645  -0.257 -16.909  1.00 35.49     0.116 C 
BRANCH   4   5
ATOM      5  NE  ARG D 557     -27.717  -1.081 -16.180  1.00 35.49    -0.212 N 
ATOM      6  CZ  ARG D 557     -27.627  -2.390 -16.257  1.00 35.49     0.666 C 
ATOM      7  NH1 ARG D 557     -28.418  -3.111 -17.030  1.00 35.49    -0.235 N 
ATOM      8  NH2 ARG D 557     -26.711  -2.972 -15.539  1.00 35.49    -0.235 N 
ATOM      9  HH  ARG D 557     -29.026  -2.748 -17.513  1.00 35.49     0.174 HD
ATOM     10  HH  ARG D 557     -28.311  -3.961 -17.042  1.00 35.49     0.174 HD
ATOM     11  HH  ARG D 557     -26.209  -2.480 -15.055  1.00 35.49     0.174 HD
ATOM     12  HH  ARG D 557     -26.620  -3.814 -15.566  1.00 35.49     0.174 HD
ATOM     13  HE  ARG D 557     -27.218  -0.705 -15.603  1.00 35.49     0.178 HD
ENDBRANCH   4   5
ENDBRANCH   3   4
ENDBRANCH   2   3
ENDBRANCH   1   2
END_RES ARG D 557
BEGIN_RES GLU D 570
REMARK  3 active torsions:
REMARK  status: ('A' for Active; 'I' for Inactive)
REMARK    5  A    between atoms: CA   and  CB  
REMARK    6  A    between atoms: CB   and  CG  
REMARK    7  A    between atoms: CG   and  CD  
ROOT
ATOM     14  CA  GLU D 570     -18.033  -6.348 -13.375  1.00 32.92     0.160 C 
ENDROOT
BRANCH  14  15
ATOM     15  CB  GLU D 570     -19.500  -6.345 -13.794  1.00 32.92     0.043 C 
BRANCH  15  16
ATOM     16  CG  GLU D 570     -20.079  -7.628 -14.270  1.00 32.92     0.100 C 
BRANCH  16  17
ATOM     17  CD  GLU D 570     -20.645  -7.537 -15.668  1.00 32.92     0.185 C 
ATOM     18  OE1 GLU D 570     -21.230  -8.526 -16.149  1.00 32.92    -0.647 OA
ATOM     19  OE2 GLU D 570     -20.487  -6.471 -16.294  1.00 32.92    -0.647 OA
ENDBRANCH  16  17
ENDBRANCH  15  16
ENDBRANCH  14  15
END_RES GLU D 570
ENDMDL
MODEL 4
REMARK VINA RESULT:      -6.0      1.666      8.299
REMARK  18 active torsions:
REMARK  status: ('A' for Active; 'I' for Inactive)
REMARK    1  A    between atoms: C_1  and  C_2 
REMARK    2  A    between atoms: C_1  and  O_34 
REMARK    3  A    between atoms: C_3  and  O_33 
REMARK    4  A    between atoms: C_4  and  O_32 
REMARK    5  A    between atoms: C_5  and  O_31 
REMARK    6  A    between atoms: C_6  and  O_8 
REMARK    7  A    between atoms: O_8  and  C_9 
REMARK    8  A    between atoms: C_10  and  C_29 
REMARK    9  A    between atoms: C_12  and  O_17 
REMARK   10  A    between atoms: C_13  and  O_16 
REMARK   11  A    between atoms: C_14  and  O_15 
REMARK   12  A    between atoms: O_17  and  C_18 
REMARK   13  A    between atoms: C_19  and  C_27 
REMARK   14  A    between atoms: C_21  and  O_26 
REMARK   15  A    between atoms: C_22  and  O_25 
REMARK   16  A    between atoms: C_23  and  O_24 
REMARK   17  A    between atoms: C_27  and  O_28 
REMARK   18  A    between atoms: C_29  and  O_30 
ROOT
HETATM    1  C   UNL     1     -21.236  -4.698  -7.925  1.00  0.00     0.187 C 
HETATM    2  C   UNL     1     -19.951  -5.367  -7.389  1.00  0.00     0.180 C 
HETATM    3  O   UNL     1     -20.187  -6.741  -7.047  1.00  0.00    -0.348 OA
HETATM    4  C   UNL     1     -21.230  -7.025  -6.116  1.00  0.00     0.292 C 
HETATM    5  C   UNL     1     -22.536  -6.189  -6.336  1.00  0.00     0.204 C 
HETATM    6  C   UNL     1     -22.297  -4.750  -6.820  1.00  0.00     0.183 C 
ENDROOT
BRANCH   1   7
HETATM    7  O   UNL     1     -21.592  -5.406  -9.133  1.00  0.00    -0.348 OA
BRANCH   7   8
HETATM    8  C   UNL     1     -22.277  -4.758 -10.211  1.00  0.00     0.292 C 
HETATM    9  C   UNL     1     -21.559  -4.758 -11.589  1.00  0.00     0.204 C 
HETATM   10  C   UNL     1     -22.450  -4.050 -12.620  1.00  0.00     0.183 C 
HETATM   11  C   UNL     1     -22.867  -2.651 -12.131  1.00  0.00     0.180 C 
HETATM   12  C   UNL     1     -23.549  -2.745 -10.757  1.00  0.00     0.179 C 
HETATM   13  O   UNL     1     -22.736  -3.471  -9.799  1.00  0.00    -0.348 OA
BRANCH   9  14
HETATM   14  O   UNL     1     -20.280  -4.101 -11.613  1.00  0.00    -0.388 OA
HETATM   15  H   UNL     1     -20.150  -3.663 -10.738  1.00  0.00     0.210 HD
ENDBRANCH   9  14
BRANCH  10  16
HETATM   16  O   UNL     1     -21.769  -3.937 -13.878  1.00  0.00    -0.390 OA
HETATM   17  H   UNL     1     -20.825  -3.778 -13.680  1.00  0.00     0.210 HD
ENDBRANCH  10  16
BRANCH  11  18
HETATM   18  O   UNL     1     -21.731  -1.786 -11.988  1.00  0.00    -0.390 OA
HETATM   19  H   UNL     1     -22.051  -0.907 -11.715  1.00  0.00     0.210 HD
ENDBRANCH  11  18
BRANCH  12  20
HETATM   20  C   UNL     1     -24.970  -3.318 -10.842  1.00  0.00     0.198 C 
BRANCH  20  21
HETATM   21  O   UNL     1     -25.609  -3.274  -9.571  1.00  0.00    -0.398 OA
HETATM   22  H   UNL     1     -26.534  -3.556  -9.702  1.00  0.00     0.209 HD
ENDBRANCH  20  21
ENDBRANCH  12  20
ENDBRANCH   7   8
ENDBRANCH   1   7
BRANCH   2  23
HETATM   23  C   UNL     1     -19.217  -4.572  -6.286  1.00  0.00     0.198 C 
BRANCH  23  24
HETATM   24  O   UNL     1     -19.956  -4.443  -5.076  1.00  0.00    -0.398 OA
HETATM   25  H   UNL     1     -20.420  -5.287  -4.915  1.00  0.00     0.209 HD
ENDBRANCH  23  24
ENDBRANCH   2  23
BRANCH   6  26
HETATM   26  O   UNL     1     -23.490  -4.079  -7.254  1.00  0.00    -0.390 OA
HETATM   27  H   UNL     1     -23.296  -3.696  -8.137  1.00  0.00     0.210 HD
ENDBRANCH   6  26
BRANCH   5  28
HETATM   28  O   UNL     1     -23.386  -6.196  -5.184  1.00  0.00    -0.388 OA
HETATM   29  H   UNL     1     -23.947  -5.402  -5.248  1.00  0.00     0.210 HD
ENDBRANCH   5  28
BRANCH   4  30
HETATM   30  O   UNL     1     -20.747  -7.084  -4.750  1.00  0.00    -0.348 OA
BRANCH  30  31
HETATM   31  C   UNL     1     -21.060  -8.360  -4.100  1.00  0.00     0.187 C 
HETATM   32  C   UNL     1     -21.198  -8.259  -2.558  1.00  0.00     0.180 C 
HETATM   33  O   UNL     1     -19.926  -8.115  -1.909  1.00  0.00    -0.349 OA
HETATM   34  C   UNL     1     -18.951  -9.101  -2.177  1.00  0.00     0.288 C 
HETATM   35  C   UNL     1     -18.688  -9.303  -3.680  1.00  0.00     0.204 C 
HETATM   36  C   UNL     1     -20.005  -9.420  -4.471  1.00  0.00     0.183 C 
BRANCH  32  37
HETATM   37  C   UNL     1     -22.021  -9.428  -1.977  1.00  0.00     0.198 C 
BRANCH  37  38
HETATM   38  O   UNL     1     -21.991  -9.389  -0.554  1.00  0.00    -0.398 OA
HETATM   39  H   UNL     1     -21.521 -10.200  -0.274  1.00  0.00     0.209 HD
ENDBRANCH  37  38
ENDBRANCH  32  37
BRANCH  34  40
HETATM   40  O   UNL     1     -19.271 -10.325  -1.521  1.00  0.00    -0.369 OA
HETATM   41  H   UNL     1     -20.160 -10.598  -1.813  1.00  0.00     0.212 HD
ENDBRANCH  34  40
BRANCH  35  42
HETATM   42  O   UNL     1     -17.923 -10.514  -3.863  1.00  0.00    -0.388 OA
HETATM   43  H   UNL     1     -17.268 -10.367  -4.569  1.00  0.00     0.210 HD
ENDBRANCH  35  42
BRANCH  36  44
HETATM   44  O   UNL     1     -19.758  -9.398  -5.884  1.00  0.00    -0.390 OA
HETATM   45  H   UNL     1     -19.303 -10.235  -6.101  1.00  0.00     0.210 HD
ENDBRANCH  36  44
ENDBRANCH  30  31
ENDBRANCH   4  30
TORSDOF 18
BEGIN_RES ARG D 557
REMARK  4 active torsions:
REMARK  status: ('A' for Active; 'I' for Inactive)
REMARK    1  A    between atoms: CA   and  CB  
REMARK    2  A    between atoms: CB   and  CG  
REMARK    3  A    between atoms: CG   and  CD  
REMARK    4  A    between atoms: CD   and  NE  
REMARK       I    between atoms: NE   and  CZ  
REMARK       I    between atoms: CZ   and  NH1 
REMARK       I    between atoms: CZ   and  NH2 
ROOT
ATOM      1  CA  ARG D 557     -26.217   2.705 -17.014  1.00 35.49     0.159 C 
ENDROOT
BRANCH   1   2
ATOM      2  CB  ARG D 557     -26.789   1.319 -17.183  1.00 35.49     0.034 C 
BRANCH   2   3
ATOM      3  CG  ARG D 557     -28.233   1.226 -17.431  1.00 35.49     0.027 C 
BRANCH   3   4
ATOM      4  CD  ARG D 557     -28.907   0.295 -16.497  1.00 35.49     0.116 C 
BRANCH   4   5
ATOM      5  NE  ARG D 557     -29.294  -0.933 -17.140  1.00 35.49    -0.212 N 
ATOM      6  CZ  ARG D 557     -28.667  -2.084 -17.038  1.00 35.49     0.666 C 
ATOM      7  NH1 ARG D 557     -27.570  -2.233 -16.320  1.00 35.49    -0.235 N 
ATOM      8  NH2 ARG D 557     -29.172  -3.101 -17.675  1.00 35.49    -0.235 N 
ATOM      9  HH  ARG D 557     -27.221  -1.578 -15.891  1.00 35.49     0.174 HD
ATOM     10  HH  ARG D 557     -27.206  -3.008 -16.288  1.00 35.49     0.174 HD
ATOM     11  HH  ARG D 557     -29.886  -2.977 -18.125  1.00 35.49     0.174 HD
ATOM     12  HH  ARG D 557     -28.798  -3.860 -17.630  1.00 35.49     0.174 HD
ATOM     13  HE  ARG D 557     -29.949  -0.911 -17.681  1.00 35.49     0.178 HD
ENDBRANCH   4   5
ENDBRANCH   3   4
ENDBRANCH   2   3
ENDBRANCH   1   2
END_RES ARG D 557
BEGIN_RES GLU D 570
REMARK  3 active torsions:
REMARK  status: ('A' for Active; 'I' for Inactive)
REMARK    5  A    between atoms: CA   and  CB  
REMARK    6  A    between atoms: CB   and  CG  
REMARK    7  A    between atoms: CG   and  CD  
ROOT
ATOM     14  CA  GLU D 570     -18.033  -6.348 -13.375  1.00 32.92     0.160 C 
ENDROOT
BRANCH  14  15
ATOM     15  CB  GLU D 570     -19.500  -6.345 -13.794  1.00 32.92     0.043 C 
BRANCH  15  16
ATOM     16  CG  GLU D 570     -20.084  -7.632 -14.252  1.00 32.92     0.100 C 
BRANCH  16  17
ATOM     17  CD  GLU D 570     -21.147  -7.454 -15.311  1.00 32.92     0.185 C 
ATOM     18  OE1 GLU D 570     -21.150  -8.213 -16.299  1.00 32.92    -0.647 OA
ATOM     19  OE2 GLU D 570     -21.975  -6.535 -15.159  1.00 32.92    -0.647 OA
ENDBRANCH  16  17
ENDBRANCH  15  16
ENDBRANCH  14  15
END_RES GLU D 570
ENDMDL
MODEL 5
REMARK VINA RESULT:      -5.9      1.683      7.888
REMARK  18 active torsions:
REMARK  status: ('A' for Active; 'I' for Inactive)
REMARK    1  A    between atoms: C_1  and  C_2 
REMARK    2  A    between atoms: C_1  and  O_34 
REMARK    3  A    between atoms: C_3  and  O_33 
REMARK    4  A    between atoms: C_4  and  O_32 
REMARK    5  A    between atoms: C_5  and  O_31 
REMARK    6  A    between atoms: C_6  and  O_8 
REMARK    7  A    between atoms: O_8  and  C_9 
REMARK    8  A    between atoms: C_10  and  C_29 
REMARK    9  A    between atoms: C_12  and  O_17 
REMARK   10  A    between atoms: C_13  and  O_16 
REMARK   11  A    between atoms: C_14  and  O_15 
REMARK   12  A    between atoms: O_17  and  C_18 
REMARK   13  A    between atoms: C_19  and  C_27 
REMARK   14  A    between atoms: C_21  and  O_26 
REMARK   15  A    between atoms: C_22  and  O_25 
REMARK   16  A    between atoms: C_23  and  O_24 
REMARK   17  A    between atoms: C_27  and  O_28 
REMARK   18  A    between atoms: C_29  and  O_30 
ROOT
HETATM    1  C   UNL     1     -21.223  -4.651  -7.833  1.00  0.00     0.187 C 
HETATM    2  C   UNL     1     -19.910  -5.239  -7.273  1.00  0.00     0.180 C 
HETATM    3  O   UNL     1     -20.066  -6.626  -6.937  1.00  0.00    -0.348 OA
HETATM    4  C   UNL     1     -21.107  -6.977  -6.028  1.00  0.00     0.292 C 
HETATM    5  C   UNL     1     -22.458  -6.223  -6.272  1.00  0.00     0.204 C 
HETATM    6  C   UNL     1     -22.300  -4.771  -6.749  1.00  0.00     0.183 C 
ENDROOT
BRANCH   1   7
HETATM    7  O   UNL     1     -21.511  -5.376  -9.049  1.00  0.00    -0.348 OA
BRANCH   7   8
HETATM    8  C   UNL     1     -22.210  -4.767 -10.141  1.00  0.00     0.292 C 
HETATM    9  C   UNL     1     -21.494  -4.789 -11.519  1.00  0.00     0.204 C 
HETATM   10  C   UNL     1     -22.400  -4.123 -12.566  1.00  0.00     0.183 C 
HETATM   11  C   UNL     1     -22.841  -2.720 -12.111  1.00  0.00     0.180 C 
HETATM   12  C   UNL     1     -23.518  -2.792 -10.734  1.00  0.00     0.179 C 
HETATM   13  O   UNL     1     -22.691  -3.478  -9.760  1.00  0.00    -0.348 OA
BRANCH   9  14
HETATM   14  O   UNL     1     -20.227  -4.111 -11.563  1.00  0.00    -0.388 OA
HETATM   15  H   UNL     1     -20.242  -3.400 -10.878  1.00  0.00     0.210 HD
ENDBRANCH   9  14
BRANCH  10  16
HETATM   16  O   UNL     1     -21.722  -4.029 -13.828  1.00  0.00    -0.390 OA
HETATM   17  H   UNL     1     -21.857  -4.879 -14.290  1.00  0.00     0.210 HD
ENDBRANCH  10  16
BRANCH  11  18
HETATM   18  O   UNL     1     -21.719  -1.832 -11.992  1.00  0.00    -0.390 OA
HETATM   19  H   UNL     1     -21.217  -2.083 -11.195  1.00  0.00     0.210 HD
ENDBRANCH  11  18
BRANCH  12  20
HETATM   20  C   UNL     1     -24.928  -3.392 -10.801  1.00  0.00     0.198 C 
BRANCH  20  21
HETATM   21  O   UNL     1     -25.594  -3.261  -9.550  1.00  0.00    -0.398 OA
HETATM   22  H   UNL     1     -25.411  -4.070  -9.038  1.00  0.00     0.209 HD
ENDBRANCH  20  21
ENDBRANCH  12  20
ENDBRANCH   7   8
ENDBRANCH   1   7
BRANCH   2  23
HETATM   23  C   UNL     1     -19.249  -4.403  -6.154  1.00  0.00     0.198 C 
BRANCH  23  24
HETATM   24  O   UNL     1     -19.981  -4.385  -4.934  1.00  0.00    -0.398 OA
HETATM   25  H   UNL     1     -19.793  -3.539  -4.483  1.00  0.00     0.209 HD
ENDBRANCH  23  24
ENDBRANCH   2  23
BRANCH   6  26
HETATM   26  O   UNL     1     -23.524  -4.174  -7.204  1.00  0.00    -0.390 OA
HETATM   27  H   UNL     1     -23.987  -4.852  -7.744  1.00  0.00     0.210 HD
ENDBRANCH   6  26
BRANCH   5  28
HETATM   28  O   UNL     1     -23.328  -6.287  -5.136  1.00  0.00    -0.388 OA
HETATM   29  H   UNL     1     -23.741  -5.407  -5.053  1.00  0.00     0.210 HD
ENDBRANCH   5  28
BRANCH   4  30
HETATM   30  O   UNL     1     -20.648  -7.009  -4.652  1.00  0.00    -0.348 OA
BRANCH  30  31
HETATM   31  C   UNL     1     -19.938  -8.250  -4.328  1.00  0.00     0.187 C 
HETATM   32  C   UNL     1     -20.202  -9.403  -5.332  1.00  0.00     0.180 C 
HETATM   33  O   UNL     1     -21.507  -9.978  -5.166  1.00  0.00    -0.349 OA
HETATM   34  C   UNL     1     -21.839 -10.460  -3.880  1.00  0.00     0.288 C 
HETATM   35  C   UNL     1     -21.646  -9.412  -2.770  1.00  0.00     0.204 C 
HETATM   36  C   UNL     1     -20.283  -8.703  -2.897  1.00  0.00     0.183 C 
BRANCH  32  37
HETATM   37  C   UNL     1     -19.085 -10.467  -5.291  1.00  0.00     0.198 C 
BRANCH  37  38
HETATM   38  O   UNL     1     -18.904 -11.037  -6.584  1.00  0.00    -0.398 OA
HETATM   39  H   UNL     1     -19.375 -11.894  -6.567  1.00  0.00     0.209 HD
ENDBRANCH  37  38
ENDBRANCH  32  37
BRANCH  34  40
HETATM   40  O   UNL     1     -21.147 -11.673  -3.598  1.00  0.00    -0.369 OA
HETATM   41  H   UNL     1     -20.630 -11.915  -4.387  1.00  0.00     0.212 HD
ENDBRANCH  34  40
BRANCH  35  42
HETATM   42  O   UNL     1     -21.712 -10.072  -1.487  1.00  0.00    -0.388 OA
HETATM   43  H   UNL     1     -21.700 -11.036  -1.631  1.00  0.00     0.210 HD
ENDBRANCH  35  42
BRANCH  36  44
HETATM   44  O   UNL     1     -20.198  -7.592  -1.992  1.00  0.00    -0.390 OA
HETATM   45  H   UNL     1     -20.342  -7.951  -1.095  1.00  0.00     0.210 HD
ENDBRANCH  36  44
ENDBRANCH  30  31
ENDBRANCH   4  30
TORSDOF 18
BEGIN_RES ARG D 557
REMARK  4 active torsions:
REMARK  status: ('A' for Active; 'I' for Inactive)
REMARK    1  A    between atoms: CA   and  CB  
REMARK    2  A    between atoms: CB   and  CG  
REMARK    3  A    between atoms: CG   and  CD  
REMARK    4  A    between atoms: CD   and  NE  
REMARK       I    between atoms: NE   and  CZ  
REMARK       I    between atoms: CZ   and  NH1 
REMARK       I    between atoms: CZ   and  NH2 
ROOT
ATOM      1  CA  ARG D 557     -26.217   2.705 -17.014  1.00 35.49     0.159 C 
ENDROOT
BRANCH   1   2
ATOM      2  CB  ARG D 557     -26.789   1.319 -17.183  1.00 35.49     0.034 C 
BRANCH   2   3
ATOM      3  CG  ARG D 557     -28.201   1.139 -16.826  1.00 35.49     0.027 C 
BRANCH   3   4
ATOM      4  CD  ARG D 557     -28.722  -0.186 -17.234  1.00 35.49     0.116 C 
BRANCH   4   5
ATOM      5  NE  ARG D 557     -27.990  -1.266 -16.629  1.00 35.49    -0.212 N 
ATOM      6  CZ  ARG D 557     -28.237  -2.547 -16.789  1.00 35.49     0.666 C 
ATOM      7  NH1 ARG D 557     -29.230  -2.989 -17.539  1.00 35.49    -0.235 N 
ATOM      8  NH2 ARG D 557     -27.456  -3.391 -16.180  1.00 35.49    -0.235 N 
ATOM      9  HH  ARG D 557     -29.755  -2.452 -17.951  1.00 35.49     0.174 HD
ATOM     10  HH  ARG D 557     -29.342  -3.835 -17.609  1.00 35.49     0.174 HD
ATOM     11  HH  ARG D 557     -26.819  -3.077 -15.708  1.00 35.49     0.174 HD
ATOM     12  HH  ARG D 557     -27.582  -4.225 -16.262  1.00 35.49     0.174 HD
ATOM     13  HE  ARG D 557     -27.378  -1.071 -16.071  1.00 35.49     0.178 HD
ENDBRANCH   4   5
ENDBRANCH   3   4
ENDBRANCH   2   3
ENDBRANCH   1   2
END_RES ARG D 557
BEGIN_RES GLU D 570
REMARK  3 active torsions:
REMARK  status: ('A' for Active; 'I' for Inactive)
REMARK    5  A    between atoms: CA   and  CB  
REMARK    6  A    between atoms: CB   and  CG  
REMARK    7  A    between atoms: CG   and  CD  
ROOT
ATOM     14  CA  GLU D 570     -18.033  -6.348 -13.375  1.00 32.92     0.160 C 
ENDROOT
BRANCH  14  15
ATOM     15  CB  GLU D 570     -19.500  -6.345 -13.794  1.00 32.92     0.043 C 
BRANCH  15  16
ATOM     16  CG  GLU D 570     -20.088  -7.636 -14.236  1.00 32.92     0.100 C 
BRANCH  16  17
ATOM     17  CD  GLU D 570     -21.021  -7.486 -15.415  1.00 32.92     0.185 C 
ATOM     18  OE1 GLU D 570     -21.231  -8.470 -16.149  1.00 32.92    -0.647 OA
ATOM     19  OE2 GLU D 570     -21.534  -6.367 -15.615  1.00 32.92    -0.647 OA
ENDBRANCH  16  17
ENDBRANCH  15  16
ENDBRANCH  14  15
END_RES GLU D 570
ENDMDL
MODEL 6
REMARK VINA RESULT:      -5.7      1.432      7.782
REMARK  18 active torsions:
REMARK  status: ('A' for Active; 'I' for Inactive)
REMARK    1  A    between atoms: C_1  and  C_2 
REMARK    2  A    between atoms: C_1  and  O_34 
REMARK    3  A    between atoms: C_3  and  O_33 
REMARK    4  A    between atoms: C_4  and  O_32 
REMARK    5  A    between atoms: C_5  and  O_31 
REMARK    6  A    between atoms: C_6  and  O_8 
REMARK    7  A    between atoms: O_8  and  C_9 
REMARK    8  A    between atoms: C_10  and  C_29 
REMARK    9  A    between atoms: C_12  and  O_17 
REMARK   10  A    between atoms: C_13  and  O_16 
REMARK   11  A    between atoms: C_14  and  O_15 
REMARK   12  A    between atoms: O_17  and  C_18 
REMARK   13  A    between atoms: C_19  and  C_27 
REMARK   14  A    between atoms: C_21  and  O_26 
REMARK   15  A    between atoms: C_22  and  O_25 
REMARK   16  A    between atoms: C_23  and  O_24 
REMARK   17  A    between atoms: C_27  and  O_28 
REMARK   18  A    between atoms: C_29  and  O_30 
ROOT
HETATM    1  C   UNL     1     -22.105  -3.811 -10.015  1.00  0.00     0.187 C 
HETATM    2  C   UNL     1     -20.764  -4.270  -9.401  1.00  0.00     0.180 C 
HETATM    3  O   UNL     1     -20.940  -5.445  -8.595  1.00  0.00    -0.348 OA
HETATM    4  C   UNL     1     -21.892  -5.390  -7.536  1.00  0.00     0.292 C 
HETATM    5  C   UNL     1     -23.230  -4.667  -7.909  1.00  0.00     0.204 C 
HETATM    6  C   UNL     1     -23.066  -3.478  -8.868  1.00  0.00     0.183 C 
ENDROOT
BRANCH   1   7
HETATM    7  O   UNL     1     -22.547  -4.882 -10.878  1.00  0.00    -0.348 OA
BRANCH   7   8
HETATM    8  C   UNL     1     -22.839  -4.662 -12.263  1.00  0.00     0.292 C 
HETATM    9  C   UNL     1     -22.884  -3.183 -12.735  1.00  0.00     0.204 C 
HETATM   10  C   UNL     1     -23.178  -3.145 -14.242  1.00  0.00     0.183 C 
HETATM   11  C   UNL     1     -24.445  -3.951 -14.583  1.00  0.00     0.180 C 
HETATM   12  C   UNL     1     -24.320  -5.391 -14.062  1.00  0.00     0.179 C 
HETATM   13  O   UNL     1     -23.978  -5.428 -12.653  1.00  0.00    -0.348 OA
BRANCH   9  14
HETATM   14  O   UNL     1     -23.874  -2.364 -12.089  1.00  0.00    -0.388 OA
HETATM   15  H   UNL     1     -24.203  -1.710 -12.752  1.00  0.00     0.210 HD
ENDBRANCH   9  14
BRANCH  10  16
HETATM   16  O   UNL     1     -23.335  -1.790 -14.688  1.00  0.00    -0.390 OA
HETATM   17  H   UNL     1     -22.684  -1.250 -14.200  1.00  0.00     0.210 HD
ENDBRANCH  10  16
BRANCH  11  18
HETATM   18  O   UNL     1     -25.611  -3.375 -13.977  1.00  0.00    -0.390 OA
HETATM   19  H   UNL     1     -26.114  -2.908 -14.670  1.00  0.00     0.210 HD
ENDBRANCH  11  18
BRANCH  12  20
HETATM   20  C   UNL     1     -23.356  -6.240 -14.901  1.00  0.00     0.198 C 
BRANCH  20  21
HETATM   21  O   UNL     1     -23.760  -6.266 -16.265  1.00  0.00    -0.398 OA
HETATM   22  H   UNL     1     -23.074  -6.749 -16.762  1.00  0.00     0.209 HD
ENDBRANCH  20  21
ENDBRANCH  12  20
ENDBRANCH   7   8
ENDBRANCH   1   7
BRANCH   2  23
HETATM   23  C   UNL     1     -19.956  -3.155  -8.699  1.00  0.00     0.198 C 
BRANCH  23  24
HETATM   24  O   UNL     1     -18.998  -3.634  -7.762  1.00  0.00    -0.398 OA
HETATM   25  H   UNL     1     -19.027  -3.053  -6.978  1.00  0.00     0.209 HD
ENDBRANCH  23  24
ENDBRANCH   2  23
BRANCH   6  26
HETATM   26  O   UNL     1     -24.307  -2.983  -9.396  1.00  0.00    -0.390 OA
HETATM   27  H   UNL     1     -24.634  -2.306  -8.763  1.00  0.00     0.210 HD
ENDBRANCH   6  26
BRANCH   5  28
HETATM   28  O   UNL     1     -23.978  -4.277  -6.751  1.00  0.00    -0.388 OA
HETATM   29  H   UNL     1     -24.064  -5.074  -6.195  1.00  0.00     0.210 HD
ENDBRANCH   5  28
BRANCH   4  30
HETATM   30  O   UNL     1     -21.293  -4.988  -6.278  1.00  0.00    -0.348 OA
BRANCH  30  31
HETATM   31  C   UNL     1     -20.534  -6.072  -5.647  1.00  0.00     0.187 C 
HETATM   32  C   UNL     1     -21.151  -7.479  -5.869  1.00  0.00     0.180 C 
HETATM   33  O   UNL     1     -22.325  -7.687  -5.070  1.00  0.00    -0.349 OA
HETATM   34  C   UNL     1     -22.195  -7.504  -3.675  1.00  0.00     0.288 C 
HETATM   35  C   UNL     1     -21.610  -6.132  -3.295  1.00  0.00     0.204 C 
HETATM   36  C   UNL     1     -20.366  -5.798  -4.140  1.00  0.00     0.183 C 
BRANCH  32  37
HETATM   37  C   UNL     1     -20.108  -8.600  -5.679  1.00  0.00     0.198 C 
BRANCH  37  38
HETATM   38  O   UNL     1     -20.732  -9.874  -5.791  1.00  0.00    -0.398 OA
HETATM   39  H   UNL     1     -20.017 -10.533  -5.682  1.00  0.00     0.209 HD
ENDBRANCH  37  38
ENDBRANCH  32  37
BRANCH  34  40
HETATM   40  O   UNL     1     -21.468  -8.579  -3.086  1.00  0.00    -0.369 OA
HETATM   41  H   UNL     1     -21.722  -9.400  -3.544  1.00  0.00     0.212 HD
ENDBRANCH  34  40
BRANCH  35  42
HETATM   42  O   UNL     1     -21.235  -6.155  -1.900  1.00  0.00    -0.388 OA
HETATM   43  H   UNL     1     -21.830  -6.765  -1.427  1.00  0.00     0.210 HD
ENDBRANCH  35  42
BRANCH  36  44
HETATM   44  O   UNL     1     -19.952  -4.440  -3.929  1.00  0.00    -0.390 OA
HETATM   45  H   UNL     1     -19.043  -4.478  -3.572  1.00  0.00     0.210 HD
ENDBRANCH  36  44
ENDBRANCH  30  31
ENDBRANCH   4  30
TORSDOF 18
BEGIN_RES ARG D 557
REMARK  4 active torsions:
REMARK  status: ('A' for Active; 'I' for Inactive)
REMARK    1  A    between atoms: CA   and  CB  
REMARK    2  A    between atoms: CB   and  CG  
REMARK    3  A    between atoms: CG   and  CD  
REMARK    4  A    between atoms: CD   and  NE  
REMARK       I    between atoms: NE   and  CZ  
REMARK       I    between atoms: CZ   and  NH1 
REMARK       I    between atoms: CZ   and  NH2 
ROOT
ATOM      1  CA  ARG D 557     -26.217   2.705 -17.014  1.00 35.49     0.159 C 
ENDROOT
BRANCH   1   2
ATOM      2  CB  ARG D 557     -26.789   1.319 -17.183  1.00 35.49     0.034 C 
BRANCH   2   3
ATOM      3  CG  ARG D 557     -25.954   0.200 -16.731  1.00 35.49     0.027 C 
BRANCH   3   4
ATOM      4  CD  ARG D 557     -26.735  -0.833 -16.011  1.00 35.49     0.116 C 
BRANCH   4   5
ATOM      5  NE  ARG D 557     -27.942  -1.185 -16.711  1.00 35.49    -0.212 N 
ATOM      6  CZ  ARG D 557     -28.401  -2.404 -16.885  1.00 35.49     0.666 C 
ATOM      7  NH1 ARG D 557     -27.771  -3.471 -16.430  1.00 35.49    -0.235 N 
ATOM      8  NH2 ARG D 557     -29.525  -2.536 -17.527  1.00 35.49    -0.235 N 
ATOM      9  HH  ARG D 557     -27.031  -3.407 -16.003  1.00 35.49     0.174 HD
ATOM     10  HH  ARG D 557     -28.119  -4.241 -16.571  1.00 35.49     0.174 HD
ATOM     11  HH  ARG D 557     -29.914  -1.829 -17.803  1.00 35.49     0.174 HD
ATOM     12  HH  ARG D 557     -29.855  -3.306 -17.656  1.00 35.49     0.174 HD
ATOM     13  HE  ARG D 557     -28.374  -0.564 -17.100  1.00 35.49     0.178 HD
ENDBRANCH   4   5
ENDBRANCH   3   4
ENDBRANCH   2   3
ENDBRANCH   1   2
END_RES ARG D 557
BEGIN_RES GLU D 570
REMARK  3 active torsions:
REMARK  status: ('A' for Active; 'I' for Inactive)
REMARK    5  A    between atoms: CA   and  CB  
REMARK    6  A    between atoms: CB   and  CG  
REMARK    7  A    between atoms: CG   and  CD  
ROOT
ATOM     14  CA  GLU D 570     -18.033  -6.348 -13.375  1.00 32.92     0.160 C 
ENDROOT
BRANCH  14  15
ATOM     15  CB  GLU D 570     -19.500  -6.345 -13.794  1.00 32.92     0.043 C 
BRANCH  15  16
ATOM     16  CG  GLU D 570     -19.796  -6.328 -15.250  1.00 32.92     0.100 C 
BRANCH  16  17
ATOM     17  CD  GLU D 570     -20.478  -7.588 -15.728  1.00 32.92     0.185 C 
ATOM     18  OE1 GLU D 570     -20.505  -8.583 -14.978  1.00 32.92    -0.647 OA
ATOM     19  OE2 GLU D 570     -20.975  -7.587 -16.871  1.00 32.92    -0.647 OA
ENDBRANCH  16  17
ENDBRANCH  15  16
ENDBRANCH  14  15
END_RES GLU D 570
ENDMDL
MODEL 7
REMARK VINA RESULT:      -5.7      1.368      8.060
REMARK  18 active torsions:
REMARK  status: ('A' for Active; 'I' for Inactive)
REMARK    1  A    between atoms: C_1  and  C_2 
REMARK    2  A    between atoms: C_1  and  O_34 
REMARK    3  A    between atoms: C_3  and  O_33 
REMARK    4  A    between atoms: C_4  and  O_32 
REMARK    5  A    between atoms: C_5  and  O_31 
REMARK    6  A    between atoms: C_6  and  O_8 
REMARK    7  A    between atoms: O_8  and  C_9 
REMARK    8  A    between atoms: C_10  and  C_29 
REMARK    9  A    between atoms: C_12  and  O_17 
REMARK   10  A    between atoms: C_13  and  O_16 
REMARK   11  A    between atoms: C_14  and  O_15 
REMARK   12  A    between atoms: O_17  and  C_18 
REMARK   13  A    between atoms: C_19  and  C_27 
REMARK   14  A    between atoms: C_21  and  O_26 
REMARK   15  A    between atoms: C_22  and  O_25 
REMARK   16  A    between atoms: C_23  and  O_24 
REMARK   17  A    between atoms: C_27  and  O_28 
REMARK   18  A    between atoms: C_29  and  O_30 
ROOT
HETATM    1  C   UNL     1     -21.928  -3.999  -9.529  1.00  0.00     0.187 C 
HETATM    2  C   UNL     1     -20.659  -4.698  -8.995  1.00  0.00     0.180 C 
HETATM    3  O   UNL     1     -20.986  -5.930  -8.334  1.00  0.00    -0.348 OA
HETATM    4  C   UNL     1     -21.923  -5.881  -7.261  1.00  0.00     0.292 C 
HETATM    5  C   UNL     1     -23.155  -4.951  -7.523  1.00  0.00     0.204 C 
HETATM    6  C   UNL     1     -22.838  -3.686  -8.335  1.00  0.00     0.183 C 
ENDROOT
BRANCH   1   7
HETATM    7  O   UNL     1     -22.507  -4.891 -10.507  1.00  0.00    -0.348 OA
BRANCH   7   8
HETATM    8  C   UNL     1     -22.783  -4.464 -11.846  1.00  0.00     0.292 C 
HETATM    9  C   UNL     1     -23.023  -2.944 -12.052  1.00  0.00     0.204 C 
HETATM   10  C   UNL     1     -23.272  -2.673 -13.543  1.00  0.00     0.183 C 
HETATM   11  C   UNL     1     -24.400  -3.566 -14.093  1.00  0.00     0.180 C 
HETATM   12  C   UNL     1     -24.087  -5.046 -13.826  1.00  0.00     0.179 C 
HETATM   13  O   UNL     1     -23.788  -5.293 -12.429  1.00  0.00    -0.348 OA
BRANCH   9  14
HETATM   14  O   UNL     1     -24.140  -2.396 -11.330  1.00  0.00    -0.388 OA
HETATM   15  H   UNL     1     -23.843  -1.554 -10.910  1.00  0.00     0.210 HD
ENDBRANCH   9  14
BRANCH  10  16
HETATM   16  O   UNL     1     -23.607  -1.293 -13.753  1.00  0.00    -0.390 OA
HETATM   17  H   UNL     1     -22.767  -0.809 -13.877  1.00  0.00     0.210 HD
ENDBRANCH  10  16
BRANCH  11  18
HETATM   18  O   UNL     1     -25.655  -3.272 -13.461  1.00  0.00    -0.390 OA
HETATM   19  H   UNL     1     -26.265  -4.012 -13.639  1.00  0.00     0.210 HD
ENDBRANCH  11  18
BRANCH  12  20
HETATM   20  C   UNL     1     -22.986  -5.591 -14.745  1.00  0.00     0.198 C 
BRANCH  20  21
HETATM   21  O   UNL     1     -23.545  -6.154 -15.927  1.00  0.00    -0.398 OA
HETATM   22  H   UNL     1     -23.614  -5.438 -16.585  1.00  0.00     0.209 HD
ENDBRANCH  20  21
ENDBRANCH  12  20
ENDBRANCH   7   8
ENDBRANCH   1   7
BRANCH   2  23
HETATM   23  C   UNL     1     -19.713  -3.790  -8.177  1.00  0.00     0.198 C 
BRANCH  23  24
HETATM   24  O   UNL     1     -18.806  -4.500  -7.341  1.00  0.00    -0.398 OA
HETATM   25  H   UNL     1     -18.754  -4.030  -6.487  1.00  0.00     0.209 HD
ENDBRANCH  23  24
ENDBRANCH   2  23
BRANCH   6  26
HETATM   26  O   UNL     1     -24.004  -2.974  -8.779  1.00  0.00    -0.390 OA
HETATM   27  H   UNL     1     -24.326  -2.451  -8.014  1.00  0.00     0.210 HD
ENDBRANCH   6  26
BRANCH   5  28
HETATM   28  O   UNL     1     -23.846  -4.612  -6.315  1.00  0.00    -0.388 OA
HETATM   29  H   UNL     1     -23.384  -5.074  -5.592  1.00  0.00     0.210 HD
ENDBRANCH   5  28
BRANCH   4  30
HETATM   30  O   UNL     1     -21.276  -5.715  -5.973  1.00  0.00    -0.348 OA
BRANCH  30  31
HETATM   31  C   UNL     1     -21.898  -6.530  -4.925  1.00  0.00     0.187 C 
HETATM   32  C   UNL     1     -21.628  -6.013  -3.487  1.00  0.00     0.180 C 
HETATM   33  O   UNL     1     -20.286  -6.286  -3.057  1.00  0.00    -0.349 OA
HETATM   34  C   UNL     1     -19.856  -7.631  -3.105  1.00  0.00     0.288 C 
HETATM   35  C   UNL     1     -20.044  -8.281  -4.487  1.00  0.00     0.204 C 
HETATM   36  C   UNL     1     -21.449  -7.998  -5.055  1.00  0.00     0.183 C 
BRANCH  32  37
HETATM   37  C   UNL     1     -22.680  -6.529  -2.484  1.00  0.00     0.198 C 
BRANCH  37  38
HETATM   38  O   UNL     1     -22.399  -6.032  -1.180  1.00  0.00    -0.398 OA
HETATM   39  H   UNL     1     -21.424  -5.993  -1.112  1.00  0.00     0.209 HD
ENDBRANCH  37  38
ENDBRANCH  32  37
BRANCH  34  40
HETATM   40  O   UNL     1     -20.463  -8.396  -2.067  1.00  0.00    -0.369 OA
HETATM   41  H   UNL     1     -19.820  -9.067  -1.773  1.00  0.00     0.212 HD
ENDBRANCH  34  40
BRANCH  35  42
HETATM   42  O   UNL     1     -19.869  -9.708  -4.360  1.00  0.00    -0.388 OA
HETATM   43  H   UNL     1     -19.928 -10.110  -5.246  1.00  0.00     0.210 HD
ENDBRANCH  35  42
BRANCH  36  44
HETATM   44  O   UNL     1     -21.544  -8.425  -6.421  1.00  0.00    -0.390 OA
HETATM   45  H   UNL     1     -22.354  -8.018  -6.785  1.00  0.00     0.210 HD
ENDBRANCH  36  44
ENDBRANCH  30  31
ENDBRANCH   4  30
TORSDOF 18
BEGIN_RES ARG D 557
REMARK  4 active torsions:
REMARK  status: ('A' for Active; 'I' for Inactive)
REMARK    1  A    between atoms: CA   and  CB  
REMARK    2  A    between atoms: CB   and  CG  
REMARK    3  A    between atoms: CG   and  CD  
REMARK    4  A    between atoms: CD   and  NE  
REMARK       I    between atoms: NE   and  CZ  
REMARK       I    between atoms: CZ   and  NH1 
REMARK       I    between atoms: CZ   and  NH2 
ROOT
ATOM      1  CA  ARG D 557     -26.217   2.705 -17.014  1.00 35.49     0.159 C 
ENDROOT
BRANCH   1   2
ATOM      2  CB  ARG D 557     -26.789   1.319 -17.183  1.00 35.49     0.034 C 
BRANCH   2   3
ATOM      3  CG  ARG D 557     -28.157   1.105 -16.696  1.00 35.49     0.027 C 
BRANCH   3   4
ATOM      4  CD  ARG D 557     -28.783  -0.102 -17.283  1.00 35.49     0.116 C 
BRANCH   4   5
ATOM      5  NE  ARG D 557     -28.157  -1.314 -16.824  1.00 35.49    -0.212 N 
ATOM      6  CZ  ARG D 557     -28.614  -2.533 -17.009  1.00 35.49     0.666 C 
ATOM      7  NH1 ARG D 557     -29.744  -2.777 -17.646  1.00 35.49    -0.235 N 
ATOM      8  NH2 ARG D 557     -27.904  -3.518 -16.541  1.00 35.49    -0.235 N 
ATOM      9  HH  ARG D 557     -30.226  -2.144 -17.964  1.00 35.49     0.174 HD
ATOM     10  HH  ARG D 557     -29.991  -3.592 -17.739  1.00 35.49     0.174 HD
ATOM     11  HH  ARG D 557     -27.174  -3.330 -16.140  1.00 35.49     0.174 HD
ATOM     12  HH  ARG D 557     -28.164  -4.318 -16.644  1.00 35.49     0.174 HD
ATOM     13  HE  ARG D 557     -27.460  -1.246 -16.340  1.00 35.49     0.178 HD
ENDBRANCH   4   5
ENDBRANCH   3   4
ENDBRANCH   2   3
ENDBRANCH   1   2
END_RES ARG D 557
BEGIN_RES GLU D 570
REMARK  3 active torsions:
REMARK  status: ('A' for Active; 'I' for Inactive)
REMARK    5  A    between atoms: CA   and  CB  
REMARK    6  A    between atoms: CB   and  CG  
REMARK    7  A    between atoms: CG   and  CD  
ROOT
ATOM     14  CA  GLU D 570     -18.033  -6.348 -13.375  1.00 32.92     0.160 C 
ENDROOT
BRANCH  14  15
ATOM     15  CB  GLU D 570     -19.500  -6.345 -13.794  1.00 32.92     0.043 C 
BRANCH  15  16
ATOM     16  CG  GLU D 570     -19.797  -6.418 -15.248  1.00 32.92     0.100 C 
BRANCH  16  17
ATOM     17  CD  GLU D 570     -20.488  -7.702 -15.644  1.00 32.92     0.185 C 
ATOM     18  OE1 GLU D 570     -20.482  -8.663 -14.851  1.00 32.92    -0.647 OA
ATOM     19  OE2 GLU D 570     -21.028  -7.752 -16.767  1.00 32.92    -0.647 OA
ENDBRANCH  16  17
ENDBRANCH  15  16
ENDBRANCH  14  15
END_RES GLU D 570
ENDMDL
MODEL 8
REMARK VINA RESULT:      -5.5      4.718     10.143
REMARK  18 active torsions:
REMARK  status: ('A' for Active; 'I' for Inactive)
REMARK    1  A    between atoms: C_1  and  C_2 
REMARK    2  A    between atoms: C_1  and  O_34 
REMARK    3  A    between atoms: C_3  and  O_33 
REMARK    4  A    between atoms: C_4  and  O_32 
REMARK    5  A    between atoms: C_5  and  O_31 
REMARK    6  A    between atoms: C_6  and  O_8 
REMARK    7  A    between atoms: O_8  and  C_9 
REMARK    8  A    between atoms: C_10  and  C_29 
REMARK    9  A    between atoms: C_12  and  O_17 
REMARK   10  A    between atoms: C_13  and  O_16 
REMARK   11  A    between atoms: C_14  and  O_15 
REMARK   12  A    between atoms: O_17  and  C_18 
REMARK   13  A    between atoms: C_19  and  C_27 
REMARK   14  A    between atoms: C_21  and  O_26 
REMARK   15  A    between atoms: C_22  and  O_25 
REMARK   16  A    between atoms: C_23  and  O_24 
REMARK   17  A    between atoms: C_27  and  O_28 
REMARK   18  A    between atoms: C_29  and  O_30 
ROOT
HETATM    1  C   UNL     1     -19.587 -10.156  -4.971  1.00  0.00     0.187 C 
HETATM    2  C   UNL     1     -18.451 -10.290  -3.933  1.00  0.00     0.180 C 
HETATM    3  O   UNL     1     -17.179 -10.461  -4.577  1.00  0.00    -0.348 OA
HETATM    4  C   UNL     1     -17.039 -11.542  -5.496  1.00  0.00     0.292 C 
HETATM    5  C   UNL     1     -18.267 -11.743  -6.447  1.00  0.00     0.204 C 
HETATM    6  C   UNL     1     -19.629 -11.445  -5.801  1.00  0.00     0.183 C 
ENDROOT
BRANCH   1   7
HETATM    7  O   UNL     1     -19.306  -8.961  -5.733  1.00  0.00    -0.348 OA
BRANCH   7   8
HETATM    8  C   UNL     1     -19.855  -7.689  -5.368  1.00  0.00     0.292 C 
HETATM    9  C   UNL     1     -20.757  -7.661  -4.103  1.00  0.00     0.204 C 
HETATM   10  C   UNL     1     -21.225  -6.220  -3.853  1.00  0.00     0.183 C 
HETATM   11  C   UNL     1     -21.886  -5.621  -5.108  1.00  0.00     0.180 C 
HETATM   12  C   UNL     1     -20.932  -5.710  -6.309  1.00  0.00     0.179 C 
HETATM   13  O   UNL     1     -20.437  -7.059  -6.508  1.00  0.00    -0.348 OA
BRANCH   9  14
HETATM   14  O   UNL     1     -21.935  -8.483  -4.173  1.00  0.00    -0.388 OA
HETATM   15  H   UNL     1     -22.003  -8.984  -3.325  1.00  0.00     0.210 HD
ENDBRANCH   9  14
BRANCH  10  16
HETATM   16  O   UNL     1     -22.149  -6.177  -2.756  1.00  0.00    -0.390 OA
HETATM   17  H   UNL     1     -22.929  -5.671  -3.056  1.00  0.00     0.210 HD
ENDBRANCH  10  16
BRANCH  11  18
HETATM   18  O   UNL     1     -23.084  -6.330  -5.458  1.00  0.00    -0.390 OA
HETATM   19  H   UNL     1     -23.836  -5.717  -5.369  1.00  0.00     0.210 HD
ENDBRANCH  11  18
BRANCH  12  20
HETATM   20  C   UNL     1     -19.786  -4.694  -6.229  1.00  0.00     0.198 C 
BRANCH  20  21
HETATM   21  O   UNL     1     -19.160  -4.535  -7.497  1.00  0.00    -0.398 OA
HETATM   22  H   UNL     1     -19.033  -3.579  -7.641  1.00  0.00     0.209 HD
ENDBRANCH  20  21
ENDBRANCH  12  20
ENDBRANCH   7   8
ENDBRANCH   1   7
BRANCH   2  23
HETATM   23  C   UNL     1     -18.718 -11.316  -2.808  1.00  0.00     0.198 C 
BRANCH  23  24
HETATM   24  O   UNL     1     -17.549 -11.720  -2.103  1.00  0.00    -0.398 OA
HETATM   25  H   UNL     1     -16.858 -11.047  -2.255  1.00  0.00     0.209 HD
ENDBRANCH  23  24
ENDBRANCH   2  23
BRANCH   6  26
HETATM   26  O   UNL     1     -20.716 -11.390  -6.737  1.00  0.00    -0.390 OA
HETATM   27  H   UNL     1     -20.634 -10.538  -7.218  1.00  0.00     0.210 HD
ENDBRANCH   6  26
BRANCH   5  28
HETATM   28  O   UNL     1     -18.275 -13.038  -7.059  1.00  0.00    -0.388 OA
HETATM   29  H   UNL     1     -18.995 -13.030  -7.716  1.00  0.00     0.210 HD
ENDBRANCH   5  28
BRANCH   4  30
HETATM   30  O   UNL     1     -16.537 -12.744  -4.860  1.00  0.00    -0.348 OA
BRANCH  30  31
HETATM   31  C   UNL     1     -15.084 -12.883  -4.993  1.00  0.00     0.187 C 
HETATM   32  C   UNL     1     -14.642 -14.201  -5.683  1.00  0.00     0.180 C 
HETATM   33  O   UNL     1     -14.782 -15.339  -4.817  1.00  0.00    -0.349 OA
HETATM   34  C   UNL     1     -14.126 -15.281  -3.567  1.00  0.00     0.288 C 
HETATM   35  C   UNL     1     -14.484 -14.026  -2.750  1.00  0.00     0.204 C 
HETATM   36  C   UNL     1     -14.408 -12.753  -3.615  1.00  0.00     0.183 C 
BRANCH  32  37
HETATM   37  C   UNL     1     -13.222 -14.091  -6.276  1.00  0.00     0.198 C 
BRANCH  37  38
HETATM   38  O   UNL     1     -13.004 -12.779  -6.786  1.00  0.00    -0.398 OA
HETATM   39  H   UNL     1     -12.636 -12.261  -6.042  1.00  0.00     0.209 HD
ENDBRANCH  37  38
ENDBRANCH  32  37
BRANCH  34  40
HETATM   40  O   UNL     1     -12.718 -15.434  -3.724  1.00  0.00    -0.369 OA
HETATM   41  H   UNL     1     -12.564 -16.070  -4.446  1.00  0.00     0.212 HD
ENDBRANCH  34  40
BRANCH  35  42
HETATM   42  O   UNL     1     -13.555 -13.903  -1.652  1.00  0.00    -0.388 OA
HETATM   43  H   UNL     1     -12.812 -14.515  -1.802  1.00  0.00     0.210 HD
ENDBRANCH  35  42
BRANCH  36  44
HETATM   44  O   UNL     1     -14.941 -11.622  -2.909  1.00  0.00    -0.390 OA
HETATM   45  H   UNL     1     -15.223 -10.978  -3.587  1.00  0.00     0.210 HD
ENDBRANCH  36  44
ENDBRANCH  30  31
ENDBRANCH   4  30
TORSDOF 18
BEGIN_RES ARG D 557
REMARK  4 active torsions:
REMARK  status: ('A' for Active; 'I' for Inactive)
REMARK    1  A    between atoms: CA   and  CB  
REMARK    2  A    between atoms: CB   and  CG  
REMARK    3  A    between atoms: CG   and  CD  
REMARK    4  A    between atoms: CD   and  NE  
REMARK       I    between atoms: NE   and  CZ  
REMARK       I    between atoms: CZ   and  NH1 
REMARK       I    between atoms: CZ   and  NH2 
ROOT
ATOM      1  CA  ARG D 557     -26.217   2.705 -17.014  1.00 35.49     0.159 C 
ENDROOT
BRANCH   1   2
ATOM      2  CB  ARG D 557     -26.789   1.319 -17.183  1.00 35.49     0.034 C 
BRANCH   2   3
ATOM      3  CG  ARG D 557     -25.918   0.196 -16.816  1.00 35.49     0.027 C 
BRANCH   3   4
ATOM      4  CD  ARG D 557     -26.654  -0.884 -16.119  1.00 35.49     0.116 C 
BRANCH   4   5
ATOM      5  NE  ARG D 557     -25.860  -1.506 -15.092  1.00 35.49    -0.212 N 
ATOM      6  CZ  ARG D 557     -25.902  -2.775 -14.751  1.00 35.49     0.666 C 
ATOM      7  NH1 ARG D 557     -26.718  -3.637 -15.328  1.00 35.49    -0.235 N 
ATOM      8  NH2 ARG D 557     -25.095  -3.170 -13.811  1.00 35.49    -0.235 N 
ATOM      9  HH  ARG D 557     -27.257  -3.399 -15.951  1.00 35.49     0.174 HD
ATOM     10  HH  ARG D 557     -26.700  -4.453 -15.066  1.00 35.49     0.174 HD
ATOM     11  HH  ARG D 557     -24.573  -2.593 -13.461  1.00 35.49     0.174 HD
ATOM     12  HH  ARG D 557     -25.090  -3.982 -13.566  1.00 35.49     0.174 HD
ATOM     13  HE  ARG D 557     -25.358  -1.008 -14.619  1.00 35.49     0.178 HD
ENDBRANCH   4   5
ENDBRANCH   3   4
ENDBRANCH   2   3
ENDBRANCH   1   2
END_RES ARG D 557
BEGIN_RES GLU D 570
REMARK  3 active torsions:
REMARK  status: ('A' for Active; 'I' for Inactive)
REMARK    5  A    between atoms: CA   and  CB  
REMARK    6  A    between atoms: CB   and  CG  
REMARK    7  A    between atoms: CG   and  CD  
ROOT
ATOM     14  CA  GLU D 570     -18.033  -6.348 -13.375  1.00 32.92     0.160 C 
ENDROOT
BRANCH  14  15
ATOM     15  CB  GLU D 570     -19.500  -6.345 -13.794  1.00 32.92     0.043 C 
BRANCH  15  16
ATOM     16  CG  GLU D 570     -20.450  -5.572 -12.954  1.00 32.92     0.100 C 
BRANCH  16  17
ATOM     17  CD  GLU D 570     -21.696  -5.158 -13.701  1.00 32.92     0.185 C 
ATOM     18  OE1 GLU D 570     -21.640  -5.013 -14.938  1.00 32.92    -0.647 OA
ATOM     19  OE2 GLU D 570     -22.736  -4.960 -13.042  1.00 32.92    -0.647 OA
ENDBRANCH  16  17
ENDBRANCH  15  16
ENDBRANCH  14  15
END_RES GLU D 570
ENDMDL
MODEL 9
REMARK VINA RESULT:      -5.5      5.246     10.311
REMARK  18 active torsions:
REMARK  status: ('A' for Active; 'I' for Inactive)
REMARK    1  A    between atoms: C_1  and  C_2 
REMARK    2  A    between atoms: C_1  and  O_34 
REMARK    3  A    between atoms: C_3  and  O_33 
REMARK    4  A    between atoms: C_4  and  O_32 
REMARK    5  A    between atoms: C_5  and  O_31 
REMARK    6  A    between atoms: C_6  and  O_8 
REMARK    7  A    between atoms: O_8  and  C_9 
REMARK    8  A    between atoms: C_10  and  C_29 
REMARK    9  A    between atoms: C_12  and  O_17 
REMARK   10  A    between atoms: C_13  and  O_16 
REMARK   11  A    between atoms: C_14  and  O_15 
REMARK   12  A    between atoms: O_17  and  C_18 
REMARK   13  A    between atoms: C_19  and  C_27 
REMARK   14  A    between atoms: C_21  and  O_26 
REMARK   15  A    between atoms: C_22  and  O_25 
REMARK   16  A    between atoms: C_23  and  O_24 
REMARK   17  A    between atoms: C_27  and  O_28 
REMARK   18  A    between atoms: C_29  and  O_30 
ROOT
HETATM    1  C   UNL     1     -18.793 -10.481  -2.196  1.00  0.00     0.187 C 
HETATM    2  C   UNL     1     -17.948 -10.190  -3.454  1.00  0.00     0.180 C 
HETATM    3  O   UNL     1     -18.029 -11.272  -4.395  1.00  0.00    -0.348 OA
HETATM    4  C   UNL     1     -17.674 -12.576  -3.941  1.00  0.00     0.292 C 
HETATM    5  C   UNL     1     -18.210 -12.930  -2.513  1.00  0.00     0.204 C 
HETATM    6  C   UNL     1     -18.240 -11.747  -1.532  1.00  0.00     0.183 C 
ENDROOT
BRANCH   1   7
HETATM    7  O   UNL     1     -20.164 -10.586  -2.639  1.00  0.00    -0.348 OA
BRANCH   7   8
HETATM    8  C   UNL     1     -21.238  -9.967  -1.921  1.00  0.00     0.292 C 
HETATM    9  C   UNL     1     -21.270  -8.414  -1.927  1.00  0.00     0.204 C 
HETATM   10  C   UNL     1     -22.497  -7.934  -1.138  1.00  0.00     0.183 C 
HETATM   11  C   UNL     1     -22.534  -8.556   0.270  1.00  0.00     0.180 C 
HETATM   12  C   UNL     1     -22.478 -10.088   0.179  1.00  0.00     0.179 C 
HETATM   13  O   UNL     1     -21.356 -10.542  -0.620  1.00  0.00    -0.348 OA
BRANCH   9  14
HETATM   14  O   UNL     1     -20.118  -7.775  -1.349  1.00  0.00    -0.388 OA
HETATM   15  H   UNL     1     -19.705  -7.210  -2.046  1.00  0.00     0.210 HD
ENDBRANCH   9  14
BRANCH  10  16
HETATM   16  O   UNL     1     -22.496  -6.502  -1.032  1.00  0.00    -0.390 OA
HETATM   17  H   UNL     1     -22.799  -6.150  -1.891  1.00  0.00     0.210 HD
ENDBRANCH  10  16
BRANCH  11  18
HETATM   18  O   UNL     1     -21.413  -8.131   1.059  1.00  0.00    -0.390 OA
HETATM   19  H   UNL     1     -21.595  -8.357   1.990  1.00  0.00     0.210 HD
ENDBRANCH  11  18
BRANCH  12  20
HETATM   20  C   UNL     1     -23.800 -10.699  -0.303  1.00  0.00     0.198 C 
BRANCH  20  21
HETATM   21  O   UNL     1     -23.728 -12.121  -0.309  1.00  0.00    -0.398 OA
HETATM   22  H   UNL     1     -23.114 -12.383   0.401  1.00  0.00     0.209 HD
ENDBRANCH  20  21
ENDBRANCH  12  20
ENDBRANCH   7   8
ENDBRANCH   1   7
BRANCH   2  23
HETATM   23  C   UNL     1     -16.501  -9.724  -3.171  1.00  0.00     0.198 C 
BRANCH  23  24
HETATM   24  O   UNL     1     -15.627  -9.834  -4.289  1.00  0.00    -0.398 OA
HETATM   25  H   UNL     1     -15.282 -10.747  -4.313  1.00  0.00     0.209 HD
ENDBRANCH  23  24
ENDBRANCH   2  23
BRANCH   6  26
HETATM   26  O   UNL     1     -18.957 -12.019  -0.318  1.00  0.00    -0.390 OA
HETATM   27  H   UNL     1     -18.740 -12.941  -0.060  1.00  0.00     0.210 HD
ENDBRANCH   6  26
BRANCH   5  28
HETATM   28  O   UNL     1     -17.521 -14.044  -1.934  1.00  0.00    -0.388 OA
HETATM   29  H   UNL     1     -16.602 -13.754  -1.782  1.00  0.00     0.210 HD
ENDBRANCH   5  28
BRANCH   4  30
HETATM   30  O   UNL     1     -16.275 -12.878  -4.177  1.00  0.00    -0.348 OA
BRANCH  30  31
HETATM   31  C   UNL     1     -16.071 -13.674  -5.391  1.00  0.00     0.187 C 
HETATM   32  C   UNL     1     -15.633 -15.137  -5.113  1.00  0.00     0.180 C 
HETATM   33  O   UNL     1     -14.262 -15.221  -4.695  1.00  0.00    -0.349 OA
HETATM   34  C   UNL     1     -13.293 -14.650  -5.549  1.00  0.00     0.288 C 
HETATM   35  C   UNL     1     -13.583 -13.180  -5.900  1.00  0.00     0.204 C 
HETATM   36  C   UNL     1     -15.054 -12.982  -6.317  1.00  0.00     0.183 C 
BRANCH  32  37
HETATM   37  C   UNL     1     -15.937 -16.064  -6.309  1.00  0.00     0.198 C 
BRANCH  37  38
HETATM   38  O   UNL     1     -17.203 -15.736  -6.873  1.00  0.00    -0.398 OA
HETATM   39  H   UNL     1     -17.057 -14.931  -7.409  1.00  0.00     0.209 HD
ENDBRANCH  37  38
ENDBRANCH  32  37
BRANCH  34  40
HETATM   40  O   UNL     1     -13.103 -15.451  -6.712  1.00  0.00    -0.369 OA
HETATM   41  H   UNL     1     -12.980 -16.374  -6.424  1.00  0.00     0.212 HD
ENDBRANCH  34  40
BRANCH  35  42
HETATM   42  O   UNL     1     -12.729 -12.783  -6.995  1.00  0.00    -0.388 OA
HETATM   43  H   UNL     1     -11.879 -13.253  -6.913  1.00  0.00     0.210 HD
ENDBRANCH  35  42
BRANCH  36  44
HETATM   44  O   UNL     1     -15.367 -11.587  -6.440  1.00  0.00    -0.390 OA
HETATM   45  H   UNL     1     -14.727 -11.212  -7.077  1.00  0.00     0.210 HD
ENDBRANCH  36  44
ENDBRANCH  30  31
ENDBRANCH   4  30
TORSDOF 18
BEGIN_RES ARG D 557
REMARK  4 active torsions:
REMARK  status: ('A' for Active; 'I' for Inactive)
REMARK    1  A    between atoms: CA   and  CB  
REMARK    2  A    between atoms: CB   and  CG  
REMARK    3  A    between atoms: CG   and  CD  
REMARK    4  A    between atoms: CD   and  NE  
REMARK       I    between atoms: NE   and  CZ  
REMARK       I    between atoms: CZ   and  NH1 
REMARK       I    between atoms: CZ   and  NH2 
ROOT
ATOM      1  CA  ARG D 557     -26.217   2.705 -17.014  1.00 35.49     0.159 C 
ENDROOT
BRANCH   1   2
ATOM      2  CB  ARG D 557     -26.789   1.319 -17.183  1.00 35.49     0.034 C 
BRANCH   2   3
ATOM      3  CG  ARG D 557     -25.836   0.203 -17.153  1.00 35.49     0.027 C 
BRANCH   3   4
ATOM      4  CD  ARG D 557     -24.765   0.402 -16.150  1.00 35.49     0.116 C 
BRANCH   4   5
ATOM      5  NE  ARG D 557     -24.928  -0.455 -15.005  1.00 35.49    -0.212 N 
ATOM      6  CZ  ARG D 557     -24.122  -1.432 -14.655  1.00 35.49     0.666 C 
ATOM      7  NH1 ARG D 557     -23.047  -1.748 -15.354  1.00 35.49    -0.235 N 
ATOM      8  NH2 ARG D 557     -24.413  -2.092 -13.573  1.00 35.49    -0.235 N 
ATOM      9  HH  ARG D 557     -22.835  -1.325 -16.068  1.00 35.49     0.174 HD
ATOM     10  HH  ARG D 557     -22.557  -2.393 -15.076  1.00 35.49     0.174 HD
ATOM     11  HH  ARG D 557     -25.110  -1.861 -13.138  1.00 35.49     0.174 HD
ATOM     12  HH  ARG D 557     -23.915  -2.727 -13.313  1.00 35.49     0.174 HD
ATOM     13  HE  ARG D 557     -25.634  -0.368 -14.539  1.00 35.49     0.178 HD
ENDBRANCH   4   5
ENDBRANCH   3   4
ENDBRANCH   2   3
ENDBRANCH   1   2
END_RES ARG D 557
BEGIN_RES GLU D 570
REMARK  3 active torsions:
REMARK  status: ('A' for Active; 'I' for Inactive)
REMARK    5  A    between atoms: CA   and  CB  
REMARK    6  A    between atoms: CB   and  CG  
REMARK    7  A    between atoms: CG   and  CD  
ROOT
ATOM     14  CA  GLU D 570     -18.033  -6.348 -13.375  1.00 32.92     0.160 C 
ENDROOT
BRANCH  14  15
ATOM     15  CB  GLU D 570     -19.500  -6.345 -13.794  1.00 32.92     0.043 C 
BRANCH  15  16
ATOM     16  CG  GLU D 570     -20.444  -5.543 -12.974  1.00 32.92     0.100 C 
BRANCH  16  17
ATOM     17  CD  GLU D 570     -21.657  -5.085 -13.751  1.00 32.92     0.185 C 
ATOM     18  OE1 GLU D 570     -22.336  -4.138 -13.310  1.00 32.92    -0.647 OA
ATOM     19  OE2 GLU D 570     -21.940  -5.692 -14.803  1.00 32.92    -0.647 OA
ENDBRANCH  16  17
ENDBRANCH  15  16
ENDBRANCH  14  15
END_RES GLU D 570
ENDMDL
