MODEL 1
REMARK VINA RESULT:      -1.3      0.000      0.000
REMARK  13 active torsions:
REMARK  status: ('A' for Active; 'I' for Inactive)
REMARK    1  A    between atoms: C_11  and  O_12 
REMARK    2  A    between atoms: O_12  and  C_13 
REMARK    3  A    between atoms: C_14  and  O_24 
REMARK    4  A    between atoms: C_15  and  O_23 
REMARK    5  A    between atoms: C_16  and  O_22 
REMARK    6  A    between atoms: C_17  and  C_19 
REMARK    7  A    between atoms: O_24  and  C_25 
REMARK    8  A    between atoms: C_26  and  O_36 
REMARK    9  A    between atoms: C_27  and  O_35 
REMARK   10  A    between atoms: C_28  and  O_34 
REMARK   11  A    between atoms: C_29  and  C_31 
REMARK   12  A    between atoms: C_48  and  C_52 
REMARK   13  A    between atoms: C_52  and  O_54 
ROOT
HETATM    1  K   UNL     2     -32.363  -8.533   4.538  1.00  0.00     0.000 K 
ENDROOT
TORSDOF 13
BEGIN_RES ARG D 557
REMARK  4 active torsions:
REMARK  status: ('A' for Active; 'I' for Inactive)
REMARK    1  A    between atoms: CA   and  CB  
REMARK    2  A    between atoms: CB   and  CG  
REMARK    3  A    between atoms: CG   and  CD  
REMARK    4  A    between atoms: CD   and  NE  
REMARK       I    between atoms: NE   and  CZ  
REMARK       I    between atoms: CZ   and  NH1 
REMARK       I    between atoms: CZ   and  NH2 
ROOT
ATOM      1  CA  ARG D 557     -26.217   2.705 -17.014  1.00 35.49     0.159 C 
ENDROOT
BRANCH   1   2
ATOM      2  CB  ARG D 557     -26.789   1.319 -17.183  1.00 35.49     0.034 C 
BRANCH   2   3
ATOM      3  CG  ARG D 557     -25.835   0.204 -17.167  1.00 35.49     0.027 C 
BRANCH   3   4
ATOM      4  CD  ARG D 557     -24.741   0.412 -16.190  1.00 35.49     0.116 C 
BRANCH   4   5
ATOM      5  NE  ARG D 557     -24.885  -0.426 -15.028  1.00 35.49    -0.212 N 
ATOM      6  CZ  ARG D 557     -24.073  -1.398 -14.677  1.00 35.49     0.666 C 
ATOM      7  NH1 ARG D 557     -23.010  -1.726 -15.388  1.00 35.49    -0.235 N 
ATOM      8  NH2 ARG D 557     -24.346  -2.040 -13.578  1.00 35.49    -0.235 N 
ATOM      9  HH  ARG D 557     -22.810  -1.316 -16.113  1.00 35.49     0.174 HD
ATOM     10  HH  ARG D 557     -22.516  -2.368 -15.108  1.00 35.49     0.174 HD
ATOM     11  HH  ARG D 557     -25.034  -1.801 -13.136  1.00 35.49     0.174 HD
ATOM     12  HH  ARG D 557     -23.843  -2.671 -13.317  1.00 35.49     0.174 HD
ATOM     13  HE  ARG D 557     -25.582  -0.331 -14.552  1.00 35.49     0.178 HD
ENDBRANCH   4   5
ENDBRANCH   3   4
ENDBRANCH   2   3
ENDBRANCH   1   2
END_RES ARG D 557
BEGIN_RES GLU D 570
REMARK  3 active torsions:
REMARK  status: ('A' for Active; 'I' for Inactive)
REMARK    5  A    between atoms: CA   and  CB  
REMARK    6  A    between atoms: CB   and  CG  
REMARK    7  A    between atoms: CG   and  CD  
ROOT
ATOM     14  CA  GLU D 570     -18.033  -6.348 -13.375  1.00 32.92     0.160 C 
ENDROOT
BRANCH  14  15
ATOM     15  CB  GLU D 570     -19.500  -6.345 -13.794  1.00 32.92     0.043 C 
BRANCH  15  16
ATOM     16  CG  GLU D 570     -20.442  -5.530 -12.984  1.00 32.92     0.100 C 
BRANCH  16  17
ATOM     17  CD  GLU D 570     -21.736  -5.235 -13.705  1.00 32.92     0.185 C 
ATOM     18  OE1 GLU D 570     -22.316  -4.153 -13.490  1.00 32.92    -0.647 OA
ATOM     19  OE2 GLU D 570     -22.184  -6.102 -14.480  1.00 32.92    -0.647 OA
ENDBRANCH  16  17
ENDBRANCH  15  16
ENDBRANCH  14  15
END_RES GLU D 570
ENDMDL
MODEL 2
REMARK VINA RESULT:      -1.2     10.542     10.542
REMARK  13 active torsions:
REMARK  status: ('A' for Active; 'I' for Inactive)
REMARK    1  A    between atoms: C_11  and  O_12 
REMARK    2  A    between atoms: O_12  and  C_13 
REMARK    3  A    between atoms: C_14  and  O_24 
REMARK    4  A    between atoms: C_15  and  O_23 
REMARK    5  A    between atoms: C_16  and  O_22 
REMARK    6  A    between atoms: C_17  and  C_19 
REMARK    7  A    between atoms: O_24  and  C_25 
REMARK    8  A    between atoms: C_26  and  O_36 
REMARK    9  A    between atoms: C_27  and  O_35 
REMARK   10  A    between atoms: C_28  and  O_34 
REMARK   11  A    between atoms: C_29  and  C_31 
REMARK   12  A    between atoms: C_48  and  C_52 
REMARK   13  A    between atoms: C_52  and  O_54 
ROOT
HETATM    1  K   UNL     2      -9.102   5.898 -17.211  1.00  0.00     0.000 K 
ENDROOT
TORSDOF 13
BEGIN_RES ARG D 557
REMARK  4 active torsions:
REMARK  status: ('A' for Active; 'I' for Inactive)
REMARK    1  A    between atoms: CA   and  CB  
REMARK    2  A    between atoms: CB   and  CG  
REMARK    3  A    between atoms: CG   and  CD  
REMARK    4  A    between atoms: CD   and  NE  
REMARK       I    between atoms: NE   and  CZ  
REMARK       I    between atoms: CZ   and  NH1 
REMARK       I    between atoms: CZ   and  NH2 
ROOT
ATOM      1  CA  ARG D 557     -26.217   2.705 -17.014  1.00 35.49     0.159 C 
ENDROOT
BRANCH   1   2
ATOM      2  CB  ARG D 557     -26.789   1.319 -17.183  1.00 35.49     0.034 C 
BRANCH   2   3
ATOM      3  CG  ARG D 557     -25.836   0.203 -17.157  1.00 35.49     0.027 C 
BRANCH   3   4
ATOM      4  CD  ARG D 557     -24.747   0.414 -16.175  1.00 35.49     0.116 C 
BRANCH   4   5
ATOM      5  NE  ARG D 557     -24.890  -0.429 -15.017  1.00 35.49    -0.212 N 
ATOM      6  CZ  ARG D 557     -24.076  -1.401 -14.670  1.00 35.49     0.666 C 
ATOM      7  NH1 ARG D 557     -23.013  -1.724 -15.382  1.00 35.49    -0.235 N 
ATOM      8  NH2 ARG D 557     -24.349  -2.048 -13.574  1.00 35.49    -0.235 N 
ATOM      9  HH  ARG D 557     -22.813  -1.310 -16.105  1.00 35.49     0.174 HD
ATOM     10  HH  ARG D 557     -22.517  -2.366 -15.104  1.00 35.49     0.174 HD
ATOM     11  HH  ARG D 557     -25.038  -1.812 -13.131  1.00 35.49     0.174 HD
ATOM     12  HH  ARG D 557     -23.845  -2.679 -13.315  1.00 35.49     0.174 HD
ATOM     13  HE  ARG D 557     -25.588  -0.337 -14.541  1.00 35.49     0.178 HD
ENDBRANCH   4   5
ENDBRANCH   3   4
ENDBRANCH   2   3
ENDBRANCH   1   2
END_RES ARG D 557
BEGIN_RES GLU D 570
REMARK  3 active torsions:
REMARK  status: ('A' for Active; 'I' for Inactive)
REMARK    5  A    between atoms: CA   and  CB  
REMARK    6  A    between atoms: CB   and  CG  
REMARK    7  A    between atoms: CG   and  CD  
ROOT
ATOM     14  CA  GLU D 570     -18.033  -6.348 -13.375  1.00 32.92     0.160 C 
ENDROOT
BRANCH  14  15
ATOM     15  CB  GLU D 570     -19.500  -6.345 -13.794  1.00 32.92     0.043 C 
BRANCH  15  16
ATOM     16  CG  GLU D 570     -20.445  -5.544 -12.974  1.00 32.92     0.100 C 
BRANCH  16  17
ATOM     17  CD  GLU D 570     -21.738  -5.239 -13.693  1.00 32.92     0.185 C 
ATOM     18  OE1 GLU D 570     -22.275  -4.127 -13.529  1.00 32.92    -0.647 OA
ATOM     19  OE2 GLU D 570     -22.229  -6.129 -14.415  1.00 32.92    -0.647 OA
ENDBRANCH  16  17
ENDBRANCH  15  16
ENDBRANCH  14  15
END_RES GLU D 570
ENDMDL
MODEL 3
REMARK VINA RESULT:      -1.1      7.161      7.233
REMARK  13 active torsions:
REMARK  status: ('A' for Active; 'I' for Inactive)
REMARK    1  A    between atoms: C_11  and  O_12 
REMARK    2  A    between atoms: O_12  and  C_13 
REMARK    3  A    between atoms: C_14  and  O_24 
REMARK    4  A    between atoms: C_15  and  O_23 
REMARK    5  A    between atoms: C_16  and  O_22 
REMARK    6  A    between atoms: C_17  and  C_19 
REMARK    7  A    between atoms: O_24  and  C_25 
REMARK    8  A    between atoms: C_26  and  O_36 
REMARK    9  A    between atoms: C_27  and  O_35 
REMARK   10  A    between atoms: C_28  and  O_34 
REMARK   11  A    between atoms: C_29  and  C_31 
REMARK   12  A    between atoms: C_48  and  C_52 
REMARK   13  A    between atoms: C_52  and  O_54 
ROOT
HETATM    1  K   UNL     2     -11.247   1.607   2.475  1.00  0.00     0.000 K 
ENDROOT
TORSDOF 13
BEGIN_RES ARG D 557
REMARK  4 active torsions:
REMARK  status: ('A' for Active; 'I' for Inactive)
REMARK    1  A    between atoms: CA   and  CB  
REMARK    2  A    between atoms: CB   and  CG  
REMARK    3  A    between atoms: CG   and  CD  
REMARK    4  A    between atoms: CD   and  NE  
REMARK       I    between atoms: NE   and  CZ  
REMARK       I    between atoms: CZ   and  NH1 
REMARK       I    between atoms: CZ   and  NH2 
ROOT
ATOM      1  CA  ARG D 557     -26.217   2.705 -17.014  1.00 35.49     0.159 C 
ENDROOT
BRANCH   1   2
ATOM      2  CB  ARG D 557     -26.789   1.319 -17.183  1.00 35.49     0.034 C 
BRANCH   2   3
ATOM      3  CG  ARG D 557     -25.864   0.195 -16.995  1.00 35.49     0.027 C 
BRANCH   3   4
ATOM      4  CD  ARG D 557     -26.288  -0.708 -15.900  1.00 35.49     0.116 C 
BRANCH   4   5
ATOM      5  NE  ARG D 557     -25.240  -0.923 -14.938  1.00 35.49    -0.212 N 
ATOM      6  CZ  ARG D 557     -24.955  -2.066 -14.355  1.00 35.49     0.666 C 
ATOM      7  NH1 ARG D 557     -25.635  -3.172 -14.592  1.00 35.49    -0.235 N 
ATOM      8  NH2 ARG D 557     -23.955  -2.082 -13.522  1.00 35.49    -0.235 N 
ATOM      9  HH  ARG D 557     -26.296  -3.185 -15.138  1.00 35.49     0.174 HD
ATOM     10  HH  ARG D 557     -25.402  -3.889 -14.185  1.00 35.49     0.174 HD
ATOM     11  HH  ARG D 557     -23.529  -1.354 -13.394  1.00 35.49     0.174 HD
ATOM     12  HH  ARG D 557     -23.738  -2.802 -13.130  1.00 35.49     0.174 HD
ATOM     13  HE  ARG D 557     -24.798  -0.247 -14.671  1.00 35.49     0.178 HD
ENDBRANCH   4   5
ENDBRANCH   3   4
ENDBRANCH   2   3
ENDBRANCH   1   2
END_RES ARG D 557
BEGIN_RES GLU D 570
REMARK  3 active torsions:
REMARK  status: ('A' for Active; 'I' for Inactive)
REMARK    5  A    between atoms: CA   and  CB  
REMARK    6  A    between atoms: CB   and  CG  
REMARK    7  A    between atoms: CG   and  CD  
ROOT
ATOM     14  CA  GLU D 570     -18.033  -6.348 -13.375  1.00 32.92     0.160 C 
ENDROOT
BRANCH  14  15
ATOM     15  CB  GLU D 570     -19.500  -6.345 -13.794  1.00 32.92     0.043 C 
BRANCH  15  16
ATOM     16  CG  GLU D 570     -20.449  -5.566 -12.957  1.00 32.92     0.100 C 
BRANCH  16  17
ATOM     17  CD  GLU D 570     -21.676  -5.119 -13.718  1.00 32.92     0.185 C 
ATOM     18  OE1 GLU D 570     -21.612  -5.010 -14.958  1.00 32.92    -0.647 OA
ATOM     19  OE2 GLU D 570     -22.706  -4.860 -13.066  1.00 32.92    -0.647 OA
ENDBRANCH  16  17
ENDBRANCH  15  16
ENDBRANCH  14  15
END_RES GLU D 570
ENDMDL
MODEL 4
REMARK VINA RESULT:      -1.0      4.750      4.750
REMARK  13 active torsions:
REMARK  status: ('A' for Active; 'I' for Inactive)
REMARK    1  A    between atoms: C_11  and  O_12 
REMARK    2  A    between atoms: O_12  and  C_13 
REMARK    3  A    between atoms: C_14  and  O_24 
REMARK    4  A    between atoms: C_15  and  O_23 
REMARK    5  A    between atoms: C_16  and  O_22 
REMARK    6  A    between atoms: C_17  and  C_19 
REMARK    7  A    between atoms: O_24  and  C_25 
REMARK    8  A    between atoms: C_26  and  O_36 
REMARK    9  A    between atoms: C_27  and  O_35 
REMARK   10  A    between atoms: C_28  and  O_34 
REMARK   11  A    between atoms: C_29  and  C_31 
REMARK   12  A    between atoms: C_48  and  C_52 
REMARK   13  A    between atoms: C_52  and  O_54 
ROOT
HETATM    1  K   UNL     2     -26.919  -3.571  -9.385  1.00  0.00     0.000 K 
ENDROOT
TORSDOF 13
BEGIN_RES ARG D 557
REMARK  4 active torsions:
REMARK  status: ('A' for Active; 'I' for Inactive)
REMARK    1  A    between atoms: CA   and  CB  
REMARK    2  A    between atoms: CB   and  CG  
REMARK    3  A    between atoms: CG   and  CD  
REMARK    4  A    between atoms: CD   and  NE  
REMARK       I    between atoms: NE   and  CZ  
REMARK       I    between atoms: CZ   and  NH1 
REMARK       I    between atoms: CZ   and  NH2 
ROOT
ATOM      1  CA  ARG D 557     -26.217   2.705 -17.014  1.00 35.49     0.159 C 
ENDROOT
BRANCH   1   2
ATOM      2  CB  ARG D 557     -26.789   1.319 -17.183  1.00 35.49     0.034 C 
BRANCH   2   3
ATOM      3  CG  ARG D 557     -25.835   0.203 -17.161  1.00 35.49     0.027 C 
BRANCH   3   4
ATOM      4  CD  ARG D 557     -24.747   0.411 -16.178  1.00 35.49     0.116 C 
BRANCH   4   5
ATOM      5  NE  ARG D 557     -24.892  -0.433 -15.021  1.00 35.49    -0.212 N 
ATOM      6  CZ  ARG D 557     -24.079  -1.404 -14.672  1.00 35.49     0.666 C 
ATOM      7  NH1 ARG D 557     -23.012  -1.725 -15.381  1.00 35.49    -0.235 N 
ATOM      8  NH2 ARG D 557     -24.354  -2.053 -13.578  1.00 35.49    -0.235 N 
ATOM      9  HH  ARG D 557     -22.811  -1.310 -16.103  1.00 35.49     0.174 HD
ATOM     10  HH  ARG D 557     -22.516  -2.366 -15.102  1.00 35.49     0.174 HD
ATOM     11  HH  ARG D 557     -25.045  -1.819 -13.136  1.00 35.49     0.174 HD
ATOM     12  HH  ARG D 557     -23.850  -2.683 -13.318  1.00 35.49     0.174 HD
ATOM     13  HE  ARG D 557     -25.592  -0.343 -14.547  1.00 35.49     0.178 HD
ENDBRANCH   4   5
ENDBRANCH   3   4
ENDBRANCH   2   3
ENDBRANCH   1   2
END_RES ARG D 557
BEGIN_RES GLU D 570
REMARK  3 active torsions:
REMARK  status: ('A' for Active; 'I' for Inactive)
REMARK    5  A    between atoms: CA   and  CB  
REMARK    6  A    between atoms: CB   and  CG  
REMARK    7  A    between atoms: CG   and  CD  
ROOT
ATOM     14  CA  GLU D 570     -18.033  -6.348 -13.375  1.00 32.92     0.160 C 
ENDROOT
BRANCH  14  15
ATOM     15  CB  GLU D 570     -19.500  -6.345 -13.794  1.00 32.92     0.043 C 
BRANCH  15  16
ATOM     16  CG  GLU D 570     -20.443  -5.534 -12.981  1.00 32.92     0.100 C 
BRANCH  16  17
ATOM     17  CD  GLU D 570     -21.741  -5.245 -13.697  1.00 32.92     0.185 C 
ATOM     18  OE1 GLU D 570     -22.293  -4.141 -13.528  1.00 32.92    -0.647 OA
ATOM     19  OE2 GLU D 570     -22.220  -6.139 -14.422  1.00 32.92    -0.647 OA
ENDBRANCH  16  17
ENDBRANCH  15  16
ENDBRANCH  14  15
END_RES GLU D 570
ENDMDL
MODEL 5
REMARK VINA RESULT:      -1.0      8.348      8.348
REMARK  13 active torsions:
REMARK  status: ('A' for Active; 'I' for Inactive)
REMARK    1  A    between atoms: C_11  and  O_12 
REMARK    2  A    between atoms: O_12  and  C_13 
REMARK    3  A    between atoms: C_14  and  O_24 
REMARK    4  A    between atoms: C_15  and  O_23 
REMARK    5  A    between atoms: C_16  and  O_22 
REMARK    6  A    between atoms: C_17  and  C_19 
REMARK    7  A    between atoms: O_24  and  C_25 
REMARK    8  A    between atoms: C_26  and  O_36 
REMARK    9  A    between atoms: C_27  and  O_35 
REMARK   10  A    between atoms: C_28  and  O_34 
REMARK   11  A    between atoms: C_29  and  C_31 
REMARK   12  A    between atoms: C_48  and  C_52 
REMARK   13  A    between atoms: C_52  and  O_54 
ROOT
HETATM    1  K   UNL     2     -11.236   1.662 -10.166  1.00  0.00     0.000 K 
ENDROOT
TORSDOF 13
BEGIN_RES ARG D 557
REMARK  4 active torsions:
REMARK  status: ('A' for Active; 'I' for Inactive)
REMARK    1  A    between atoms: CA   and  CB  
REMARK    2  A    between atoms: CB   and  CG  
REMARK    3  A    between atoms: CG   and  CD  
REMARK    4  A    between atoms: CD   and  NE  
REMARK       I    between atoms: NE   and  CZ  
REMARK       I    between atoms: CZ   and  NH1 
REMARK       I    between atoms: CZ   and  NH2 
ROOT
ATOM      1  CA  ARG D 557     -26.217   2.705 -17.014  1.00 35.49     0.159 C 
ENDROOT
BRANCH   1   2
ATOM      2  CB  ARG D 557     -26.789   1.319 -17.183  1.00 35.49     0.034 C 
BRANCH   2   3
ATOM      3  CG  ARG D 557     -25.834   0.204 -17.169  1.00 35.49     0.027 C 
BRANCH   3   4
ATOM      4  CD  ARG D 557     -24.736   0.413 -16.198  1.00 35.49     0.116 C 
BRANCH   4   5
ATOM      5  NE  ARG D 557     -24.872  -0.425 -15.036  1.00 35.49    -0.212 N 
ATOM      6  CZ  ARG D 557     -24.059  -1.398 -14.692  1.00 35.49     0.666 C 
ATOM      7  NH1 ARG D 557     -23.003  -1.728 -15.412  1.00 35.49    -0.235 N 
ATOM      8  NH2 ARG D 557     -24.325  -2.042 -13.592  1.00 35.49    -0.235 N 
ATOM      9  HH  ARG D 557     -22.808  -1.317 -16.138  1.00 35.49     0.174 HD
ATOM     10  HH  ARG D 557     -22.507  -2.370 -15.136  1.00 35.49     0.174 HD
ATOM     11  HH  ARG D 557     -25.010  -1.802 -13.144  1.00 35.49     0.174 HD
ATOM     12  HH  ARG D 557     -23.821  -2.674 -13.336  1.00 35.49     0.174 HD
ATOM     13  HE  ARG D 557     -25.566  -0.330 -14.554  1.00 35.49     0.178 HD
ENDBRANCH   4   5
ENDBRANCH   3   4
ENDBRANCH   2   3
ENDBRANCH   1   2
END_RES ARG D 557
BEGIN_RES GLU D 570
REMARK  3 active torsions:
REMARK  status: ('A' for Active; 'I' for Inactive)
REMARK    5  A    between atoms: CA   and  CB  
REMARK    6  A    between atoms: CB   and  CG  
REMARK    7  A    between atoms: CG   and  CD  
ROOT
ATOM     14  CA  GLU D 570     -18.033  -6.348 -13.375  1.00 32.92     0.160 C 
ENDROOT
BRANCH  14  15
ATOM     15  CB  GLU D 570     -19.500  -6.345 -13.794  1.00 32.92     0.043 C 
BRANCH  15  16
ATOM     16  CG  GLU D 570     -20.442  -5.532 -12.982  1.00 32.92     0.100 C 
BRANCH  16  17
ATOM     17  CD  GLU D 570     -21.742  -5.246 -13.698  1.00 32.92     0.185 C 
ATOM     18  OE1 GLU D 570     -22.296  -4.143 -13.530  1.00 32.92    -0.647 OA
ATOM     19  OE2 GLU D 570     -22.220  -6.142 -14.422  1.00 32.92    -0.647 OA
ENDBRANCH  16  17
ENDBRANCH  15  16
ENDBRANCH  14  15
END_RES GLU D 570
ENDMDL
MODEL 6
REMARK VINA RESULT:      -1.0      2.938      3.082
REMARK  13 active torsions:
REMARK  status: ('A' for Active; 'I' for Inactive)
REMARK    1  A    between atoms: C_11  and  O_12 
REMARK    2  A    between atoms: O_12  and  C_13 
REMARK    3  A    between atoms: C_14  and  O_24 
REMARK    4  A    between atoms: C_15  and  O_23 
REMARK    5  A    between atoms: C_16  and  O_22 
REMARK    6  A    between atoms: C_17  and  C_19 
REMARK    7  A    between atoms: O_24  and  C_25 
REMARK    8  A    between atoms: C_26  and  O_36 
REMARK    9  A    between atoms: C_27  and  O_35 
REMARK   10  A    between atoms: C_28  and  O_34 
REMARK   11  A    between atoms: C_29  and  C_31 
REMARK   12  A    between atoms: C_48  and  C_52 
REMARK   13  A    between atoms: C_52  and  O_54 
ROOT
HETATM    1  K   UNL     2     -32.970  -6.232  -4.909  1.00  0.00     0.000 K 
ENDROOT
TORSDOF 13
BEGIN_RES ARG D 557
REMARK  4 active torsions:
REMARK  status: ('A' for Active; 'I' for Inactive)
REMARK    1  A    between atoms: CA   and  CB  
REMARK    2  A    between atoms: CB   and  CG  
REMARK    3  A    between atoms: CG   and  CD  
REMARK    4  A    between atoms: CD   and  NE  
REMARK       I    between atoms: NE   and  CZ  
REMARK       I    between atoms: CZ   and  NH1 
REMARK       I    between atoms: CZ   and  NH2 
ROOT
ATOM      1  CA  ARG D 557     -26.217   2.705 -17.014  1.00 35.49     0.159 C 
ENDROOT
BRANCH   1   2
ATOM      2  CB  ARG D 557     -26.789   1.319 -17.183  1.00 35.49     0.034 C 
BRANCH   2   3
ATOM      3  CG  ARG D 557     -25.835   0.203 -17.160  1.00 35.49     0.027 C 
BRANCH   3   4
ATOM      4  CD  ARG D 557     -24.751   0.408 -16.172  1.00 35.49     0.116 C 
BRANCH   4   5
ATOM      5  NE  ARG D 557     -24.899  -0.442 -15.020  1.00 35.49    -0.212 N 
ATOM      6  CZ  ARG D 557     -24.082  -1.410 -14.670  1.00 35.49     0.666 C 
ATOM      7  NH1 ARG D 557     -23.008  -1.721 -15.373  1.00 35.49    -0.235 N 
ATOM      8  NH2 ARG D 557     -24.360  -2.066 -13.581  1.00 35.49    -0.235 N 
ATOM      9  HH  ARG D 557     -22.805  -1.301 -16.091  1.00 35.49     0.174 HD
ATOM     10  HH  ARG D 557     -22.510  -2.360 -15.094  1.00 35.49     0.174 HD
ATOM     11  HH  ARG D 557     -25.056  -1.838 -13.143  1.00 35.49     0.174 HD
ATOM     12  HH  ARG D 557     -23.854  -2.694 -13.320  1.00 35.49     0.174 HD
ATOM     13  HE  ARG D 557     -25.603  -0.359 -14.550  1.00 35.49     0.178 HD
ENDBRANCH   4   5
ENDBRANCH   3   4
ENDBRANCH   2   3
ENDBRANCH   1   2
END_RES ARG D 557
BEGIN_RES GLU D 570
REMARK  3 active torsions:
REMARK  status: ('A' for Active; 'I' for Inactive)
REMARK    5  A    between atoms: CA   and  CB  
REMARK    6  A    between atoms: CB   and  CG  
REMARK    7  A    between atoms: CG   and  CD  
ROOT
ATOM     14  CA  GLU D 570     -18.033  -6.348 -13.375  1.00 32.92     0.160 C 
ENDROOT
BRANCH  14  15
ATOM     15  CB  GLU D 570     -19.500  -6.345 -13.794  1.00 32.92     0.043 C 
BRANCH  15  16
ATOM     16  CG  GLU D 570     -20.445  -5.545 -12.973  1.00 32.92     0.100 C 
BRANCH  16  17
ATOM     17  CD  GLU D 570     -21.744  -5.252 -13.686  1.00 32.92     0.185 C 
ATOM     18  OE1 GLU D 570     -22.249  -6.132 -14.410  1.00 32.92    -0.647 OA
ATOM     19  OE2 GLU D 570     -22.254  -4.124 -13.534  1.00 32.92    -0.647 OA
ENDBRANCH  16  17
ENDBRANCH  15  16
ENDBRANCH  14  15
END_RES GLU D 570
ENDMDL
MODEL 7
REMARK VINA RESULT:      -1.0      4.776      4.866
REMARK  13 active torsions:
REMARK  status: ('A' for Active; 'I' for Inactive)
REMARK    1  A    between atoms: C_11  and  O_12 
REMARK    2  A    between atoms: O_12  and  C_13 
REMARK    3  A    between atoms: C_14  and  O_24 
REMARK    4  A    between atoms: C_15  and  O_23 
REMARK    5  A    between atoms: C_16  and  O_22 
REMARK    6  A    between atoms: C_17  and  C_19 
REMARK    7  A    between atoms: O_24  and  C_25 
REMARK    8  A    between atoms: C_26  and  O_36 
REMARK    9  A    between atoms: C_27  and  O_35 
REMARK   10  A    between atoms: C_28  and  O_34 
REMARK   11  A    between atoms: C_29  and  C_31 
REMARK   12  A    between atoms: C_48  and  C_52 
REMARK   13  A    between atoms: C_52  and  O_54 
ROOT
HETATM    1  K   UNL     2     -32.967 -10.095 -11.213  1.00  0.00     0.000 K 
ENDROOT
TORSDOF 13
BEGIN_RES ARG D 557
REMARK  4 active torsions:
REMARK  status: ('A' for Active; 'I' for Inactive)
REMARK    1  A    between atoms: CA   and  CB  
REMARK    2  A    between atoms: CB   and  CG  
REMARK    3  A    between atoms: CG   and  CD  
REMARK    4  A    between atoms: CD   and  NE  
REMARK       I    between atoms: NE   and  CZ  
REMARK       I    between atoms: CZ   and  NH1 
REMARK       I    between atoms: CZ   and  NH2 
ROOT
ATOM      1  CA  ARG D 557     -26.217   2.705 -17.014  1.00 35.49     0.159 C 
ENDROOT
BRANCH   1   2
ATOM      2  CB  ARG D 557     -26.789   1.319 -17.183  1.00 35.49     0.034 C 
BRANCH   2   3
ATOM      3  CG  ARG D 557     -25.835   0.203 -17.159  1.00 35.49     0.027 C 
BRANCH   3   4
ATOM      4  CD  ARG D 557     -24.749   0.411 -16.175  1.00 35.49     0.116 C 
BRANCH   4   5
ATOM      5  NE  ARG D 557     -24.895  -0.434 -15.019  1.00 35.49    -0.212 N 
ATOM      6  CZ  ARG D 557     -24.082  -1.405 -14.669  1.00 35.49     0.666 C 
ATOM      7  NH1 ARG D 557     -23.014  -1.725 -15.377  1.00 35.49    -0.235 N 
ATOM      8  NH2 ARG D 557     -24.358  -2.055 -13.576  1.00 35.49    -0.235 N 
ATOM      9  HH  ARG D 557     -22.812  -1.310 -16.098  1.00 35.49     0.174 HD
ATOM     10  HH  ARG D 557     -22.519  -2.366 -15.098  1.00 35.49     0.174 HD
ATOM     11  HH  ARG D 557     -25.050  -1.821 -13.135  1.00 35.49     0.174 HD
ATOM     12  HH  ARG D 557     -23.854  -2.685 -13.316  1.00 35.49     0.174 HD
ATOM     13  HE  ARG D 557     -25.596  -0.345 -14.545  1.00 35.49     0.178 HD
ENDBRANCH   4   5
ENDBRANCH   3   4
ENDBRANCH   2   3
ENDBRANCH   1   2
END_RES ARG D 557
BEGIN_RES GLU D 570
REMARK  3 active torsions:
REMARK  status: ('A' for Active; 'I' for Inactive)
REMARK    5  A    between atoms: CA   and  CB  
REMARK    6  A    between atoms: CB   and  CG  
REMARK    7  A    between atoms: CG   and  CD  
ROOT
ATOM     14  CA  GLU D 570     -18.033  -6.348 -13.375  1.00 32.92     0.160 C 
ENDROOT
BRANCH  14  15
ATOM     15  CB  GLU D 570     -19.500  -6.345 -13.794  1.00 32.92     0.043 C 
BRANCH  15  16
ATOM     16  CG  GLU D 570     -20.441  -5.529 -12.985  1.00 32.92     0.100 C 
BRANCH  16  17
ATOM     17  CD  GLU D 570     -21.730  -5.222 -13.711  1.00 32.92     0.185 C 
ATOM     18  OE1 GLU D 570     -22.158  -6.034 -14.554  1.00 32.92    -0.647 OA
ATOM     19  OE2 GLU D 570     -22.309  -4.149 -13.447  1.00 32.92    -0.647 OA
ENDBRANCH  16  17
ENDBRANCH  15  16
ENDBRANCH  14  15
END_RES GLU D 570
ENDMDL
MODEL 8
REMARK VINA RESULT:      -0.9      4.334      4.334
REMARK  13 active torsions:
REMARK  status: ('A' for Active; 'I' for Inactive)
REMARK    1  A    between atoms: C_11  and  O_12 
REMARK    2  A    between atoms: O_12  and  C_13 
REMARK    3  A    between atoms: C_14  and  O_24 
REMARK    4  A    between atoms: C_15  and  O_23 
REMARK    5  A    between atoms: C_16  and  O_22 
REMARK    6  A    between atoms: C_17  and  C_19 
REMARK    7  A    between atoms: O_24  and  C_25 
REMARK    8  A    between atoms: C_26  and  O_36 
REMARK    9  A    between atoms: C_27  and  O_35 
REMARK   10  A    between atoms: C_28  and  O_34 
REMARK   11  A    between atoms: C_29  and  C_31 
REMARK   12  A    between atoms: C_48  and  C_52 
REMARK   13  A    between atoms: C_52  and  O_54 
ROOT
HETATM    1  K   UNL     2     -22.591   0.074  -1.550  1.00  0.00     0.000 K 
ENDROOT
TORSDOF 13
BEGIN_RES ARG D 557
REMARK  4 active torsions:
REMARK  status: ('A' for Active; 'I' for Inactive)
REMARK    1  A    between atoms: CA   and  CB  
REMARK    2  A    between atoms: CB   and  CG  
REMARK    3  A    between atoms: CG   and  CD  
REMARK    4  A    between atoms: CD   and  NE  
REMARK       I    between atoms: NE   and  CZ  
REMARK       I    between atoms: CZ   and  NH1 
REMARK       I    between atoms: CZ   and  NH2 
ROOT
ATOM      1  CA  ARG D 557     -26.217   2.705 -17.014  1.00 35.49     0.159 C 
ENDROOT
BRANCH   1   2
ATOM      2  CB  ARG D 557     -26.789   1.319 -17.183  1.00 35.49     0.034 C 
BRANCH   2   3
ATOM      3  CG  ARG D 557     -25.835   0.203 -17.161  1.00 35.49     0.027 C 
BRANCH   3   4
ATOM      4  CD  ARG D 557     -24.747   0.411 -16.179  1.00 35.49     0.116 C 
BRANCH   4   5
ATOM      5  NE  ARG D 557     -24.892  -0.434 -15.023  1.00 35.49    -0.212 N 
ATOM      6  CZ  ARG D 557     -24.077  -1.405 -14.673  1.00 35.49     0.666 C 
ATOM      7  NH1 ARG D 557     -23.010  -1.725 -15.382  1.00 35.49    -0.235 N 
ATOM      8  NH2 ARG D 557     -24.352  -2.055 -13.580  1.00 35.49    -0.235 N 
ATOM      9  HH  ARG D 557     -22.809  -1.309 -16.104  1.00 35.49     0.174 HD
ATOM     10  HH  ARG D 557     -22.514  -2.365 -15.104  1.00 35.49     0.174 HD
ATOM     11  HH  ARG D 557     -25.044  -1.821 -13.139  1.00 35.49     0.174 HD
ATOM     12  HH  ARG D 557     -23.848  -2.685 -13.320  1.00 35.49     0.174 HD
ATOM     13  HE  ARG D 557     -25.592  -0.345 -14.548  1.00 35.49     0.178 HD
ENDBRANCH   4   5
ENDBRANCH   3   4
ENDBRANCH   2   3
ENDBRANCH   1   2
END_RES ARG D 557
BEGIN_RES GLU D 570
REMARK  3 active torsions:
REMARK  status: ('A' for Active; 'I' for Inactive)
REMARK    5  A    between atoms: CA   and  CB  
REMARK    6  A    between atoms: CB   and  CG  
REMARK    7  A    between atoms: CG   and  CD  
ROOT
ATOM     14  CA  GLU D 570     -18.033  -6.348 -13.375  1.00 32.92     0.160 C 
ENDROOT
BRANCH  14  15
ATOM     15  CB  GLU D 570     -19.500  -6.345 -13.794  1.00 32.92     0.043 C 
BRANCH  15  16
ATOM     16  CG  GLU D 570     -20.445  -5.544 -12.973  1.00 32.92     0.100 C 
BRANCH  16  17
ATOM     17  CD  GLU D 570     -21.741  -5.245 -13.690  1.00 32.92     0.185 C 
ATOM     18  OE1 GLU D 570     -22.274  -4.129 -13.537  1.00 32.92    -0.647 OA
ATOM     19  OE2 GLU D 570     -22.237  -6.143 -14.399  1.00 32.92    -0.647 OA
ENDBRANCH  16  17
ENDBRANCH  15  16
ENDBRANCH  14  15
END_RES GLU D 570
ENDMDL
MODEL 9
REMARK VINA RESULT:      -0.9      8.200      8.200
REMARK  13 active torsions:
REMARK  status: ('A' for Active; 'I' for Inactive)
REMARK    1  A    between atoms: C_11  and  O_12 
REMARK    2  A    between atoms: O_12  and  C_13 
REMARK    3  A    between atoms: C_14  and  O_24 
REMARK    4  A    between atoms: C_15  and  O_23 
REMARK    5  A    between atoms: C_16  and  O_22 
REMARK    6  A    between atoms: C_17  and  C_19 
REMARK    7  A    between atoms: O_24  and  C_25 
REMARK    8  A    between atoms: C_26  and  O_36 
REMARK    9  A    between atoms: C_27  and  O_35 
REMARK   10  A    between atoms: C_28  and  O_34 
REMARK   11  A    between atoms: C_29  and  C_31 
REMARK   12  A    between atoms: C_48  and  C_52 
REMARK   13  A    between atoms: C_52  and  O_54 
ROOT
HETATM    1  K   UNL     2     -10.195  -7.639 -11.191  1.00  0.00     0.000 K 
ENDROOT
TORSDOF 13
BEGIN_RES ARG D 557
REMARK  4 active torsions:
REMARK  status: ('A' for Active; 'I' for Inactive)
REMARK    1  A    between atoms: CA   and  CB  
REMARK    2  A    between atoms: CB   and  CG  
REMARK    3  A    between atoms: CG   and  CD  
REMARK    4  A    between atoms: CD   and  NE  
REMARK       I    between atoms: NE   and  CZ  
REMARK       I    between atoms: CZ   and  NH1 
REMARK       I    between atoms: CZ   and  NH2 
ROOT
ATOM      1  CA  ARG D 557     -26.217   2.705 -17.014  1.00 35.49     0.159 C 
ENDROOT
BRANCH   1   2
ATOM      2  CB  ARG D 557     -26.789   1.319 -17.183  1.00 35.49     0.034 C 
BRANCH   2   3
ATOM      3  CG  ARG D 557     -25.835   0.203 -17.159  1.00 35.49     0.027 C 
BRANCH   3   4
ATOM      4  CD  ARG D 557     -24.753   0.407 -16.169  1.00 35.49     0.116 C 
BRANCH   4   5
ATOM      5  NE  ARG D 557     -24.907  -0.440 -15.016  1.00 35.49    -0.212 N 
ATOM      6  CZ  ARG D 557     -24.097  -1.413 -14.664  1.00 35.49     0.666 C 
ATOM      7  NH1 ARG D 557     -23.027  -1.734 -15.367  1.00 35.49    -0.235 N 
ATOM      8  NH2 ARG D 557     -24.380  -2.065 -13.573  1.00 35.49    -0.235 N 
ATOM      9  HH  ARG D 557     -22.821  -1.318 -16.087  1.00 35.49     0.174 HD
ATOM     10  HH  ARG D 557     -22.534  -2.377 -15.087  1.00 35.49     0.174 HD
ATOM     11  HH  ARG D 557     -25.073  -1.830 -13.135  1.00 35.49     0.174 HD
ATOM     12  HH  ARG D 557     -23.878  -2.697 -13.312  1.00 35.49     0.174 HD
ATOM     13  HE  ARG D 557     -25.610  -0.350 -14.545  1.00 35.49     0.178 HD
ENDBRANCH   4   5
ENDBRANCH   3   4
ENDBRANCH   2   3
ENDBRANCH   1   2
END_RES ARG D 557
BEGIN_RES GLU D 570
REMARK  3 active torsions:
REMARK  status: ('A' for Active; 'I' for Inactive)
REMARK    5  A    between atoms: CA   and  CB  
REMARK    6  A    between atoms: CB   and  CG  
REMARK    7  A    between atoms: CG   and  CD  
ROOT
ATOM     14  CA  GLU D 570     -18.033  -6.348 -13.375  1.00 32.92     0.160 C 
ENDROOT
BRANCH  14  15
ATOM     15  CB  GLU D 570     -19.500  -6.345 -13.794  1.00 32.92     0.043 C 
BRANCH  15  16
ATOM     16  CG  GLU D 570     -20.442  -5.530 -12.984  1.00 32.92     0.100 C 
BRANCH  16  17
ATOM     17  CD  GLU D 570     -21.740  -5.242 -13.701  1.00 32.92     0.185 C 
ATOM     18  OE1 GLU D 570     -22.302  -4.145 -13.517  1.00 32.92    -0.647 OA
ATOM     19  OE2 GLU D 570     -22.207  -6.128 -14.443  1.00 32.92    -0.647 OA
ENDBRANCH  16  17
ENDBRANCH  15  16
ENDBRANCH  14  15
END_RES GLU D 570
ENDMDL
