MODEL 1
REMARK VINA RESULT:      -7.0      0.000      0.000
REMARK  5 active torsions:
REMARK  status: ('A' for Active; 'I' for Inactive)
REMARK    1  A    between atoms: C_2  and  C_3 
REMARK    2  A    between atoms: C_3  and  C_4 
REMARK    3  A    between atoms: C_4  and  C_5 
REMARK    4  A    between atoms: C_6  and  O_12 
REMARK    5  A    between atoms: C_8  and  O_11 
ROOT
HETATM    1  C   UNL     1     -21.777  -4.097  -8.725  1.00  0.00    -0.025 A 
HETATM    2  C   UNL     1     -22.966  -3.719  -9.367  1.00  0.00     0.074 A 
HETATM    3  C   UNL     1     -23.004  -3.473 -10.742  1.00  0.00     0.073 A 
HETATM    4  C   UNL     1     -21.850  -3.618 -11.501  1.00  0.00     0.068 A 
HETATM    5  C   UNL     1     -20.661  -4.007 -10.903  1.00  0.00     0.037 A 
HETATM    6  C   UNL     1     -20.628  -4.251  -9.526  1.00  0.00     0.012 A 
ENDROOT
BRANCH   1   7
HETATM    7  C   UNL     1     -21.662  -4.367  -7.239  1.00  0.00     0.041 C 
BRANCH   7   8
HETATM    8  C   UNL     1     -20.210  -4.476  -6.755  1.00  0.00     0.004 C 
BRANCH   8   9
HETATM    9  C   UNL     1     -20.136  -4.792  -5.259  1.00  0.00    -0.004 C 
HETATM   10  C   UNL     1     -21.134  -5.876  -4.879  1.00  0.00     0.005 C 
ENDBRANCH   8   9
ENDBRANCH   7   8
ENDBRANCH   1   7
BRANCH   2  11
HETATM   11  O   UNL     1     -24.164  -3.559  -8.727  1.00  0.00    -0.360 OA
HETATM   12  H   UNL     1     -24.457  -2.640  -8.796  1.00  0.00     0.217 HD
ENDBRANCH   2  11
BRANCH   4  13
HETATM   13  O   UNL     1     -21.847  -3.389 -12.845  1.00  0.00    -0.361 OA
HETATM   14  H   UNL     1     -22.759  -3.470 -13.171  1.00  0.00     0.217 HD
ENDBRANCH   4  13
TORSDOF 5
BEGIN_RES ARG D 557
REMARK  4 active torsions:
REMARK  status: ('A' for Active; 'I' for Inactive)
REMARK    1  A    between atoms: CA   and  CB  
REMARK    2  A    between atoms: CB   and  CG  
REMARK    3  A    between atoms: CG   and  CD  
REMARK    4  A    between atoms: CD   and  NE  
REMARK       I    between atoms: NE   and  CZ  
REMARK       I    between atoms: CZ   and  NH1 
REMARK       I    between atoms: CZ   and  NH2 
ROOT
ATOM      1  CA  ARG D 557     -26.217   2.705 -17.014  1.00 35.49     0.159 C 
ENDROOT
BRANCH   1   2
ATOM      2  CB  ARG D 557     -26.789   1.319 -17.183  1.00 35.49     0.034 C 
BRANCH   2   3
ATOM      3  CG  ARG D 557     -25.834   0.204 -17.167  1.00 35.49     0.027 C 
BRANCH   3   4
ATOM      4  CD  ARG D 557     -24.774   0.384 -16.149  1.00 35.49     0.116 C 
BRANCH   4   5
ATOM      5  NE  ARG D 557     -24.955  -0.486 -15.017  1.00 35.49    -0.212 N 
ATOM      6  CZ  ARG D 557     -24.148  -1.460 -14.660  1.00 35.49     0.666 C 
ATOM      7  NH1 ARG D 557     -23.055  -1.760 -15.336  1.00 35.49    -0.235 N 
ATOM      8  NH2 ARG D 557     -24.459  -2.134 -13.591  1.00 35.49    -0.235 N 
ATOM      9  HH  ARG D 557     -22.831  -1.328 -16.041  1.00 35.49     0.174 HD
ATOM     10  HH  ARG D 557     -22.566  -2.404 -15.054  1.00 35.49     0.174 HD
ATOM     11  HH  ARG D 557     -25.167  -1.914 -13.169  1.00 35.49     0.174 HD
ATOM     12  HH  ARG D 557     -23.960  -2.768 -13.326  1.00 35.49     0.174 HD
ATOM     13  HE  ARG D 557     -25.673  -0.411 -14.566  1.00 35.49     0.178 HD
ENDBRANCH   4   5
ENDBRANCH   3   4
ENDBRANCH   2   3
ENDBRANCH   1   2
END_RES ARG D 557
BEGIN_RES GLU D 570
REMARK  3 active torsions:
REMARK  status: ('A' for Active; 'I' for Inactive)
REMARK    5  A    between atoms: CA   and  CB  
REMARK    6  A    between atoms: CB   and  CG  
REMARK    7  A    between atoms: CG   and  CD  
ROOT
ATOM     14  CA  GLU D 570     -18.033  -6.348 -13.375  1.00 32.92     0.160 C 
ENDROOT
BRANCH  14  15
ATOM     15  CB  GLU D 570     -19.500  -6.345 -13.794  1.00 32.92     0.043 C 
BRANCH  15  16
ATOM     16  CG  GLU D 570     -19.818  -5.884 -15.170  1.00 32.92     0.100 C 
BRANCH  16  17
ATOM     17  CD  GLU D 570     -21.297  -5.673 -15.394  1.00 32.92     0.185 C 
ATOM     18  OE1 GLU D 570     -21.714  -4.526 -15.642  1.00 32.92    -0.647 OA
ATOM     19  OE2 GLU D 570     -22.049  -6.664 -15.304  1.00 32.92    -0.647 OA
ENDBRANCH  16  17
ENDBRANCH  15  16
ENDBRANCH  14  15
END_RES GLU D 570
ENDMDL
MODEL 2
REMARK VINA RESULT:      -6.8      1.916      2.435
REMARK  5 active torsions:
REMARK  status: ('A' for Active; 'I' for Inactive)
REMARK    1  A    between atoms: C_2  and  C_3 
REMARK    2  A    between atoms: C_3  and  C_4 
REMARK    3  A    between atoms: C_4  and  C_5 
REMARK    4  A    between atoms: C_6  and  O_12 
REMARK    5  A    between atoms: C_8  and  O_11 
ROOT
HETATM    1  C   UNL     1     -23.030  -3.702 -10.243  1.00  0.00    -0.025 A 
HETATM    2  C   UNL     1     -24.272  -3.347 -10.790  1.00  0.00     0.074 A 
HETATM    3  C   UNL     1     -24.428  -3.128 -12.161  1.00  0.00     0.073 A 
HETATM    4  C   UNL     1     -23.340  -3.275 -13.011  1.00  0.00     0.068 A 
HETATM    5  C   UNL     1     -22.101  -3.641 -12.508  1.00  0.00     0.037 A 
HETATM    6  C   UNL     1     -21.950  -3.859 -11.135  1.00  0.00     0.012 A 
ENDROOT
BRANCH   1   7
HETATM    7  C   UNL     1     -22.788  -3.943  -8.767  1.00  0.00     0.041 C 
BRANCH   7   8
HETATM    8  C   UNL     1     -21.303  -4.110  -8.417  1.00  0.00     0.004 C 
BRANCH   8   9
HETATM    9  C   UNL     1     -21.062  -3.995  -6.910  1.00  0.00    -0.004 C 
HETATM   10  C   UNL     1     -19.829  -4.781  -6.491  1.00  0.00     0.005 C 
ENDBRANCH   8   9
ENDBRANCH   7   8
ENDBRANCH   1   7
BRANCH   2  11
HETATM   11  O   UNL     1     -25.414  -3.188 -10.055  1.00  0.00    -0.360 OA
HETATM   12  H   UNL     1     -25.872  -2.380 -10.325  1.00  0.00     0.217 HD
ENDBRANCH   2  11
BRANCH   4  13
HETATM   13  O   UNL     1     -23.452  -3.071 -14.354  1.00  0.00    -0.361 OA
HETATM   14  H   UNL     1     -24.083  -2.347 -14.502  1.00  0.00     0.217 HD
ENDBRANCH   4  13
TORSDOF 5
BEGIN_RES ARG D 557
REMARK  4 active torsions:
REMARK  status: ('A' for Active; 'I' for Inactive)
REMARK    1  A    between atoms: CA   and  CB  
REMARK    2  A    between atoms: CB   and  CG  
REMARK    3  A    between atoms: CG   and  CD  
REMARK    4  A    between atoms: CD   and  NE  
REMARK       I    between atoms: NE   and  CZ  
REMARK       I    between atoms: CZ   and  NH1 
REMARK       I    between atoms: CZ   and  NH2 
ROOT
ATOM      1  CA  ARG D 557     -26.217   2.705 -17.014  1.00 35.49     0.159 C 
ENDROOT
BRANCH   1   2
ATOM      2  CB  ARG D 557     -26.789   1.319 -17.183  1.00 35.49     0.034 C 
BRANCH   2   3
ATOM      3  CG  ARG D 557     -28.231   1.167 -16.955  1.00 35.49     0.027 C 
BRANCH   3   4
ATOM      4  CD  ARG D 557     -28.610  -0.231 -16.648  1.00 35.49     0.116 C 
BRANCH   4   5
ATOM      5  NE  ARG D 557     -27.568  -0.933 -15.945  1.00 35.49    -0.212 N 
ATOM      6  CZ  ARG D 557     -27.335  -2.225 -16.008  1.00 35.49     0.666 C 
ATOM      7  NH1 ARG D 557     -28.069  -3.043 -16.738  1.00 35.49    -0.235 N 
ATOM      8  NH2 ARG D 557     -26.333  -2.688 -15.319  1.00 35.49    -0.235 N 
ATOM      9  HH  ARG D 557     -28.732  -2.760 -17.201  1.00 35.49     0.174 HD
ATOM     10  HH  ARG D 557     -27.868  -3.876 -16.743  1.00 35.49     0.174 HD
ATOM     11  HH  ARG D 557     -25.871  -2.135 -14.862  1.00 35.49     0.174 HD
ATOM     12  HH  ARG D 557     -26.149  -3.515 -15.337  1.00 35.49     0.174 HD
ATOM     13  HE  ARG D 557     -27.092  -0.494 -15.394  1.00 35.49     0.178 HD
ENDBRANCH   4   5
ENDBRANCH   3   4
ENDBRANCH   2   3
ENDBRANCH   1   2
END_RES ARG D 557
BEGIN_RES GLU D 570
REMARK  3 active torsions:
REMARK  status: ('A' for Active; 'I' for Inactive)
REMARK    5  A    between atoms: CA   and  CB  
REMARK    6  A    between atoms: CB   and  CG  
REMARK    7  A    between atoms: CG   and  CD  
ROOT
ATOM     14  CA  GLU D 570     -18.033  -6.348 -13.375  1.00 32.92     0.160 C 
ENDROOT
BRANCH  14  15
ATOM     15  CB  GLU D 570     -19.500  -6.345 -13.794  1.00 32.92     0.043 C 
BRANCH  15  16
ATOM     16  CG  GLU D 570     -19.809  -5.983 -15.201  1.00 32.92     0.100 C 
BRANCH  16  17
ATOM     17  CD  GLU D 570     -21.276  -5.698 -15.428  1.00 32.92     0.185 C 
ATOM     18  OE1 GLU D 570     -21.602  -4.680 -16.068  1.00 32.92    -0.647 OA
ATOM     19  OE2 GLU D 570     -22.107  -6.492 -14.946  1.00 32.92    -0.647 OA
ENDBRANCH  16  17
ENDBRANCH  15  16
ENDBRANCH  14  15
END_RES GLU D 570
ENDMDL
MODEL 3
REMARK VINA RESULT:      -6.7      8.516     10.083
REMARK  5 active torsions:
REMARK  status: ('A' for Active; 'I' for Inactive)
REMARK    1  A    between atoms: C_2  and  C_3 
REMARK    2  A    between atoms: C_3  and  C_4 
REMARK    3  A    between atoms: C_4  and  C_5 
REMARK    4  A    between atoms: C_6  and  O_12 
REMARK    5  A    between atoms: C_8  and  O_11 
ROOT
HETATM    1  C   UNL     1     -33.892  -4.355 -11.443  1.00  0.00    -0.025 A 
HETATM    2  C   UNL     1     -34.366  -3.898 -12.682  1.00  0.00     0.074 A 
HETATM    3  C   UNL     1     -34.647  -2.547 -12.900  1.00  0.00     0.073 A 
HETATM    4  C   UNL     1     -34.442  -1.627 -11.880  1.00  0.00     0.068 A 
HETATM    5  C   UNL     1     -33.957  -2.039 -10.649  1.00  0.00     0.037 A 
HETATM    6  C   UNL     1     -33.679  -3.393 -10.435  1.00  0.00     0.012 A 
ENDROOT
BRANCH   1   7
HETATM    7  C   UNL     1     -33.578  -5.805 -11.135  1.00  0.00     0.041 C 
BRANCH   7   8
HETATM    8  C   UNL     1     -34.441  -6.383 -10.005  1.00  0.00     0.004 C 
BRANCH   8   9
HETATM    9  C   UNL     1     -34.880  -7.818 -10.309  1.00  0.00    -0.004 C 
HETATM   10  C   UNL     1     -33.879  -8.823  -9.761  1.00  0.00     0.005 C 
ENDBRANCH   8   9
ENDBRANCH   7   8
ENDBRANCH   1   7
BRANCH   2  11
HETATM   11  O   UNL     1     -34.593  -4.707 -13.761  1.00  0.00    -0.360 OA
HETATM   12  H   UNL     1     -35.542  -4.767 -13.937  1.00  0.00     0.217 HD
ENDBRANCH   2  11
BRANCH   4  13
HETATM   13  O   UNL     1     -34.702  -0.300 -12.055  1.00  0.00    -0.361 OA
HETATM   14  H   UNL     1     -34.021   0.211 -11.585  1.00  0.00     0.217 HD
ENDBRANCH   4  13
TORSDOF 5
BEGIN_RES ARG D 557
REMARK  4 active torsions:
REMARK  status: ('A' for Active; 'I' for Inactive)
REMARK    1  A    between atoms: CA   and  CB  
REMARK    2  A    between atoms: CB   and  CG  
REMARK    3  A    between atoms: CG   and  CD  
REMARK    4  A    between atoms: CD   and  NE  
REMARK       I    between atoms: NE   and  CZ  
REMARK       I    between atoms: CZ   and  NH1 
REMARK       I    between atoms: CZ   and  NH2 
ROOT
ATOM      1  CA  ARG D 557     -26.217   2.705 -17.014  1.00 35.49     0.159 C 
ENDROOT
BRANCH   1   2
ATOM      2  CB  ARG D 557     -26.789   1.319 -17.183  1.00 35.49     0.034 C 
BRANCH   2   3
ATOM      3  CG  ARG D 557     -28.231   1.226 -17.441  1.00 35.49     0.027 C 
BRANCH   3   4
ATOM      4  CD  ARG D 557     -28.914   0.306 -16.503  1.00 35.49     0.116 C 
BRANCH   4   5
ATOM      5  NE  ARG D 557     -29.279  -0.936 -17.132  1.00 35.49    -0.212 N 
ATOM      6  CZ  ARG D 557     -28.630  -2.074 -17.020  1.00 35.49     0.666 C 
ATOM      7  NH1 ARG D 557     -27.528  -2.193 -16.303  1.00 35.49    -0.235 N 
ATOM      8  NH2 ARG D 557     -29.118  -3.107 -17.643  1.00 35.49    -0.235 N 
ATOM      9  HH  ARG D 557     -27.191  -1.527 -15.882  1.00 35.49     0.174 HD
ATOM     10  HH  ARG D 557     -27.150  -2.961 -16.264  1.00 35.49     0.174 HD
ATOM     11  HH  ARG D 557     -29.835  -3.001 -18.093  1.00 35.49     0.174 HD
ATOM     12  HH  ARG D 557     -28.729  -3.858 -17.591  1.00 35.49     0.174 HD
ATOM     13  HE  ARG D 557     -29.937  -0.933 -17.671  1.00 35.49     0.178 HD
ENDBRANCH   4   5
ENDBRANCH   3   4
ENDBRANCH   2   3
ENDBRANCH   1   2
END_RES ARG D 557
BEGIN_RES GLU D 570
REMARK  3 active torsions:
REMARK  status: ('A' for Active; 'I' for Inactive)
REMARK    5  A    between atoms: CA   and  CB  
REMARK    6  A    between atoms: CB   and  CG  
REMARK    7  A    between atoms: CG   and  CD  
ROOT
ATOM     14  CA  GLU D 570     -18.033  -6.348 -13.375  1.00 32.92     0.160 C 
ENDROOT
BRANCH  14  15
ATOM     15  CB  GLU D 570     -19.500  -6.345 -13.794  1.00 32.92     0.043 C 
BRANCH  15  16
ATOM     16  CG  GLU D 570     -20.449  -5.565 -12.958  1.00 32.92     0.100 C 
BRANCH  16  17
ATOM     17  CD  GLU D 570     -21.706  -5.176 -13.701  1.00 32.92     0.185 C 
ATOM     18  OE1 GLU D 570     -21.642  -4.957 -14.925  1.00 32.92    -0.647 OA
ATOM     19  OE2 GLU D 570     -22.763  -5.073 -13.047  1.00 32.92    -0.647 OA
ENDBRANCH  16  17
ENDBRANCH  15  16
ENDBRANCH  14  15
END_RES GLU D 570
ENDMDL
MODEL 4
REMARK VINA RESULT:      -6.7      1.155      2.256
REMARK  5 active torsions:
REMARK  status: ('A' for Active; 'I' for Inactive)
REMARK    1  A    between atoms: C_2  and  C_3 
REMARK    2  A    between atoms: C_3  and  C_4 
REMARK    3  A    between atoms: C_4  and  C_5 
REMARK    4  A    between atoms: C_6  and  O_12 
REMARK    5  A    between atoms: C_8  and  O_11 
ROOT
HETATM    1  C   UNL     1     -21.723  -4.116  -9.627  1.00  0.00    -0.025 A 
HETATM    2  C   UNL     1     -22.273  -3.566 -10.795  1.00  0.00     0.074 A 
HETATM    3  C   UNL     1     -23.634  -3.265 -10.887  1.00  0.00     0.073 A 
HETATM    4  C   UNL     1     -24.467  -3.499  -9.801  1.00  0.00     0.068 A 
HETATM    5  C   UNL     1     -23.956  -4.025  -8.625  1.00  0.00     0.037 A 
HETATM    6  C   UNL     1     -22.593  -4.326  -8.538  1.00  0.00     0.012 A 
ENDROOT
BRANCH   1   7
HETATM    7  C   UNL     1     -20.262  -4.477  -9.463  1.00  0.00     0.041 C 
BRANCH   7   8
HETATM    8  C   UNL     1     -19.634  -3.891  -8.191  1.00  0.00     0.004 C 
BRANCH   8   9
HETATM    9  C   UNL     1     -19.309  -4.983  -7.168  1.00  0.00    -0.004 C 
HETATM   10  C   UNL     1     -20.040  -4.739  -5.857  1.00  0.00     0.005 C 
ENDBRANCH   8   9
ENDBRANCH   7   8
ENDBRANCH   1   7
BRANCH   2  11
HETATM   11  O   UNL     1     -21.550  -3.280 -11.920  1.00  0.00    -0.360 OA
HETATM   12  H   UNL     1     -21.279  -4.099 -12.357  1.00  0.00     0.217 HD
ENDBRANCH   2  11
BRANCH   4  13
HETATM   13  O   UNL     1     -25.800  -3.217  -9.851  1.00  0.00    -0.361 OA
HETATM   14  H   UNL     1     -26.260  -3.979 -10.243  1.00  0.00     0.217 HD
ENDBRANCH   4  13
TORSDOF 5
BEGIN_RES ARG D 557
REMARK  4 active torsions:
REMARK  status: ('A' for Active; 'I' for Inactive)
REMARK    1  A    between atoms: CA   and  CB  
REMARK    2  A    between atoms: CB   and  CG  
REMARK    3  A    between atoms: CG   and  CD  
REMARK    4  A    between atoms: CD   and  NE  
REMARK       I    between atoms: NE   and  CZ  
REMARK       I    between atoms: CZ   and  NH1 
REMARK       I    between atoms: CZ   and  NH2 
ROOT
ATOM      1  CA  ARG D 557     -26.217   2.705 -17.014  1.00 35.49     0.159 C 
ENDROOT
BRANCH   1   2
ATOM      2  CB  ARG D 557     -26.789   1.319 -17.183  1.00 35.49     0.034 C 
BRANCH   2   3
ATOM      3  CG  ARG D 557     -25.863   0.195 -16.999  1.00 35.49     0.027 C 
BRANCH   3   4
ATOM      4  CD  ARG D 557     -26.095  -0.524 -15.725  1.00 35.49     0.116 C 
BRANCH   4   5
ATOM      5  NE  ARG D 557     -24.863  -0.918 -15.093  1.00 35.49    -0.212 N 
ATOM      6  CZ  ARG D 557     -24.602  -2.106 -14.593  1.00 35.49     0.666 C 
ATOM      7  NH1 ARG D 557     -25.482  -3.090 -14.608  1.00 35.49    -0.235 N 
ATOM      8  NH2 ARG D 557     -23.423  -2.293 -14.076  1.00 35.49    -0.235 N 
ATOM      9  HH  ARG D 557     -26.263  -2.989 -14.945  1.00 35.49     0.174 HD
ATOM     10  HH  ARG D 557     -25.255  -3.844 -14.269  1.00 35.49     0.174 HD
ATOM     11  HH  ARG D 557     -22.873  -1.642 -14.087  1.00 35.49     0.174 HD
ATOM     12  HH  ARG D 557     -23.217  -3.047 -13.747  1.00 35.49     0.174 HD
ATOM     13  HE  ARG D 557     -24.266  -0.324 -14.976  1.00 35.49     0.178 HD
ENDBRANCH   4   5
ENDBRANCH   3   4
ENDBRANCH   2   3
ENDBRANCH   1   2
END_RES ARG D 557
BEGIN_RES GLU D 570
REMARK  3 active torsions:
REMARK  status: ('A' for Active; 'I' for Inactive)
REMARK    5  A    between atoms: CA   and  CB  
REMARK    6  A    between atoms: CB   and  CG  
REMARK    7  A    between atoms: CG   and  CD  
ROOT
ATOM     14  CA  GLU D 570     -18.033  -6.348 -13.375  1.00 32.92     0.160 C 
ENDROOT
BRANCH  14  15
ATOM     15  CB  GLU D 570     -19.500  -6.345 -13.794  1.00 32.92     0.043 C 
BRANCH  15  16
ATOM     16  CG  GLU D 570     -19.809  -5.992 -15.204  1.00 32.92     0.100 C 
BRANCH  16  17
ATOM     17  CD  GLU D 570     -21.135  -5.286 -15.358  1.00 32.92     0.185 C 
ATOM     18  OE1 GLU D 570     -21.561  -5.040 -16.503  1.00 32.92    -0.647 OA
ATOM     19  OE2 GLU D 570     -21.748  -4.959 -14.322  1.00 32.92    -0.647 OA
ENDBRANCH  16  17
ENDBRANCH  15  16
ENDBRANCH  14  15
END_RES GLU D 570
ENDMDL
MODEL 5
REMARK VINA RESULT:      -6.5      2.422      3.362
REMARK  5 active torsions:
REMARK  status: ('A' for Active; 'I' for Inactive)
REMARK    1  A    between atoms: C_2  and  C_3 
REMARK    2  A    between atoms: C_3  and  C_4 
REMARK    3  A    between atoms: C_4  and  C_5 
REMARK    4  A    between atoms: C_6  and  O_12 
REMARK    5  A    between atoms: C_8  and  O_11 
ROOT
HETATM    1  C   UNL     1     -21.730  -4.082  -9.685  1.00  0.00    -0.025 A 
HETATM    2  C   UNL     1     -22.279  -3.506 -10.841  1.00  0.00     0.074 A 
HETATM    3  C   UNL     1     -23.643  -3.217 -10.933  1.00  0.00     0.073 A 
HETATM    4  C   UNL     1     -24.479  -3.488  -9.858  1.00  0.00     0.068 A 
HETATM    5  C   UNL     1     -23.969  -4.041  -8.693  1.00  0.00     0.037 A 
HETATM    6  C   UNL     1     -22.603  -4.329  -8.607  1.00  0.00     0.012 A 
ENDROOT
BRANCH   1   7
HETATM    7  C   UNL     1     -20.265  -4.431  -9.522  1.00  0.00     0.041 C 
BRANCH   7   8
HETATM    8  C   UNL     1     -19.658  -3.900  -8.216  1.00  0.00     0.004 C 
BRANCH   8   9
HETATM    9  C   UNL     1     -19.375  -5.032  -7.225  1.00  0.00    -0.004 C 
HETATM   10  C   UNL     1     -20.029  -4.758  -5.880  1.00  0.00     0.005 C 
ENDBRANCH   8   9
ENDBRANCH   7   8
ENDBRANCH   1   7
BRANCH   2  11
HETATM   11  O   UNL     1     -21.553  -3.183 -11.954  1.00  0.00    -0.360 OA
HETATM   12  H   UNL     1     -20.915  -2.487 -11.744  1.00  0.00     0.217 HD
ENDBRANCH   2  11
BRANCH   4  13
HETATM   13  O   UNL     1     -25.815  -3.220  -9.909  1.00  0.00    -0.361 OA
HETATM   14  H   UNL     1     -26.109  -2.962  -9.019  1.00  0.00     0.217 HD
ENDBRANCH   4  13
TORSDOF 5
BEGIN_RES ARG D 557
REMARK  4 active torsions:
REMARK  status: ('A' for Active; 'I' for Inactive)
REMARK    1  A    between atoms: CA   and  CB  
REMARK    2  A    between atoms: CB   and  CG  
REMARK    3  A    between atoms: CG   and  CD  
REMARK    4  A    between atoms: CD   and  NE  
REMARK       I    between atoms: NE   and  CZ  
REMARK       I    between atoms: CZ   and  NH1 
REMARK       I    between atoms: CZ   and  NH2 
ROOT
ATOM      1  CA  ARG D 557     -26.217   2.705 -17.014  1.00 35.49     0.159 C 
ENDROOT
BRANCH   1   2
ATOM      2  CB  ARG D 557     -26.789   1.319 -17.183  1.00 35.49     0.034 C 
BRANCH   2   3
ATOM      3  CG  ARG D 557     -28.233   1.226 -17.433  1.00 35.49     0.027 C 
BRANCH   3   4
ATOM      4  CD  ARG D 557     -28.909   0.300 -16.497  1.00 35.49     0.116 C 
BRANCH   4   5
ATOM      5  NE  ARG D 557     -29.285  -0.935 -17.133  1.00 35.49    -0.212 N 
ATOM      6  CZ  ARG D 557     -28.648  -2.080 -17.027  1.00 35.49     0.666 C 
ATOM      7  NH1 ARG D 557     -27.547  -2.214 -16.310  1.00 35.49    -0.235 N 
ATOM      8  NH2 ARG D 557     -29.144  -3.104 -17.656  1.00 35.49    -0.235 N 
ATOM      9  HH  ARG D 557     -27.204  -1.554 -15.885  1.00 35.49     0.174 HD
ATOM     10  HH  ARG D 557     -27.176  -2.986 -16.275  1.00 35.49     0.174 HD
ATOM     11  HH  ARG D 557     -29.860  -2.990 -18.106  1.00 35.49     0.174 HD
ATOM     12  HH  ARG D 557     -28.763  -3.860 -17.609  1.00 35.49     0.174 HD
ATOM     13  HE  ARG D 557     -29.943  -0.923 -17.672  1.00 35.49     0.178 HD
ENDBRANCH   4   5
ENDBRANCH   3   4
ENDBRANCH   2   3
ENDBRANCH   1   2
END_RES ARG D 557
BEGIN_RES GLU D 570
REMARK  3 active torsions:
REMARK  status: ('A' for Active; 'I' for Inactive)
REMARK    5  A    between atoms: CA   and  CB  
REMARK    6  A    between atoms: CB   and  CG  
REMARK    7  A    between atoms: CG   and  CD  
ROOT
ATOM     14  CA  GLU D 570     -18.033  -6.348 -13.375  1.00 32.92     0.160 C 
ENDROOT
BRANCH  14  15
ATOM     15  CB  GLU D 570     -19.500  -6.345 -13.794  1.00 32.92     0.043 C 
BRANCH  15  16
ATOM     16  CG  GLU D 570     -20.112  -7.651 -14.152  1.00 32.92     0.100 C 
BRANCH  16  17
ATOM     17  CD  GLU D 570     -20.710  -7.660 -15.540  1.00 32.92     0.185 C 
ATOM     18  OE1 GLU D 570     -21.230  -6.618 -15.982  1.00 32.92    -0.647 OA
ATOM     19  OE2 GLU D 570     -20.674  -8.727 -16.185  1.00 32.92    -0.647 OA
ENDBRANCH  16  17
ENDBRANCH  15  16
ENDBRANCH  14  15
END_RES GLU D 570
ENDMDL
MODEL 6
REMARK VINA RESULT:      -6.3      2.820      5.027
REMARK  5 active torsions:
REMARK  status: ('A' for Active; 'I' for Inactive)
REMARK    1  A    between atoms: C_2  and  C_3 
REMARK    2  A    between atoms: C_3  and  C_4 
REMARK    3  A    between atoms: C_4  and  C_5 
REMARK    4  A    between atoms: C_6  and  O_12 
REMARK    5  A    between atoms: C_8  and  O_11 
ROOT
HETATM    1  C   UNL     1     -22.923  -3.289 -11.927  1.00  0.00    -0.025 A 
HETATM    2  C   UNL     1     -21.794  -3.575 -11.145  1.00  0.00     0.074 A 
HETATM    3  C   UNL     1     -21.899  -3.797  -9.770  1.00  0.00     0.073 A 
HETATM    4  C   UNL     1     -23.144  -3.750  -9.156  1.00  0.00     0.068 A 
HETATM    5  C   UNL     1     -24.283  -3.487  -9.900  1.00  0.00     0.037 A 
HETATM    6  C   UNL     1     -24.173  -3.264 -11.277  1.00  0.00     0.012 A 
ENDROOT
BRANCH   1   7
HETATM    7  C   UNL     1     -22.881  -3.027 -13.419  1.00  0.00     0.041 C 
BRANCH   7   8
HETATM    8  C   UNL     1     -22.593  -4.286 -14.246  1.00  0.00     0.004 C 
BRANCH   8   9
HETATM    9  C   UNL     1     -23.380  -5.493 -13.730  1.00  0.00    -0.004 C 
HETATM   10  C   UNL     1     -24.007  -6.269 -14.879  1.00  0.00     0.005 C 
ENDBRANCH   8   9
ENDBRANCH   7   8
ENDBRANCH   1   7
BRANCH   2  11
HETATM   11  O   UNL     1     -20.522  -3.662 -11.640  1.00  0.00    -0.360 OA
HETATM   12  H   UNL     1     -19.888  -3.350 -10.981  1.00  0.00     0.217 HD
ENDBRANCH   2  11
BRANCH   4  13
HETATM   13  O   UNL     1     -23.287  -3.963  -7.817  1.00  0.00    -0.361 OA
HETATM   14  H   UNL     1     -24.226  -4.134  -7.633  1.00  0.00     0.217 HD
ENDBRANCH   4  13
TORSDOF 5
BEGIN_RES ARG D 557
REMARK  4 active torsions:
REMARK  status: ('A' for Active; 'I' for Inactive)
REMARK    1  A    between atoms: CA   and  CB  
REMARK    2  A    between atoms: CB   and  CG  
REMARK    3  A    between atoms: CG   and  CD  
REMARK    4  A    between atoms: CD   and  NE  
REMARK       I    between atoms: NE   and  CZ  
REMARK       I    between atoms: CZ   and  NH1 
REMARK       I    between atoms: CZ   and  NH2 
ROOT
ATOM      1  CA  ARG D 557     -26.217   2.705 -17.014  1.00 35.49     0.159 C 
ENDROOT
BRANCH   1   2
ATOM      2  CB  ARG D 557     -26.789   1.319 -17.183  1.00 35.49     0.034 C 
BRANCH   2   3
ATOM      3  CG  ARG D 557     -28.234   1.226 -17.427  1.00 35.49     0.027 C 
BRANCH   3   4
ATOM      4  CD  ARG D 557     -28.905   0.294 -16.492  1.00 35.49     0.116 C 
BRANCH   4   5
ATOM      5  NE  ARG D 557     -29.299  -0.931 -17.137  1.00 35.49    -0.212 N 
ATOM      6  CZ  ARG D 557     -28.677  -2.085 -17.039  1.00 35.49     0.666 C 
ATOM      7  NH1 ARG D 557     -27.578  -2.240 -16.324  1.00 35.49    -0.235 N 
ATOM      8  NH2 ARG D 557     -29.188  -3.098 -17.676  1.00 35.49    -0.235 N 
ATOM      9  HH  ARG D 557     -27.225  -1.587 -15.895  1.00 35.49     0.174 HD
ATOM     10  HH  ARG D 557     -27.218  -3.016 -16.295  1.00 35.49     0.174 HD
ATOM     11  HH  ARG D 557     -29.903  -2.970 -18.124  1.00 35.49     0.174 HD
ATOM     12  HH  ARG D 557     -28.817  -3.859 -17.633  1.00 35.49     0.174 HD
ATOM     13  HE  ARG D 557     -29.956  -0.905 -17.676  1.00 35.49     0.178 HD
ENDBRANCH   4   5
ENDBRANCH   3   4
ENDBRANCH   2   3
ENDBRANCH   1   2
END_RES ARG D 557
BEGIN_RES GLU D 570
REMARK  3 active torsions:
REMARK  status: ('A' for Active; 'I' for Inactive)
REMARK    5  A    between atoms: CA   and  CB  
REMARK    6  A    between atoms: CB   and  CG  
REMARK    7  A    between atoms: CG   and  CD  
ROOT
ATOM     14  CA  GLU D 570     -18.033  -6.348 -13.375  1.00 32.92     0.160 C 
ENDROOT
BRANCH  14  15
ATOM     15  CB  GLU D 570     -19.500  -6.345 -13.794  1.00 32.92     0.043 C 
BRANCH  15  16
ATOM     16  CG  GLU D 570     -20.091  -7.638 -14.227  1.00 32.92     0.100 C 
BRANCH  16  17
ATOM     17  CD  GLU D 570     -20.651  -7.590 -15.629  1.00 32.92     0.185 C 
ATOM     18  OE1 GLU D 570     -20.636  -6.509 -16.250  1.00 32.92    -0.647 OA
ATOM     19  OE2 GLU D 570     -21.124  -8.640 -16.106  1.00 32.92    -0.647 OA
ENDBRANCH  16  17
ENDBRANCH  15  16
ENDBRANCH  14  15
END_RES GLU D 570
ENDMDL
MODEL 7
REMARK VINA RESULT:      -6.3      4.636      8.285
REMARK  5 active torsions:
REMARK  status: ('A' for Active; 'I' for Inactive)
REMARK    1  A    between atoms: C_2  and  C_3 
REMARK    2  A    between atoms: C_3  and  C_4 
REMARK    3  A    between atoms: C_4  and  C_5 
REMARK    4  A    between atoms: C_6  and  O_12 
REMARK    5  A    between atoms: C_8  and  O_11 
ROOT
HETATM    1  C   UNL     1     -28.256  -4.852 -17.259  1.00  0.00    -0.025 A 
HETATM    2  C   UNL     1     -27.911  -3.637 -16.649  1.00  0.00     0.074 A 
HETATM    3  C   UNL     1     -26.823  -3.543 -15.777  1.00  0.00     0.073 A 
HETATM    4  C   UNL     1     -26.052  -4.668 -15.514  1.00  0.00     0.068 A 
HETATM    5  C   UNL     1     -26.353  -5.882 -16.112  1.00  0.00     0.037 A 
HETATM    6  C   UNL     1     -27.444  -5.970 -16.983  1.00  0.00     0.012 A 
ENDROOT
BRANCH   1   7
HETATM    7  C   UNL     1     -29.428  -5.027 -18.203  1.00  0.00     0.041 C 
BRANCH   7   8
HETATM    8  C   UNL     1     -30.740  -5.364 -17.484  1.00  0.00     0.004 C 
BRANCH   8   9
HETATM    9  C   UNL     1     -30.935  -6.876 -17.344  1.00  0.00    -0.004 C 
HETATM   10  C   UNL     1     -30.386  -7.612 -18.556  1.00  0.00     0.005 C 
ENDBRANCH   8   9
ENDBRANCH   7   8
ENDBRANCH   1   7
BRANCH   2  11
HETATM   11  O   UNL     1     -28.586  -2.464 -16.843  1.00  0.00    -0.360 OA
HETATM   12  H   UNL     1     -29.531  -2.594 -16.683  1.00  0.00     0.217 HD
ENDBRANCH   2  11
BRANCH   4  13
HETATM   13  O   UNL     1     -24.982  -4.617 -14.671  1.00  0.00    -0.361 OA
HETATM   14  H   UNL     1     -25.311  -4.618 -13.756  1.00  0.00     0.217 HD
ENDBRANCH   4  13
TORSDOF 5
BEGIN_RES ARG D 557
REMARK  4 active torsions:
REMARK  status: ('A' for Active; 'I' for Inactive)
REMARK    1  A    between atoms: CA   and  CB  
REMARK    2  A    between atoms: CB   and  CG  
REMARK    3  A    between atoms: CG   and  CD  
REMARK    4  A    between atoms: CD   and  NE  
REMARK       I    between atoms: NE   and  CZ  
REMARK       I    between atoms: CZ   and  NH1 
REMARK       I    between atoms: CZ   and  NH2 
ROOT
ATOM      1  CA  ARG D 557     -26.217   2.705 -17.014  1.00 35.49     0.159 C 
ENDROOT
BRANCH   1   2
ATOM      2  CB  ARG D 557     -26.789   1.319 -17.183  1.00 35.49     0.034 C 
BRANCH   2   3
ATOM      3  CG  ARG D 557     -25.837   0.202 -17.144  1.00 35.49     0.027 C 
BRANCH   3   4
ATOM      4  CD  ARG D 557     -24.727   0.439 -16.193  1.00 35.49     0.116 C 
BRANCH   4   5
ATOM      5  NE  ARG D 557     -24.838  -0.381 -15.016  1.00 35.49    -0.212 N 
ATOM      6  CZ  ARG D 557     -24.020  -1.352 -14.677  1.00 35.49     0.666 C 
ATOM      7  NH1 ARG D 557     -22.983  -1.697 -15.417  1.00 35.49    -0.235 N 
ATOM      8  NH2 ARG D 557     -24.261  -1.978 -13.561  1.00 35.49    -0.235 N 
ATOM      9  HH  ARG D 557     -22.804  -1.297 -16.154  1.00 35.49     0.174 HD
ATOM     10  HH  ARG D 557     -22.483  -2.337 -15.144  1.00 35.49     0.174 HD
ATOM     11  HH  ARG D 557     -24.934  -1.729 -13.100  1.00 35.49     0.174 HD
ATOM     12  HH  ARG D 557     -23.753  -2.608 -13.307  1.00 35.49     0.174 HD
ATOM     13  HE  ARG D 557     -25.520  -0.276 -14.518  1.00 35.49     0.178 HD
ENDBRANCH   4   5
ENDBRANCH   3   4
ENDBRANCH   2   3
ENDBRANCH   1   2
END_RES ARG D 557
BEGIN_RES GLU D 570
REMARK  3 active torsions:
REMARK  status: ('A' for Active; 'I' for Inactive)
REMARK    5  A    between atoms: CA   and  CB  
REMARK    6  A    between atoms: CB   and  CG  
REMARK    7  A    between atoms: CG   and  CD  
ROOT
ATOM     14  CA  GLU D 570     -18.033  -6.348 -13.375  1.00 32.92     0.160 C 
ENDROOT
BRANCH  14  15
ATOM     15  CB  GLU D 570     -19.500  -6.345 -13.794  1.00 32.92     0.043 C 
BRANCH  15  16
ATOM     16  CG  GLU D 570     -20.442  -5.531 -12.983  1.00 32.92     0.100 C 
BRANCH  16  17
ATOM     17  CD  GLU D 570     -21.734  -5.231 -13.705  1.00 32.92     0.185 C 
ATOM     18  OE1 GLU D 570     -22.230  -6.102 -14.446  1.00 32.92    -0.647 OA
ATOM     19  OE2 GLU D 570     -22.248  -4.106 -13.543  1.00 32.92    -0.647 OA
ENDBRANCH  16  17
ENDBRANCH  15  16
ENDBRANCH  14  15
END_RES GLU D 570
ENDMDL
MODEL 8
REMARK VINA RESULT:      -6.2      2.447      3.012
REMARK  5 active torsions:
REMARK  status: ('A' for Active; 'I' for Inactive)
REMARK    1  A    between atoms: C_2  and  C_3 
REMARK    2  A    between atoms: C_3  and  C_4 
REMARK    3  A    between atoms: C_4  and  C_5 
REMARK    4  A    between atoms: C_6  and  O_12 
REMARK    5  A    between atoms: C_8  and  O_11 
ROOT
HETATM    1  C   UNL     1     -21.443  -4.680  -7.323  1.00  0.00    -0.025 A 
HETATM    2  C   UNL     1     -22.775  -4.336  -7.594  1.00  0.00     0.074 A 
HETATM    3  C   UNL     1     -23.159  -3.833  -8.840  1.00  0.00     0.073 A 
HETATM    4  C   UNL     1     -22.210  -3.680  -9.843  1.00  0.00     0.068 A 
HETATM    5  C   UNL     1     -20.887  -4.027  -9.618  1.00  0.00     0.037 A 
HETATM    6  C   UNL     1     -20.509  -4.529  -8.368  1.00  0.00     0.012 A 
ENDROOT
BRANCH   1   7
HETATM    7  C   UNL     1     -20.956  -5.219  -5.994  1.00  0.00     0.041 C 
BRANCH   7   8
HETATM    8  C   UNL     1     -21.152  -6.734  -5.847  1.00  0.00     0.004 C 
BRANCH   8   9
HETATM    9  C   UNL     1     -21.968  -7.078  -4.598  1.00  0.00    -0.004 C 
HETATM   10  C   UNL     1     -21.481  -6.289  -3.392  1.00  0.00     0.005 C 
ENDBRANCH   8   9
ENDBRANCH   7   8
ENDBRANCH   1   7
BRANCH   2  11
HETATM   11  O   UNL     1     -23.795  -4.456  -6.691  1.00  0.00    -0.360 OA
HETATM   12  H   UNL     1     -23.584  -3.965  -5.885  1.00  0.00     0.217 HD
ENDBRANCH   2  11
BRANCH   4  13
HETATM   13  O   UNL     1     -22.546  -3.195 -11.072  1.00  0.00    -0.361 OA
HETATM   14  H   UNL     1     -22.946  -2.316 -10.956  1.00  0.00     0.217 HD
ENDBRANCH   4  13
TORSDOF 5
BEGIN_RES ARG D 557
REMARK  4 active torsions:
REMARK  status: ('A' for Active; 'I' for Inactive)
REMARK    1  A    between atoms: CA   and  CB  
REMARK    2  A    between atoms: CB   and  CG  
REMARK    3  A    between atoms: CG   and  CD  
REMARK    4  A    between atoms: CD   and  NE  
REMARK       I    between atoms: NE   and  CZ  
REMARK       I    between atoms: CZ   and  NH1 
REMARK       I    between atoms: CZ   and  NH2 
ROOT
ATOM      1  CA  ARG D 557     -26.217   2.705 -17.014  1.00 35.49     0.159 C 
ENDROOT
BRANCH   1   2
ATOM      2  CB  ARG D 557     -26.789   1.319 -17.183  1.00 35.49     0.034 C 
BRANCH   2   3
ATOM      3  CG  ARG D 557     -28.230   1.227 -17.449  1.00 35.49     0.027 C 
BRANCH   3   4
ATOM      4  CD  ARG D 557     -28.920   0.313 -16.510  1.00 35.49     0.116 C 
BRANCH   4   5
ATOM      5  NE  ARG D 557     -29.327  -0.912 -17.145  1.00 35.49    -0.212 N 
ATOM      6  CZ  ARG D 557     -28.712  -2.069 -17.048  1.00 35.49     0.666 C 
ATOM      7  NH1 ARG D 557     -27.608  -2.228 -16.342  1.00 35.49    -0.235 N 
ATOM      8  NH2 ARG D 557     -29.236  -3.082 -17.676  1.00 35.49    -0.235 N 
ATOM      9  HH  ARG D 557     -27.247  -1.576 -15.919  1.00 35.49     0.174 HD
ATOM     10  HH  ARG D 557     -27.252  -3.007 -16.313  1.00 35.49     0.174 HD
ATOM     11  HH  ARG D 557     -29.953  -2.951 -18.118  1.00 35.49     0.174 HD
ATOM     12  HH  ARG D 557     -28.869  -3.845 -17.634  1.00 35.49     0.174 HD
ATOM     13  HE  ARG D 557     -29.989  -0.884 -17.679  1.00 35.49     0.178 HD
ENDBRANCH   4   5
ENDBRANCH   3   4
ENDBRANCH   2   3
ENDBRANCH   1   2
END_RES ARG D 557
BEGIN_RES GLU D 570
REMARK  3 active torsions:
REMARK  status: ('A' for Active; 'I' for Inactive)
REMARK    5  A    between atoms: CA   and  CB  
REMARK    6  A    between atoms: CB   and  CG  
REMARK    7  A    between atoms: CG   and  CD  
ROOT
ATOM     14  CA  GLU D 570     -18.033  -6.348 -13.375  1.00 32.92     0.160 C 
ENDROOT
BRANCH  14  15
ATOM     15  CB  GLU D 570     -19.500  -6.345 -13.794  1.00 32.92     0.043 C 
BRANCH  15  16
ATOM     16  CG  GLU D 570     -20.435  -5.498 -13.008  1.00 32.92     0.100 C 
BRANCH  16  17
ATOM     17  CD  GLU D 570     -21.712  -5.184 -13.752  1.00 32.92     0.185 C 
ATOM     18  OE1 GLU D 570     -21.661  -4.967 -14.978  1.00 32.92    -0.647 OA
ATOM     19  OE2 GLU D 570     -22.773  -5.138 -13.098  1.00 32.92    -0.647 OA
ENDBRANCH  16  17
ENDBRANCH  15  16
ENDBRANCH  14  15
END_RES GLU D 570
ENDMDL
MODEL 9
REMARK VINA RESULT:      -6.2      8.652     10.587
REMARK  5 active torsions:
REMARK  status: ('A' for Active; 'I' for Inactive)
REMARK    1  A    between atoms: C_2  and  C_3 
REMARK    2  A    between atoms: C_3  and  C_4 
REMARK    3  A    between atoms: C_4  and  C_5 
REMARK    4  A    between atoms: C_6  and  O_12 
REMARK    5  A    between atoms: C_8  and  O_11 
ROOT
HETATM    1  C   UNL     1     -34.562  -2.091 -11.453  1.00  0.00    -0.025 A 
HETATM    2  C   UNL     1     -35.186  -1.661 -12.634  1.00  0.00     0.074 A 
HETATM    3  C   UNL     1     -36.343  -0.877 -12.602  1.00  0.00     0.073 A 
HETATM    4  C   UNL     1     -36.885  -0.498 -11.381  1.00  0.00     0.068 A 
HETATM    5  C   UNL     1     -36.286  -0.889 -10.194  1.00  0.00     0.037 A 
HETATM    6  C   UNL     1     -35.129  -1.675 -10.231  1.00  0.00     0.012 A 
ENDROOT
BRANCH   1   7
HETATM    7  C   UNL     1     -33.316  -2.951 -11.414  1.00  0.00     0.041 C 
BRANCH   7   8
HETATM    8  C   UNL     1     -33.601  -4.440 -11.648  1.00  0.00     0.004 C 
BRANCH   8   9
HETATM    9  C   UNL     1     -34.150  -5.114 -10.388  1.00  0.00    -0.004 C 
HETATM   10  C   UNL     1     -34.396  -6.597 -10.624  1.00  0.00     0.005 C 
ENDBRANCH   8   9
ENDBRANCH   7   8
ENDBRANCH   1   7
BRANCH   2  11
HETATM   11  O   UNL     1     -34.736  -1.959 -13.890  1.00  0.00    -0.360 OA
HETATM   12  H   UNL     1     -35.448  -2.352 -14.413  1.00  0.00     0.217 HD
ENDBRANCH   2  11
BRANCH   4  13
HETATM   13  O   UNL     1     -38.011   0.268 -11.309  1.00  0.00    -0.361 OA
HETATM   14  H   UNL     1     -38.025   0.712 -10.444  1.00  0.00     0.217 HD
ENDBRANCH   4  13
TORSDOF 5
BEGIN_RES ARG D 557
REMARK  4 active torsions:
REMARK  status: ('A' for Active; 'I' for Inactive)
REMARK    1  A    between atoms: CA   and  CB  
REMARK    2  A    between atoms: CB   and  CG  
REMARK    3  A    between atoms: CG   and  CD  
REMARK    4  A    between atoms: CD   and  NE  
REMARK       I    between atoms: NE   and  CZ  
REMARK       I    between atoms: CZ   and  NH1 
REMARK       I    between atoms: CZ   and  NH2 
ROOT
ATOM      1  CA  ARG D 557     -26.217   2.705 -17.014  1.00 35.49     0.159 C 
ENDROOT
BRANCH   1   2
ATOM      2  CB  ARG D 557     -26.789   1.319 -17.183  1.00 35.49     0.034 C 
BRANCH   2   3
ATOM      3  CG  ARG D 557     -25.835   0.203 -17.162  1.00 35.49     0.027 C 
BRANCH   3   4
ATOM      4  CD  ARG D 557     -24.748   0.409 -16.177  1.00 35.49     0.116 C 
BRANCH   4   5
ATOM      5  NE  ARG D 557     -24.895  -0.438 -15.023  1.00 35.49    -0.212 N 
ATOM      6  CZ  ARG D 557     -24.080  -1.407 -14.672  1.00 35.49     0.666 C 
ATOM      7  NH1 ARG D 557     -23.009  -1.723 -15.378  1.00 35.49    -0.235 N 
ATOM      8  NH2 ARG D 557     -24.357  -2.059 -13.581  1.00 35.49    -0.235 N 
ATOM      9  HH  ARG D 557     -22.807  -1.306 -16.098  1.00 35.49     0.174 HD
ATOM     10  HH  ARG D 557     -22.512  -2.363 -15.099  1.00 35.49     0.174 HD
ATOM     11  HH  ARG D 557     -25.050  -1.828 -13.141  1.00 35.49     0.174 HD
ATOM     12  HH  ARG D 557     -23.852  -2.689 -13.320  1.00 35.49     0.174 HD
ATOM     13  HE  ARG D 557     -25.598  -0.352 -14.551  1.00 35.49     0.178 HD
ENDBRANCH   4   5
ENDBRANCH   3   4
ENDBRANCH   2   3
ENDBRANCH   1   2
END_RES ARG D 557
BEGIN_RES GLU D 570
REMARK  3 active torsions:
REMARK  status: ('A' for Active; 'I' for Inactive)
REMARK    5  A    between atoms: CA   and  CB  
REMARK    6  A    between atoms: CB   and  CG  
REMARK    7  A    between atoms: CG   and  CD  
ROOT
ATOM     14  CA  GLU D 570     -18.033  -6.348 -13.375  1.00 32.92     0.160 C 
ENDROOT
BRANCH  14  15
ATOM     15  CB  GLU D 570     -19.500  -6.345 -13.794  1.00 32.92     0.043 C 
BRANCH  15  16
ATOM     16  CG  GLU D 570     -20.440  -5.522 -12.990  1.00 32.92     0.100 C 
BRANCH  16  17
ATOM     17  CD  GLU D 570     -21.744  -5.250 -13.704  1.00 32.92     0.185 C 
ATOM     18  OE1 GLU D 570     -22.231  -6.135 -14.433  1.00 32.92    -0.647 OA
ATOM     19  OE2 GLU D 570     -22.275  -4.133 -13.545  1.00 32.92    -0.647 OA
ENDBRANCH  16  17
ENDBRANCH  15  16
ENDBRANCH  14  15
END_RES GLU D 570
ENDMDL
