MODEL 1
REMARK VINA RESULT:      -6.1      0.000      0.000
REMARK  24 active torsions:
REMARK  status: ('A' for Active; 'I' for Inactive)
REMARK    1  A    between atoms: C_2  and  C_3 
REMARK    2  A    between atoms: C_3  and  C_4 
REMARK    3  A    between atoms: C_4  and  C_5 
REMARK    4  A    between atoms: C_5  and  C_6 
REMARK    5  A    between atoms: C_6  and  C_7 
REMARK    6  A    between atoms: C_7  and  C_8 
REMARK    7  A    between atoms: C_8  and  C_9 
REMARK    8  A    between atoms: C_9  and  C_10 
REMARK    9  A    between atoms: C_10  and  C_11 
REMARK   10  A    between atoms: C_11  and  C_12 
REMARK   11  A    between atoms: C_12  and  O_14 
REMARK   12  A    between atoms: O_14  and  C_15 
REMARK   13  A    between atoms: C_15  and  C_26 
REMARK   14  A    between atoms: C_16  and  O_25 
REMARK   15  A    between atoms: C_17  and  O_24 
REMARK   16  A    between atoms: C_18  and  O_23 
REMARK   17  A    between atoms: C_19  and  C_21 
REMARK   18  A    between atoms: C_21  and  O_22 
REMARK   19  A    between atoms: C_26  and  C_35 
REMARK   20  A    between atoms: C_27  and  O_34 
REMARK   21  A    between atoms: C_28  and  O_33 
REMARK   22  A    between atoms: C_29  and  C_31 
REMARK   23  A    between atoms: C_31  and  O_32 
REMARK   24  A    between atoms: C_35  and  O_36 
ROOT
HETATM    1  C   UNL     1     -19.916 -10.135  -2.704  1.00  0.00     0.238 C 
HETATM    2  C   UNL     1     -21.070 -11.179  -2.849  1.00  0.00     0.215 C 
HETATM    3  C   UNL     1     -22.416 -10.500  -2.507  1.00  0.00     0.183 C 
HETATM    4  C   UNL     1     -22.403  -9.936  -1.076  1.00  0.00     0.180 C 
HETATM    5  C   UNL     1     -21.169  -9.044  -0.896  1.00  0.00     0.180 C 
HETATM    6  O   UNL     1     -19.955  -9.732  -1.289  1.00  0.00    -0.340 OA
ENDROOT
BRANCH   1   7
HETATM    7  O   UNL     1     -20.053  -8.912  -3.496  1.00  0.00    -0.277 OA
BRANCH   7   8
HETATM    8  C   UNL     1     -20.609  -8.904  -4.733  1.00  0.00     0.261 C 
HETATM    9  O   UNL     1     -20.255  -9.617  -5.661  1.00  0.00    -0.265 OA
BRANCH   8  10
HETATM   10  C   UNL     1     -21.760  -7.936  -4.824  1.00  0.00     0.111 C 
BRANCH  10  11
HETATM   11  C   UNL     1     -21.407  -6.523  -4.362  1.00  0.00     0.010 C 
BRANCH  11  12
HETATM   12  C   UNL     1     -21.496  -5.543  -5.537  1.00  0.00     0.000 C 
BRANCH  12  13
HETATM   13  C   UNL     1     -20.187  -4.786  -5.772  1.00  0.00     0.000 C 
BRANCH  13  14
HETATM   14  C   UNL     1     -19.546  -5.201  -7.100  1.00  0.00     0.000 C 
BRANCH  14  15
HETATM   15  C   UNL     1     -19.617  -4.081  -8.139  1.00  0.00     0.000 C 
BRANCH  15  16
HETATM   16  C   UNL     1     -20.182  -4.595  -9.465  1.00  0.00     0.000 C 
BRANCH  16  17
HETATM   17  C   UNL     1     -21.515  -3.928  -9.805  1.00  0.00     0.000 C 
BRANCH  17  18
HETATM   18  C   UNL     1     -22.673  -4.614  -9.079  1.00  0.00    -0.000 C 
BRANCH  18  19
HETATM   19  C   UNL     1     -23.931  -4.657  -9.946  1.00  0.00    -0.005 C 
HETATM   20  C   UNL     1     -24.730  -3.370  -9.821  1.00  0.00     0.005 C 
ENDBRANCH  18  19
ENDBRANCH  17  18
ENDBRANCH  16  17
ENDBRANCH  15  16
ENDBRANCH  14  15
ENDBRANCH  13  14
ENDBRANCH  12  13
ENDBRANCH  11  12
ENDBRANCH  10  11
ENDBRANCH   8  10
ENDBRANCH   7   8
ENDBRANCH   1   7
BRANCH   1  21
HETATM   21  C   UNL     1     -18.440 -10.724  -2.936  1.00  0.00     0.170 C 
HETATM   22  C   UNL     1     -17.467  -9.722  -3.608  1.00  0.00     0.192 C 
HETATM   23  C   UNL     1     -16.850 -10.420  -4.814  1.00  0.00     0.181 C 
HETATM   24  C   UNL     1     -17.287 -11.864  -4.692  1.00  0.00     0.177 C 
HETATM   25  O   UNL     1     -18.438 -11.906  -3.808  1.00  0.00    -0.359 OA
BRANCH  22  26
HETATM   26  O   UNL     1     -16.448  -9.204  -2.745  1.00  0.00    -0.390 OA
HETATM   27  H   UNL     1     -16.477  -8.221  -2.802  1.00  0.00     0.210 HD
ENDBRANCH  22  26
BRANCH  23  28
HETATM   28  O   UNL     1     -15.441 -10.245  -4.894  1.00  0.00    -0.390 OA
HETATM   29  H   UNL     1     -15.037 -11.029  -4.467  1.00  0.00     0.210 HD
ENDBRANCH  23  28
BRANCH  24  30
HETATM   30  C   UNL     1     -16.132 -12.800  -4.282  1.00  0.00     0.198 C 
BRANCH  30  31
HETATM   31  O   UNL     1     -16.579 -13.889  -3.472  1.00  0.00    -0.398 OA
HETATM   32  H   UNL     1     -16.927 -14.571  -4.061  1.00  0.00     0.209 HD
ENDBRANCH  30  31
ENDBRANCH  24  30
BRANCH  21  33
HETATM   33  C   UNL     1     -17.964 -11.207  -1.532  1.00  0.00     0.210 C 
BRANCH  33  34
HETATM   34  O   UNL     1     -18.131 -12.611  -1.353  1.00  0.00    -0.398 OA
HETATM   35  H   UNL     1     -19.012 -12.831  -1.725  1.00  0.00     0.209 HD
ENDBRANCH  33  34
ENDBRANCH  21  33
ENDBRANCH   1  21
BRANCH   2  36
HETATM   36  O   UNL     1     -20.899 -12.286  -1.925  1.00  0.00    -0.387 OA
HETATM   37  H   UNL     1     -21.582 -12.204  -1.226  1.00  0.00     0.210 HD
ENDBRANCH   2  36
BRANCH   3  38
HETATM   38  O   UNL     1     -23.494 -11.431  -2.650  1.00  0.00    -0.390 OA
HETATM   39  H   UNL     1     -23.199 -12.247  -2.201  1.00  0.00     0.210 HD
ENDBRANCH   3  38
BRANCH   5  40
HETATM   40  C   UNL     1     -21.013  -8.603   0.567  1.00  0.00     0.198 C 
BRANCH  40  41
HETATM   41  O   UNL     1     -22.279  -8.185   1.081  1.00  0.00    -0.398 OA
HETATM   42  H   UNL     1     -22.473  -7.337   0.643  1.00  0.00     0.209 HD
ENDBRANCH  40  41
ENDBRANCH   5  40
BRANCH   4  43
HETATM   43  O   UNL     1     -22.395 -11.004  -0.117  1.00  0.00    -0.390 OA
HETATM   44  H   UNL     1     -21.493 -11.042   0.265  1.00  0.00     0.210 HD
ENDBRANCH   4  43
TORSDOF 24
BEGIN_RES ARG D 557
REMARK  4 active torsions:
REMARK  status: ('A' for Active; 'I' for Inactive)
REMARK    1  A    between atoms: CA   and  CB  
REMARK    2  A    between atoms: CB   and  CG  
REMARK    3  A    between atoms: CG   and  CD  
REMARK    4  A    between atoms: CD   and  NE  
REMARK       I    between atoms: NE   and  CZ  
REMARK       I    between atoms: CZ   and  NH1 
REMARK       I    between atoms: CZ   and  NH2 
ROOT
ATOM      1  CA  ARG D 557     -26.217   2.705 -17.014  1.00 35.49     0.159 C 
ENDROOT
BRANCH   1   2
ATOM      2  CB  ARG D 557     -26.789   1.319 -17.183  1.00 35.49     0.034 C 
BRANCH   2   3
ATOM      3  CG  ARG D 557     -25.911   0.195 -16.837  1.00 35.49     0.027 C 
BRANCH   3   4
ATOM      4  CD  ARG D 557     -26.620  -0.864 -16.084  1.00 35.49     0.116 C 
BRANCH   4   5
ATOM      5  NE  ARG D 557     -25.802  -1.431 -15.043  1.00 35.49    -0.212 N 
ATOM      6  CZ  ARG D 557     -25.801  -2.690 -14.667  1.00 35.49     0.666 C 
ATOM      7  NH1 ARG D 557     -26.591  -3.595 -15.215  1.00 35.49    -0.235 N 
ATOM      8  NH2 ARG D 557     -24.977  -3.032 -13.719  1.00 35.49    -0.235 N 
ATOM      9  HH  ARG D 557     -27.139  -3.392 -15.842  1.00 35.49     0.174 HD
ATOM     10  HH  ARG D 557     -26.544  -4.401 -14.930  1.00 35.49     0.174 HD
ATOM     11  HH  ARG D 557     -24.474  -2.428 -13.389  1.00 35.49     0.174 HD
ATOM     12  HH  ARG D 557     -24.945  -3.836 -13.452  1.00 35.49     0.174 HD
ATOM     13  HE  ARG D 557     -25.315  -0.904 -14.587  1.00 35.49     0.178 HD
ENDBRANCH   4   5
ENDBRANCH   3   4
ENDBRANCH   2   3
ENDBRANCH   1   2
END_RES ARG D 557
BEGIN_RES GLU D 570
REMARK  3 active torsions:
REMARK  status: ('A' for Active; 'I' for Inactive)
REMARK    5  A    between atoms: CA   and  CB  
REMARK    6  A    between atoms: CB   and  CG  
REMARK    7  A    between atoms: CG   and  CD  
ROOT
ATOM     14  CA  GLU D 570     -18.033  -6.348 -13.375  1.00 32.92     0.160 C 
ENDROOT
BRANCH  14  15
ATOM     15  CB  GLU D 570     -19.500  -6.345 -13.794  1.00 32.92     0.043 C 
BRANCH  15  16
ATOM     16  CG  GLU D 570     -20.434  -5.494 -13.012  1.00 32.92     0.100 C 
BRANCH  16  17
ATOM     17  CD  GLU D 570     -21.693  -5.148 -13.772  1.00 32.92     0.185 C 
ATOM     18  OE1 GLU D 570     -21.618  -4.915 -14.994  1.00 32.92    -0.647 OA
ATOM     19  OE2 GLU D 570     -22.763  -5.093 -13.135  1.00 32.92    -0.647 OA
ENDBRANCH  16  17
ENDBRANCH  15  16
ENDBRANCH  14  15
END_RES GLU D 570
ENDMDL
MODEL 2
REMARK VINA RESULT:      -6.0      1.472      4.353
REMARK  24 active torsions:
REMARK  status: ('A' for Active; 'I' for Inactive)
REMARK    1  A    between atoms: C_2  and  C_3 
REMARK    2  A    between atoms: C_3  and  C_4 
REMARK    3  A    between atoms: C_4  and  C_5 
REMARK    4  A    between atoms: C_5  and  C_6 
REMARK    5  A    between atoms: C_6  and  C_7 
REMARK    6  A    between atoms: C_7  and  C_8 
REMARK    7  A    between atoms: C_8  and  C_9 
REMARK    8  A    between atoms: C_9  and  C_10 
REMARK    9  A    between atoms: C_10  and  C_11 
REMARK   10  A    between atoms: C_11  and  C_12 
REMARK   11  A    between atoms: C_12  and  O_14 
REMARK   12  A    between atoms: O_14  and  C_15 
REMARK   13  A    between atoms: C_15  and  C_26 
REMARK   14  A    between atoms: C_16  and  O_25 
REMARK   15  A    between atoms: C_17  and  O_24 
REMARK   16  A    between atoms: C_18  and  O_23 
REMARK   17  A    between atoms: C_19  and  C_21 
REMARK   18  A    between atoms: C_21  and  O_22 
REMARK   19  A    between atoms: C_26  and  C_35 
REMARK   20  A    between atoms: C_27  and  O_34 
REMARK   21  A    between atoms: C_28  and  O_33 
REMARK   22  A    between atoms: C_29  and  C_31 
REMARK   23  A    between atoms: C_31  and  O_32 
REMARK   24  A    between atoms: C_35  and  O_36 
ROOT
HETATM    1  C   UNL     1     -19.954 -10.575  -2.815  1.00  0.00     0.238 C 
HETATM    2  C   UNL     1     -18.548 -10.329  -2.178  1.00  0.00     0.215 C 
HETATM    3  C   UNL     1     -17.637  -9.629  -3.213  1.00  0.00     0.183 C 
HETATM    4  C   UNL     1     -17.489 -10.481  -4.484  1.00  0.00     0.180 C 
HETATM    5  C   UNL     1     -18.881 -10.858  -5.006  1.00  0.00     0.180 C 
HETATM    6  O   UNL     1     -19.692 -11.457  -3.964  1.00  0.00    -0.340 OA
ENDROOT
BRANCH   1   7
HETATM    7  O   UNL     1     -20.639  -9.392  -3.337  1.00  0.00    -0.277 OA
BRANCH   7   8
HETATM    8  C   UNL     1     -20.639  -8.203  -2.684  1.00  0.00     0.261 C 
HETATM    9  O   UNL     1     -20.455  -8.068  -1.482  1.00  0.00    -0.265 OA
BRANCH   8  10
HETATM   10  C   UNL     1     -20.849  -7.046  -3.626  1.00  0.00     0.111 C 
BRANCH  10  11
HETATM   11  C   UNL     1     -21.904  -7.315  -4.698  1.00  0.00     0.010 C 
BRANCH  11  12
HETATM   12  C   UNL     1     -22.070  -6.087  -5.599  1.00  0.00     0.000 C 
BRANCH  12  13
HETATM   13  C   UNL     1     -20.782  -5.268  -5.720  1.00  0.00     0.000 C 
BRANCH  13  14
HETATM   14  C   UNL     1     -19.986  -5.682  -6.962  1.00  0.00     0.000 C 
BRANCH  14  15
HETATM   15  C   UNL     1     -19.131  -4.531  -7.497  1.00  0.00     0.000 C 
BRANCH  15  16
HETATM   16  C   UNL     1     -19.870  -3.758  -8.591  1.00  0.00     0.000 C 
BRANCH  16  17
HETATM   17  C   UNL     1     -20.860  -4.651  -9.341  1.00  0.00     0.000 C 
BRANCH  17  18
HETATM   18  C   UNL     1     -22.047  -3.839  -9.859  1.00  0.00    -0.000 C 
BRANCH  18  19
HETATM   19  C   UNL     1     -23.255  -3.957  -8.931  1.00  0.00    -0.005 C 
HETATM   20  C   UNL     1     -24.507  -3.393  -9.583  1.00  0.00     0.005 C 
ENDBRANCH  18  19
ENDBRANCH  17  18
ENDBRANCH  16  17
ENDBRANCH  15  16
ENDBRANCH  14  15
ENDBRANCH  13  14
ENDBRANCH  12  13
ENDBRANCH  11  12
ENDBRANCH  10  11
ENDBRANCH   8  10
ENDBRANCH   7   8
ENDBRANCH   1   7
BRANCH   1  21
HETATM   21  C   UNL     1     -20.984 -11.385  -1.885  1.00  0.00     0.170 C 
HETATM   22  C   UNL     1     -22.380 -10.721  -1.776  1.00  0.00     0.192 C 
HETATM   23  C   UNL     1     -22.707 -10.582  -0.293  1.00  0.00     0.181 C 
HETATM   24  C   UNL     1     -21.622 -11.363   0.418  1.00  0.00     0.177 C 
HETATM   25  O   UNL     1     -20.509 -11.513  -0.501  1.00  0.00    -0.359 OA
BRANCH  22  26
HETATM   26  O   UNL     1     -23.428 -11.411  -2.464  1.00  0.00    -0.390 OA
HETATM   27  H   UNL     1     -23.350 -12.369  -2.251  1.00  0.00     0.210 HD
ENDBRANCH  22  26
BRANCH  23  28
HETATM   28  O   UNL     1     -24.028 -11.002   0.023  1.00  0.00    -0.390 OA
HETATM   29  H   UNL     1     -24.118 -11.918  -0.313  1.00  0.00     0.210 HD
ENDBRANCH  23  28
BRANCH  24  30
HETATM   30  C   UNL     1     -22.141 -12.686   1.015  1.00  0.00     0.198 C 
BRANCH  30  31
HETATM   31  O   UNL     1     -21.187 -13.744   0.895  1.00  0.00    -0.398 OA
HETATM   32  H   UNL     1     -20.595 -13.696   1.657  1.00  0.00     0.209 HD
ENDBRANCH  30  31
ENDBRANCH  24  30
BRANCH  21  33
HETATM   33  C   UNL     1     -21.025 -12.827  -2.476  1.00  0.00     0.210 C 
BRANCH  33  34
HETATM   34  O   UNL     1     -20.035 -13.678  -1.906  1.00  0.00    -0.398 OA
HETATM   35  H   UNL     1     -19.220 -13.138  -1.831  1.00  0.00     0.209 HD
ENDBRANCH  33  34
ENDBRANCH  21  33
ENDBRANCH   1  21
BRANCH   2  36
HETATM   36  O   UNL     1     -17.907 -11.581  -1.816  1.00  0.00    -0.387 OA
HETATM   37  H   UNL     1     -18.607 -12.260  -1.716  1.00  0.00     0.210 HD
ENDBRANCH   2  36
BRANCH   3  38
HETATM   38  O   UNL     1     -16.347  -9.375  -2.648  1.00  0.00    -0.390 OA
HETATM   39  H   UNL     1     -16.382  -9.730  -1.738  1.00  0.00     0.210 HD
ENDBRANCH   3  38
BRANCH   5  40
HETATM   40  C   UNL     1     -18.785 -11.857  -6.167  1.00  0.00     0.198 C 
BRANCH  40  41
HETATM   41  O   UNL     1     -18.881 -11.161  -7.411  1.00  0.00    -0.398 OA
HETATM   42  H   UNL     1     -18.118 -10.557  -7.434  1.00  0.00     0.209 HD
ENDBRANCH  40  41
ENDBRANCH   5  40
BRANCH   4  43
HETATM   43  O   UNL     1     -16.718 -11.662  -4.210  1.00  0.00    -0.390 OA
HETATM   44  H   UNL     1     -15.880 -11.581  -4.712  1.00  0.00     0.210 HD
ENDBRANCH   4  43
TORSDOF 24
BEGIN_RES ARG D 557
REMARK  4 active torsions:
REMARK  status: ('A' for Active; 'I' for Inactive)
REMARK    1  A    between atoms: CA   and  CB  
REMARK    2  A    between atoms: CB   and  CG  
REMARK    3  A    between atoms: CG   and  CD  
REMARK    4  A    between atoms: CD   and  NE  
REMARK       I    between atoms: NE   and  CZ  
REMARK       I    between atoms: CZ   and  NH1 
REMARK       I    between atoms: CZ   and  NH2 
ROOT
ATOM      1  CA  ARG D 557     -26.217   2.705 -17.014  1.00 35.49     0.159 C 
ENDROOT
BRANCH   1   2
ATOM      2  CB  ARG D 557     -26.789   1.319 -17.183  1.00 35.49     0.034 C 
BRANCH   2   3
ATOM      3  CG  ARG D 557     -25.838   0.202 -17.141  1.00 35.49     0.027 C 
BRANCH   3   4
ATOM      4  CD  ARG D 557     -24.754   0.420 -16.155  1.00 35.49     0.116 C 
BRANCH   4   5
ATOM      5  NE  ARG D 557     -24.889  -0.432 -15.003  1.00 35.49    -0.212 N 
ATOM      6  CZ  ARG D 557     -24.072  -1.404 -14.667  1.00 35.49     0.666 C 
ATOM      7  NH1 ARG D 557     -23.011  -1.719 -15.386  1.00 35.49    -0.235 N 
ATOM      8  NH2 ARG D 557     -24.337  -2.061 -13.575  1.00 35.49    -0.235 N 
ATOM      9  HH  ARG D 557     -22.816  -1.299 -16.107  1.00 35.49     0.174 HD
ATOM     10  HH  ARG D 557     -22.512  -2.361 -15.116  1.00 35.49     0.174 HD
ATOM     11  HH  ARG D 557     -25.025  -1.831 -13.127  1.00 35.49     0.174 HD
ATOM     12  HH  ARG D 557     -23.830  -2.693 -13.324  1.00 35.49     0.174 HD
ATOM     13  HE  ARG D 557     -25.586  -0.346 -14.522  1.00 35.49     0.178 HD
ENDBRANCH   4   5
ENDBRANCH   3   4
ENDBRANCH   2   3
ENDBRANCH   1   2
END_RES ARG D 557
BEGIN_RES GLU D 570
REMARK  3 active torsions:
REMARK  status: ('A' for Active; 'I' for Inactive)
REMARK    5  A    between atoms: CA   and  CB  
REMARK    6  A    between atoms: CB   and  CG  
REMARK    7  A    between atoms: CG   and  CD  
ROOT
ATOM     14  CA  GLU D 570     -18.033  -6.348 -13.375  1.00 32.92     0.160 C 
ENDROOT
BRANCH  14  15
ATOM     15  CB  GLU D 570     -19.500  -6.345 -13.794  1.00 32.92     0.043 C 
BRANCH  15  16
ATOM     16  CG  GLU D 570     -20.444  -5.540 -12.976  1.00 32.92     0.100 C 
BRANCH  16  17
ATOM     17  CD  GLU D 570     -21.729  -5.220 -13.703  1.00 32.92     0.185 C 
ATOM     18  OE1 GLU D 570     -22.287  -4.126 -13.494  1.00 32.92    -0.647 OA
ATOM     19  OE2 GLU D 570     -22.192  -6.081 -14.478  1.00 32.92    -0.647 OA
ENDBRANCH  16  17
ENDBRANCH  15  16
ENDBRANCH  14  15
END_RES GLU D 570
ENDMDL
MODEL 3
REMARK VINA RESULT:      -5.8      1.553      2.085
REMARK  24 active torsions:
REMARK  status: ('A' for Active; 'I' for Inactive)
REMARK    1  A    between atoms: C_2  and  C_3 
REMARK    2  A    between atoms: C_3  and  C_4 
REMARK    3  A    between atoms: C_4  and  C_5 
REMARK    4  A    between atoms: C_5  and  C_6 
REMARK    5  A    between atoms: C_6  and  C_7 
REMARK    6  A    between atoms: C_7  and  C_8 
REMARK    7  A    between atoms: C_8  and  C_9 
REMARK    8  A    between atoms: C_9  and  C_10 
REMARK    9  A    between atoms: C_10  and  C_11 
REMARK   10  A    between atoms: C_11  and  C_12 
REMARK   11  A    between atoms: C_12  and  O_14 
REMARK   12  A    between atoms: O_14  and  C_15 
REMARK   13  A    between atoms: C_15  and  C_26 
REMARK   14  A    between atoms: C_16  and  O_25 
REMARK   15  A    between atoms: C_17  and  O_24 
REMARK   16  A    between atoms: C_18  and  O_23 
REMARK   17  A    between atoms: C_19  and  C_21 
REMARK   18  A    between atoms: C_21  and  O_22 
REMARK   19  A    between atoms: C_26  and  C_35 
REMARK   20  A    between atoms: C_27  and  O_34 
REMARK   21  A    between atoms: C_28  and  O_33 
REMARK   22  A    between atoms: C_29  and  C_31 
REMARK   23  A    between atoms: C_31  and  O_32 
REMARK   24  A    between atoms: C_35  and  O_36 
ROOT
HETATM    1  C   UNL     1     -18.473 -10.938  -3.594  1.00  0.00     0.238 C 
HETATM    2  C   UNL     1     -19.587 -11.790  -4.285  1.00  0.00     0.215 C 
HETATM    3  C   UNL     1     -20.964 -11.397  -3.701  1.00  0.00     0.183 C 
HETATM    4  C   UNL     1     -21.004 -11.625  -2.181  1.00  0.00     0.180 C 
HETATM    5  C   UNL     1     -19.806 -10.921  -1.532  1.00  0.00     0.180 C 
HETATM    6  O   UNL     1     -18.561 -11.298  -2.169  1.00  0.00    -0.340 OA
ENDROOT
BRANCH   1   7
HETATM    7  O   UNL     1     -18.634  -9.486  -3.674  1.00  0.00    -0.277 OA
BRANCH   7   8
HETATM    8  C   UNL     1     -19.236  -8.876  -4.725  1.00  0.00     0.261 C 
HETATM    9  O   UNL     1     -18.840  -8.927  -5.881  1.00  0.00    -0.265 OA
BRANCH   8  10
HETATM   10  C   UNL     1     -20.492  -8.155  -4.310  1.00  0.00     0.111 C 
BRANCH  10  11
HETATM   11  C   UNL     1     -21.340  -7.678  -5.488  1.00  0.00     0.010 C 
BRANCH  11  12
HETATM   12  C   UNL     1     -22.031  -6.354  -5.143  1.00  0.00     0.000 C 
BRANCH  12  13
HETATM   13  C   UNL     1     -21.635  -5.220  -6.091  1.00  0.00     0.000 C 
BRANCH  13  14
HETATM   14  C   UNL     1     -20.175  -4.810  -5.873  1.00  0.00     0.000 C 
BRANCH  14  15
HETATM   15  C   UNL     1     -19.387  -4.797  -7.185  1.00  0.00     0.000 C 
BRANCH  15  16
HETATM   16  C   UNL     1     -20.279  -5.184  -8.366  1.00  0.00     0.000 C 
BRANCH  16  17
HETATM   17  C   UNL     1     -20.163  -4.178  -9.513  1.00  0.00     0.000 C 
BRANCH  17  18
HETATM   18  C   UNL     1     -21.543  -3.705  -9.970  1.00  0.00    -0.000 C 
BRANCH  18  19
HETATM   19  C   UNL     1     -22.628  -4.722  -9.620  1.00  0.00    -0.005 C 
HETATM   20  C   UNL     1     -23.841  -4.043  -9.003  1.00  0.00     0.005 C 
ENDBRANCH  18  19
ENDBRANCH  17  18
ENDBRANCH  16  17
ENDBRANCH  15  16
ENDBRANCH  14  15
ENDBRANCH  13  14
ENDBRANCH  12  13
ENDBRANCH  11  12
ENDBRANCH  10  11
ENDBRANCH   8  10
ENDBRANCH   7   8
ENDBRANCH   1   7
BRANCH   1  21
HETATM   21  C   UNL     1     -16.973 -11.305  -4.033  1.00  0.00     0.170 C 
HETATM   22  C   UNL     1     -16.601 -10.812  -5.455  1.00  0.00     0.192 C 
HETATM   23  C   UNL     1     -16.051 -12.007  -6.226  1.00  0.00     0.181 C 
HETATM   24  C   UNL     1     -15.897 -13.099  -5.189  1.00  0.00     0.177 C 
HETATM   25  O   UNL     1     -16.731 -12.754  -4.053  1.00  0.00    -0.359 OA
BRANCH  22  26
HETATM   26  O   UNL     1     -15.679  -9.718  -5.490  1.00  0.00    -0.390 OA
HETATM   27  H   UNL     1     -15.409  -9.581  -6.426  1.00  0.00     0.210 HD
ENDBRANCH  22  26
BRANCH  23  28
HETATM   28  O   UNL     1     -14.856 -11.705  -6.935  1.00  0.00    -0.390 OA
HETATM   29  H   UNL     1     -14.477 -10.905  -6.515  1.00  0.00     0.210 HD
ENDBRANCH  23  28
BRANCH  24  30
HETATM   30  C   UNL     1     -14.422 -13.376  -4.837  1.00  0.00     0.198 C 
BRANCH  30  31
HETATM   31  O   UNL     1     -13.750 -14.113  -5.862  1.00  0.00    -0.398 OA
HETATM   32  H   UNL     1     -13.714 -15.038  -5.585  1.00  0.00     0.209 HD
ENDBRANCH  30  31
ENDBRANCH  24  30
BRANCH  21  33
HETATM   33  C   UNL     1     -16.061 -10.718  -2.914  1.00  0.00     0.210 C 
BRANCH  33  34
HETATM   34  O   UNL     1     -16.124  -9.295  -2.851  1.00  0.00    -0.398 OA
HETATM   35  H   UNL     1     -15.195  -8.982  -2.804  1.00  0.00     0.209 HD
ENDBRANCH  33  34
ENDBRANCH  21  33
ENDBRANCH   1  21
BRANCH   2  36
HETATM   36  O   UNL     1     -19.400 -13.208  -4.032  1.00  0.00    -0.387 OA
HETATM   37  H   UNL     1     -19.854 -13.704  -4.746  1.00  0.00     0.210 HD
ENDBRANCH   2  36
BRANCH   3  38
HETATM   38  O   UNL     1     -22.005 -12.151  -4.331  1.00  0.00    -0.390 OA
HETATM   39  H   UNL     1     -21.768 -13.090  -4.199  1.00  0.00     0.210 HD
ENDBRANCH   3  38
BRANCH   5  40
HETATM   40  C   UNL     1     -19.702 -11.270  -0.040  1.00  0.00     0.198 C 
BRANCH  40  41
HETATM   41  O   UNL     1     -18.842 -12.398   0.132  1.00  0.00    -0.398 OA
HETATM   42  H   UNL     1     -18.367 -12.242   0.968  1.00  0.00     0.209 HD
ENDBRANCH  40  41
ENDBRANCH   5  40
BRANCH   4  43
HETATM   43  O   UNL     1     -20.983 -13.030  -1.884  1.00  0.00    -0.390 OA
HETATM   44  H   UNL     1     -20.453 -13.143  -1.067  1.00  0.00     0.210 HD
ENDBRANCH   4  43
TORSDOF 24
BEGIN_RES ARG D 557
REMARK  4 active torsions:
REMARK  status: ('A' for Active; 'I' for Inactive)
REMARK    1  A    between atoms: CA   and  CB  
REMARK    2  A    between atoms: CB   and  CG  
REMARK    3  A    between atoms: CG   and  CD  
REMARK    4  A    between atoms: CD   and  NE  
REMARK       I    between atoms: NE   and  CZ  
REMARK       I    between atoms: CZ   and  NH1 
REMARK       I    between atoms: CZ   and  NH2 
ROOT
ATOM      1  CA  ARG D 557     -26.217   2.705 -17.014  1.00 35.49     0.159 C 
ENDROOT
BRANCH   1   2
ATOM      2  CB  ARG D 557     -26.789   1.319 -17.183  1.00 35.49     0.034 C 
BRANCH   2   3
ATOM      3  CG  ARG D 557     -25.930   0.197 -16.786  1.00 35.49     0.027 C 
BRANCH   3   4
ATOM      4  CD  ARG D 557     -26.681  -0.866 -16.080  1.00 35.49     0.116 C 
BRANCH   4   5
ATOM      5  NE  ARG D 557     -25.933  -1.422 -14.983  1.00 35.49    -0.212 N 
ATOM      6  CZ  ARG D 557     -25.921  -2.686 -14.624  1.00 35.49     0.666 C 
ATOM      7  NH1 ARG D 557     -26.631  -3.607 -15.247  1.00 35.49    -0.235 N 
ATOM      8  NH2 ARG D 557     -25.166  -3.016 -13.616  1.00 35.49    -0.235 N 
ATOM      9  HH  ARG D 557     -27.133  -3.413 -15.914  1.00 35.49     0.174 HD
ATOM     10  HH  ARG D 557     -26.581  -4.416 -14.970  1.00 35.49     0.174 HD
ATOM     11  HH  ARG D 557     -24.712  -2.401 -13.237  1.00 35.49     0.174 HD
ATOM     12  HH  ARG D 557     -25.129  -3.823 -13.357  1.00 35.49     0.174 HD
ATOM     13  HE  ARG D 557     -25.503  -0.886 -14.481  1.00 35.49     0.178 HD
ENDBRANCH   4   5
ENDBRANCH   3   4
ENDBRANCH   2   3
ENDBRANCH   1   2
END_RES ARG D 557
BEGIN_RES GLU D 570
REMARK  3 active torsions:
REMARK  status: ('A' for Active; 'I' for Inactive)
REMARK    5  A    between atoms: CA   and  CB  
REMARK    6  A    between atoms: CB   and  CG  
REMARK    7  A    between atoms: CG   and  CD  
ROOT
ATOM     14  CA  GLU D 570     -18.033  -6.348 -13.375  1.00 32.92     0.160 C 
ENDROOT
BRANCH  14  15
ATOM     15  CB  GLU D 570     -19.500  -6.345 -13.794  1.00 32.92     0.043 C 
BRANCH  15  16
ATOM     16  CG  GLU D 570     -20.445  -5.544 -12.974  1.00 32.92     0.100 C 
BRANCH  16  17
ATOM     17  CD  GLU D 570     -21.735  -5.233 -13.695  1.00 32.92     0.185 C 
ATOM     18  OE1 GLU D 570     -22.166  -6.041 -14.540  1.00 32.92    -0.647 OA
ATOM     19  OE2 GLU D 570     -22.313  -4.162 -13.425  1.00 32.92    -0.647 OA
ENDBRANCH  16  17
ENDBRANCH  15  16
ENDBRANCH  14  15
END_RES GLU D 570
ENDMDL
MODEL 4
REMARK VINA RESULT:      -5.8      1.696      4.470
REMARK  24 active torsions:
REMARK  status: ('A' for Active; 'I' for Inactive)
REMARK    1  A    between atoms: C_2  and  C_3 
REMARK    2  A    between atoms: C_3  and  C_4 
REMARK    3  A    between atoms: C_4  and  C_5 
REMARK    4  A    between atoms: C_5  and  C_6 
REMARK    5  A    between atoms: C_6  and  C_7 
REMARK    6  A    between atoms: C_7  and  C_8 
REMARK    7  A    between atoms: C_8  and  C_9 
REMARK    8  A    between atoms: C_9  and  C_10 
REMARK    9  A    between atoms: C_10  and  C_11 
REMARK   10  A    between atoms: C_11  and  C_12 
REMARK   11  A    between atoms: C_12  and  O_14 
REMARK   12  A    between atoms: O_14  and  C_15 
REMARK   13  A    between atoms: C_15  and  C_26 
REMARK   14  A    between atoms: C_16  and  O_25 
REMARK   15  A    between atoms: C_17  and  O_24 
REMARK   16  A    between atoms: C_18  and  O_23 
REMARK   17  A    between atoms: C_19  and  C_21 
REMARK   18  A    between atoms: C_21  and  O_22 
REMARK   19  A    between atoms: C_26  and  C_35 
REMARK   20  A    between atoms: C_27  and  O_34 
REMARK   21  A    between atoms: C_28  and  O_33 
REMARK   22  A    between atoms: C_29  and  C_31 
REMARK   23  A    between atoms: C_31  and  O_32 
REMARK   24  A    between atoms: C_35  and  O_36 
ROOT
HETATM    1  C   UNL     1     -19.965 -10.298  -2.929  1.00  0.00     0.238 C 
HETATM    2  C   UNL     1     -18.530 -10.148  -2.325  1.00  0.00     0.215 C 
HETATM    3  C   UNL     1     -17.625  -9.415  -3.342  1.00  0.00     0.183 C 
HETATM    4  C   UNL     1     -17.551 -10.186  -4.671  1.00  0.00     0.180 C 
HETATM    5  C   UNL     1     -18.973 -10.476  -5.168  1.00  0.00     0.180 C 
HETATM    6  O   UNL     1     -19.774 -11.111  -4.141  1.00  0.00    -0.340 OA
ENDROOT
BRANCH   1   7
HETATM    7  O   UNL     1     -20.618  -9.058  -3.350  1.00  0.00    -0.277 OA
BRANCH   7   8
HETATM    8  C   UNL     1     -20.749  -7.988  -2.526  1.00  0.00     0.261 C 
HETATM    9  O   UNL     1     -20.162  -7.852  -1.462  1.00  0.00    -0.265 OA
BRANCH   8  10
HETATM   10  C   UNL     1     -21.680  -6.951  -3.098  1.00  0.00     0.111 C 
BRANCH  10  11
HETATM   11  C   UNL     1     -21.048  -6.109  -4.205  1.00  0.00     0.010 C 
BRANCH  11  12
HETATM   12  C   UNL     1     -21.613  -6.517  -5.570  1.00  0.00     0.000 C 
BRANCH  12  13
HETATM   13  C   UNL     1     -20.628  -6.263  -6.713  1.00  0.00     0.000 C 
BRANCH  13  14
HETATM   14  C   UNL     1     -19.822  -4.983  -6.467  1.00  0.00     0.000 C 
BRANCH  14  15
HETATM   15  C   UNL     1     -19.877  -4.038  -7.668  1.00  0.00     0.000 C 
BRANCH  15  16
HETATM   16  C   UNL     1     -20.232  -4.796  -8.949  1.00  0.00     0.000 C 
BRANCH  16  17
HETATM   17  C   UNL     1     -21.431  -4.168  -9.661  1.00  0.00     0.000 C 
BRANCH  17  18
HETATM   18  C   UNL     1     -22.478  -3.689  -8.654  1.00  0.00    -0.000 C 
BRANCH  18  19
HETATM   19  C   UNL     1     -23.890  -4.079  -9.086  1.00  0.00    -0.005 C 
HETATM   20  C   UNL     1     -24.291  -3.366 -10.367  1.00  0.00     0.005 C 
ENDBRANCH  18  19
ENDBRANCH  17  18
ENDBRANCH  16  17
ENDBRANCH  15  16
ENDBRANCH  14  15
ENDBRANCH  13  14
ENDBRANCH  12  13
ENDBRANCH  11  12
ENDBRANCH  10  11
ENDBRANCH   8  10
ENDBRANCH   7   8
ENDBRANCH   1   7
BRANCH   1  21
HETATM   21  C   UNL     1     -20.996 -11.128  -2.019  1.00  0.00     0.170 C 
HETATM   22  C   UNL     1     -22.391 -10.464  -1.892  1.00  0.00     0.192 C 
HETATM   23  C   UNL     1     -22.716 -10.361  -0.406  1.00  0.00     0.181 C 
HETATM   24  C   UNL     1     -21.633 -11.163   0.284  1.00  0.00     0.177 C 
HETATM   25  O   UNL     1     -20.521 -11.293  -0.639  1.00  0.00    -0.359 OA
BRANCH  22  26
HETATM   26  O   UNL     1     -23.441 -11.133  -2.597  1.00  0.00    -0.390 OA
HETATM   27  H   UNL     1     -24.082 -10.450  -2.901  1.00  0.00     0.210 HD
ENDBRANCH  22  26
BRANCH  23  28
HETATM   28  O   UNL     1     -24.038 -10.786  -0.099  1.00  0.00    -0.390 OA
HETATM   29  H   UNL     1     -24.384 -11.226  -0.904  1.00  0.00     0.210 HD
ENDBRANCH  23  28
BRANCH  24  30
HETATM   30  C   UNL     1     -22.156 -12.500   0.848  1.00  0.00     0.198 C 
BRANCH  30  31
HETATM   31  O   UNL     1     -22.858 -13.264  -0.135  1.00  0.00    -0.398 OA
HETATM   32  H   UNL     1     -23.766 -13.379   0.174  1.00  0.00     0.209 HD
ENDBRANCH  30  31
ENDBRANCH  24  30
BRANCH  21  33
HETATM   33  C   UNL     1     -21.042 -12.554  -2.647  1.00  0.00     0.210 C 
BRANCH  33  34
HETATM   34  O   UNL     1     -20.183 -13.473  -1.977  1.00  0.00    -0.398 OA
HETATM   35  H   UNL     1     -20.321 -13.327  -1.017  1.00  0.00     0.209 HD
ENDBRANCH  33  34
ENDBRANCH  21  33
ENDBRANCH   1  21
BRANCH   2  36
HETATM   36  O   UNL     1     -17.929 -11.444  -2.067  1.00  0.00    -0.387 OA
HETATM   37  H   UNL     1     -17.269 -11.332  -1.349  1.00  0.00     0.210 HD
ENDBRANCH   2  36
BRANCH   3  38
HETATM   38  O   UNL     1     -16.309  -9.248  -2.806  1.00  0.00    -0.390 OA
HETATM   39  H   UNL     1     -16.164  -8.283  -2.756  1.00  0.00     0.210 HD
ENDBRANCH   3  38
BRANCH   5  40
HETATM   40  C   UNL     1     -18.953 -11.399  -6.395  1.00  0.00     0.198 C 
BRANCH  40  41
HETATM   41  O   UNL     1     -20.280 -11.556  -6.901  1.00  0.00    -0.398 OA
HETATM   42  H   UNL     1     -20.178 -11.753  -7.849  1.00  0.00     0.209 HD
ENDBRANCH  40  41
ENDBRANCH   5  40
BRANCH   4  43
HETATM   43  O   UNL     1     -16.820 -11.411  -4.500  1.00  0.00    -0.390 OA
HETATM   44  H   UNL     1     -16.422 -11.385  -3.604  1.00  0.00     0.210 HD
ENDBRANCH   4  43
TORSDOF 24
BEGIN_RES ARG D 557
REMARK  4 active torsions:
REMARK  status: ('A' for Active; 'I' for Inactive)
REMARK    1  A    between atoms: CA   and  CB  
REMARK    2  A    between atoms: CB   and  CG  
REMARK    3  A    between atoms: CG   and  CD  
REMARK    4  A    between atoms: CD   and  NE  
REMARK       I    between atoms: NE   and  CZ  
REMARK       I    between atoms: CZ   and  NH1 
REMARK       I    between atoms: CZ   and  NH2 
ROOT
ATOM      1  CA  ARG D 557     -26.217   2.705 -17.014  1.00 35.49     0.159 C 
ENDROOT
BRANCH   1   2
ATOM      2  CB  ARG D 557     -26.789   1.319 -17.183  1.00 35.49     0.034 C 
BRANCH   2   3
ATOM      3  CG  ARG D 557     -28.239   1.224 -17.391  1.00 35.49     0.027 C 
BRANCH   3   4
ATOM      4  CD  ARG D 557     -28.882   0.275 -16.454  1.00 35.49     0.116 C 
BRANCH   4   5
ATOM      5  NE  ARG D 557     -29.273  -0.949 -17.104  1.00 35.49    -0.212 N 
ATOM      6  CZ  ARG D 557     -28.642  -2.099 -17.019  1.00 35.49     0.666 C 
ATOM      7  NH1 ARG D 557     -27.537  -2.251 -16.314  1.00 35.49    -0.235 N 
ATOM      8  NH2 ARG D 557     -29.151  -3.111 -17.659  1.00 35.49    -0.235 N 
ATOM      9  HH  ARG D 557     -27.185  -1.599 -15.883  1.00 35.49     0.174 HD
ATOM     10  HH  ARG D 557     -27.170  -3.025 -16.293  1.00 35.49     0.174 HD
ATOM     11  HH  ARG D 557     -29.870  -2.985 -18.100  1.00 35.49     0.174 HD
ATOM     12  HH  ARG D 557     -28.775  -3.870 -17.625  1.00 35.49     0.174 HD
ATOM     13  HE  ARG D 557     -29.935  -0.924 -17.638  1.00 35.49     0.178 HD
ENDBRANCH   4   5
ENDBRANCH   3   4
ENDBRANCH   2   3
ENDBRANCH   1   2
END_RES ARG D 557
BEGIN_RES GLU D 570
REMARK  3 active torsions:
REMARK  status: ('A' for Active; 'I' for Inactive)
REMARK    5  A    between atoms: CA   and  CB  
REMARK    6  A    between atoms: CB   and  CG  
REMARK    7  A    between atoms: CG   and  CD  
ROOT
ATOM     14  CA  GLU D 570     -18.033  -6.348 -13.375  1.00 32.92     0.160 C 
ENDROOT
BRANCH  14  15
ATOM     15  CB  GLU D 570     -19.500  -6.345 -13.794  1.00 32.92     0.043 C 
BRANCH  15  16
ATOM     16  CG  GLU D 570     -20.438  -5.513 -12.997  1.00 32.92     0.100 C 
BRANCH  16  17
ATOM     17  CD  GLU D 570     -21.775  -5.318 -13.674  1.00 32.92     0.185 C 
ATOM     18  OE1 GLU D 570     -22.717  -4.829 -13.023  1.00 32.92    -0.647 OA
ATOM     19  OE2 GLU D 570     -21.885  -5.675 -14.864  1.00 32.92    -0.647 OA
ENDBRANCH  16  17
ENDBRANCH  15  16
ENDBRANCH  14  15
END_RES GLU D 570
ENDMDL
MODEL 5
REMARK VINA RESULT:      -5.8      2.084      3.567
REMARK  24 active torsions:
REMARK  status: ('A' for Active; 'I' for Inactive)
REMARK    1  A    between atoms: C_2  and  C_3 
REMARK    2  A    between atoms: C_3  and  C_4 
REMARK    3  A    between atoms: C_4  and  C_5 
REMARK    4  A    between atoms: C_5  and  C_6 
REMARK    5  A    between atoms: C_6  and  C_7 
REMARK    6  A    between atoms: C_7  and  C_8 
REMARK    7  A    between atoms: C_8  and  C_9 
REMARK    8  A    between atoms: C_9  and  C_10 
REMARK    9  A    between atoms: C_10  and  C_11 
REMARK   10  A    between atoms: C_11  and  C_12 
REMARK   11  A    between atoms: C_12  and  O_14 
REMARK   12  A    between atoms: O_14  and  C_15 
REMARK   13  A    between atoms: C_15  and  C_26 
REMARK   14  A    between atoms: C_16  and  O_25 
REMARK   15  A    between atoms: C_17  and  O_24 
REMARK   16  A    between atoms: C_18  and  O_23 
REMARK   17  A    between atoms: C_19  and  C_21 
REMARK   18  A    between atoms: C_21  and  O_22 
REMARK   19  A    between atoms: C_26  and  C_35 
REMARK   20  A    between atoms: C_27  and  O_34 
REMARK   21  A    between atoms: C_28  and  O_33 
REMARK   22  A    between atoms: C_29  and  C_31 
REMARK   23  A    between atoms: C_31  and  O_32 
REMARK   24  A    between atoms: C_35  and  O_36 
ROOT
HETATM    1  C   UNL     1     -17.814 -11.606  -2.621  1.00  0.00     0.238 C 
HETATM    2  C   UNL     1     -18.847 -12.749  -2.891  1.00  0.00     0.215 C 
HETATM    3  C   UNL     1     -19.789 -12.880  -1.672  1.00  0.00     0.183 C 
HETATM    4  C   UNL     1     -18.996 -13.188  -0.391  1.00  0.00     0.180 C 
HETATM    5  C   UNL     1     -17.875 -12.154  -0.228  1.00  0.00     0.180 C 
HETATM    6  O   UNL     1     -17.072 -12.050  -1.430  1.00  0.00    -0.340 OA
ENDROOT
BRANCH   1   7
HETATM    7  O   UNL     1     -18.377 -10.293  -2.304  1.00  0.00    -0.277 OA
BRANCH   7   8
HETATM    8  C   UNL     1     -19.511  -9.827  -2.885  1.00  0.00     0.261 C 
HETATM    9  O   UNL     1     -19.678  -9.708  -4.091  1.00  0.00    -0.265 OA
BRANCH   8  10
HETATM   10  C   UNL     1     -20.573  -9.510  -1.865  1.00  0.00     0.111 C 
BRANCH  10  11
HETATM   11  C   UNL     1     -20.525  -8.068  -1.362  1.00  0.00     0.010 C 
BRANCH  11  12
HETATM   12  C   UNL     1     -21.944  -7.504  -1.232  1.00  0.00     0.000 C 
BRANCH  12  13
HETATM   13  C   UNL     1     -22.118  -6.176  -1.972  1.00  0.00     0.000 C 
BRANCH  13  14
HETATM   14  C   UNL     1     -21.307  -6.163  -3.272  1.00  0.00     0.000 C 
BRANCH  14  15
HETATM   15  C   UNL     1     -22.109  -6.725  -4.447  1.00  0.00     0.000 C 
BRANCH  15  16
HETATM   16  C   UNL     1     -21.234  -6.863  -5.695  1.00  0.00     0.000 C 
BRANCH  16  17
HETATM   17  C   UNL     1     -21.117  -5.539  -6.451  1.00  0.00     0.000 C 
BRANCH  17  18
HETATM   18  C   UNL     1     -20.026  -5.611  -7.519  1.00  0.00    -0.000 C 
BRANCH  18  19
HETATM   19  C   UNL     1     -19.828  -4.263  -8.210  1.00  0.00    -0.005 C 
HETATM   20  C   UNL     1     -20.400  -4.277  -9.618  1.00  0.00     0.005 C 
ENDBRANCH  18  19
ENDBRANCH  17  18
ENDBRANCH  16  17
ENDBRANCH  15  16
ENDBRANCH  14  15
ENDBRANCH  13  14
ENDBRANCH  12  13
ENDBRANCH  11  12
ENDBRANCH  10  11
ENDBRANCH   8  10
ENDBRANCH   7   8
ENDBRANCH   1   7
BRANCH   1  21
HETATM   21  C   UNL     1     -16.704 -11.417  -3.767  1.00  0.00     0.170 C 
HETATM   22  C   UNL     1     -17.246 -11.636  -5.202  1.00  0.00     0.192 C 
HETATM   23  C   UNL     1     -16.335 -12.649  -5.887  1.00  0.00     0.181 C 
HETATM   24  C   UNL     1     -15.168 -12.822  -4.939  1.00  0.00     0.177 C 
HETATM   25  O   UNL     1     -15.587 -12.360  -3.629  1.00  0.00    -0.359 OA
BRANCH  22  26
HETATM   26  O   UNL     1     -17.363 -10.445  -5.989  1.00  0.00    -0.390 OA
HETATM   27  H   UNL     1     -17.827  -9.769  -5.444  1.00  0.00     0.210 HD
ENDBRANCH  22  26
BRANCH  23  28
HETATM   28  O   UNL     1     -15.963 -12.257  -7.202  1.00  0.00    -0.390 OA
HETATM   29  H   UNL     1     -16.681 -11.681  -7.536  1.00  0.00     0.210 HD
ENDBRANCH  23  28
BRANCH  24  30
HETATM   30  C   UNL     1     -13.876 -12.165  -5.466  1.00  0.00     0.198 C 
BRANCH  30  31
HETATM   31  O   UNL     1     -13.257 -12.939  -6.497  1.00  0.00    -0.398 OA
HETATM   32  H   UNL     1     -12.314 -12.733  -6.494  1.00  0.00     0.209 HD
ENDBRANCH  30  31
ENDBRANCH  24  30
BRANCH  21  33
HETATM   33  C   UNL     1     -16.114  -9.992  -3.536  1.00  0.00     0.210 C 
BRANCH  33  34
HETATM   34  O   UNL     1     -15.587  -9.827  -2.222  1.00  0.00    -0.398 OA
HETATM   35  H   UNL     1     -16.091 -10.440  -1.646  1.00  0.00     0.209 HD
ENDBRANCH  33  34
ENDBRANCH  21  33
ENDBRANCH   1  21
BRANCH   2  36
HETATM   36  O   UNL     1     -18.184 -14.029  -3.063  1.00  0.00    -0.387 OA
HETATM   37  H   UNL     1     -18.686 -14.700  -2.553  1.00  0.00     0.210 HD
ENDBRANCH   2  36
BRANCH   3  38
HETATM   38  O   UNL     1     -20.758 -13.908  -1.900  1.00  0.00    -0.390 OA
HETATM   39  H   UNL     1     -20.318 -14.745  -1.651  1.00  0.00     0.210 HD
ENDBRANCH   3  38
BRANCH   5  40
HETATM   40  C   UNL     1     -16.944 -12.525   0.935  1.00  0.00     0.198 C 
BRANCH  40  41
HETATM   41  O   UNL     1     -15.896 -11.561   1.039  1.00  0.00    -0.398 OA
HETATM   42  H   UNL     1     -16.318 -10.747   1.366  1.00  0.00     0.209 HD
ENDBRANCH  40  41
ENDBRANCH   5  40
BRANCH   4  43
HETATM   43  O   UNL     1     -18.450 -14.516  -0.447  1.00  0.00    -0.390 OA
HETATM   44  H   UNL     1     -19.208 -15.138  -0.448  1.00  0.00     0.210 HD
ENDBRANCH   4  43
TORSDOF 24
BEGIN_RES ARG D 557
REMARK  4 active torsions:
REMARK  status: ('A' for Active; 'I' for Inactive)
REMARK    1  A    between atoms: CA   and  CB  
REMARK    2  A    between atoms: CB   and  CG  
REMARK    3  A    between atoms: CG   and  CD  
REMARK    4  A    between atoms: CD   and  NE  
REMARK       I    between atoms: NE   and  CZ  
REMARK       I    between atoms: CZ   and  NH1 
REMARK       I    between atoms: CZ   and  NH2 
ROOT
ATOM      1  CA  ARG D 557     -26.217   2.705 -17.014  1.00 35.49     0.159 C 
ENDROOT
BRANCH   1   2
ATOM      2  CB  ARG D 557     -26.789   1.319 -17.183  1.00 35.49     0.034 C 
BRANCH   2   3
ATOM      3  CG  ARG D 557     -28.235   1.172 -16.980  1.00 35.49     0.027 C 
BRANCH   3   4
ATOM      4  CD  ARG D 557     -28.630  -0.233 -16.726  1.00 35.49     0.116 C 
BRANCH   4   5
ATOM      5  NE  ARG D 557     -27.611  -0.962 -16.018  1.00 35.49    -0.212 N 
ATOM      6  CZ  ARG D 557     -27.412  -2.260 -16.080  1.00 35.49     0.666 C 
ATOM      7  NH1 ARG D 557     -28.165  -3.058 -16.815  1.00 35.49    -0.235 N 
ATOM      8  NH2 ARG D 557     -26.427  -2.750 -15.386  1.00 35.49    -0.235 N 
ATOM      9  HH  ARG D 557     -28.818  -2.757 -17.281  1.00 35.49     0.174 HD
ATOM     10  HH  ARG D 557     -27.986  -3.896 -16.818  1.00 35.49     0.174 HD
ATOM     11  HH  ARG D 557     -25.953  -2.210 -14.927  1.00 35.49     0.174 HD
ATOM     12  HH  ARG D 557     -26.265  -3.582 -15.404  1.00 35.49     0.174 HD
ATOM     13  HE  ARG D 557     -27.126  -0.536 -15.465  1.00 35.49     0.178 HD
ENDBRANCH   4   5
ENDBRANCH   3   4
ENDBRANCH   2   3
ENDBRANCH   1   2
END_RES ARG D 557
BEGIN_RES GLU D 570
REMARK  3 active torsions:
REMARK  status: ('A' for Active; 'I' for Inactive)
REMARK    5  A    between atoms: CA   and  CB  
REMARK    6  A    between atoms: CB   and  CG  
REMARK    7  A    between atoms: CG   and  CD  
ROOT
ATOM     14  CA  GLU D 570     -18.033  -6.348 -13.375  1.00 32.92     0.160 C 
ENDROOT
BRANCH  14  15
ATOM     15  CB  GLU D 570     -19.500  -6.345 -13.794  1.00 32.92     0.043 C 
BRANCH  15  16
ATOM     16  CG  GLU D 570     -19.814  -5.929 -15.186  1.00 32.92     0.100 C 
BRANCH  16  17
ATOM     17  CD  GLU D 570     -21.290  -5.700 -15.414  1.00 32.92     0.185 C 
ATOM     18  OE1 GLU D 570     -21.649  -4.783 -16.177  1.00 32.92    -0.647 OA
ATOM     19  OE2 GLU D 570     -22.096  -6.435 -14.809  1.00 32.92    -0.647 OA
ENDBRANCH  16  17
ENDBRANCH  15  16
ENDBRANCH  14  15
END_RES GLU D 570
ENDMDL
MODEL 6
REMARK VINA RESULT:      -5.8      2.138      2.831
REMARK  24 active torsions:
REMARK  status: ('A' for Active; 'I' for Inactive)
REMARK    1  A    between atoms: C_2  and  C_3 
REMARK    2  A    between atoms: C_3  and  C_4 
REMARK    3  A    between atoms: C_4  and  C_5 
REMARK    4  A    between atoms: C_5  and  C_6 
REMARK    5  A    between atoms: C_6  and  C_7 
REMARK    6  A    between atoms: C_7  and  C_8 
REMARK    7  A    between atoms: C_8  and  C_9 
REMARK    8  A    between atoms: C_9  and  C_10 
REMARK    9  A    between atoms: C_10  and  C_11 
REMARK   10  A    between atoms: C_11  and  C_12 
REMARK   11  A    between atoms: C_12  and  O_14 
REMARK   12  A    between atoms: O_14  and  C_15 
REMARK   13  A    between atoms: C_15  and  C_26 
REMARK   14  A    between atoms: C_16  and  O_25 
REMARK   15  A    between atoms: C_17  and  O_24 
REMARK   16  A    between atoms: C_18  and  O_23 
REMARK   17  A    between atoms: C_19  and  C_21 
REMARK   18  A    between atoms: C_21  and  O_22 
REMARK   19  A    between atoms: C_26  and  C_35 
REMARK   20  A    between atoms: C_27  and  O_34 
REMARK   21  A    between atoms: C_28  and  O_33 
REMARK   22  A    between atoms: C_29  and  C_31 
REMARK   23  A    between atoms: C_31  and  O_32 
REMARK   24  A    between atoms: C_35  and  O_36 
ROOT
HETATM    1  C   UNL     1     -18.455 -10.732  -3.835  1.00  0.00     0.238 C 
HETATM    2  C   UNL     1     -19.477 -11.636  -4.598  1.00  0.00     0.215 C 
HETATM    3  C   UNL     1     -20.881 -11.451  -3.979  1.00  0.00     0.183 C 
HETATM    4  C   UNL     1     -20.879 -11.816  -2.485  1.00  0.00     0.180 C 
HETATM    5  C   UNL     1     -19.757 -11.045  -1.777  1.00  0.00     0.180 C 
HETATM    6  O   UNL     1     -18.486 -11.224  -2.449  1.00  0.00    -0.340 OA
ENDROOT
BRANCH   1   7
HETATM    7  O   UNL     1     -18.774  -9.305  -3.784  1.00  0.00    -0.277 OA
BRANCH   7   8
HETATM    8  C   UNL     1     -19.408  -8.663  -4.798  1.00  0.00     0.261 C 
HETATM    9  O   UNL     1     -19.024  -8.643  -5.959  1.00  0.00    -0.265 OA
BRANCH   8  10
HETATM   10  C   UNL     1     -20.682  -8.006  -4.335  1.00  0.00     0.111 C 
BRANCH  10  11
HETATM   11  C   UNL     1     -21.180  -6.909  -5.275  1.00  0.00     0.010 C 
BRANCH  11  12
HETATM   12  C   UNL     1     -20.726  -5.534  -4.774  1.00  0.00     0.000 C 
BRANCH  12  13
HETATM   13  C   UNL     1     -20.380  -4.577  -5.917  1.00  0.00     0.000 C 
BRANCH  13  14
HETATM   14  C   UNL     1     -19.727  -5.329  -7.081  1.00  0.00     0.000 C 
BRANCH  14  15
HETATM   15  C   UNL     1     -20.386  -4.987  -8.418  1.00  0.00     0.000 C 
BRANCH  15  16
HETATM   16  C   UNL     1     -21.800  -4.439  -8.211  1.00  0.00     0.000 C 
BRANCH  16  17
HETATM   17  C   UNL     1     -22.342  -3.785  -9.483  1.00  0.00     0.000 C 
BRANCH  17  18
HETATM   18  C   UNL     1     -21.356  -3.936 -10.642  1.00  0.00    -0.000 C 
BRANCH  18  19
HETATM   19  C   UNL     1     -21.965  -3.464 -11.961  1.00  0.00    -0.005 C 
HETATM   20  C   UNL     1     -22.521  -4.631 -12.760  1.00  0.00     0.005 C 
ENDBRANCH  18  19
ENDBRANCH  17  18
ENDBRANCH  16  17
ENDBRANCH  15  16
ENDBRANCH  14  15
ENDBRANCH  13  14
ENDBRANCH  12  13
ENDBRANCH  11  12
ENDBRANCH  10  11
ENDBRANCH   8  10
ENDBRANCH   7   8
ENDBRANCH   1   7
BRANCH   1  21
HETATM   21  C   UNL     1     -16.928 -10.891  -4.309  1.00  0.00     0.170 C 
HETATM   22  C   UNL     1     -16.747 -10.858  -5.848  1.00  0.00     0.192 C 
HETATM   23  C   UNL     1     -15.948 -12.095  -6.242  1.00  0.00     0.181 C 
HETATM   24  C   UNL     1     -15.487 -12.694  -4.930  1.00  0.00     0.177 C 
HETATM   25  O   UNL     1     -16.337 -12.165  -3.879  1.00  0.00    -0.359 OA
BRANCH  22  26
HETATM   26  O   UNL     1     -16.126  -9.671  -6.354  1.00  0.00    -0.390 OA
HETATM   27  H   UNL     1     -16.776  -9.217  -6.938  1.00  0.00     0.210 HD
ENDBRANCH  22  26
BRANCH  23  28
HETATM   28  O   UNL     1     -14.893 -11.806  -7.151  1.00  0.00    -0.390 OA
HETATM   29  H   UNL     1     -14.056 -11.959  -6.665  1.00  0.00     0.210 HD
ENDBRANCH  23  28
BRANCH  24  30
HETATM   30  C   UNL     1     -13.977 -12.500  -4.690  1.00  0.00     0.198 C 
BRANCH  30  31
HETATM   31  O   UNL     1     -13.617 -12.700  -3.321  1.00  0.00    -0.398 OA
HETATM   32  H   UNL     1     -12.699 -13.002  -3.298  1.00  0.00     0.209 HD
ENDBRANCH  30  31
ENDBRANCH  24  30
BRANCH  21  33
HETATM   33  C   UNL     1     -16.148  -9.765  -3.567  1.00  0.00     0.210 C 
BRANCH  33  34
HETATM   34  O   UNL     1     -15.949 -10.058  -2.186  1.00  0.00    -0.398 OA
HETATM   35  H   UNL     1     -16.757  -9.752  -1.722  1.00  0.00     0.209 HD
ENDBRANCH  33  34
ENDBRANCH  21  33
ENDBRANCH   1  21
BRANCH   2  36
HETATM   36  O   UNL     1     -19.133 -13.042  -4.474  1.00  0.00    -0.387 OA
HETATM   37  H   UNL     1     -18.248 -13.172  -4.877  1.00  0.00     0.210 HD
ENDBRANCH   2  36
BRANCH   3  38
HETATM   38  O   UNL     1     -21.841 -12.256  -4.672  1.00  0.00    -0.390 OA
HETATM   39  H   UNL     1     -22.714 -11.972  -4.338  1.00  0.00     0.210 HD
ENDBRANCH   3  38
BRANCH   5  40
HETATM   40  C   UNL     1     -19.598 -11.511  -0.324  1.00  0.00     0.198 C 
BRANCH  40  41
HETATM   41  O   UNL     1     -18.635 -12.564  -0.258  1.00  0.00    -0.398 OA
HETATM   42  H   UNL     1     -18.274 -12.647  -1.159  1.00  0.00     0.209 HD
ENDBRANCH  40  41
ENDBRANCH   5  40
BRANCH   4  43
HETATM   43  O   UNL     1     -20.700 -13.231  -2.315  1.00  0.00    -0.390 OA
HETATM   44  H   UNL     1     -21.402 -13.674  -2.838  1.00  0.00     0.210 HD
ENDBRANCH   4  43
TORSDOF 24
BEGIN_RES ARG D 557
REMARK  4 active torsions:
REMARK  status: ('A' for Active; 'I' for Inactive)
REMARK    1  A    between atoms: CA   and  CB  
REMARK    2  A    between atoms: CB   and  CG  
REMARK    3  A    between atoms: CG   and  CD  
REMARK    4  A    between atoms: CD   and  NE  
REMARK       I    between atoms: NE   and  CZ  
REMARK       I    between atoms: CZ   and  NH1 
REMARK       I    between atoms: CZ   and  NH2 
ROOT
ATOM      1  CA  ARG D 557     -26.217   2.705 -17.014  1.00 35.49     0.159 C 
ENDROOT
BRANCH   1   2
ATOM      2  CB  ARG D 557     -26.789   1.319 -17.183  1.00 35.49     0.034 C 
BRANCH   2   3
ATOM      3  CG  ARG D 557     -28.232   1.226 -17.435  1.00 35.49     0.027 C 
BRANCH   3   4
ATOM      4  CD  ARG D 557     -28.910   0.303 -16.496  1.00 35.49     0.116 C 
BRANCH   4   5
ATOM      5  NE  ARG D 557     -29.325  -0.916 -17.138  1.00 35.49    -0.212 N 
ATOM      6  CZ  ARG D 557     -28.716  -2.077 -17.050  1.00 35.49     0.666 C 
ATOM      7  NH1 ARG D 557     -27.611  -2.246 -16.347  1.00 35.49    -0.235 N 
ATOM      8  NH2 ARG D 557     -29.245  -3.083 -17.683  1.00 35.49    -0.235 N 
ATOM      9  HH  ARG D 557     -27.246  -1.598 -15.920  1.00 35.49     0.174 HD
ATOM     10  HH  ARG D 557     -27.259  -3.026 -16.323  1.00 35.49     0.174 HD
ATOM     11  HH  ARG D 557     -29.963  -2.946 -18.123  1.00 35.49     0.174 HD
ATOM     12  HH  ARG D 557     -28.883  -3.848 -17.646  1.00 35.49     0.174 HD
ATOM     13  HE  ARG D 557     -29.988  -0.882 -17.670  1.00 35.49     0.178 HD
ENDBRANCH   4   5
ENDBRANCH   3   4
ENDBRANCH   2   3
ENDBRANCH   1   2
END_RES ARG D 557
BEGIN_RES GLU D 570
REMARK  3 active torsions:
REMARK  status: ('A' for Active; 'I' for Inactive)
REMARK    5  A    between atoms: CA   and  CB  
REMARK    6  A    between atoms: CB   and  CG  
REMARK    7  A    between atoms: CG   and  CD  
ROOT
ATOM     14  CA  GLU D 570     -18.033  -6.348 -13.375  1.00 32.92     0.160 C 
ENDROOT
BRANCH  14  15
ATOM     15  CB  GLU D 570     -19.500  -6.345 -13.794  1.00 32.92     0.043 C 
BRANCH  15  16
ATOM     16  CG  GLU D 570     -20.124  -7.655 -14.112  1.00 32.92     0.100 C 
BRANCH  16  17
ATOM     17  CD  GLU D 570     -20.834  -7.662 -15.445  1.00 32.92     0.185 C 
ATOM     18  OE1 GLU D 570     -21.542  -6.686 -15.758  1.00 32.92    -0.647 OA
ATOM     19  OE2 GLU D 570     -20.695  -8.662 -16.177  1.00 32.92    -0.647 OA
ENDBRANCH  16  17
ENDBRANCH  15  16
ENDBRANCH  14  15
END_RES GLU D 570
ENDMDL
MODEL 7
REMARK VINA RESULT:      -5.7      2.329      4.734
REMARK  24 active torsions:
REMARK  status: ('A' for Active; 'I' for Inactive)
REMARK    1  A    between atoms: C_2  and  C_3 
REMARK    2  A    between atoms: C_3  and  C_4 
REMARK    3  A    between atoms: C_4  and  C_5 
REMARK    4  A    between atoms: C_5  and  C_6 
REMARK    5  A    between atoms: C_6  and  C_7 
REMARK    6  A    between atoms: C_7  and  C_8 
REMARK    7  A    between atoms: C_8  and  C_9 
REMARK    8  A    between atoms: C_9  and  C_10 
REMARK    9  A    between atoms: C_10  and  C_11 
REMARK   10  A    between atoms: C_11  and  C_12 
REMARK   11  A    between atoms: C_12  and  O_14 
REMARK   12  A    between atoms: O_14  and  C_15 
REMARK   13  A    between atoms: C_15  and  C_26 
REMARK   14  A    between atoms: C_16  and  O_25 
REMARK   15  A    between atoms: C_17  and  O_24 
REMARK   16  A    between atoms: C_18  and  O_23 
REMARK   17  A    between atoms: C_19  and  C_21 
REMARK   18  A    between atoms: C_21  and  O_22 
REMARK   19  A    between atoms: C_26  and  C_35 
REMARK   20  A    between atoms: C_27  and  O_34 
REMARK   21  A    between atoms: C_28  and  O_33 
REMARK   22  A    between atoms: C_29  and  C_31 
REMARK   23  A    between atoms: C_31  and  O_32 
REMARK   24  A    between atoms: C_35  and  O_36 
ROOT
HETATM    1  C   UNL     1     -19.799 -11.538  -3.458  1.00  0.00     0.238 C 
HETATM    2  C   UNL     1     -19.577 -12.752  -2.498  1.00  0.00     0.215 C 
HETATM    3  C   UNL     1     -19.052 -12.236  -1.139  1.00  0.00     0.183 C 
HETATM    4  C   UNL     1     -17.733 -11.463  -1.314  1.00  0.00     0.180 C 
HETATM    5  C   UNL     1     -17.919 -10.381  -2.384  1.00  0.00     0.180 C 
HETATM    6  O   UNL     1     -18.466 -10.933  -3.607  1.00  0.00    -0.340 OA
ENDROOT
BRANCH   1   7
HETATM    7  O   UNL     1     -20.689 -10.486  -2.966  1.00  0.00    -0.277 OA
BRANCH   7   8
HETATM    8  C   UNL     1     -21.792 -10.752  -2.223  1.00  0.00     0.261 C 
HETATM    9  O   UNL     1     -22.741 -11.426  -2.601  1.00  0.00    -0.265 OA
BRANCH   8  10
HETATM   10  C   UNL     1     -21.697 -10.155  -0.844  1.00  0.00     0.111 C 
BRANCH  10  11
HETATM   11  C   UNL     1     -23.049  -9.747  -0.260  1.00  0.00     0.010 C 
BRANCH  11  12
HETATM   12  C   UNL     1     -23.019  -8.277   0.171  1.00  0.00     0.000 C 
BRANCH  12  13
HETATM   13  C   UNL     1     -21.855  -7.504  -0.453  1.00  0.00     0.000 C 
BRANCH  13  14
HETATM   14  C   UNL     1     -22.359  -6.507  -1.502  1.00  0.00     0.000 C 
BRANCH  14  15
HETATM   15  C   UNL     1     -21.349  -6.317  -2.635  1.00  0.00     0.000 C 
BRANCH  15  16
HETATM   16  C   UNL     1     -21.698  -7.197  -3.837  1.00  0.00     0.000 C 
BRANCH  16  17
HETATM   17  C   UNL     1     -21.911  -6.365  -5.101  1.00  0.00     0.000 C 
BRANCH  17  18
HETATM   18  C   UNL     1     -20.590  -6.129  -5.834  1.00  0.00    -0.000 C 
BRANCH  18  19
HETATM   19  C   UNL     1     -20.235  -4.644  -5.886  1.00  0.00    -0.005 C 
HETATM   20  C   UNL     1     -21.041  -3.923  -6.954  1.00  0.00     0.005 C 
ENDBRANCH  18  19
ENDBRANCH  17  18
ENDBRANCH  16  17
ENDBRANCH  15  16
ENDBRANCH  14  15
ENDBRANCH  13  14
ENDBRANCH  12  13
ENDBRANCH  11  12
ENDBRANCH  10  11
ENDBRANCH   8  10
ENDBRANCH   7   8
ENDBRANCH   1   7
BRANCH   1  21
HETATM   21  C   UNL     1     -20.256 -11.931  -4.947  1.00  0.00     0.170 C 
HETATM   22  C   UNL     1     -21.248 -13.121  -5.001  1.00  0.00     0.192 C 
HETATM   23  C   UNL     1     -20.683 -14.143  -5.982  1.00  0.00     0.181 C 
HETATM   24  C   UNL     1     -19.516 -13.442  -6.644  1.00  0.00     0.177 C 
HETATM   25  O   UNL     1     -19.126 -12.331  -5.794  1.00  0.00    -0.359 OA
BRANCH  22  26
HETATM   26  O   UNL     1     -22.590 -12.769  -5.352  1.00  0.00    -0.390 OA
HETATM   27  H   UNL     1     -22.657 -11.787  -5.339  1.00  0.00     0.210 HD
ENDBRANCH  22  26
BRANCH  23  28
HETATM   28  O   UNL     1     -21.659 -14.634  -6.893  1.00  0.00    -0.390 OA
HETATM   29  H   UNL     1     -21.974 -15.488  -6.531  1.00  0.00     0.210 HD
ENDBRANCH  23  28
BRANCH  24  30
HETATM   30  C   UNL     1     -19.811 -13.055  -8.107  1.00  0.00     0.198 C 
BRANCH  30  31
HETATM   31  O   UNL     1     -19.192 -13.946  -9.037  1.00  0.00    -0.398 OA
HETATM   32  H   UNL     1     -19.870 -14.239  -9.660  1.00  0.00     0.209 HD
ENDBRANCH  30  31
ENDBRANCH  24  30
BRANCH  21  33
HETATM   33  C   UNL     1     -20.829 -10.617  -5.561  1.00  0.00     0.210 C 
BRANCH  33  34
HETATM   34  O   UNL     1     -19.831  -9.612  -5.723  1.00  0.00    -0.398 OA
HETATM   35  H   UNL     1     -19.903  -9.027  -4.938  1.00  0.00     0.209 HD
ENDBRANCH  33  34
ENDBRANCH  21  33
ENDBRANCH   1  21
BRANCH   2  36
HETATM   36  O   UNL     1     -18.580 -13.666  -3.027  1.00  0.00    -0.387 OA
HETATM   37  H   UNL     1     -19.050 -14.446  -3.393  1.00  0.00     0.210 HD
ENDBRANCH   2  36
BRANCH   3  38
HETATM   38  O   UNL     1     -18.856 -13.327  -0.234  1.00  0.00    -0.390 OA
HETATM   39  H   UNL     1     -17.889 -13.451  -0.174  1.00  0.00     0.210 HD
ENDBRANCH   3  38
BRANCH   5  40
HETATM   40  C   UNL     1     -16.584  -9.703  -2.723  1.00  0.00     0.198 C 
BRANCH  40  41
HETATM   41  O   UNL     1     -15.956 -10.392  -3.806  1.00  0.00    -0.398 OA
HETATM   42  H   UNL     1     -15.455  -9.714  -4.294  1.00  0.00     0.209 HD
ENDBRANCH  40  41
ENDBRANCH   5  40
BRANCH   4  43
HETATM   43  O   UNL     1     -16.673 -12.359  -1.683  1.00  0.00    -0.390 OA
HETATM   44  H   UNL     1     -16.041 -12.381  -0.934  1.00  0.00     0.210 HD
ENDBRANCH   4  43
TORSDOF 24
BEGIN_RES ARG D 557
REMARK  4 active torsions:
REMARK  status: ('A' for Active; 'I' for Inactive)
REMARK    1  A    between atoms: CA   and  CB  
REMARK    2  A    between atoms: CB   and  CG  
REMARK    3  A    between atoms: CG   and  CD  
REMARK    4  A    between atoms: CD   and  NE  
REMARK       I    between atoms: NE   and  CZ  
REMARK       I    between atoms: CZ   and  NH1 
REMARK       I    between atoms: CZ   and  NH2 
ROOT
ATOM      1  CA  ARG D 557     -26.217   2.705 -17.014  1.00 35.49     0.159 C 
ENDROOT
BRANCH   1   2
ATOM      2  CB  ARG D 557     -26.789   1.319 -17.183  1.00 35.49     0.034 C 
BRANCH   2   3
ATOM      3  CG  ARG D 557     -28.231   1.226 -17.444  1.00 35.49     0.027 C 
BRANCH   3   4
ATOM      4  CD  ARG D 557     -28.915   0.304 -16.509  1.00 35.49     0.116 C 
BRANCH   4   5
ATOM      5  NE  ARG D 557     -28.136  -0.877 -16.245  1.00 35.49    -0.212 N 
ATOM      6  CZ  ARG D 557     -28.378  -2.079 -16.719  1.00 35.49     0.666 C 
ATOM      7  NH1 ARG D 557     -29.408  -2.337 -17.504  1.00 35.49    -0.235 N 
ATOM      8  NH2 ARG D 557     -27.553  -3.031 -16.393  1.00 35.49    -0.235 N 
ATOM      9  HH  ARG D 557     -29.963  -1.726 -17.733  1.00 35.49     0.174 HD
ATOM     10  HH  ARG D 557     -29.514  -3.140 -17.785  1.00 35.49     0.174 HD
ATOM     11  HH  ARG D 557     -26.893  -2.833 -15.891  1.00 35.49     0.174 HD
ATOM     12  HH  ARG D 557     -27.674  -3.818 -16.682  1.00 35.49     0.174 HD
ATOM     13  HE  ARG D 557     -27.495  -0.817 -15.690  1.00 35.49     0.178 HD
ENDBRANCH   4   5
ENDBRANCH   3   4
ENDBRANCH   2   3
ENDBRANCH   1   2
END_RES ARG D 557
BEGIN_RES GLU D 570
REMARK  3 active torsions:
REMARK  status: ('A' for Active; 'I' for Inactive)
REMARK    5  A    between atoms: CA   and  CB  
REMARK    6  A    between atoms: CB   and  CG  
REMARK    7  A    between atoms: CG   and  CD  
ROOT
ATOM     14  CA  GLU D 570     -18.033  -6.348 -13.375  1.00 32.92     0.160 C 
ENDROOT
BRANCH  14  15
ATOM     15  CB  GLU D 570     -19.500  -6.345 -13.794  1.00 32.92     0.043 C 
BRANCH  15  16
ATOM     16  CG  GLU D 570     -19.796  -6.298 -15.249  1.00 32.92     0.100 C 
BRANCH  16  17
ATOM     17  CD  GLU D 570     -21.015  -5.466 -15.576  1.00 32.92     0.185 C 
ATOM     18  OE1 GLU D 570     -21.279  -5.222 -16.769  1.00 32.92    -0.647 OA
ATOM     19  OE2 GLU D 570     -21.703  -5.040 -14.628  1.00 32.92    -0.647 OA
ENDBRANCH  16  17
ENDBRANCH  15  16
ENDBRANCH  14  15
END_RES GLU D 570
ENDMDL
MODEL 8
REMARK VINA RESULT:      -5.5      2.704      5.381
REMARK  24 active torsions:
REMARK  status: ('A' for Active; 'I' for Inactive)
REMARK    1  A    between atoms: C_2  and  C_3 
REMARK    2  A    between atoms: C_3  and  C_4 
REMARK    3  A    between atoms: C_4  and  C_5 
REMARK    4  A    between atoms: C_5  and  C_6 
REMARK    5  A    between atoms: C_6  and  C_7 
REMARK    6  A    between atoms: C_7  and  C_8 
REMARK    7  A    between atoms: C_8  and  C_9 
REMARK    8  A    between atoms: C_9  and  C_10 
REMARK    9  A    between atoms: C_10  and  C_11 
REMARK   10  A    between atoms: C_11  and  C_12 
REMARK   11  A    between atoms: C_12  and  O_14 
REMARK   12  A    between atoms: O_14  and  C_15 
REMARK   13  A    between atoms: C_15  and  C_26 
REMARK   14  A    between atoms: C_16  and  O_25 
REMARK   15  A    between atoms: C_17  and  O_24 
REMARK   16  A    between atoms: C_18  and  O_23 
REMARK   17  A    between atoms: C_19  and  C_21 
REMARK   18  A    between atoms: C_21  and  O_22 
REMARK   19  A    between atoms: C_26  and  C_35 
REMARK   20  A    between atoms: C_27  and  O_34 
REMARK   21  A    between atoms: C_28  and  O_33 
REMARK   22  A    between atoms: C_29  and  C_31 
REMARK   23  A    between atoms: C_31  and  O_32 
REMARK   24  A    between atoms: C_35  and  O_36 
ROOT
HETATM    1  C   UNL     1     -18.816 -12.078  -4.388  1.00  0.00     0.238 C 
HETATM    2  C   UNL     1     -18.936 -13.097  -3.208  1.00  0.00     0.215 C 
HETATM    3  C   UNL     1     -19.239 -12.330  -1.901  1.00  0.00     0.183 C 
HETATM    4  C   UNL     1     -18.133 -11.307  -1.592  1.00  0.00     0.180 C 
HETATM    5  C   UNL     1     -17.908 -10.418  -2.822  1.00  0.00     0.180 C 
HETATM    6  O   UNL     1     -17.687 -11.211  -4.015  1.00  0.00    -0.340 OA
ENDROOT
BRANCH   1   7
HETATM    7  O   UNL     1     -19.969 -11.202  -4.599  1.00  0.00    -0.277 OA
BRANCH   7   8
HETATM    8  C   UNL     1     -21.235 -11.576  -4.284  1.00  0.00     0.261 C 
HETATM    9  O   UNL     1     -21.748 -12.639  -4.603  1.00  0.00    -0.265 OA
BRANCH   8  10
HETATM   10  C   UNL     1     -21.934 -10.537  -3.446  1.00  0.00     0.111 C 
BRANCH  10  11
HETATM   11  C   UNL     1     -23.164 -11.069  -2.715  1.00  0.00     0.010 C 
BRANCH  11  12
HETATM   12  C   UNL     1     -22.824 -11.367  -1.250  1.00  0.00     0.000 C 
BRANCH  12  13
HETATM   13  C   UNL     1     -23.807 -10.716  -0.274  1.00  0.00     0.000 C 
BRANCH  13  14
HETATM   14  C   UNL     1     -23.304  -9.340   0.173  1.00  0.00     0.000 C 
BRANCH  14  15
HETATM   15  C   UNL     1     -21.776  -9.262   0.157  1.00  0.00     0.000 C 
BRANCH  15  16
HETATM   16  C   UNL     1     -21.296  -8.022  -0.600  1.00  0.00     0.000 C 
BRANCH  16  17
HETATM   17  C   UNL     1     -22.449  -7.066  -0.904  1.00  0.00     0.000 C 
BRANCH  17  18
HETATM   18  C   UNL     1     -22.045  -6.036  -1.959  1.00  0.00    -0.000 C 
BRANCH  18  19
HETATM   19  C   UNL     1     -21.215  -6.672  -3.073  1.00  0.00    -0.005 C 
HETATM   20  C   UNL     1     -22.059  -6.930  -4.311  1.00  0.00     0.005 C 
ENDBRANCH  18  19
ENDBRANCH  17  18
ENDBRANCH  16  17
ENDBRANCH  15  16
ENDBRANCH  14  15
ENDBRANCH  13  14
ENDBRANCH  12  13
ENDBRANCH  11  12
ENDBRANCH  10  11
ENDBRANCH   8  10
ENDBRANCH   7   8
ENDBRANCH   1   7
BRANCH   1  21
HETATM   21  C   UNL     1     -18.407 -12.724  -5.800  1.00  0.00     0.170 C 
HETATM   22  C   UNL     1     -19.283 -12.241  -6.984  1.00  0.00     0.192 C 
HETATM   23  C   UNL     1     -19.806 -13.479  -7.703  1.00  0.00     0.181 C 
HETATM   24  C   UNL     1     -19.053 -14.636  -7.081  1.00  0.00     0.177 C 
HETATM   25  O   UNL     1     -18.528 -14.188  -5.804  1.00  0.00    -0.359 OA
BRANCH  22  26
HETATM   26  O   UNL     1     -18.621 -11.363  -7.901  1.00  0.00    -0.390 OA
HETATM   27  H   UNL     1     -18.710 -11.746  -8.803  1.00  0.00     0.210 HD
ENDBRANCH  22  26
BRANCH  23  28
HETATM   28  O   UNL     1     -19.675 -13.394  -9.117  1.00  0.00    -0.390 OA
HETATM   29  H   UNL     1     -20.140 -12.576  -9.391  1.00  0.00     0.210 HD
ENDBRANCH  23  28
BRANCH  24  30
HETATM   30  C   UNL     1     -17.996 -15.233  -8.031  1.00  0.00     0.198 C 
BRANCH  30  31
HETATM   31  O   UNL     1     -18.581 -16.064  -9.037  1.00  0.00    -0.398 OA
HETATM   32  H   UNL     1     -18.181 -16.940  -8.967  1.00  0.00     0.209 HD
ENDBRANCH  30  31
ENDBRANCH  24  30
BRANCH  21  33
HETATM   33  C   UNL     1     -16.892 -12.403  -5.976  1.00  0.00     0.210 C 
BRANCH  33  34
HETATM   34  O   UNL     1     -16.055 -13.322  -5.278  1.00  0.00    -0.398 OA
HETATM   35  H   UNL     1     -16.597 -14.127  -5.131  1.00  0.00     0.209 HD
ENDBRANCH  33  34
ENDBRANCH  21  33
ENDBRANCH   1  21
BRANCH   2  36
HETATM   36  O   UNL     1     -17.692 -13.819  -3.007  1.00  0.00    -0.387 OA
HETATM   37  H   UNL     1     -16.969 -13.160  -2.939  1.00  0.00     0.210 HD
ENDBRANCH   2  36
BRANCH   3  38
HETATM   38  O   UNL     1     -19.372 -13.243  -0.807  1.00  0.00    -0.390 OA
HETATM   39  H   UNL     1     -18.919 -14.062  -1.090  1.00  0.00     0.210 HD
ENDBRANCH   3  38
BRANCH   5  40
HETATM   40  C   UNL     1     -16.692  -9.502  -2.627  1.00  0.00     0.198 C 
BRANCH  40  41
HETATM   41  O   UNL     1     -15.495 -10.217  -2.939  1.00  0.00    -0.398 OA
HETATM   42  H   UNL     1     -15.488 -10.307  -3.909  1.00  0.00     0.209 HD
ENDBRANCH  40  41
ENDBRANCH   5  40
BRANCH   4  43
HETATM   43  O   UNL     1     -16.917 -11.979  -1.229  1.00  0.00    -0.390 OA
HETATM   44  H   UNL     1     -16.261 -11.786  -1.931  1.00  0.00     0.210 HD
ENDBRANCH   4  43
TORSDOF 24
BEGIN_RES ARG D 557
REMARK  4 active torsions:
REMARK  status: ('A' for Active; 'I' for Inactive)
REMARK    1  A    between atoms: CA   and  CB  
REMARK    2  A    between atoms: CB   and  CG  
REMARK    3  A    between atoms: CG   and  CD  
REMARK    4  A    between atoms: CD   and  NE  
REMARK       I    between atoms: NE   and  CZ  
REMARK       I    between atoms: CZ   and  NH1 
REMARK       I    between atoms: CZ   and  NH2 
ROOT
ATOM      1  CA  ARG D 557     -26.217   2.705 -17.014  1.00 35.49     0.159 C 
ENDROOT
BRANCH   1   2
ATOM      2  CB  ARG D 557     -26.789   1.319 -17.183  1.00 35.49     0.034 C 
BRANCH   2   3
ATOM      3  CG  ARG D 557     -28.227   1.227 -17.461  1.00 35.49     0.027 C 
BRANCH   3   4
ATOM      4  CD  ARG D 557     -28.926   0.316 -16.526  1.00 35.49     0.116 C 
BRANCH   4   5
ATOM      5  NE  ARG D 557     -29.310  -0.919 -17.158  1.00 35.49    -0.212 N 
ATOM      6  CZ  ARG D 557     -28.682  -2.068 -17.042  1.00 35.49     0.666 C 
ATOM      7  NH1 ARG D 557     -27.586  -2.208 -16.320  1.00 35.49    -0.235 N 
ATOM      8  NH2 ARG D 557     -29.184  -3.092 -17.670  1.00 35.49    -0.235 N 
ATOM      9  HH  ARG D 557     -27.239  -1.548 -15.897  1.00 35.49     0.174 HD
ATOM     10  HH  ARG D 557     -27.222  -2.983 -16.279  1.00 35.49     0.174 HD
ATOM     11  HH  ARG D 557     -29.897  -2.973 -18.123  1.00 35.49     0.174 HD
ATOM     12  HH  ARG D 557     -28.809  -3.851 -17.616  1.00 35.49     0.174 HD
ATOM     13  HE  ARG D 557     -29.964  -0.904 -17.700  1.00 35.49     0.178 HD
ENDBRANCH   4   5
ENDBRANCH   3   4
ENDBRANCH   2   3
ENDBRANCH   1   2
END_RES ARG D 557
BEGIN_RES GLU D 570
REMARK  3 active torsions:
REMARK  status: ('A' for Active; 'I' for Inactive)
REMARK    5  A    between atoms: CA   and  CB  
REMARK    6  A    between atoms: CB   and  CG  
REMARK    7  A    between atoms: CG   and  CD  
ROOT
ATOM     14  CA  GLU D 570     -18.033  -6.348 -13.375  1.00 32.92     0.160 C 
ENDROOT
BRANCH  14  15
ATOM     15  CB  GLU D 570     -19.500  -6.345 -13.794  1.00 32.92     0.043 C 
BRANCH  15  16
ATOM     16  CG  GLU D 570     -20.444  -5.541 -12.976  1.00 32.92     0.100 C 
BRANCH  16  17
ATOM     17  CD  GLU D 570     -21.727  -5.217 -13.705  1.00 32.92     0.185 C 
ATOM     18  OE1 GLU D 570     -22.373  -4.204 -13.373  1.00 32.92    -0.647 OA
ATOM     19  OE2 GLU D 570     -22.100  -5.994 -14.606  1.00 32.92    -0.647 OA
ENDBRANCH  16  17
ENDBRANCH  15  16
ENDBRANCH  14  15
END_RES GLU D 570
ENDMDL
MODEL 9
REMARK VINA RESULT:      -5.4      1.782      3.507
REMARK  24 active torsions:
REMARK  status: ('A' for Active; 'I' for Inactive)
REMARK    1  A    between atoms: C_2  and  C_3 
REMARK    2  A    between atoms: C_3  and  C_4 
REMARK    3  A    between atoms: C_4  and  C_5 
REMARK    4  A    between atoms: C_5  and  C_6 
REMARK    5  A    between atoms: C_6  and  C_7 
REMARK    6  A    between atoms: C_7  and  C_8 
REMARK    7  A    between atoms: C_8  and  C_9 
REMARK    8  A    between atoms: C_9  and  C_10 
REMARK    9  A    between atoms: C_10  and  C_11 
REMARK   10  A    between atoms: C_11  and  C_12 
REMARK   11  A    between atoms: C_12  and  O_14 
REMARK   12  A    between atoms: O_14  and  C_15 
REMARK   13  A    between atoms: C_15  and  C_26 
REMARK   14  A    between atoms: C_16  and  O_25 
REMARK   15  A    between atoms: C_17  and  O_24 
REMARK   16  A    between atoms: C_18  and  O_23 
REMARK   17  A    between atoms: C_19  and  C_21 
REMARK   18  A    between atoms: C_21  and  O_22 
REMARK   19  A    between atoms: C_26  and  C_35 
REMARK   20  A    between atoms: C_27  and  O_34 
REMARK   21  A    between atoms: C_28  and  O_33 
REMARK   22  A    between atoms: C_29  and  C_31 
REMARK   23  A    between atoms: C_31  and  O_32 
REMARK   24  A    between atoms: C_35  and  O_36 
ROOT
HETATM    1  C   UNL     1     -19.779 -11.421  -2.078  1.00  0.00     0.238 C 
HETATM    2  C   UNL     1     -20.637 -12.725  -1.973  1.00  0.00     0.215 C 
HETATM    3  C   UNL     1     -20.907 -13.037  -0.484  1.00  0.00     0.183 C 
HETATM    4  C   UNL     1     -19.590 -13.218   0.290  1.00  0.00     0.180 C 
HETATM    5  C   UNL     1     -18.686 -12.004   0.042  1.00  0.00     0.180 C 
HETATM    6  O   UNL     1     -18.527 -11.743  -1.375  1.00  0.00    -0.340 OA
ENDROOT
BRANCH   1   7
HETATM    7  O   UNL     1     -20.336 -10.233  -1.430  1.00  0.00    -0.277 OA
BRANCH   7   8
HETATM    8  C   UNL     1     -21.655  -9.921  -1.490  1.00  0.00     0.261 C 
HETATM    9  O   UNL     1     -22.398 -10.210  -2.418  1.00  0.00    -0.265 OA
BRANCH   8  10
HETATM   10  C   UNL     1     -22.119  -9.207  -0.248  1.00  0.00     0.111 C 
BRANCH  10  11
HETATM   11  C   UNL     1     -22.489  -7.744  -0.487  1.00  0.00     0.010 C 
BRANCH  11  12
HETATM   12  C   UNL     1     -21.416  -7.057  -1.338  1.00  0.00     0.000 C 
BRANCH  12  13
HETATM   13  C   UNL     1     -22.001  -6.353  -2.564  1.00  0.00     0.000 C 
BRANCH  13  14
HETATM   14  C   UNL     1     -21.434  -6.947  -3.858  1.00  0.00     0.000 C 
BRANCH  14  15
HETATM   15  C   UNL     1     -21.488  -5.945  -5.013  1.00  0.00     0.000 C 
BRANCH  15  16
HETATM   16  C   UNL     1     -20.338  -6.175  -5.996  1.00  0.00     0.000 C 
BRANCH  16  17
HETATM   17  C   UNL     1     -19.848  -4.862  -6.607  1.00  0.00     0.000 C 
BRANCH  17  18
HETATM   18  C   UNL     1     -21.021  -3.934  -6.926  1.00  0.00    -0.000 C 
BRANCH  18  19
HETATM   19  C   UNL     1     -21.451  -4.058  -8.387  1.00  0.00    -0.005 C 
HETATM   20  C   UNL     1     -22.964  -4.147  -8.509  1.00  0.00     0.005 C 
ENDBRANCH  18  19
ENDBRANCH  17  18
ENDBRANCH  16  17
ENDBRANCH  15  16
ENDBRANCH  14  15
ENDBRANCH  13  14
ENDBRANCH  12  13
ENDBRANCH  11  12
ENDBRANCH  10  11
ENDBRANCH   8  10
ENDBRANCH   7   8
ENDBRANCH   1   7
BRANCH   1  21
HETATM   21  C   UNL     1     -19.338 -11.023  -3.570  1.00  0.00     0.170 C 
HETATM   22  C   UNL     1     -20.433 -11.284  -4.636  1.00  0.00     0.192 C 
HETATM   23  C   UNL     1     -19.804 -12.117  -5.746  1.00  0.00     0.181 C 
HETATM   24  C   UNL     1     -18.323 -12.129  -5.430  1.00  0.00     0.177 C 
HETATM   25  O   UNL     1     -18.165 -11.779  -4.030  1.00  0.00    -0.359 OA
BRANCH  22  26
HETATM   26  O   UNL     1     -21.044 -10.104  -5.170  1.00  0.00    -0.390 OA
HETATM   27  H   UNL     1     -21.773 -10.388  -5.768  1.00  0.00     0.210 HD
ENDBRANCH  22  26
BRANCH  23  28
HETATM   28  O   UNL     1     -20.116 -11.632  -7.046  1.00  0.00    -0.390 OA
HETATM   29  H   UNL     1     -20.112 -10.654  -6.988  1.00  0.00     0.210 HD
ENDBRANCH  23  28
BRANCH  24  30
HETATM   30  C   UNL     1     -17.503 -11.259  -6.403  1.00  0.00     0.198 C 
BRANCH  30  31
HETATM   31  O   UNL     1     -18.061  -9.952  -6.561  1.00  0.00    -0.398 OA
HETATM   32  H   UNL     1     -18.108  -9.544  -5.686  1.00  0.00     0.209 HD
ENDBRANCH  30  31
ENDBRANCH  24  30
BRANCH  21  33
HETATM   33  C   UNL     1     -18.898  -9.530  -3.484  1.00  0.00     0.210 C 
BRANCH  33  34
HETATM   34  O   UNL     1     -17.702  -9.357  -2.728  1.00  0.00    -0.398 OA
HETATM   35  H   UNL     1     -17.794  -8.498  -2.263  1.00  0.00     0.209 HD
ENDBRANCH  33  34
ENDBRANCH  21  33
ENDBRANCH   1  21
BRANCH   2  36
HETATM   36  O   UNL     1     -19.932 -13.865  -2.533  1.00  0.00    -0.387 OA
HETATM   37  H   UNL     1     -20.596 -14.454  -2.951  1.00  0.00     0.210 HD
ENDBRANCH   2  36
BRANCH   3  38
HETATM   38  O   UNL     1     -21.706 -14.218  -0.360  1.00  0.00    -0.390 OA
HETATM   39  H   UNL     1     -22.409 -13.995   0.282  1.00  0.00     0.210 HD
ENDBRANCH   3  38
BRANCH   5  40
HETATM   40  C   UNL     1     -17.291 -12.220   0.646  1.00  0.00     0.198 C 
BRANCH  40  41
HETATM   41  O   UNL     1     -16.438 -12.834  -0.321  1.00  0.00    -0.398 OA
HETATM   42  H   UNL     1     -15.792 -12.150  -0.575  1.00  0.00     0.209 HD
ENDBRANCH  40  41
ENDBRANCH   5  40
BRANCH   4  43
HETATM   43  O   UNL     1     -18.931 -14.427  -0.118  1.00  0.00    -0.390 OA
HETATM   44  H   UNL     1     -19.030 -15.070   0.616  1.00  0.00     0.210 HD
ENDBRANCH   4  43
TORSDOF 24
BEGIN_RES ARG D 557
REMARK  4 active torsions:
REMARK  status: ('A' for Active; 'I' for Inactive)
REMARK    1  A    between atoms: CA   and  CB  
REMARK    2  A    between atoms: CB   and  CG  
REMARK    3  A    between atoms: CG   and  CD  
REMARK    4  A    between atoms: CD   and  NE  
REMARK       I    between atoms: NE   and  CZ  
REMARK       I    between atoms: CZ   and  NH1 
REMARK       I    between atoms: CZ   and  NH2 
ROOT
ATOM      1  CA  ARG D 557     -26.217   2.705 -17.014  1.00 35.49     0.159 C 
ENDROOT
BRANCH   1   2
ATOM      2  CB  ARG D 557     -26.789   1.319 -17.183  1.00 35.49     0.034 C 
BRANCH   2   3
ATOM      3  CG  ARG D 557     -25.885   0.194 -16.916  1.00 35.49     0.027 C 
BRANCH   3   4
ATOM      4  CD  ARG D 557     -25.076   0.398 -15.693  1.00 35.49     0.116 C 
BRANCH   4   5
ATOM      5  NE  ARG D 557     -23.943  -0.488 -15.637  1.00 35.49    -0.212 N 
ATOM      6  CZ  ARG D 557     -23.831  -1.542 -14.860  1.00 35.49     0.666 C 
ATOM      7  NH1 ARG D 557     -24.775  -1.901 -14.009  1.00 35.49    -0.235 N 
ATOM      8  NH2 ARG D 557     -22.741  -2.246 -14.957  1.00 35.49    -0.235 N 
ATOM      9  HH  ARG D 557     -25.502  -1.453 -13.930  1.00 35.49     0.174 HD
ATOM     10  HH  ARG D 557     -24.647  -2.599 -13.530  1.00 35.49     0.174 HD
ATOM     11  HH  ARG D 557     -22.151  -1.995 -15.520  1.00 35.49     0.174 HD
ATOM     12  HH  ARG D 557     -22.633  -2.935 -14.475  1.00 35.49     0.174 HD
ATOM     13  HE  ARG D 557     -23.258  -0.291 -16.100  1.00 35.49     0.178 HD
ENDBRANCH   4   5
ENDBRANCH   3   4
ENDBRANCH   2   3
ENDBRANCH   1   2
END_RES ARG D 557
BEGIN_RES GLU D 570
REMARK  3 active torsions:
REMARK  status: ('A' for Active; 'I' for Inactive)
REMARK    5  A    between atoms: CA   and  CB  
REMARK    6  A    between atoms: CB   and  CG  
REMARK    7  A    between atoms: CG   and  CD  
ROOT
ATOM     14  CA  GLU D 570     -18.033  -6.348 -13.375  1.00 32.92     0.160 C 
ENDROOT
BRANCH  14  15
ATOM     15  CB  GLU D 570     -19.500  -6.345 -13.794  1.00 32.92     0.043 C 
BRANCH  15  16
ATOM     16  CG  GLU D 570     -19.810  -5.976 -15.199  1.00 32.92     0.100 C 
BRANCH  16  17
ATOM     17  CD  GLU D 570     -21.151  -5.297 -15.348  1.00 32.92     0.185 C 
ATOM     18  OE1 GLU D 570     -21.519  -4.924 -16.479  1.00 32.92    -0.647 OA
ATOM     19  OE2 GLU D 570     -21.835  -5.121 -14.321  1.00 32.92    -0.647 OA
ENDBRANCH  16  17
ENDBRANCH  15  16
ENDBRANCH  14  15
END_RES GLU D 570
ENDMDL
