MODEL 1
REMARK VINA RESULT:      -7.2      0.000      0.000
REMARK  6 active torsions:
REMARK  status: ('A' for Active; 'I' for Inactive)
REMARK       I    between atoms: C_2  and  N_4 
REMARK    1  A    between atoms: N_4  and  CA_5 
REMARK    2  A    between atoms: CA_5  and  CB_6 
REMARK    3  A    between atoms: CA_5  and  C_14 
REMARK    4  A    between atoms: CB_6  and  CG_7 
REMARK    5  A    between atoms: CZ_10  and  OH_13 
REMARK    6  A    between atoms: C_14  and  OXT_16 
ROOT
ATOM      1  CA  TYR A   1     -35.907  -1.025 -12.215  1.00  0.00     0.186 C 
ENDROOT
BRANCH   1   2
ATOM      2  N   TYR A   1     -35.817  -0.130 -13.379  1.00  0.00    -0.347 N 
HETATM    3  C   UNK A   0     -36.754  -0.137 -14.374  1.00  0.00     0.214 C 
HETATM    4  C   UNK A   0     -36.417   0.704 -15.571  1.00  0.00     0.117 C 
HETATM    5  O   UNK A   0     -37.806  -0.759 -14.251  1.00  0.00    -0.274 OA
ATOM      6  H   TYR A   1     -35.049   0.531 -13.413  1.00  0.00     0.163 HD
ENDBRANCH   1   2
BRANCH   1   7
ATOM      7  CB  TYR A   1     -34.514  -1.413 -11.687  1.00  0.00     0.074 C 
BRANCH   7   8
ATOM      8  CG  TYR A   1     -34.298  -2.890 -11.389  1.00  0.00    -0.056 A 
ATOM      9  CD1 TYR A   1     -35.290  -3.726 -10.849  1.00  0.00     0.010 A 
ATOM     10  CE1 TYR A   1     -35.078  -5.096 -10.691  1.00  0.00     0.037 A 
ATOM     11  CZ  TYR A   1     -33.845  -5.635 -11.030  1.00  0.00     0.065 A 
ATOM     12  CE2 TYR A   1     -32.821  -4.822 -11.502  1.00  0.00     0.037 A 
ATOM     13  CD2 TYR A   1     -33.046  -3.456 -11.680  1.00  0.00     0.010 A 
BRANCH  11  14
ATOM     14  OH  TYR A   1     -33.607  -6.972 -10.915  1.00  0.00    -0.361 OA
ATOM     15  HH  TYR A   1     -33.739  -7.385 -11.785  1.00  0.00     0.217 HD
ENDBRANCH  11  14
ENDBRANCH   7   8
ENDBRANCH   1   7
BRANCH   1  16
ATOM     16  C   TYR A   1     -36.768  -0.359 -11.136  1.00  0.00     0.163 C 
ATOM     17  O   TYR A   1     -36.364   0.464 -10.328  1.00  0.00    -0.648 OA
BRANCH  16  18
ATOM     18  OXT TYR A   1     -38.047  -0.820 -11.120  1.00  0.00    -0.775 OA
ATOM     19  HXT TYR A   1     -38.712  -0.091 -11.146  1.00  0.00     0.167 HD
ENDBRANCH  16  18
ENDBRANCH   1  16
TORSDOF 6
BEGIN_RES ARG D 557
REMARK  4 active torsions:
REMARK  status: ('A' for Active; 'I' for Inactive)
REMARK    1  A    between atoms: CA   and  CB  
REMARK    2  A    between atoms: CB   and  CG  
REMARK    3  A    between atoms: CG   and  CD  
REMARK    4  A    between atoms: CD   and  NE  
REMARK       I    between atoms: NE   and  CZ  
REMARK       I    between atoms: CZ   and  NH1 
REMARK       I    between atoms: CZ   and  NH2 
ROOT
ATOM      1  CA  ARG D 557     -26.217   2.705 -17.014  1.00 35.49     0.159 C 
ENDROOT
BRANCH   1   2
ATOM      2  CB  ARG D 557     -26.789   1.319 -17.183  1.00 35.49     0.034 C 
BRANCH   2   3
ATOM      3  CG  ARG D 557     -25.835   0.203 -17.159  1.00 35.49     0.027 C 
BRANCH   3   4
ATOM      4  CD  ARG D 557     -24.750   0.410 -16.172  1.00 35.49     0.116 C 
BRANCH   4   5
ATOM      5  NE  ARG D 557     -24.899  -0.437 -15.018  1.00 35.49    -0.212 N 
ATOM      6  CZ  ARG D 557     -24.085  -1.408 -14.668  1.00 35.49     0.666 C 
ATOM      7  NH1 ARG D 557     -23.016  -1.727 -15.375  1.00 35.49    -0.235 N 
ATOM      8  NH2 ARG D 557     -24.363  -2.060 -13.577  1.00 35.49    -0.235 N 
ATOM      9  HH  ARG D 557     -22.813  -1.310 -16.095  1.00 35.49     0.174 HD
ATOM     10  HH  ARG D 557     -22.520  -2.368 -15.096  1.00 35.49     0.174 HD
ATOM     11  HH  ARG D 557     -25.056  -1.828 -13.137  1.00 35.49     0.174 HD
ATOM     12  HH  ARG D 557     -23.859  -2.691 -13.317  1.00 35.49     0.174 HD
ATOM     13  HE  ARG D 557     -25.600  -0.349 -14.546  1.00 35.49     0.178 HD
ENDBRANCH   4   5
ENDBRANCH   3   4
ENDBRANCH   2   3
ENDBRANCH   1   2
END_RES ARG D 557
BEGIN_RES GLU D 570
REMARK  3 active torsions:
REMARK  status: ('A' for Active; 'I' for Inactive)
REMARK    5  A    between atoms: CA   and  CB  
REMARK    6  A    between atoms: CB   and  CG  
REMARK    7  A    between atoms: CG   and  CD  
ROOT
ATOM     14  CA  GLU D 570     -18.033  -6.348 -13.375  1.00 32.92     0.160 C 
ENDROOT
BRANCH  14  15
ATOM     15  CB  GLU D 570     -19.500  -6.345 -13.794  1.00 32.92     0.043 C 
BRANCH  15  16
ATOM     16  CG  GLU D 570     -20.442  -5.529 -12.984  1.00 32.92     0.100 C 
BRANCH  16  17
ATOM     17  CD  GLU D 570     -21.744  -5.250 -13.698  1.00 32.92     0.185 C 
ATOM     18  OE1 GLU D 570     -22.218  -6.121 -14.453  1.00 32.92    -0.647 OA
ATOM     19  OE2 GLU D 570     -22.286  -4.143 -13.513  1.00 32.92    -0.647 OA
ENDBRANCH  16  17
ENDBRANCH  15  16
ENDBRANCH  14  15
END_RES GLU D 570
ENDMDL
MODEL 2
REMARK VINA RESULT:      -6.9      1.929      2.468
REMARK  6 active torsions:
REMARK  status: ('A' for Active; 'I' for Inactive)
REMARK       I    between atoms: C_2  and  N_4 
REMARK    1  A    between atoms: N_4  and  CA_5 
REMARK    2  A    between atoms: CA_5  and  CB_6 
REMARK    3  A    between atoms: CA_5  and  C_14 
REMARK    4  A    between atoms: CB_6  and  CG_7 
REMARK    5  A    between atoms: CZ_10  and  OH_13 
REMARK    6  A    between atoms: C_14  and  OXT_16 
ROOT
ATOM      1  CA  TYR A   1     -35.793  -1.111 -12.056  1.00  0.00     0.186 C 
ENDROOT
BRANCH   1   2
ATOM      2  N   TYR A   1     -35.623  -0.163 -13.168  1.00  0.00    -0.347 N 
HETATM    3  C   UNK A   0     -36.466  -0.148 -14.244  1.00  0.00     0.214 C 
HETATM    4  C   UNK A   0     -36.046   0.754 -15.368  1.00  0.00     0.117 C 
HETATM    5  O   UNK A   0     -37.506  -0.801 -14.245  1.00  0.00    -0.274 OA
ATOM      6  H   TYR A   1     -34.875   0.519 -13.103  1.00  0.00     0.163 HD
ENDBRANCH   1   2
BRANCH   1   7
ATOM      7  CB  TYR A   1     -34.439  -1.533 -11.457  1.00  0.00     0.074 C 
BRANCH   7   8
ATOM      8  CG  TYR A   1     -34.178  -3.030 -11.379  1.00  0.00    -0.056 A 
ATOM      9  CD1 TYR A   1     -32.968  -3.628 -11.768  1.00  0.00     0.010 A 
ATOM     10  CE1 TYR A   1     -32.738  -4.992 -11.579  1.00  0.00     0.037 A 
ATOM     11  CZ  TYR A   1     -33.743  -5.781 -11.040  1.00  0.00     0.065 A 
ATOM     12  CE2 TYR A   1     -34.977  -5.231 -10.709  1.00  0.00     0.037 A 
ATOM     13  CD2 TYR A   1     -35.193  -3.862 -10.878  1.00  0.00     0.010 A 
BRANCH  11  14
ATOM     14  OH  TYR A   1     -33.549  -7.111 -10.815  1.00  0.00    -0.361 OA
ATOM     15  HH  TYR A   1     -32.662  -7.351 -11.130  1.00  0.00     0.217 HD
ENDBRANCH  11  14
ENDBRANCH   7   8
ENDBRANCH   1   7
BRANCH   1  16
ATOM     16  C   TYR A   1     -36.721  -0.491 -11.006  1.00  0.00     0.163 C 
ATOM     17  O   TYR A   1     -36.357   0.241 -10.095  1.00  0.00    -0.648 OA
BRANCH  16  18
ATOM     18  OXT TYR A   1     -38.015  -0.882 -11.145  1.00  0.00    -0.775 OA
ATOM     19  HXT TYR A   1     -38.598  -0.152 -11.464  1.00  0.00     0.167 HD
ENDBRANCH  16  18
ENDBRANCH   1  16
TORSDOF 6
BEGIN_RES ARG D 557
REMARK  4 active torsions:
REMARK  status: ('A' for Active; 'I' for Inactive)
REMARK    1  A    between atoms: CA   and  CB  
REMARK    2  A    between atoms: CB   and  CG  
REMARK    3  A    between atoms: CG   and  CD  
REMARK    4  A    between atoms: CD   and  NE  
REMARK       I    between atoms: NE   and  CZ  
REMARK       I    between atoms: CZ   and  NH1 
REMARK       I    between atoms: CZ   and  NH2 
ROOT
ATOM      1  CA  ARG D 557     -26.217   2.705 -17.014  1.00 35.49     0.159 C 
ENDROOT
BRANCH   1   2
ATOM      2  CB  ARG D 557     -26.789   1.319 -17.183  1.00 35.49     0.034 C 
BRANCH   2   3
ATOM      3  CG  ARG D 557     -28.187   1.127 -16.778  1.00 35.49     0.027 C 
BRANCH   3   4
ATOM      4  CD  ARG D 557     -28.726  -0.181 -17.214  1.00 35.49     0.116 C 
BRANCH   4   5
ATOM      5  NE  ARG D 557     -28.008  -1.284 -16.632  1.00 35.49    -0.212 N 
ATOM      6  CZ  ARG D 557     -28.278  -2.558 -16.813  1.00 35.49     0.666 C 
ATOM      7  NH1 ARG D 557     -29.283  -2.970 -17.563  1.00 35.49    -0.235 N 
ATOM      8  NH2 ARG D 557     -27.507  -3.425 -16.223  1.00 35.49    -0.235 N 
ATOM      9  HH  ARG D 557     -29.802  -2.417 -17.962  1.00 35.49     0.174 HD
ATOM     10  HH  ARG D 557     -29.410  -3.813 -17.647  1.00 35.49     0.174 HD
ATOM     11  HH  ARG D 557     -26.861  -3.130 -15.750  1.00 35.49     0.174 HD
ATOM     12  HH  ARG D 557     -27.648  -4.255 -16.319  1.00 35.49     0.174 HD
ATOM     13  HE  ARG D 557     -27.389  -1.109 -16.076  1.00 35.49     0.178 HD
ENDBRANCH   4   5
ENDBRANCH   3   4
ENDBRANCH   2   3
ENDBRANCH   1   2
END_RES ARG D 557
BEGIN_RES GLU D 570
REMARK  3 active torsions:
REMARK  status: ('A' for Active; 'I' for Inactive)
REMARK    5  A    between atoms: CA   and  CB  
REMARK    6  A    between atoms: CB   and  CG  
REMARK    7  A    between atoms: CG   and  CD  
ROOT
ATOM     14  CA  GLU D 570     -18.033  -6.348 -13.375  1.00 32.92     0.160 C 
ENDROOT
BRANCH  14  15
ATOM     15  CB  GLU D 570     -19.500  -6.345 -13.794  1.00 32.92     0.043 C 
BRANCH  15  16
ATOM     16  CG  GLU D 570     -20.443  -5.535 -12.980  1.00 32.92     0.100 C 
BRANCH  16  17
ATOM     17  CD  GLU D 570     -21.736  -5.235 -13.701  1.00 32.92     0.185 C 
ATOM     18  OE1 GLU D 570     -22.299  -4.141 -13.504  1.00 32.92    -0.647 OA
ATOM     19  OE2 GLU D 570     -22.201  -6.111 -14.457  1.00 32.92    -0.647 OA
ENDBRANCH  16  17
ENDBRANCH  15  16
ENDBRANCH  14  15
END_RES GLU D 570
ENDMDL
MODEL 3
REMARK VINA RESULT:      -6.5      8.748     12.346
REMARK  6 active torsions:
REMARK  status: ('A' for Active; 'I' for Inactive)
REMARK       I    between atoms: C_2  and  N_4 
REMARK    1  A    between atoms: N_4  and  CA_5 
REMARK    2  A    between atoms: CA_5  and  CB_6 
REMARK    3  A    between atoms: CA_5  and  C_14 
REMARK    4  A    between atoms: CB_6  and  CG_7 
REMARK    5  A    between atoms: CZ_10  and  OH_13 
REMARK    6  A    between atoms: C_14  and  OXT_16 
ROOT
ATOM      1  CA  TYR A   1     -21.245  -5.375  -6.497  1.00  0.00     0.186 C 
ENDROOT
BRANCH   1   2
ATOM      2  N   TYR A   1     -21.362  -5.370  -5.031  1.00  0.00    -0.347 N 
HETATM    3  C   UNK A   0     -21.711  -6.489  -4.327  1.00  0.00     0.214 C 
HETATM    4  C   UNK A   0     -21.963  -6.267  -2.864  1.00  0.00     0.117 C 
HETATM    5  O   UNK A   0     -21.764  -7.589  -4.870  1.00  0.00    -0.274 OA
ATOM      6  H   TYR A   1     -21.140  -4.512  -4.538  1.00  0.00     0.163 HD
ENDBRANCH   1   2
BRANCH   1   7
ATOM      7  CB  TYR A   1     -21.776  -4.069  -7.115  1.00  0.00     0.074 C 
BRANCH   7   8
ATOM      8  CG  TYR A   1     -22.258  -4.156  -8.555  1.00  0.00    -0.056 A 
ATOM      9  CD1 TYR A   1     -21.393  -4.176  -9.663  1.00  0.00     0.010 A 
ATOM     10  CE1 TYR A   1     -21.876  -4.363 -10.958  1.00  0.00     0.037 A 
ATOM     11  CZ  TYR A   1     -23.243  -4.483 -11.162  1.00  0.00     0.065 A 
ATOM     12  CE2 TYR A   1     -24.129  -4.398 -10.093  1.00  0.00     0.037 A 
ATOM     13  CD2 TYR A   1     -23.639  -4.235  -8.796  1.00  0.00     0.010 A 
BRANCH  11  14
ATOM     14  OH  TYR A   1     -23.754  -4.693 -12.408  1.00  0.00    -0.361 OA
ATOM     15  HH  TYR A   1     -23.729  -5.646 -12.595  1.00  0.00     0.217 HD
ENDBRANCH  11  14
ENDBRANCH   7   8
ENDBRANCH   1   7
BRANCH   1  16
ATOM     16  C   TYR A   1     -19.786  -5.644  -6.882  1.00  0.00     0.163 C 
ATOM     17  O   TYR A   1     -18.976  -4.784  -7.199  1.00  0.00    -0.648 OA
BRANCH  16  18
ATOM     18  OXT TYR A   1     -19.477  -6.967  -6.895  1.00  0.00    -0.775 OA
ATOM     19  HXT TYR A   1     -20.261  -7.537  -7.083  1.00  0.00     0.167 HD
ENDBRANCH  16  18
ENDBRANCH   1  16
TORSDOF 6
BEGIN_RES ARG D 557
REMARK  4 active torsions:
REMARK  status: ('A' for Active; 'I' for Inactive)
REMARK    1  A    between atoms: CA   and  CB  
REMARK    2  A    between atoms: CB   and  CG  
REMARK    3  A    between atoms: CG   and  CD  
REMARK    4  A    between atoms: CD   and  NE  
REMARK       I    between atoms: NE   and  CZ  
REMARK       I    between atoms: CZ   and  NH1 
REMARK       I    between atoms: CZ   and  NH2 
ROOT
ATOM      1  CA  ARG D 557     -26.217   2.705 -17.014  1.00 35.49     0.159 C 
ENDROOT
BRANCH   1   2
ATOM      2  CB  ARG D 557     -26.789   1.319 -17.183  1.00 35.49     0.034 C 
BRANCH   2   3
ATOM      3  CG  ARG D 557     -25.858   0.196 -17.022  1.00 35.49     0.027 C 
BRANCH   3   4
ATOM      4  CD  ARG D 557     -26.230  -0.690 -15.896  1.00 35.49     0.116 C 
BRANCH   4   5
ATOM      5  NE  ARG D 557     -25.156  -0.848 -14.952  1.00 35.49    -0.212 N 
ATOM      6  CZ  ARG D 557     -24.821  -1.968 -14.350  1.00 35.49     0.666 C 
ATOM      7  NH1 ARG D 557     -25.469  -3.100 -14.547  1.00 35.49    -0.235 N 
ATOM      8  NH2 ARG D 557     -23.803  -1.932 -13.539  1.00 35.49    -0.235 N 
ATOM      9  HH  ARG D 557     -26.140  -3.147 -15.078  1.00 35.49     0.174 HD
ATOM     10  HH  ARG D 557     -25.204  -3.800 -14.129  1.00 35.49     0.174 HD
ATOM     11  HH  ARG D 557     -23.399  -1.188 -13.437  1.00 35.49     0.174 HD
ATOM     12  HH  ARG D 557     -23.555  -2.635 -13.136  1.00 35.49     0.174 HD
ATOM     13  HE  ARG D 557     -24.730  -0.153 -14.711  1.00 35.49     0.178 HD
ENDBRANCH   4   5
ENDBRANCH   3   4
ENDBRANCH   2   3
ENDBRANCH   1   2
END_RES ARG D 557
BEGIN_RES GLU D 570
REMARK  3 active torsions:
REMARK  status: ('A' for Active; 'I' for Inactive)
REMARK    5  A    between atoms: CA   and  CB  
REMARK    6  A    between atoms: CB   and  CG  
REMARK    7  A    between atoms: CG   and  CD  
ROOT
ATOM     14  CA  GLU D 570     -18.033  -6.348 -13.375  1.00 32.92     0.160 C 
ENDROOT
BRANCH  14  15
ATOM     15  CB  GLU D 570     -19.500  -6.345 -13.794  1.00 32.92     0.043 C 
BRANCH  15  16
ATOM     16  CG  GLU D 570     -19.805  -6.038 -15.215  1.00 32.92     0.100 C 
BRANCH  16  17
ATOM     17  CD  GLU D 570     -21.171  -5.419 -15.404  1.00 32.92     0.185 C 
ATOM     18  OE1 GLU D 570     -21.696  -5.445 -16.534  1.00 32.92    -0.647 OA
ATOM     19  OE2 GLU D 570     -21.714  -4.888 -14.416  1.00 32.92    -0.647 OA
ENDBRANCH  16  17
ENDBRANCH  15  16
ENDBRANCH  14  15
END_RES GLU D 570
ENDMDL
MODEL 4
REMARK VINA RESULT:      -5.8      9.557     13.343
REMARK  6 active torsions:
REMARK  status: ('A' for Active; 'I' for Inactive)
REMARK       I    between atoms: C_2  and  N_4 
REMARK    1  A    between atoms: N_4  and  CA_5 
REMARK    2  A    between atoms: CA_5  and  CB_6 
REMARK    3  A    between atoms: CA_5  and  C_14 
REMARK    4  A    between atoms: CB_6  and  CG_7 
REMARK    5  A    between atoms: CZ_10  and  OH_13 
REMARK    6  A    between atoms: C_14  and  OXT_16 
ROOT
ATOM      1  CA  TYR A   1     -21.320  -7.154  -4.249  1.00  0.00     0.186 C 
ENDROOT
BRANCH   1   2
ATOM      2  N   TYR A   1     -21.545  -8.587  -4.492  1.00  0.00    -0.347 N 
HETATM    3  C   UNK A   0     -20.657  -9.352  -5.195  1.00  0.00     0.214 C 
HETATM    4  C   UNK A   0     -21.124 -10.744  -5.507  1.00  0.00     0.117 C 
HETATM    5  O   UNK A   0     -19.548  -8.920  -5.498  1.00  0.00    -0.274 OA
ATOM      6  H   TYR A   1     -22.372  -9.015  -4.089  1.00  0.00     0.163 HD
ENDBRANCH   1   2
BRANCH   1   7
ATOM      7  CB  TYR A   1     -22.284  -6.280  -5.070  1.00  0.00     0.074 C 
BRANCH   7   8
ATOM      8  CG  TYR A   1     -21.691  -5.593  -6.292  1.00  0.00    -0.056 A 
ATOM      9  CD1 TYR A   1     -20.387  -5.830  -6.758  1.00  0.00     0.010 A 
ATOM     10  CE1 TYR A   1     -19.924  -5.257  -7.943  1.00  0.00     0.037 A 
ATOM     11  CZ  TYR A   1     -20.752  -4.398  -8.650  1.00  0.00     0.065 A 
ATOM     12  CE2 TYR A   1     -22.024  -4.090  -8.178  1.00  0.00     0.037 A 
ATOM     13  CD2 TYR A   1     -22.491  -4.685  -7.004  1.00  0.00     0.010 A 
BRANCH  11  14
ATOM     14  OH  TYR A   1     -20.348  -3.838  -9.825  1.00  0.00    -0.361 OA
ATOM     15  HH  TYR A   1     -19.564  -3.290  -9.652  1.00  0.00     0.217 HD
ENDBRANCH  11  14
ENDBRANCH   7   8
ENDBRANCH   1   7
BRANCH   1  16
ATOM     16  C   TYR A   1     -21.429  -6.878  -2.745  1.00  0.00     0.163 C 
ATOM     17  O   TYR A   1     -20.776  -7.445  -1.880  1.00  0.00    -0.648 OA
BRANCH  16  18
ATOM     18  OXT TYR A   1     -22.384  -5.959  -2.443  1.00  0.00    -0.775 OA
ATOM     19  HXT TYR A   1     -23.194  -6.058  -3.000  1.00  0.00     0.167 HD
ENDBRANCH  16  18
ENDBRANCH   1  16
TORSDOF 6
BEGIN_RES ARG D 557
REMARK  4 active torsions:
REMARK  status: ('A' for Active; 'I' for Inactive)
REMARK    1  A    between atoms: CA   and  CB  
REMARK    2  A    between atoms: CB   and  CG  
REMARK    3  A    between atoms: CG   and  CD  
REMARK    4  A    between atoms: CD   and  NE  
REMARK       I    between atoms: NE   and  CZ  
REMARK       I    between atoms: CZ   and  NH1 
REMARK       I    between atoms: CZ   and  NH2 
ROOT
ATOM      1  CA  ARG D 557     -26.217   2.705 -17.014  1.00 35.49     0.159 C 
ENDROOT
BRANCH   1   2
ATOM      2  CB  ARG D 557     -26.789   1.319 -17.183  1.00 35.49     0.034 C 
BRANCH   2   3
ATOM      3  CG  ARG D 557     -25.835   0.203 -17.158  1.00 35.49     0.027 C 
BRANCH   3   4
ATOM      4  CD  ARG D 557     -24.749   0.412 -16.174  1.00 35.49     0.116 C 
BRANCH   4   5
ATOM      5  NE  ARG D 557     -24.894  -0.434 -15.019  1.00 35.49    -0.212 N 
ATOM      6  CZ  ARG D 557     -24.079  -1.404 -14.670  1.00 35.49     0.666 C 
ATOM      7  NH1 ARG D 557     -23.011  -1.723 -15.379  1.00 35.49    -0.235 N 
ATOM      8  NH2 ARG D 557     -24.353  -2.055 -13.577  1.00 35.49    -0.235 N 
ATOM      9  HH  ARG D 557     -22.810  -1.307 -16.100  1.00 35.49     0.174 HD
ATOM     10  HH  ARG D 557     -22.515  -2.364 -15.101  1.00 35.49     0.174 HD
ATOM     11  HH  ARG D 557     -25.045  -1.822 -13.136  1.00 35.49     0.174 HD
ATOM     12  HH  ARG D 557     -23.849  -2.685 -13.318  1.00 35.49     0.174 HD
ATOM     13  HE  ARG D 557     -25.594  -0.346 -14.545  1.00 35.49     0.178 HD
ENDBRANCH   4   5
ENDBRANCH   3   4
ENDBRANCH   2   3
ENDBRANCH   1   2
END_RES ARG D 557
BEGIN_RES GLU D 570
REMARK  3 active torsions:
REMARK  status: ('A' for Active; 'I' for Inactive)
REMARK    5  A    between atoms: CA   and  CB  
REMARK    6  A    between atoms: CB   and  CG  
REMARK    7  A    between atoms: CG   and  CD  
ROOT
ATOM     14  CA  GLU D 570     -18.033  -6.348 -13.375  1.00 32.92     0.160 C 
ENDROOT
BRANCH  14  15
ATOM     15  CB  GLU D 570     -19.500  -6.345 -13.794  1.00 32.92     0.043 C 
BRANCH  15  16
ATOM     16  CG  GLU D 570     -20.444  -5.542 -12.975  1.00 32.92     0.100 C 
BRANCH  16  17
ATOM     17  CD  GLU D 570     -21.744  -5.253 -13.688  1.00 32.92     0.185 C 
ATOM     18  OE1 GLU D 570     -22.241  -6.130 -14.421  1.00 32.92    -0.647 OA
ATOM     19  OE2 GLU D 570     -22.264  -4.131 -13.525  1.00 32.92    -0.647 OA
ENDBRANCH  16  17
ENDBRANCH  15  16
ENDBRANCH  14  15
END_RES GLU D 570
ENDMDL
MODEL 5
REMARK VINA RESULT:      -5.8     10.292     15.002
REMARK  6 active torsions:
REMARK  status: ('A' for Active; 'I' for Inactive)
REMARK       I    between atoms: C_2  and  N_4 
REMARK    1  A    between atoms: N_4  and  CA_5 
REMARK    2  A    between atoms: CA_5  and  CB_6 
REMARK    3  A    between atoms: CA_5  and  C_14 
REMARK    4  A    between atoms: CB_6  and  CG_7 
REMARK    5  A    between atoms: CZ_10  and  OH_13 
REMARK    6  A    between atoms: C_14  and  OXT_16 
ROOT
ATOM      1  CA  TYR A   1     -21.640  -7.829  -2.000  1.00  0.00     0.186 C 
ENDROOT
BRANCH   1   2
ATOM      2  N   TYR A   1     -20.203  -8.061  -2.208  1.00  0.00    -0.347 N 
HETATM    3  C   UNK A   0     -19.731  -9.189  -2.821  1.00  0.00     0.214 C 
HETATM    4  C   UNK A   0     -18.240  -9.353  -2.790  1.00  0.00     0.117 C 
HETATM    5  O   UNK A   0     -20.493  -9.969  -3.386  1.00  0.00    -0.274 OA
ATOM      6  H   TYR A   1     -19.555  -7.338  -1.915  1.00  0.00     0.163 HD
ENDBRANCH   1   2
BRANCH   1   7
ATOM      7  CB  TYR A   1     -22.047  -8.060  -0.534  1.00  0.00     0.074 C 
BRANCH   7   8
ATOM      8  CG  TYR A   1     -22.312  -9.503  -0.130  1.00  0.00    -0.056 A 
ATOM      9  CD1 TYR A   1     -23.564 -10.127  -0.259  1.00  0.00     0.010 A 
ATOM     10  CE1 TYR A   1     -23.732 -11.483   0.025  1.00  0.00     0.037 A 
ATOM     11  CZ  TYR A   1     -22.651 -12.218   0.490  1.00  0.00     0.065 A 
ATOM     12  CE2 TYR A   1     -21.416 -11.612   0.693  1.00  0.00     0.037 A 
ATOM     13  CD2 TYR A   1     -21.247 -10.261   0.384  1.00  0.00     0.010 A 
BRANCH  11  14
ATOM     14  OH  TYR A   1     -22.767 -13.550   0.754  1.00  0.00    -0.361 OA
ATOM     15  HH  TYR A   1     -21.881 -13.948   0.732  1.00  0.00     0.217 HD
ENDBRANCH  11  14
ENDBRANCH   7   8
ENDBRANCH   1   7
BRANCH   1  16
ATOM     16  C   TYR A   1     -21.995  -6.418  -2.482  1.00  0.00     0.163 C 
ATOM     17  O   TYR A   1     -21.818  -6.002  -3.619  1.00  0.00    -0.648 OA
BRANCH  16  18
ATOM     18  OXT TYR A   1     -22.485  -5.627  -1.491  1.00  0.00    -0.775 OA
ATOM     19  HXT TYR A   1     -23.448  -5.437  -1.601  1.00  0.00     0.167 HD
ENDBRANCH  16  18
ENDBRANCH   1  16
TORSDOF 6
BEGIN_RES ARG D 557
REMARK  4 active torsions:
REMARK  status: ('A' for Active; 'I' for Inactive)
REMARK    1  A    between atoms: CA   and  CB  
REMARK    2  A    between atoms: CB   and  CG  
REMARK    3  A    between atoms: CG   and  CD  
REMARK    4  A    between atoms: CD   and  NE  
REMARK       I    between atoms: NE   and  CZ  
REMARK       I    between atoms: CZ   and  NH1 
REMARK       I    between atoms: CZ   and  NH2 
ROOT
ATOM      1  CA  ARG D 557     -26.217   2.705 -17.014  1.00 35.49     0.159 C 
ENDROOT
BRANCH   1   2
ATOM      2  CB  ARG D 557     -26.789   1.319 -17.183  1.00 35.49     0.034 C 
BRANCH   2   3
ATOM      3  CG  ARG D 557     -25.834   0.204 -17.169  1.00 35.49     0.027 C 
BRANCH   3   4
ATOM      4  CD  ARG D 557     -24.744   0.407 -16.188  1.00 35.49     0.116 C 
BRANCH   4   5
ATOM      5  NE  ARG D 557     -24.904  -0.421 -15.021  1.00 35.49    -0.212 N 
ATOM      6  CZ  ARG D 557     -24.119  -1.416 -14.672  1.00 35.49     0.666 C 
ATOM      7  NH1 ARG D 557     -23.073  -1.780 -15.391  1.00 35.49    -0.235 N 
ATOM      8  NH2 ARG D 557     -24.403  -2.046 -13.569  1.00 35.49    -0.235 N 
ATOM      9  HH  ARG D 557     -22.867  -1.379 -16.119  1.00 35.49     0.174 HD
ATOM     10  HH  ARG D 557     -22.596  -2.435 -15.112  1.00 35.49     0.174 HD
ATOM     11  HH  ARG D 557     -25.080  -1.784 -13.122  1.00 35.49     0.174 HD
ATOM     12  HH  ARG D 557     -23.917  -2.691 -13.309  1.00 35.49     0.174 HD
ATOM     13  HE  ARG D 557     -25.595  -0.303 -14.539  1.00 35.49     0.178 HD
ENDBRANCH   4   5
ENDBRANCH   3   4
ENDBRANCH   2   3
ENDBRANCH   1   2
END_RES ARG D 557
BEGIN_RES GLU D 570
REMARK  3 active torsions:
REMARK  status: ('A' for Active; 'I' for Inactive)
REMARK    5  A    between atoms: CA   and  CB  
REMARK    6  A    between atoms: CB   and  CG  
REMARK    7  A    between atoms: CG   and  CD  
ROOT
ATOM     14  CA  GLU D 570     -18.033  -6.348 -13.375  1.00 32.92     0.160 C 
ENDROOT
BRANCH  14  15
ATOM     15  CB  GLU D 570     -19.500  -6.345 -13.794  1.00 32.92     0.043 C 
BRANCH  15  16
ATOM     16  CG  GLU D 570     -20.444  -5.542 -12.975  1.00 32.92     0.100 C 
BRANCH  16  17
ATOM     17  CD  GLU D 570     -21.755  -5.275 -13.678  1.00 32.92     0.185 C 
ATOM     18  OE1 GLU D 570     -22.307  -4.168 -13.530  1.00 32.92    -0.647 OA
ATOM     19  OE2 GLU D 570     -22.243  -6.190 -14.371  1.00 32.92    -0.647 OA
ENDBRANCH  16  17
ENDBRANCH  15  16
ENDBRANCH  14  15
END_RES GLU D 570
ENDMDL
MODEL 6
REMARK VINA RESULT:      -5.6     12.513     21.135
REMARK  6 active torsions:
REMARK  status: ('A' for Active; 'I' for Inactive)
REMARK       I    between atoms: C_2  and  N_4 
REMARK    1  A    between atoms: N_4  and  CA_5 
REMARK    2  A    between atoms: CA_5  and  CB_6 
REMARK    3  A    between atoms: CA_5  and  C_14 
REMARK    4  A    between atoms: CB_6  and  CG_7 
REMARK    5  A    between atoms: CZ_10  and  OH_13 
REMARK    6  A    between atoms: C_14  and  OXT_16 
ROOT
ATOM      1  CA  TYR A   1     -11.875   8.646 -19.819  1.00  0.00     0.186 C 
ENDROOT
BRANCH   1   2
ATOM      2  N   TYR A   1     -12.752   9.826 -19.824  1.00  0.00    -0.347 N 
HETATM    3  C   UNK A   0     -13.498  10.181 -18.734  1.00  0.00     0.214 C 
HETATM    4  C   UNK A   0     -14.472  11.298 -18.966  1.00  0.00     0.117 C 
HETATM    5  O   UNK A   0     -13.329   9.637 -17.645  1.00  0.00    -0.274 OA
ATOM      6  H   TYR A   1     -12.769  10.405 -20.656  1.00  0.00     0.163 HD
ENDBRANCH   1   2
BRANCH   1   7
ATOM      7  CB  TYR A   1     -11.911   7.905 -21.167  1.00  0.00     0.074 C 
BRANCH   7   8
ATOM      8  CG  TYR A   1     -11.714   6.397 -21.108  1.00  0.00    -0.056 A 
ATOM      9  CD1 TYR A   1     -11.175   5.644 -22.165  1.00  0.00     0.010 A 
ATOM     10  CE1 TYR A   1     -10.915   4.280 -22.025  1.00  0.00     0.037 A 
ATOM     11  CZ  TYR A   1     -11.241   3.645 -20.836  1.00  0.00     0.065 A 
ATOM     12  CE2 TYR A   1     -11.840   4.350 -19.797  1.00  0.00     0.037 A 
ATOM     13  CD2 TYR A   1     -12.075   5.719 -19.933  1.00  0.00     0.010 A 
BRANCH  11  14
ATOM     14  OH  TYR A   1     -10.980   2.320 -20.650  1.00  0.00    -0.361 OA
ATOM     15  HH  TYR A   1     -11.576   1.806 -21.220  1.00  0.00     0.217 HD
ENDBRANCH  11  14
ENDBRANCH   7   8
ENDBRANCH   1   7
BRANCH   1  16
ATOM     16  C   TYR A   1     -10.455   9.080 -19.436  1.00  0.00     0.163 C 
ATOM     17  O   TYR A   1      -9.628   9.533 -20.215  1.00  0.00    -0.648 OA
BRANCH  16  18
ATOM     18  OXT TYR A   1     -10.168   8.857 -18.127  1.00  0.00    -0.775 OA
ATOM     19  HXT TYR A   1     -10.735   9.390 -17.519  1.00  0.00     0.167 HD
ENDBRANCH  16  18
ENDBRANCH   1  16
TORSDOF 6
BEGIN_RES ARG D 557
REMARK  4 active torsions:
REMARK  status: ('A' for Active; 'I' for Inactive)
REMARK    1  A    between atoms: CA   and  CB  
REMARK    2  A    between atoms: CB   and  CG  
REMARK    3  A    between atoms: CG   and  CD  
REMARK    4  A    between atoms: CD   and  NE  
REMARK       I    between atoms: NE   and  CZ  
REMARK       I    between atoms: CZ   and  NH1 
REMARK       I    between atoms: CZ   and  NH2 
ROOT
ATOM      1  CA  ARG D 557     -26.217   2.705 -17.014  1.00 35.49     0.159 C 
ENDROOT
BRANCH   1   2
ATOM      2  CB  ARG D 557     -26.789   1.319 -17.183  1.00 35.49     0.034 C 
BRANCH   2   3
ATOM      3  CG  ARG D 557     -25.835   0.203 -17.161  1.00 35.49     0.027 C 
BRANCH   3   4
ATOM      4  CD  ARG D 557     -24.748   0.410 -16.177  1.00 35.49     0.116 C 
BRANCH   4   5
ATOM      5  NE  ARG D 557     -24.894  -0.434 -15.021  1.00 35.49    -0.212 N 
ATOM      6  CZ  ARG D 557     -24.079  -1.404 -14.670  1.00 35.49     0.666 C 
ATOM      7  NH1 ARG D 557     -23.011  -1.724 -15.377  1.00 35.49    -0.235 N 
ATOM      8  NH2 ARG D 557     -24.355  -2.054 -13.577  1.00 35.49    -0.235 N 
ATOM      9  HH  ARG D 557     -22.809  -1.308 -16.099  1.00 35.49     0.174 HD
ATOM     10  HH  ARG D 557     -22.515  -2.364 -15.098  1.00 35.49     0.174 HD
ATOM     11  HH  ARG D 557     -25.048  -1.820 -13.137  1.00 35.49     0.174 HD
ATOM     12  HH  ARG D 557     -23.851  -2.683 -13.316  1.00 35.49     0.174 HD
ATOM     13  HE  ARG D 557     -25.595  -0.345 -14.548  1.00 35.49     0.178 HD
ENDBRANCH   4   5
ENDBRANCH   3   4
ENDBRANCH   2   3
ENDBRANCH   1   2
END_RES ARG D 557
BEGIN_RES GLU D 570
REMARK  3 active torsions:
REMARK  status: ('A' for Active; 'I' for Inactive)
REMARK    5  A    between atoms: CA   and  CB  
REMARK    6  A    between atoms: CB   and  CG  
REMARK    7  A    between atoms: CG   and  CD  
ROOT
ATOM     14  CA  GLU D 570     -18.033  -6.348 -13.375  1.00 32.92     0.160 C 
ENDROOT
BRANCH  14  15
ATOM     15  CB  GLU D 570     -19.500  -6.345 -13.794  1.00 32.92     0.043 C 
BRANCH  15  16
ATOM     16  CG  GLU D 570     -20.441  -5.528 -12.985  1.00 32.92     0.100 C 
BRANCH  16  17
ATOM     17  CD  GLU D 570     -21.737  -5.236 -13.705  1.00 32.92     0.185 C 
ATOM     18  OE1 GLU D 570     -22.303  -4.143 -13.514  1.00 32.92    -0.647 OA
ATOM     19  OE2 GLU D 570     -22.200  -6.117 -14.456  1.00 32.92    -0.647 OA
ENDBRANCH  16  17
ENDBRANCH  15  16
ENDBRANCH  14  15
END_RES GLU D 570
ENDMDL
MODEL 7
REMARK VINA RESULT:      -5.5      8.337     14.368
REMARK  6 active torsions:
REMARK  status: ('A' for Active; 'I' for Inactive)
REMARK       I    between atoms: C_2  and  N_4 
REMARK    1  A    between atoms: N_4  and  CA_5 
REMARK    2  A    between atoms: CA_5  and  CB_6 
REMARK    3  A    between atoms: CA_5  and  C_14 
REMARK    4  A    between atoms: CB_6  and  CG_7 
REMARK    5  A    between atoms: CZ_10  and  OH_13 
REMARK    6  A    between atoms: C_14  and  OXT_16 
ROOT
ATOM      1  CA  TYR A   1     -19.981  -7.648  -5.111  1.00  0.00     0.186 C 
ENDROOT
BRANCH   1   2
ATOM      2  N   TYR A   1     -19.955  -7.041  -6.450  1.00  0.00    -0.347 N 
HETATM    3  C   UNK A   0     -20.017  -5.688  -6.635  1.00  0.00     0.214 C 
HETATM    4  C   UNK A   0     -20.164  -5.247  -8.062  1.00  0.00     0.117 C 
HETATM    5  O   UNK A   0     -19.914  -4.913  -5.688  1.00  0.00    -0.274 OA
ATOM      6  H   TYR A   1     -19.852  -7.655  -7.250  1.00  0.00     0.163 HD
ENDBRANCH   1   2
BRANCH   1   7
ATOM      7  CB  TYR A   1     -21.420  -7.908  -4.632  1.00  0.00     0.074 C 
BRANCH   7   8
ATOM      8  CG  TYR A   1     -21.652  -7.829  -3.130  1.00  0.00    -0.056 A 
ATOM      9  CD1 TYR A   1     -21.924  -6.630  -2.449  1.00  0.00     0.010 A 
ATOM     10  CE1 TYR A   1     -22.234  -6.622  -1.088  1.00  0.00     0.037 A 
ATOM     11  CZ  TYR A   1     -22.226  -7.817  -0.384  1.00  0.00     0.065 A 
ATOM     12  CE2 TYR A   1     -21.893  -9.011  -1.015  1.00  0.00     0.037 A 
ATOM     13  CD2 TYR A   1     -21.607  -9.016  -2.382  1.00  0.00     0.010 A 
BRANCH  11  14
ATOM     14  OH  TYR A   1     -22.548  -7.856   0.940  1.00  0.00    -0.361 OA
ATOM     15  HH  TYR A   1     -23.221  -8.544   1.074  1.00  0.00     0.217 HD
ENDBRANCH  11  14
ENDBRANCH   7   8
ENDBRANCH   1   7
BRANCH   1  16
ATOM     16  C   TYR A   1     -19.137  -8.927  -5.124  1.00  0.00     0.163 C 
ATOM     17  O   TYR A   1     -19.139  -9.757  -6.022  1.00  0.00    -0.648 OA
BRANCH  16  18
ATOM     18  OXT TYR A   1     -18.407  -9.092  -3.989  1.00  0.00    -0.775 OA
ATOM     19  HXT TYR A   1     -18.665  -9.903  -3.488  1.00  0.00     0.167 HD
ENDBRANCH  16  18
ENDBRANCH   1  16
TORSDOF 6
BEGIN_RES ARG D 557
REMARK  4 active torsions:
REMARK  status: ('A' for Active; 'I' for Inactive)
REMARK    1  A    between atoms: CA   and  CB  
REMARK    2  A    between atoms: CB   and  CG  
REMARK    3  A    between atoms: CG   and  CD  
REMARK    4  A    between atoms: CD   and  NE  
REMARK       I    between atoms: NE   and  CZ  
REMARK       I    between atoms: CZ   and  NH1 
REMARK       I    between atoms: CZ   and  NH2 
ROOT
ATOM      1  CA  ARG D 557     -26.217   2.705 -17.014  1.00 35.49     0.159 C 
ENDROOT
BRANCH   1   2
ATOM      2  CB  ARG D 557     -26.789   1.319 -17.183  1.00 35.49     0.034 C 
BRANCH   2   3
ATOM      3  CG  ARG D 557     -28.234   1.225 -17.423  1.00 35.49     0.027 C 
BRANCH   3   4
ATOM      4  CD  ARG D 557     -28.902   0.291 -16.489  1.00 35.49     0.116 C 
BRANCH   4   5
ATOM      5  NE  ARG D 557     -29.277  -0.942 -17.131  1.00 35.49    -0.212 N 
ATOM      6  CZ  ARG D 557     -28.640  -2.087 -17.025  1.00 35.49     0.666 C 
ATOM      7  NH1 ARG D 557     -27.543  -2.225 -16.304  1.00 35.49    -0.235 N 
ATOM      8  NH2 ARG D 557     -29.135  -3.109 -17.661  1.00 35.49    -0.235 N 
ATOM      9  HH  ARG D 557     -27.201  -1.566 -15.876  1.00 35.49     0.174 HD
ATOM     10  HH  ARG D 557     -27.172  -2.997 -16.270  1.00 35.49     0.174 HD
ATOM     11  HH  ARG D 557     -29.848  -2.993 -18.113  1.00 35.49     0.174 HD
ATOM     12  HH  ARG D 557     -28.754  -3.866 -17.614  1.00 35.49     0.174 HD
ATOM     13  HE  ARG D 557     -29.931  -0.927 -17.673  1.00 35.49     0.178 HD
ENDBRANCH   4   5
ENDBRANCH   3   4
ENDBRANCH   2   3
ENDBRANCH   1   2
END_RES ARG D 557
BEGIN_RES GLU D 570
REMARK  3 active torsions:
REMARK  status: ('A' for Active; 'I' for Inactive)
REMARK    5  A    between atoms: CA   and  CB  
REMARK    6  A    between atoms: CB   and  CG  
REMARK    7  A    between atoms: CG   and  CD  
ROOT
ATOM     14  CA  GLU D 570     -18.033  -6.348 -13.375  1.00 32.92     0.160 C 
ENDROOT
BRANCH  14  15
ATOM     15  CB  GLU D 570     -19.500  -6.345 -13.794  1.00 32.92     0.043 C 
BRANCH  15  16
ATOM     16  CG  GLU D 570     -20.451  -5.574 -12.952  1.00 32.92     0.100 C 
BRANCH  16  17
ATOM     17  CD  GLU D 570     -21.694  -5.154 -13.700  1.00 32.92     0.185 C 
ATOM     18  OE1 GLU D 570     -22.700  -4.802 -13.054  1.00 32.92    -0.647 OA
ATOM     19  OE2 GLU D 570     -21.668  -5.194 -14.946  1.00 32.92    -0.647 OA
ENDBRANCH  16  17
ENDBRANCH  15  16
ENDBRANCH  14  15
END_RES GLU D 570
ENDMDL
MODEL 8
REMARK VINA RESULT:      -5.4     10.398     15.113
REMARK  6 active torsions:
REMARK  status: ('A' for Active; 'I' for Inactive)
REMARK       I    between atoms: C_2  and  N_4 
REMARK    1  A    between atoms: N_4  and  CA_5 
REMARK    2  A    between atoms: CA_5  and  CB_6 
REMARK    3  A    between atoms: CA_5  and  C_14 
REMARK    4  A    between atoms: CB_6  and  CG_7 
REMARK    5  A    between atoms: CZ_10  and  OH_13 
REMARK    6  A    between atoms: C_14  and  OXT_16 
ROOT
ATOM      1  CA  TYR A   1     -21.619  -7.854  -2.022  1.00  0.00     0.186 C 
ENDROOT
BRANCH   1   2
ATOM      2  N   TYR A   1     -20.186  -8.093  -2.248  1.00  0.00    -0.347 N 
HETATM    3  C   UNK A   0     -19.726  -9.230  -2.852  1.00  0.00     0.214 C 
HETATM    4  C   UNK A   0     -18.234  -9.398  -2.839  1.00  0.00     0.117 C 
HETATM    5  O   UNK A   0     -20.497 -10.016  -3.395  1.00  0.00    -0.274 OA
ATOM      6  H   TYR A   1     -19.532  -7.367  -1.973  1.00  0.00     0.163 HD
ENDBRANCH   1   2
BRANCH   1   7
ATOM      7  CB  TYR A   1     -22.008  -8.076  -0.550  1.00  0.00     0.074 C 
BRANCH   7   8
ATOM      8  CG  TYR A   1     -22.287  -9.515  -0.139  1.00  0.00    -0.056 A 
ATOM      9  CD1 TYR A   1     -23.542 -10.132  -0.280  1.00  0.00     0.010 A 
ATOM     10  CE1 TYR A   1     -23.722 -11.485   0.012  1.00  0.00     0.037 A 
ATOM     11  CZ  TYR A   1     -22.652 -12.223   0.497  1.00  0.00     0.065 A 
ATOM     12  CE2 TYR A   1     -21.416 -11.623   0.712  1.00  0.00     0.037 A 
ATOM     13  CD2 TYR A   1     -21.235 -10.275   0.396  1.00  0.00     0.010 A 
BRANCH  11  14
ATOM     14  OH  TYR A   1     -22.780 -13.552   0.769  1.00  0.00    -0.361 OA
ATOM     15  HH  TYR A   1     -23.495 -13.913   0.219  1.00  0.00     0.217 HD
ENDBRANCH  11  14
ENDBRANCH   7   8
ENDBRANCH   1   7
BRANCH   1  16
ATOM     16  C   TYR A   1     -21.975  -6.444  -2.506  1.00  0.00     0.163 C 
ATOM     17  O   TYR A   1     -21.801  -6.031  -3.645  1.00  0.00    -0.648 OA
BRANCH  16  18
ATOM     18  OXT TYR A   1     -22.463  -5.651  -1.516  1.00  0.00    -0.775 OA
ATOM     19  HXT TYR A   1     -22.684  -4.742  -1.834  1.00  0.00     0.167 HD
ENDBRANCH  16  18
ENDBRANCH   1  16
TORSDOF 6
BEGIN_RES ARG D 557
REMARK  4 active torsions:
REMARK  status: ('A' for Active; 'I' for Inactive)
REMARK    1  A    between atoms: CA   and  CB  
REMARK    2  A    between atoms: CB   and  CG  
REMARK    3  A    between atoms: CG   and  CD  
REMARK    4  A    between atoms: CD   and  NE  
REMARK       I    between atoms: NE   and  CZ  
REMARK       I    between atoms: CZ   and  NH1 
REMARK       I    between atoms: CZ   and  NH2 
ROOT
ATOM      1  CA  ARG D 557     -26.217   2.705 -17.014  1.00 35.49     0.159 C 
ENDROOT
BRANCH   1   2
ATOM      2  CB  ARG D 557     -26.789   1.319 -17.183  1.00 35.49     0.034 C 
BRANCH   2   3
ATOM      3  CG  ARG D 557     -28.236   1.173 -16.984  1.00 35.49     0.027 C 
BRANCH   3   4
ATOM      4  CD  ARG D 557     -28.620  -0.213 -16.632  1.00 35.49     0.116 C 
BRANCH   4   5
ATOM      5  NE  ARG D 557     -27.544  -0.930 -16.000  1.00 35.49    -0.212 N 
ATOM      6  CZ  ARG D 557     -27.331  -2.224 -16.081  1.00 35.49     0.666 C 
ATOM      7  NH1 ARG D 557     -28.120  -3.031 -16.766  1.00 35.49    -0.235 N 
ATOM      8  NH2 ARG D 557     -26.293  -2.702 -15.459  1.00 35.49    -0.235 N 
ATOM      9  HH  ARG D 557     -28.808  -2.738 -17.185  1.00 35.49     0.174 HD
ATOM     10  HH  ARG D 557     -27.930  -3.867 -16.786  1.00 35.49     0.174 HD
ATOM     11  HH  ARG D 557     -25.797  -2.156 -15.031  1.00 35.49     0.174 HD
ATOM     12  HH  ARG D 557     -26.120  -3.532 -15.492  1.00 35.49     0.174 HD
ATOM     13  HE  ARG D 557     -27.029  -0.499 -15.479  1.00 35.49     0.178 HD
ENDBRANCH   4   5
ENDBRANCH   3   4
ENDBRANCH   2   3
ENDBRANCH   1   2
END_RES ARG D 557
BEGIN_RES GLU D 570
REMARK  3 active torsions:
REMARK  status: ('A' for Active; 'I' for Inactive)
REMARK    5  A    between atoms: CA   and  CB  
REMARK    6  A    between atoms: CB   and  CG  
REMARK    7  A    between atoms: CG   and  CD  
ROOT
ATOM     14  CA  GLU D 570     -18.033  -6.348 -13.375  1.00 32.92     0.160 C 
ENDROOT
BRANCH  14  15
ATOM     15  CB  GLU D 570     -19.500  -6.345 -13.794  1.00 32.92     0.043 C 
BRANCH  15  16
ATOM     16  CG  GLU D 570     -20.441  -5.526 -12.987  1.00 32.92     0.100 C 
BRANCH  16  17
ATOM     17  CD  GLU D 570     -21.738  -5.238 -13.706  1.00 32.92     0.185 C 
ATOM     18  OE1 GLU D 570     -22.324  -4.160 -13.488  1.00 32.92    -0.647 OA
ATOM     19  OE2 GLU D 570     -22.182  -6.107 -14.482  1.00 32.92    -0.647 OA
ENDBRANCH  16  17
ENDBRANCH  15  16
ENDBRANCH  14  15
END_RES GLU D 570
ENDMDL
MODEL 9
REMARK VINA RESULT:      -5.4      8.800     14.204
REMARK  6 active torsions:
REMARK  status: ('A' for Active; 'I' for Inactive)
REMARK       I    between atoms: C_2  and  N_4 
REMARK    1  A    between atoms: N_4  and  CA_5 
REMARK    2  A    between atoms: CA_5  and  CB_6 
REMARK    3  A    between atoms: CA_5  and  C_14 
REMARK    4  A    between atoms: CB_6  and  CG_7 
REMARK    5  A    between atoms: CZ_10  and  OH_13 
REMARK    6  A    between atoms: C_14  and  OXT_16 
ROOT
ATOM      1  CA  TYR A   1     -20.060  -7.564  -5.090  1.00  0.00     0.186 C 
ENDROOT
BRANCH   1   2
ATOM      2  N   TYR A   1     -19.986  -6.971  -6.433  1.00  0.00    -0.347 N 
HETATM    3  C   UNK A   0     -20.017  -5.619  -6.633  1.00  0.00     0.214 C 
HETATM    4  C   UNK A   0     -20.116  -5.190  -8.068  1.00  0.00     0.117 C 
HETATM    5  O   UNK A   0     -19.925  -4.836  -5.692  1.00  0.00    -0.274 OA
ATOM      6  H   TYR A   1     -19.873  -7.596  -7.225  1.00  0.00     0.163 HD
ENDBRANCH   1   2
BRANCH   1   7
ATOM      7  CB  TYR A   1     -21.516  -7.752  -4.630  1.00  0.00     0.074 C 
BRANCH   7   8
ATOM      8  CG  TYR A   1     -21.742  -7.822  -3.127  1.00  0.00    -0.056 A 
ATOM      9  CD1 TYR A   1     -21.655  -9.011  -2.384  1.00  0.00     0.010 A 
ATOM     10  CE1 TYR A   1     -21.766  -9.007  -0.993  1.00  0.00     0.037 A 
ATOM     11  CZ  TYR A   1     -22.014  -7.812  -0.335  1.00  0.00     0.065 A 
ATOM     12  CE2 TYR A   1     -22.174  -6.629  -1.049  1.00  0.00     0.037 A 
ATOM     13  CD2 TYR A   1     -22.038  -6.634  -2.438  1.00  0.00     0.010 A 
BRANCH  11  14
ATOM     14  OH  TYR A   1     -22.104  -7.762   1.024  1.00  0.00    -0.361 OA
ATOM     15  HH  TYR A   1     -22.876  -8.282   1.302  1.00  0.00     0.217 HD
ENDBRANCH  11  14
ENDBRANCH   7   8
ENDBRANCH   1   7
BRANCH   1  16
ATOM     16  C   TYR A   1     -19.276  -8.881  -5.079  1.00  0.00     0.163 C 
ATOM     17  O   TYR A   1     -19.370  -9.758  -5.927  1.00  0.00    -0.648 OA
BRANCH  16  18
ATOM     18  OXT TYR A   1     -18.485  -9.018  -3.982  1.00  0.00    -0.775 OA
ATOM     19  HXT TYR A   1     -18.916  -8.680  -3.160  1.00  0.00     0.167 HD
ENDBRANCH  16  18
ENDBRANCH   1  16
TORSDOF 6
BEGIN_RES ARG D 557
REMARK  4 active torsions:
REMARK  status: ('A' for Active; 'I' for Inactive)
REMARK    1  A    between atoms: CA   and  CB  
REMARK    2  A    between atoms: CB   and  CG  
REMARK    3  A    between atoms: CG   and  CD  
REMARK    4  A    between atoms: CD   and  NE  
REMARK       I    between atoms: NE   and  CZ  
REMARK       I    between atoms: CZ   and  NH1 
REMARK       I    between atoms: CZ   and  NH2 
ROOT
ATOM      1  CA  ARG D 557     -26.217   2.705 -17.014  1.00 35.49     0.159 C 
ENDROOT
BRANCH   1   2
ATOM      2  CB  ARG D 557     -26.789   1.319 -17.183  1.00 35.49     0.034 C 
BRANCH   2   3
ATOM      3  CG  ARG D 557     -25.922   0.196 -16.805  1.00 35.49     0.027 C 
BRANCH   3   4
ATOM      4  CD  ARG D 557     -26.663  -0.876 -16.100  1.00 35.49     0.116 C 
BRANCH   4   5
ATOM      5  NE  ARG D 557     -25.869  -1.498 -15.074  1.00 35.49    -0.212 N 
ATOM      6  CZ  ARG D 557     -25.905  -2.769 -14.740  1.00 35.49     0.666 C 
ATOM      7  NH1 ARG D 557     -26.713  -3.633 -15.325  1.00 35.49    -0.235 N 
ATOM      8  NH2 ARG D 557     -25.098  -3.165 -13.799  1.00 35.49    -0.235 N 
ATOM      9  HH  ARG D 557     -27.251  -3.395 -15.948  1.00 35.49     0.174 HD
ATOM     10  HH  ARG D 557     -26.691  -4.450 -15.067  1.00 35.49     0.174 HD
ATOM     11  HH  ARG D 557     -24.582  -2.587 -13.445  1.00 35.49     0.174 HD
ATOM     12  HH  ARG D 557     -25.090  -3.979 -13.559  1.00 35.49     0.174 HD
ATOM     13  HE  ARG D 557     -25.372  -1.000 -14.596  1.00 35.49     0.178 HD
ENDBRANCH   4   5
ENDBRANCH   3   4
ENDBRANCH   2   3
ENDBRANCH   1   2
END_RES ARG D 557
BEGIN_RES GLU D 570
REMARK  3 active torsions:
REMARK  status: ('A' for Active; 'I' for Inactive)
REMARK    5  A    between atoms: CA   and  CB  
REMARK    6  A    between atoms: CB   and  CG  
REMARK    7  A    between atoms: CG   and  CD  
ROOT
ATOM     14  CA  GLU D 570     -18.033  -6.348 -13.375  1.00 32.92     0.160 C 
ENDROOT
BRANCH  14  15
ATOM     15  CB  GLU D 570     -19.500  -6.345 -13.794  1.00 32.92     0.043 C 
BRANCH  15  16
ATOM     16  CG  GLU D 570     -20.444  -5.540 -12.976  1.00 32.92     0.100 C 
BRANCH  16  17
ATOM     17  CD  GLU D 570     -21.729  -5.220 -13.704  1.00 32.92     0.185 C 
ATOM     18  OE1 GLU D 570     -22.118  -5.983 -14.609  1.00 32.92    -0.647 OA
ATOM     19  OE2 GLU D 570     -22.345  -4.187 -13.376  1.00 32.92    -0.647 OA
ENDBRANCH  16  17
ENDBRANCH  15  16
ENDBRANCH  14  15
END_RES GLU D 570
ENDMDL
