MODEL 1
REMARK VINA RESULT:      -6.7      0.000      0.000
REMARK  1 active torsions:
REMARK  status: ('A' for Active; 'I' for Inactive)
REMARK    1  A    between atoms: C_6  and  C_10 
ROOT
HETATM    1  C   UNL     1     -21.773  -4.946  -7.681  1.00  0.00     0.077 C 
HETATM    2  C   UNL     1     -22.484  -4.254  -8.802  1.00  0.00     0.056 C 
HETATM    3  C   UNL     1     -23.811  -4.116  -8.847  1.00  0.00     0.084 C 
HETATM    4  C   UNL     1     -24.402  -3.407  -9.985  1.00  0.00     0.172 C 
HETATM    5  O   UNL     1     -25.606  -3.149  -9.966  1.00  0.00    -0.292 OA
HETATM    6  C   UNL     1     -23.534  -3.029 -11.138  1.00  0.00     0.228 C 
HETATM    7  C   UNL     1     -22.063  -3.137 -10.923  1.00  0.00     0.282 C 
HETATM    8  O   UNL     1     -21.268  -2.685 -11.746  1.00  0.00    -0.264 OA
HETATM    9  O   UNL     1     -21.620  -3.744  -9.789  1.00  0.00    -0.283 OA
ENDROOT
BRANCH   6  10
HETATM   10  C   UNL     1     -23.927  -3.804 -12.369  1.00  0.00     0.144 C 
HETATM   11  O   UNL     1     -24.646  -3.299 -13.234  1.00  0.00    -0.297 OA
HETATM   12  C   UNL     1     -23.438  -5.223 -12.506  1.00  0.00     0.092 C 
ENDBRANCH   6  10
TORSDOF 1
BEGIN_RES ARG D 557
REMARK  4 active torsions:
REMARK  status: ('A' for Active; 'I' for Inactive)
REMARK    1  A    between atoms: CA   and  CB  
REMARK    2  A    between atoms: CB   and  CG  
REMARK    3  A    between atoms: CG   and  CD  
REMARK    4  A    between atoms: CD   and  NE  
REMARK       I    between atoms: NE   and  CZ  
REMARK       I    between atoms: CZ   and  NH1 
REMARK       I    between atoms: CZ   and  NH2 
ROOT
ATOM      1  CA  ARG D 557     -26.217   2.705 -17.014  1.00 35.49     0.159 C 
ENDROOT
BRANCH   1   2
ATOM      2  CB  ARG D 557     -26.789   1.319 -17.183  1.00 35.49     0.034 C 
BRANCH   2   3
ATOM      3  CG  ARG D 557     -28.217   1.153 -16.888  1.00 35.49     0.027 C 
BRANCH   3   4
ATOM      4  CD  ARG D 557     -28.606  -0.270 -16.761  1.00 35.49     0.116 C 
BRANCH   4   5
ATOM      5  NE  ARG D 557     -27.618  -1.041 -16.053  1.00 35.49    -0.212 N 
ATOM      6  CZ  ARG D 557     -27.462  -2.343 -16.128  1.00 35.49     0.666 C 
ATOM      7  NH1 ARG D 557     -28.233  -3.108 -16.877  1.00 35.49    -0.235 N 
ATOM      8  NH2 ARG D 557     -26.498  -2.873 -15.432  1.00 35.49    -0.235 N 
ATOM      9  HH  ARG D 557     -28.872  -2.781 -17.345  1.00 35.49     0.174 HD
ATOM     10  HH  ARG D 557     -28.083  -3.952 -16.889  1.00 35.49     0.174 HD
ATOM     11  HH  ARG D 557     -26.011  -2.354 -14.962  1.00 35.49     0.174 HD
ATOM     12  HH  ARG D 557     -26.364  -3.710 -15.457  1.00 35.49     0.174 HD
ATOM     13  HE  ARG D 557     -27.124  -0.637 -15.491  1.00 35.49     0.178 HD
ENDBRANCH   4   5
ENDBRANCH   3   4
ENDBRANCH   2   3
ENDBRANCH   1   2
END_RES ARG D 557
BEGIN_RES GLU D 570
REMARK  3 active torsions:
REMARK  status: ('A' for Active; 'I' for Inactive)
REMARK    5  A    between atoms: CA   and  CB  
REMARK    6  A    between atoms: CB   and  CG  
REMARK    7  A    between atoms: CG   and  CD  
ROOT
ATOM     14  CA  GLU D 570     -18.033  -6.348 -13.375  1.00 32.92     0.160 C 
ENDROOT
BRANCH  14  15
ATOM     15  CB  GLU D 570     -19.500  -6.345 -13.794  1.00 32.92     0.043 C 
BRANCH  15  16
ATOM     16  CG  GLU D 570     -19.803  -6.073 -15.223  1.00 32.92     0.100 C 
BRANCH  16  17
ATOM     17  CD  GLU D 570     -21.271  -5.818 -15.476  1.00 32.92     0.185 C 
ATOM     18  OE1 GLU D 570     -21.650  -4.657 -15.722  1.00 32.92    -0.647 OA
ATOM     19  OE2 GLU D 570     -22.052  -6.787 -15.410  1.00 32.92    -0.647 OA
ENDBRANCH  16  17
ENDBRANCH  15  16
ENDBRANCH  14  15
END_RES GLU D 570
ENDMDL
MODEL 2
REMARK VINA RESULT:      -6.5      1.926      2.948
REMARK  1 active torsions:
REMARK  status: ('A' for Active; 'I' for Inactive)
REMARK    1  A    between atoms: C_6  and  C_10 
ROOT
HETATM    1  C   UNL     1     -20.705  -3.793 -11.278  1.00  0.00     0.077 C 
HETATM    2  C   UNL     1     -21.970  -3.877 -12.075  1.00  0.00     0.056 C 
HETATM    3  C   UNL     1     -22.016  -4.363 -13.317  1.00  0.00     0.084 C 
HETATM    4  C   UNL     1     -23.311  -4.413 -14.000  1.00  0.00     0.172 C 
HETATM    5  O   UNL     1     -23.390  -4.989 -15.086  1.00  0.00    -0.292 OA
HETATM    6  C   UNL     1     -24.493  -3.758 -13.369  1.00  0.00     0.228 C 
HETATM    7  C   UNL     1     -24.342  -3.350 -11.944  1.00  0.00     0.282 C 
HETATM    8  O   UNL     1     -25.310  -2.965 -11.289  1.00  0.00    -0.264 OA
HETATM    9  O   UNL     1     -23.105  -3.419 -11.382  1.00  0.00    -0.283 OA
ENDROOT
BRANCH   6  10
HETATM   10  C   UNL     1     -24.942  -2.578 -14.191  1.00  0.00     0.144 C 
HETATM   11  O   UNL     1     -26.127  -2.434 -14.501  1.00  0.00    -0.297 OA
HETATM   12  C   UNL     1     -23.903  -1.588 -14.647  1.00  0.00     0.092 C 
ENDBRANCH   6  10
TORSDOF 1
BEGIN_RES ARG D 557
REMARK  4 active torsions:
REMARK  status: ('A' for Active; 'I' for Inactive)
REMARK    1  A    between atoms: CA   and  CB  
REMARK    2  A    between atoms: CB   and  CG  
REMARK    3  A    between atoms: CG   and  CD  
REMARK    4  A    between atoms: CD   and  NE  
REMARK       I    between atoms: NE   and  CZ  
REMARK       I    between atoms: CZ   and  NH1 
REMARK       I    between atoms: CZ   and  NH2 
ROOT
ATOM      1  CA  ARG D 557     -26.217   2.705 -17.014  1.00 35.49     0.159 C 
ENDROOT
BRANCH   1   2
ATOM      2  CB  ARG D 557     -26.789   1.319 -17.183  1.00 35.49     0.034 C 
BRANCH   2   3
ATOM      3  CG  ARG D 557     -28.133   1.088 -16.639  1.00 35.49     0.027 C 
BRANCH   3   4
ATOM      4  CD  ARG D 557     -28.784  -0.103 -17.231  1.00 35.49     0.116 C 
BRANCH   4   5
ATOM      5  NE  ARG D 557     -28.166  -1.329 -16.800  1.00 35.49    -0.212 N 
ATOM      6  CZ  ARG D 557     -28.633  -2.540 -17.011  1.00 35.49     0.666 C 
ATOM      7  NH1 ARG D 557     -29.766  -2.761 -17.652  1.00 35.49    -0.235 N 
ATOM      8  NH2 ARG D 557     -27.929  -3.540 -16.567  1.00 35.49    -0.235 N 
ATOM      9  HH  ARG D 557     -30.244  -2.118 -17.954  1.00 35.49     0.174 HD
ATOM     10  HH  ARG D 557     -30.019  -3.573 -17.762  1.00 35.49     0.174 HD
ATOM     11  HH  ARG D 557     -27.197  -3.367 -16.164  1.00 35.49     0.174 HD
ATOM     12  HH  ARG D 557     -28.195  -4.336 -16.688  1.00 35.49     0.174 HD
ATOM     13  HE  ARG D 557     -27.469  -1.277 -16.317  1.00 35.49     0.178 HD
ENDBRANCH   4   5
ENDBRANCH   3   4
ENDBRANCH   2   3
ENDBRANCH   1   2
END_RES ARG D 557
BEGIN_RES GLU D 570
REMARK  3 active torsions:
REMARK  status: ('A' for Active; 'I' for Inactive)
REMARK    5  A    between atoms: CA   and  CB  
REMARK    6  A    between atoms: CB   and  CG  
REMARK    7  A    between atoms: CG   and  CD  
ROOT
ATOM     14  CA  GLU D 570     -18.033  -6.348 -13.375  1.00 32.92     0.160 C 
ENDROOT
BRANCH  14  15
ATOM     15  CB  GLU D 570     -19.500  -6.345 -13.794  1.00 32.92     0.043 C 
BRANCH  15  16
ATOM     16  CG  GLU D 570     -20.085  -7.633 -14.248  1.00 32.92     0.100 C 
BRANCH  16  17
ATOM     17  CD  GLU D 570     -20.697  -7.549 -15.627  1.00 32.92     0.185 C 
ATOM     18  OE1 GLU D 570     -20.630  -6.475 -16.254  1.00 32.92    -0.647 OA
ATOM     19  OE2 GLU D 570     -21.266  -8.563 -16.077  1.00 32.92    -0.647 OA
ENDBRANCH  16  17
ENDBRANCH  15  16
ENDBRANCH  14  15
END_RES GLU D 570
ENDMDL
MODEL 3
REMARK VINA RESULT:      -6.5      3.610      6.109
REMARK  1 active torsions:
REMARK  status: ('A' for Active; 'I' for Inactive)
REMARK    1  A    between atoms: C_6  and  C_10 
ROOT
HETATM    1  C   UNL     1     -24.519  -6.657 -15.500  1.00  0.00     0.077 C 
HETATM    2  C   UNL     1     -25.924  -6.189 -15.723  1.00  0.00     0.056 C 
HETATM    3  C   UNL     1     -26.958  -7.023 -15.849  1.00  0.00     0.084 C 
HETATM    4  C   UNL     1     -28.294  -6.456 -16.050  1.00  0.00     0.172 C 
HETATM    5  O   UNL     1     -29.270  -7.206 -16.023  1.00  0.00    -0.292 OA
HETATM    6  C   UNL     1     -28.434  -4.991 -16.291  1.00  0.00     0.228 C 
HETATM    7  C   UNL     1     -27.229  -4.156 -16.018  1.00  0.00     0.282 C 
HETATM    8  O   UNL     1     -27.297  -2.928 -16.019  1.00  0.00    -0.264 OA
HETATM    9  O   UNL     1     -26.052  -4.788 -15.763  1.00  0.00    -0.283 OA
ENDROOT
BRANCH   6  10
HETATM   10  C   UNL     1     -28.925  -4.733 -17.691  1.00  0.00     0.144 C 
HETATM   11  O   UNL     1     -28.339  -5.208 -18.667  1.00  0.00    -0.297 OA
HETATM   12  C   UNL     1     -30.138  -3.858 -17.874  1.00  0.00     0.092 C 
ENDBRANCH   6  10
TORSDOF 1
BEGIN_RES ARG D 557
REMARK  4 active torsions:
REMARK  status: ('A' for Active; 'I' for Inactive)
REMARK    1  A    between atoms: CA   and  CB  
REMARK    2  A    between atoms: CB   and  CG  
REMARK    3  A    between atoms: CG   and  CD  
REMARK    4  A    between atoms: CD   and  NE  
REMARK       I    between atoms: NE   and  CZ  
REMARK       I    between atoms: CZ   and  NH1 
REMARK       I    between atoms: CZ   and  NH2 
ROOT
ATOM      1  CA  ARG D 557     -26.217   2.705 -17.014  1.00 35.49     0.159 C 
ENDROOT
BRANCH   1   2
ATOM      2  CB  ARG D 557     -26.789   1.319 -17.183  1.00 35.49     0.034 C 
BRANCH   2   3
ATOM      3  CG  ARG D 557     -25.836   0.203 -17.154  1.00 35.49     0.027 C 
BRANCH   3   4
ATOM      4  CD  ARG D 557     -24.964   0.237 -15.957  1.00 35.49     0.116 C 
BRANCH   4   5
ATOM      5  NE  ARG D 557     -25.276  -0.818 -15.029  1.00 35.49    -0.212 N 
ATOM      6  CZ  ARG D 557     -24.460  -1.779 -14.656  1.00 35.49     0.666 C 
ATOM      7  NH1 ARG D 557     -23.230  -1.887 -15.124  1.00 35.49    -0.235 N 
ATOM      8  NH2 ARG D 557     -24.905  -2.640 -13.788  1.00 35.49    -0.235 N 
ATOM      9  HH  ARG D 557     -22.916  -1.330 -15.695  1.00 35.49     0.174 HD
ATOM     10  HH  ARG D 557     -22.743  -2.533 -14.842  1.00 35.49     0.174 HD
ATOM     11  HH  ARG D 557     -25.701  -2.541 -13.497  1.00 35.49     0.174 HD
ATOM     12  HH  ARG D 557     -24.406  -3.272 -13.520  1.00 35.49     0.174 HD
ATOM     13  HE  ARG D 557     -26.072  -0.868 -14.734  1.00 35.49     0.178 HD
ENDBRANCH   4   5
ENDBRANCH   3   4
ENDBRANCH   2   3
ENDBRANCH   1   2
END_RES ARG D 557
BEGIN_RES GLU D 570
REMARK  3 active torsions:
REMARK  status: ('A' for Active; 'I' for Inactive)
REMARK    5  A    between atoms: CA   and  CB  
REMARK    6  A    between atoms: CB   and  CG  
REMARK    7  A    between atoms: CG   and  CD  
ROOT
ATOM     14  CA  GLU D 570     -18.033  -6.348 -13.375  1.00 32.92     0.160 C 
ENDROOT
BRANCH  14  15
ATOM     15  CB  GLU D 570     -19.500  -6.345 -13.794  1.00 32.92     0.043 C 
BRANCH  15  16
ATOM     16  CG  GLU D 570     -20.445  -5.543 -12.974  1.00 32.92     0.100 C 
BRANCH  16  17
ATOM     17  CD  GLU D 570     -21.557  -4.927 -13.790  1.00 32.92     0.185 C 
ATOM     18  OE1 GLU D 570     -21.524  -5.027 -15.031  1.00 32.92    -0.647 OA
ATOM     19  OE2 GLU D 570     -22.462  -4.322 -13.182  1.00 32.92    -0.647 OA
ENDBRANCH  16  17
ENDBRANCH  15  16
ENDBRANCH  14  15
END_RES GLU D 570
ENDMDL
MODEL 4
REMARK VINA RESULT:      -5.9      1.802      3.667
REMARK  1 active torsions:
REMARK  status: ('A' for Active; 'I' for Inactive)
REMARK    1  A    between atoms: C_6  and  C_10 
ROOT
HETATM    1  C   UNL     1     -23.542  -5.561 -13.572  1.00  0.00     0.077 C 
HETATM    2  C   UNL     1     -23.052  -4.789 -12.387  1.00  0.00     0.056 C 
HETATM    3  C   UNL     1     -21.757  -4.599 -12.127  1.00  0.00     0.084 C 
HETATM    4  C   UNL     1     -21.389  -3.813 -10.947  1.00  0.00     0.172 C 
HETATM    5  O   UNL     1     -20.207  -3.511 -10.777  1.00  0.00    -0.292 OA
HETATM    6  C   UNL     1     -22.450  -3.412  -9.979  1.00  0.00     0.228 C 
HETATM    7  C   UNL     1     -23.860  -3.585 -10.432  1.00  0.00     0.282 C 
HETATM    8  O   UNL     1     -24.796  -3.124  -9.780  1.00  0.00    -0.264 OA
HETATM    9  O   UNL     1     -24.086  -4.263 -11.589  1.00  0.00    -0.283 OA
ENDROOT
BRANCH   6  10
HETATM   10  C   UNL     1     -22.251  -4.110  -8.659  1.00  0.00     0.144 C 
HETATM   11  O   UNL     1     -22.652  -5.263  -8.484  1.00  0.00    -0.297 OA
HETATM   12  C   UNL     1     -21.570  -3.356  -7.547  1.00  0.00     0.092 C 
ENDBRANCH   6  10
TORSDOF 1
BEGIN_RES ARG D 557
REMARK  4 active torsions:
REMARK  status: ('A' for Active; 'I' for Inactive)
REMARK    1  A    between atoms: CA   and  CB  
REMARK    2  A    between atoms: CB   and  CG  
REMARK    3  A    between atoms: CG   and  CD  
REMARK    4  A    between atoms: CD   and  NE  
REMARK       I    between atoms: NE   and  CZ  
REMARK       I    between atoms: CZ   and  NH1 
REMARK       I    between atoms: CZ   and  NH2 
ROOT
ATOM      1  CA  ARG D 557     -26.217   2.705 -17.014  1.00 35.49     0.159 C 
ENDROOT
BRANCH   1   2
ATOM      2  CB  ARG D 557     -26.789   1.319 -17.183  1.00 35.49     0.034 C 
BRANCH   2   3
ATOM      3  CG  ARG D 557     -25.853   0.197 -17.045  1.00 35.49     0.027 C 
BRANCH   3   4
ATOM      4  CD  ARG D 557     -26.176  -0.668 -15.887  1.00 35.49     0.116 C 
BRANCH   4   5
ATOM      5  NE  ARG D 557     -25.051  -0.836 -15.005  1.00 35.49    -0.212 N 
ATOM      6  CZ  ARG D 557     -24.846  -1.861 -14.208  1.00 35.49     0.666 C 
ATOM      7  NH1 ARG D 557     -25.690  -2.872 -14.122  1.00 35.49    -0.235 N 
ATOM      8  NH2 ARG D 557     -23.758  -1.856 -13.493  1.00 35.49    -0.235 N 
ATOM      9  HH  ARG D 557     -26.411  -2.896 -14.585  1.00 35.49     0.174 HD
ATOM     10  HH  ARG D 557     -25.502  -3.514 -13.586  1.00 35.49     0.174 HD
ATOM     11  HH  ARG D 557     -23.228  -1.194 -13.575  1.00 35.49     0.174 HD
ATOM     12  HH  ARG D 557     -23.590  -2.502 -12.970  1.00 35.49     0.174 HD
ATOM     13  HE  ARG D 557     -24.493  -0.197 -14.943  1.00 35.49     0.178 HD
ENDBRANCH   4   5
ENDBRANCH   3   4
ENDBRANCH   2   3
ENDBRANCH   1   2
END_RES ARG D 557
BEGIN_RES GLU D 570
REMARK  3 active torsions:
REMARK  status: ('A' for Active; 'I' for Inactive)
REMARK    5  A    between atoms: CA   and  CB  
REMARK    6  A    between atoms: CB   and  CG  
REMARK    7  A    between atoms: CG   and  CD  
ROOT
ATOM     14  CA  GLU D 570     -18.033  -6.348 -13.375  1.00 32.92     0.160 C 
ENDROOT
BRANCH  14  15
ATOM     15  CB  GLU D 570     -19.500  -6.345 -13.794  1.00 32.92     0.043 C 
BRANCH  15  16
ATOM     16  CG  GLU D 570     -19.796  -6.272 -15.248  1.00 32.92     0.100 C 
BRANCH  16  17
ATOM     17  CD  GLU D 570     -20.798  -7.310 -15.698  1.00 32.92     0.185 C 
ATOM     18  OE1 GLU D 570     -20.600  -8.506 -15.412  1.00 32.92    -0.647 OA
ATOM     19  OE2 GLU D 570     -21.783  -6.924 -16.359  1.00 32.92    -0.647 OA
ENDBRANCH  16  17
ENDBRANCH  15  16
ENDBRANCH  14  15
END_RES GLU D 570
ENDMDL
MODEL 5
REMARK VINA RESULT:      -5.9      2.374      4.499
REMARK  1 active torsions:
REMARK  status: ('A' for Active; 'I' for Inactive)
REMARK    1  A    between atoms: C_6  and  C_10 
ROOT
HETATM    1  C   UNL     1     -21.466  -4.239 -10.962  1.00  0.00     0.077 C 
HETATM    2  C   UNL     1     -21.210  -4.365  -9.492  1.00  0.00     0.056 C 
HETATM    3  C   UNL     1     -19.984  -4.447  -8.971  1.00  0.00     0.084 C 
HETATM    4  C   UNL     1     -19.847  -4.553  -7.516  1.00  0.00     0.172 C 
HETATM    5  O   UNL     1     -18.724  -4.484  -7.016  1.00  0.00    -0.292 OA
HETATM    6  C   UNL     1     -21.068  -4.752  -6.683  1.00  0.00     0.228 C 
HETATM    7  C   UNL     1     -22.377  -4.535  -7.363  1.00  0.00     0.282 C 
HETATM    8  O   UNL     1     -23.426  -4.504  -6.721  1.00  0.00    -0.264 OA
HETATM    9  O   UNL     1     -22.382  -4.366  -8.713  1.00  0.00    -0.283 OA
ENDROOT
BRANCH   6  10
HETATM   10  C   UNL     1     -21.050  -6.114  -6.040  1.00  0.00     0.144 C 
HETATM   11  O   UNL     1     -20.973  -7.138  -6.723  1.00  0.00    -0.297 OA
HETATM   12  C   UNL     1     -21.153  -6.197  -4.539  1.00  0.00     0.092 C 
ENDBRANCH   6  10
TORSDOF 1
BEGIN_RES ARG D 557
REMARK  4 active torsions:
REMARK  status: ('A' for Active; 'I' for Inactive)
REMARK    1  A    between atoms: CA   and  CB  
REMARK    2  A    between atoms: CB   and  CG  
REMARK    3  A    between atoms: CG   and  CD  
REMARK    4  A    between atoms: CD   and  NE  
REMARK       I    between atoms: NE   and  CZ  
REMARK       I    between atoms: CZ   and  NH1 
REMARK       I    between atoms: CZ   and  NH2 
ROOT
ATOM      1  CA  ARG D 557     -26.217   2.705 -17.014  1.00 35.49     0.159 C 
ENDROOT
BRANCH   1   2
ATOM      2  CB  ARG D 557     -26.789   1.319 -17.183  1.00 35.49     0.034 C 
BRANCH   2   3
ATOM      3  CG  ARG D 557     -25.862   0.195 -17.003  1.00 35.49     0.027 C 
BRANCH   3   4
ATOM      4  CD  ARG D 557     -26.291  -0.723 -15.923  1.00 35.49     0.116 C 
BRANCH   4   5
ATOM      5  NE  ARG D 557     -25.259  -0.925 -14.941  1.00 35.49    -0.212 N 
ATOM      6  CZ  ARG D 557     -24.974  -2.064 -14.350  1.00 35.49     0.666 C 
ATOM      7  NH1 ARG D 557     -25.641  -3.177 -14.595  1.00 35.49    -0.235 N 
ATOM      8  NH2 ARG D 557     -23.990  -2.069 -13.499  1.00 35.49    -0.235 N 
ATOM      9  HH  ARG D 557     -26.291  -3.197 -15.153  1.00 35.49     0.174 HD
ATOM     10  HH  ARG D 557     -25.409  -3.890 -14.181  1.00 35.49     0.174 HD
ATOM     11  HH  ARG D 557     -23.572  -1.337 -13.366  1.00 35.49     0.174 HD
ATOM     12  HH  ARG D 557     -23.774  -2.785 -13.100  1.00 35.49     0.174 HD
ATOM     13  HE  ARG D 557     -24.827  -0.245 -14.669  1.00 35.49     0.178 HD
ENDBRANCH   4   5
ENDBRANCH   3   4
ENDBRANCH   2   3
ENDBRANCH   1   2
END_RES ARG D 557
BEGIN_RES GLU D 570
REMARK  3 active torsions:
REMARK  status: ('A' for Active; 'I' for Inactive)
REMARK    5  A    between atoms: CA   and  CB  
REMARK    6  A    between atoms: CB   and  CG  
REMARK    7  A    between atoms: CG   and  CD  
ROOT
ATOM     14  CA  GLU D 570     -18.033  -6.348 -13.375  1.00 32.92     0.160 C 
ENDROOT
BRANCH  14  15
ATOM     15  CB  GLU D 570     -19.500  -6.345 -13.794  1.00 32.92     0.043 C 
BRANCH  15  16
ATOM     16  CG  GLU D 570     -19.802  -6.102 -15.228  1.00 32.92     0.100 C 
BRANCH  16  17
ATOM     17  CD  GLU D 570     -21.104  -5.365 -15.440  1.00 32.92     0.185 C 
ATOM     18  OE1 GLU D 570     -21.774  -5.022 -14.447  1.00 32.92    -0.647 OA
ATOM     19  OE2 GLU D 570     -21.466  -5.144 -16.612  1.00 32.92    -0.647 OA
ENDBRANCH  16  17
ENDBRANCH  15  16
ENDBRANCH  14  15
END_RES GLU D 570
ENDMDL
MODEL 6
REMARK VINA RESULT:      -5.7      5.827      7.510
REMARK  1 active torsions:
REMARK  status: ('A' for Active; 'I' for Inactive)
REMARK    1  A    between atoms: C_6  and  C_10 
ROOT
HETATM    1  C   UNL     1     -22.087  -8.123   1.158  1.00  0.00     0.077 C 
HETATM    2  C   UNL     1     -21.713  -7.850  -0.265  1.00  0.00     0.056 C 
HETATM    3  C   UNL     1     -22.359  -6.968  -1.031  1.00  0.00     0.084 C 
HETATM    4  C   UNL     1     -21.900  -6.769  -2.408  1.00  0.00     0.172 C 
HETATM    5  O   UNL     1     -22.393  -5.859  -3.076  1.00  0.00    -0.292 OA
HETATM    6  C   UNL     1     -20.857  -7.678  -2.967  1.00  0.00     0.228 C 
HETATM    7  C   UNL     1     -20.140  -8.544  -1.988  1.00  0.00     0.282 C 
HETATM    8  O   UNL     1     -19.151  -9.195  -2.324  1.00  0.00    -0.264 OA
HETATM    9  O   UNL     1     -20.604  -8.593  -0.711  1.00  0.00    -0.283 OA
ENDROOT
BRANCH   6  10
HETATM   10  C   UNL     1     -21.435  -8.527  -4.069  1.00  0.00     0.144 C 
HETATM   11  O   UNL     1     -22.020  -9.583  -3.817  1.00  0.00    -0.297 OA
HETATM   12  C   UNL     1     -21.259  -8.067  -5.493  1.00  0.00     0.092 C 
ENDBRANCH   6  10
TORSDOF 1
BEGIN_RES ARG D 557
REMARK  4 active torsions:
REMARK  status: ('A' for Active; 'I' for Inactive)
REMARK    1  A    between atoms: CA   and  CB  
REMARK    2  A    between atoms: CB   and  CG  
REMARK    3  A    between atoms: CG   and  CD  
REMARK    4  A    between atoms: CD   and  NE  
REMARK       I    between atoms: NE   and  CZ  
REMARK       I    between atoms: CZ   and  NH1 
REMARK       I    between atoms: CZ   and  NH2 
ROOT
ATOM      1  CA  ARG D 557     -26.217   2.705 -17.014  1.00 35.49     0.159 C 
ENDROOT
BRANCH   1   2
ATOM      2  CB  ARG D 557     -26.789   1.319 -17.183  1.00 35.49     0.034 C 
BRANCH   2   3
ATOM      3  CG  ARG D 557     -25.836   0.203 -17.157  1.00 35.49     0.027 C 
BRANCH   3   4
ATOM      4  CD  ARG D 557     -24.755   0.407 -16.166  1.00 35.49     0.116 C 
BRANCH   4   5
ATOM      5  NE  ARG D 557     -24.908  -0.442 -15.014  1.00 35.49    -0.212 N 
ATOM      6  CZ  ARG D 557     -24.101  -1.420 -14.667  1.00 35.49     0.666 C 
ATOM      7  NH1 ARG D 557     -23.034  -1.743 -15.375  1.00 35.49    -0.235 N 
ATOM      8  NH2 ARG D 557     -24.383  -2.073 -13.578  1.00 35.49    -0.235 N 
ATOM      9  HH  ARG D 557     -22.829  -1.325 -16.094  1.00 35.49     0.174 HD
ATOM     10  HH  ARG D 557     -22.543  -2.388 -15.099  1.00 35.49     0.174 HD
ATOM     11  HH  ARG D 557     -25.074  -1.838 -13.137  1.00 35.49     0.174 HD
ATOM     12  HH  ARG D 557     -23.883  -2.708 -13.320  1.00 35.49     0.174 HD
ATOM     13  HE  ARG D 557     -25.609  -0.351 -14.541  1.00 35.49     0.178 HD
ENDBRANCH   4   5
ENDBRANCH   3   4
ENDBRANCH   2   3
ENDBRANCH   1   2
END_RES ARG D 557
BEGIN_RES GLU D 570
REMARK  3 active torsions:
REMARK  status: ('A' for Active; 'I' for Inactive)
REMARK    5  A    between atoms: CA   and  CB  
REMARK    6  A    between atoms: CB   and  CG  
REMARK    7  A    between atoms: CG   and  CD  
ROOT
ATOM     14  CA  GLU D 570     -18.033  -6.348 -13.375  1.00 32.92     0.160 C 
ENDROOT
BRANCH  14  15
ATOM     15  CB  GLU D 570     -19.500  -6.345 -13.794  1.00 32.92     0.043 C 
BRANCH  15  16
ATOM     16  CG  GLU D 570     -20.442  -5.530 -12.984  1.00 32.92     0.100 C 
BRANCH  16  17
ATOM     17  CD  GLU D 570     -21.742  -5.247 -13.699  1.00 32.92     0.185 C 
ATOM     18  OE1 GLU D 570     -22.210  -6.110 -14.467  1.00 32.92    -0.647 OA
ATOM     19  OE2 GLU D 570     -22.291  -4.145 -13.502  1.00 32.92    -0.647 OA
ENDBRANCH  16  17
ENDBRANCH  15  16
ENDBRANCH  14  15
END_RES GLU D 570
ENDMDL
MODEL 7
REMARK VINA RESULT:      -5.6      3.798      5.627
REMARK  1 active torsions:
REMARK  status: ('A' for Active; 'I' for Inactive)
REMARK    1  A    between atoms: C_6  and  C_10 
ROOT
HETATM    1  C   UNL     1     -21.856  -6.991  -1.837  1.00  0.00     0.077 C 
HETATM    2  C   UNL     1     -21.532  -6.965  -3.299  1.00  0.00     0.056 C 
HETATM    3  C   UNL     1     -20.506  -7.634  -3.829  1.00  0.00     0.084 C 
HETATM    4  C   UNL     1     -20.289  -7.550  -5.275  1.00  0.00     0.172 C 
HETATM    5  O   UNL     1     -19.438  -8.274  -5.793  1.00  0.00    -0.292 OA
HETATM    6  C   UNL     1     -21.095  -6.585  -6.078  1.00  0.00     0.228 C 
HETATM    7  C   UNL     1     -22.274  -5.980  -5.397  1.00  0.00     0.282 C 
HETATM    8  O   UNL     1     -23.095  -5.313  -6.026  1.00  0.00    -0.264 OA
HETATM    9  O   UNL     1     -22.425  -6.189  -4.061  1.00  0.00    -0.283 OA
ENDROOT
BRANCH   6  10
HETATM   10  C   UNL     1     -20.213  -5.496  -6.631  1.00  0.00     0.144 C 
HETATM   11  O   UNL     1     -19.610  -4.726  -5.881  1.00  0.00    -0.297 OA
HETATM   12  C   UNL     1     -20.105  -5.355  -8.127  1.00  0.00     0.092 C 
ENDBRANCH   6  10
TORSDOF 1
BEGIN_RES ARG D 557
REMARK  4 active torsions:
REMARK  status: ('A' for Active; 'I' for Inactive)
REMARK    1  A    between atoms: CA   and  CB  
REMARK    2  A    between atoms: CB   and  CG  
REMARK    3  A    between atoms: CG   and  CD  
REMARK    4  A    between atoms: CD   and  NE  
REMARK       I    between atoms: NE   and  CZ  
REMARK       I    between atoms: CZ   and  NH1 
REMARK       I    between atoms: CZ   and  NH2 
ROOT
ATOM      1  CA  ARG D 557     -26.217   2.705 -17.014  1.00 35.49     0.159 C 
ENDROOT
BRANCH   1   2
ATOM      2  CB  ARG D 557     -26.789   1.319 -17.183  1.00 35.49     0.034 C 
BRANCH   2   3
ATOM      3  CG  ARG D 557     -25.840   0.200 -17.119  1.00 35.49     0.027 C 
BRANCH   3   4
ATOM      4  CD  ARG D 557     -24.765   0.429 -16.127  1.00 35.49     0.116 C 
BRANCH   4   5
ATOM      5  NE  ARG D 557     -24.871  -0.457 -14.998  1.00 35.49    -0.212 N 
ATOM      6  CZ  ARG D 557     -24.029  -1.419 -14.694  1.00 35.49     0.666 C 
ATOM      7  NH1 ARG D 557     -22.967  -1.690 -15.430  1.00 35.49    -0.235 N 
ATOM      8  NH2 ARG D 557     -24.271  -2.112 -13.619  1.00 35.49    -0.235 N 
ATOM      9  HH  ARG D 557     -22.787  -1.246 -16.140  1.00 35.49     0.174 HD
ATOM     10  HH  ARG D 557     -22.451  -2.328 -15.181  1.00 35.49     0.174 HD
ATOM     11  HH  ARG D 557     -24.960  -1.909 -13.159  1.00 35.49     0.174 HD
ATOM     12  HH  ARG D 557     -23.748  -2.738 -13.389  1.00 35.49     0.174 HD
ATOM     13  HE  ARG D 557     -25.566  -0.401 -14.510  1.00 35.49     0.178 HD
ENDBRANCH   4   5
ENDBRANCH   3   4
ENDBRANCH   2   3
ENDBRANCH   1   2
END_RES ARG D 557
BEGIN_RES GLU D 570
REMARK  3 active torsions:
REMARK  status: ('A' for Active; 'I' for Inactive)
REMARK    5  A    between atoms: CA   and  CB  
REMARK    6  A    between atoms: CB   and  CG  
REMARK    7  A    between atoms: CG   and  CD  
ROOT
ATOM     14  CA  GLU D 570     -18.033  -6.348 -13.375  1.00 32.92     0.160 C 
ENDROOT
BRANCH  14  15
ATOM     15  CB  GLU D 570     -19.500  -6.345 -13.794  1.00 32.92     0.043 C 
BRANCH  15  16
ATOM     16  CG  GLU D 570     -20.446  -5.549 -12.970  1.00 32.92     0.100 C 
BRANCH  16  17
ATOM     17  CD  GLU D 570     -21.652  -5.076 -13.748  1.00 32.92     0.185 C 
ATOM     18  OE1 GLU D 570     -21.579  -5.000 -14.989  1.00 32.92    -0.647 OA
ATOM     19  OE2 GLU D 570     -22.674  -4.762 -13.107  1.00 32.92    -0.647 OA
ENDBRANCH  16  17
ENDBRANCH  15  16
ENDBRANCH  14  15
END_RES GLU D 570
ENDMDL
MODEL 8
REMARK VINA RESULT:      -5.6      2.169      4.310
REMARK  1 active torsions:
REMARK  status: ('A' for Active; 'I' for Inactive)
REMARK    1  A    between atoms: C_6  and  C_10 
ROOT
HETATM    1  C   UNL     1     -21.709  -4.339 -11.083  1.00  0.00     0.077 C 
HETATM    2  C   UNL     1     -21.375  -4.408  -9.625  1.00  0.00     0.056 C 
HETATM    3  C   UNL     1     -20.122  -4.443  -9.166  1.00  0.00     0.084 C 
HETATM    4  C   UNL     1     -19.909  -4.496  -7.717  1.00  0.00     0.172 C 
HETATM    5  O   UNL     1     -18.764  -4.384  -7.278  1.00  0.00    -0.292 OA
HETATM    6  C   UNL     1     -21.081  -4.695  -6.816  1.00  0.00     0.228 C 
HETATM    7  C   UNL     1     -22.427  -4.531  -7.434  1.00  0.00     0.282 C 
HETATM    8  O   UNL     1     -23.443  -4.503  -6.741  1.00  0.00    -0.264 OA
HETATM    9  O   UNL     1     -22.505  -4.409  -8.786  1.00  0.00    -0.283 OA
ENDROOT
BRANCH   6  10
HETATM   10  C   UNL     1     -20.996  -6.033  -6.130  1.00  0.00     0.144 C 
HETATM   11  O   UNL     1     -20.927  -7.078  -6.781  1.00  0.00    -0.297 OA
HETATM   12  C   UNL     1     -21.021  -6.067  -4.624  1.00  0.00     0.092 C 
ENDBRANCH   6  10
TORSDOF 1
BEGIN_RES ARG D 557
REMARK  4 active torsions:
REMARK  status: ('A' for Active; 'I' for Inactive)
REMARK    1  A    between atoms: CA   and  CB  
REMARK    2  A    between atoms: CB   and  CG  
REMARK    3  A    between atoms: CG   and  CD  
REMARK    4  A    between atoms: CD   and  NE  
REMARK       I    between atoms: NE   and  CZ  
REMARK       I    between atoms: CZ   and  NH1 
REMARK       I    between atoms: CZ   and  NH2 
ROOT
ATOM      1  CA  ARG D 557     -26.217   2.705 -17.014  1.00 35.49     0.159 C 
ENDROOT
BRANCH   1   2
ATOM      2  CB  ARG D 557     -26.789   1.319 -17.183  1.00 35.49     0.034 C 
BRANCH   2   3
ATOM      3  CG  ARG D 557     -28.153   1.102 -16.685  1.00 35.49     0.027 C 
BRANCH   3   4
ATOM      4  CD  ARG D 557     -28.794  -0.085 -17.295  1.00 35.49     0.116 C 
BRANCH   4   5
ATOM      5  NE  ARG D 557     -28.189  -1.315 -16.855  1.00 35.49    -0.212 N 
ATOM      6  CZ  ARG D 557     -28.680  -2.520 -17.037  1.00 35.49     0.666 C 
ATOM      7  NH1 ARG D 557     -29.827  -2.733 -17.654  1.00 35.49    -0.235 N 
ATOM      8  NH2 ARG D 557     -27.984  -3.525 -16.589  1.00 35.49    -0.235 N 
ATOM      9  HH  ARG D 557     -30.300  -2.087 -17.959  1.00 35.49     0.174 HD
ATOM     10  HH  ARG D 557     -30.096  -3.542 -17.746  1.00 35.49     0.174 HD
ATOM     11  HH  ARG D 557     -27.243  -3.358 -16.202  1.00 35.49     0.174 HD
ATOM     12  HH  ARG D 557     -28.267  -4.318 -16.692  1.00 35.49     0.174 HD
ATOM     13  HE  ARG D 557     -27.482  -1.266 -16.385  1.00 35.49     0.178 HD
ENDBRANCH   4   5
ENDBRANCH   3   4
ENDBRANCH   2   3
ENDBRANCH   1   2
END_RES ARG D 557
BEGIN_RES GLU D 570
REMARK  3 active torsions:
REMARK  status: ('A' for Active; 'I' for Inactive)
REMARK    5  A    between atoms: CA   and  CB  
REMARK    6  A    between atoms: CB   and  CG  
REMARK    7  A    between atoms: CG   and  CD  
ROOT
ATOM     14  CA  GLU D 570     -18.033  -6.348 -13.375  1.00 32.92     0.160 C 
ENDROOT
BRANCH  14  15
ATOM     15  CB  GLU D 570     -19.500  -6.345 -13.794  1.00 32.92     0.043 C 
BRANCH  15  16
ATOM     16  CG  GLU D 570     -20.086  -7.634 -14.245  1.00 32.92     0.100 C 
BRANCH  16  17
ATOM     17  CD  GLU D 570     -21.105  -7.465 -15.347  1.00 32.92     0.185 C 
ATOM     18  OE1 GLU D 570     -21.092  -8.256 -16.310  1.00 32.92    -0.647 OA
ATOM     19  OE2 GLU D 570     -21.914  -6.520 -15.255  1.00 32.92    -0.647 OA
ENDBRANCH  16  17
ENDBRANCH  15  16
ENDBRANCH  14  15
END_RES GLU D 570
ENDMDL
MODEL 9
REMARK VINA RESULT:      -5.5      4.534      6.550
REMARK  1 active torsions:
REMARK  status: ('A' for Active; 'I' for Inactive)
REMARK    1  A    between atoms: C_6  and  C_10 
ROOT
HETATM    1  C   UNL     1     -19.660  -5.277  -6.858  1.00  0.00     0.077 C 
HETATM    2  C   UNL     1     -20.404  -6.109  -5.860  1.00  0.00     0.056 C 
HETATM    3  C   UNL     1     -20.962  -5.600  -4.759  1.00  0.00     0.084 C 
HETATM    4  C   UNL     1     -21.680  -6.503  -3.857  1.00  0.00     0.172 C 
HETATM    5  O   UNL     1     -22.318  -6.025  -2.918  1.00  0.00    -0.292 OA
HETATM    6  C   UNL     1     -21.610  -7.975  -4.092  1.00  0.00     0.228 C 
HETATM    7  C   UNL     1     -21.055  -8.409  -5.405  1.00  0.00     0.282 C 
HETATM    8  O   UNL     1     -21.118  -9.586  -5.761  1.00  0.00    -0.264 OA
HETATM    9  O   UNL     1     -20.480  -7.471  -6.204  1.00  0.00    -0.283 OA
ENDROOT
BRANCH   6  10
HETATM   10  C   UNL     1     -20.862  -8.652  -2.974  1.00  0.00     0.144 C 
HETATM   11  O   UNL     1     -19.630  -8.614  -2.921  1.00  0.00    -0.297 OA
HETATM   12  C   UNL     1     -21.654  -9.399  -1.933  1.00  0.00     0.092 C 
ENDBRANCH   6  10
TORSDOF 1
BEGIN_RES ARG D 557
REMARK  4 active torsions:
REMARK  status: ('A' for Active; 'I' for Inactive)
REMARK    1  A    between atoms: CA   and  CB  
REMARK    2  A    between atoms: CB   and  CG  
REMARK    3  A    between atoms: CG   and  CD  
REMARK    4  A    between atoms: CD   and  NE  
REMARK       I    between atoms: NE   and  CZ  
REMARK       I    between atoms: CZ   and  NH1 
REMARK       I    between atoms: CZ   and  NH2 
ROOT
ATOM      1  CA  ARG D 557     -26.217   2.705 -17.014  1.00 35.49     0.159 C 
ENDROOT
BRANCH   1   2
ATOM      2  CB  ARG D 557     -26.789   1.319 -17.183  1.00 35.49     0.034 C 
BRANCH   2   3
ATOM      3  CG  ARG D 557     -25.835   0.204 -17.165  1.00 35.49     0.027 C 
BRANCH   3   4
ATOM      4  CD  ARG D 557     -24.748   0.407 -16.181  1.00 35.49     0.116 C 
BRANCH   4   5
ATOM      5  NE  ARG D 557     -24.897  -0.438 -15.026  1.00 35.49    -0.212 N 
ATOM      6  CZ  ARG D 557     -24.082  -1.407 -14.671  1.00 35.49     0.666 C 
ATOM      7  NH1 ARG D 557     -23.010  -1.724 -15.374  1.00 35.49    -0.235 N 
ATOM      8  NH2 ARG D 557     -24.362  -2.058 -13.580  1.00 35.49    -0.235 N 
ATOM      9  HH  ARG D 557     -22.806  -1.307 -16.094  1.00 35.49     0.174 HD
ATOM     10  HH  ARG D 557     -22.514  -2.363 -15.092  1.00 35.49     0.174 HD
ATOM     11  HH  ARG D 557     -25.057  -1.826 -13.143  1.00 35.49     0.174 HD
ATOM     12  HH  ARG D 557     -23.858  -2.686 -13.317  1.00 35.49     0.174 HD
ATOM     13  HE  ARG D 557     -25.601  -0.352 -14.556  1.00 35.49     0.178 HD
ENDBRANCH   4   5
ENDBRANCH   3   4
ENDBRANCH   2   3
ENDBRANCH   1   2
END_RES ARG D 557
BEGIN_RES GLU D 570
REMARK  3 active torsions:
REMARK  status: ('A' for Active; 'I' for Inactive)
REMARK    5  A    between atoms: CA   and  CB  
REMARK    6  A    between atoms: CB   and  CG  
REMARK    7  A    between atoms: CG   and  CD  
ROOT
ATOM     14  CA  GLU D 570     -18.033  -6.348 -13.375  1.00 32.92     0.160 C 
ENDROOT
BRANCH  14  15
ATOM     15  CB  GLU D 570     -19.500  -6.345 -13.794  1.00 32.92     0.043 C 
BRANCH  15  16
ATOM     16  CG  GLU D 570     -20.440  -5.522 -12.990  1.00 32.92     0.100 C 
BRANCH  16  17
ATOM     17  CD  GLU D 570     -21.746  -5.255 -13.701  1.00 32.92     0.185 C 
ATOM     18  OE1 GLU D 570     -22.225  -6.137 -14.439  1.00 32.92    -0.647 OA
ATOM     19  OE2 GLU D 570     -22.288  -4.145 -13.530  1.00 32.92    -0.647 OA
ENDBRANCH  16  17
ENDBRANCH  15  16
ENDBRANCH  14  15
END_RES GLU D 570
ENDMDL
