MODEL 1
REMARK VINA RESULT:      -5.4      0.000      0.000
REMARK  6 active torsions:
REMARK  status: ('A' for Active; 'I' for Inactive)
REMARK    1  A    between atoms: CB_1  and  CA_2 
REMARK    2  A    between atoms: CB_1  and  CG_7 
REMARK    3  A    between atoms: CA_2  and  C_3 
REMARK    4  A    between atoms: CA_2  and  N_6 
REMARK    5  A    between atoms: C_3  and  OXT_5 
REMARK    6  A    between atoms: CG_7  and  OD2_9 
ROOT
ATOM      1  CA  ASP A   1     -23.209  -4.683 -10.412  1.00  0.00     0.324 C 
ENDROOT
BRANCH   1   2
ATOM      2  CB  ASP A   1     -21.833  -4.121 -10.056  1.00  0.00     0.156 C 
BRANCH   2   3
ATOM      3  CG  ASP A   1     -21.217  -3.404 -11.227  1.00  0.00     0.141 C 
ATOM      4  OD1 ASP A   1     -21.701  -2.404 -11.742  1.00  0.00    -0.650 OA
BRANCH   3   5
ATOM      5  OD2 ASP A   1     -20.088  -3.983 -11.675  1.00  0.00    -0.776 OA
ATOM      6  HD2 ASP A   1     -19.380  -4.062 -11.007  1.00  0.00     0.167 HD
ENDBRANCH   3   5
ENDBRANCH   2   3
ENDBRANCH   1   2
BRANCH   1   7
ATOM      7  C   ASP A   1     -24.351  -3.704 -10.066  1.00  0.00     0.174 C 
ATOM      8  O   ASP A   1     -25.073  -3.192 -10.914  1.00  0.00    -0.648 OA
BRANCH   7   9
ATOM      9  OXT ASP A   1     -24.520  -3.459  -8.751  1.00  0.00    -0.775 OA
ATOM     10  HXT ASP A   1     -24.235  -2.560  -8.446  1.00  0.00     0.167 HD
ENDBRANCH   7   9
ENDBRANCH   1   7
BRANCH   1  11
ATOM     11  N   ASP A   1     -23.220  -4.934 -11.881  1.00  0.00     0.093 N 
ATOM     12  H1  ASP A   1     -24.184  -4.806 -12.213  1.00  0.00     0.314 HD
ATOM     13  H2  ASP A   1     -23.072  -5.937 -12.026  1.00  0.00     0.314 HD
ENDBRANCH   1  11
TORSDOF 6
BEGIN_RES ARG D 557
REMARK  4 active torsions:
REMARK  status: ('A' for Active; 'I' for Inactive)
REMARK    1  A    between atoms: CA   and  CB  
REMARK    2  A    between atoms: CB   and  CG  
REMARK    3  A    between atoms: CG   and  CD  
REMARK    4  A    between atoms: CD   and  NE  
REMARK       I    between atoms: NE   and  CZ  
REMARK       I    between atoms: CZ   and  NH1 
REMARK       I    between atoms: CZ   and  NH2 
ROOT
ATOM      1  CA  ARG D 557     -26.217   2.705 -17.014  1.00 35.49     0.159 C 
ENDROOT
BRANCH   1   2
ATOM      2  CB  ARG D 557     -26.789   1.319 -17.183  1.00 35.49     0.034 C 
BRANCH   2   3
ATOM      3  CG  ARG D 557     -25.860   0.195 -17.011  1.00 35.49     0.027 C 
BRANCH   3   4
ATOM      4  CD  ARG D 557     -26.274  -0.717 -15.921  1.00 35.49     0.116 C 
BRANCH   4   5
ATOM      5  NE  ARG D 557     -25.235  -0.901 -14.943  1.00 35.49    -0.212 N 
ATOM      6  CZ  ARG D 557     -24.937  -2.031 -14.342  1.00 35.49     0.666 C 
ATOM      7  NH1 ARG D 557     -25.594  -3.152 -14.573  1.00 35.49    -0.235 N 
ATOM      8  NH2 ARG D 557     -23.947  -2.018 -13.496  1.00 35.49    -0.235 N 
ATOM      9  HH  ARG D 557     -26.247  -3.184 -15.127  1.00 35.49     0.174 HD
ATOM     10  HH  ARG D 557     -25.353  -3.859 -14.153  1.00 35.49     0.174 HD
ATOM     11  HH  ARG D 557     -23.536  -1.281 -13.373  1.00 35.49     0.174 HD
ATOM     12  HH  ARG D 557     -23.723  -2.729 -13.092  1.00 35.49     0.174 HD
ATOM     13  HE  ARG D 557     -24.808  -0.214 -14.680  1.00 35.49     0.178 HD
ENDBRANCH   4   5
ENDBRANCH   3   4
ENDBRANCH   2   3
ENDBRANCH   1   2
END_RES ARG D 557
BEGIN_RES GLU D 570
REMARK  3 active torsions:
REMARK  status: ('A' for Active; 'I' for Inactive)
REMARK    5  A    between atoms: CA   and  CB  
REMARK    6  A    between atoms: CB   and  CG  
REMARK    7  A    between atoms: CG   and  CD  
ROOT
ATOM     14  CA  GLU D 570     -18.033  -6.348 -13.375  1.00 32.92     0.160 C 
ENDROOT
BRANCH  14  15
ATOM     15  CB  GLU D 570     -19.500  -6.345 -13.794  1.00 32.92     0.043 C 
BRANCH  15  16
ATOM     16  CG  GLU D 570     -19.799  -6.166 -15.238  1.00 32.92     0.100 C 
BRANCH  16  17
ATOM     17  CD  GLU D 570     -21.065  -5.379 -15.485  1.00 32.92     0.185 C 
ATOM     18  OE1 GLU D 570     -21.403  -5.129 -16.658  1.00 32.92    -0.647 OA
ATOM     19  OE2 GLU D 570     -21.717  -4.995 -14.494  1.00 32.92    -0.647 OA
ENDBRANCH  16  17
ENDBRANCH  15  16
ENDBRANCH  14  15
END_RES GLU D 570
ENDMDL
MODEL 2
REMARK VINA RESULT:      -5.3      2.552      3.817
REMARK  6 active torsions:
REMARK  status: ('A' for Active; 'I' for Inactive)
REMARK    1  A    between atoms: CB_1  and  CA_2 
REMARK    2  A    between atoms: CB_1  and  CG_7 
REMARK    3  A    between atoms: CA_2  and  C_3 
REMARK    4  A    between atoms: CA_2  and  N_6 
REMARK    5  A    between atoms: C_3  and  OXT_5 
REMARK    6  A    between atoms: CG_7  and  OD2_9 
ROOT
ATOM      1  CA  ASP A   1     -24.523  -2.645 -13.589  1.00  0.00     0.324 C 
ENDROOT
BRANCH   1   2
ATOM      2  CB  ASP A   1     -23.639  -2.710 -12.342  1.00  0.00     0.156 C 
BRANCH   2   3
ATOM      3  CG  ASP A   1     -24.262  -3.573 -11.278  1.00  0.00     0.141 C 
ATOM      4  OD1 ASP A   1     -25.142  -3.186 -10.519  1.00  0.00    -0.650 OA
BRANCH   3   5
ATOM      5  OD2 ASP A   1     -23.741  -4.812 -11.223  1.00  0.00    -0.776 OA
ATOM      6  HD2 ASP A   1     -22.771  -4.850 -11.323  1.00  0.00     0.167 HD
ENDBRANCH   3   5
ENDBRANCH   2   3
ENDBRANCH   1   2
BRANCH   1   7
ATOM      7  C   ASP A   1     -23.977  -1.661 -14.644  1.00  0.00     0.174 C 
ATOM      8  O   ASP A   1     -23.008  -1.910 -15.353  1.00  0.00    -0.648 OA
BRANCH   7   9
ATOM      9  OXT ASP A   1     -24.656  -0.500 -14.755  1.00  0.00    -0.775 OA
ATOM     10  HXT ASP A   1     -24.104   0.296 -14.961  1.00  0.00     0.167 HD
ENDBRANCH   7   9
ENDBRANCH   1   7
BRANCH   1  11
ATOM     11  N   ASP A   1     -24.560  -4.013 -14.180  1.00  0.00     0.093 N 
ATOM     12  H1  ASP A   1     -24.237  -3.942 -15.153  1.00  0.00     0.314 HD
ATOM     13  H2  ASP A   1     -25.543  -4.274 -14.296  1.00  0.00     0.314 HD
ENDBRANCH   1  11
TORSDOF 6
BEGIN_RES ARG D 557
REMARK  4 active torsions:
REMARK  status: ('A' for Active; 'I' for Inactive)
REMARK    1  A    between atoms: CA   and  CB  
REMARK    2  A    between atoms: CB   and  CG  
REMARK    3  A    between atoms: CG   and  CD  
REMARK    4  A    between atoms: CD   and  NE  
REMARK       I    between atoms: NE   and  CZ  
REMARK       I    between atoms: CZ   and  NH1 
REMARK       I    between atoms: CZ   and  NH2 
ROOT
ATOM      1  CA  ARG D 557     -26.217   2.705 -17.014  1.00 35.49     0.159 C 
ENDROOT
BRANCH   1   2
ATOM      2  CB  ARG D 557     -26.789   1.319 -17.183  1.00 35.49     0.034 C 
BRANCH   2   3
ATOM      3  CG  ARG D 557     -28.233   1.226 -17.431  1.00 35.49     0.027 C 
BRANCH   3   4
ATOM      4  CD  ARG D 557     -28.907   0.297 -16.495  1.00 35.49     0.116 C 
BRANCH   4   5
ATOM      5  NE  ARG D 557     -29.262  -0.946 -17.127  1.00 35.49    -0.212 N 
ATOM      6  CZ  ARG D 557     -28.610  -2.081 -17.008  1.00 35.49     0.666 C 
ATOM      7  NH1 ARG D 557     -27.514  -2.197 -16.281  1.00 35.49    -0.235 N 
ATOM      8  NH2 ARG D 557     -29.088  -3.116 -17.636  1.00 35.49    -0.235 N 
ATOM      9  HH  ARG D 557     -27.183  -1.530 -15.858  1.00 35.49     0.174 HD
ATOM     10  HH  ARG D 557     -27.133  -2.963 -16.239  1.00 35.49     0.174 HD
ATOM     11  HH  ARG D 557     -29.801  -3.014 -18.092  1.00 35.49     0.174 HD
ATOM     12  HH  ARG D 557     -28.697  -3.867 -17.580  1.00 35.49     0.174 HD
ATOM     13  HE  ARG D 557     -29.915  -0.946 -17.672  1.00 35.49     0.178 HD
ENDBRANCH   4   5
ENDBRANCH   3   4
ENDBRANCH   2   3
ENDBRANCH   1   2
END_RES ARG D 557
BEGIN_RES GLU D 570
REMARK  3 active torsions:
REMARK  status: ('A' for Active; 'I' for Inactive)
REMARK    5  A    between atoms: CA   and  CB  
REMARK    6  A    between atoms: CB   and  CG  
REMARK    7  A    between atoms: CG   and  CD  
ROOT
ATOM     14  CA  GLU D 570     -18.033  -6.348 -13.375  1.00 32.92     0.160 C 
ENDROOT
BRANCH  14  15
ATOM     15  CB  GLU D 570     -19.500  -6.345 -13.794  1.00 32.92     0.043 C 
BRANCH  15  16
ATOM     16  CG  GLU D 570     -19.809  -5.991 -15.203  1.00 32.92     0.100 C 
BRANCH  16  17
ATOM     17  CD  GLU D 570     -21.144  -5.302 -15.359  1.00 32.92     0.185 C 
ATOM     18  OE1 GLU D 570     -21.543  -5.005 -16.502  1.00 32.92    -0.647 OA
ATOM     19  OE2 GLU D 570     -21.791  -5.040 -14.326  1.00 32.92    -0.647 OA
ENDBRANCH  16  17
ENDBRANCH  15  16
ENDBRANCH  14  15
END_RES GLU D 570
ENDMDL
MODEL 3
REMARK VINA RESULT:      -5.2      1.591      2.795
REMARK  6 active torsions:
REMARK  status: ('A' for Active; 'I' for Inactive)
REMARK    1  A    between atoms: CB_1  and  CA_2 
REMARK    2  A    between atoms: CB_1  and  CG_7 
REMARK    3  A    between atoms: CA_2  and  C_3 
REMARK    4  A    between atoms: CA_2  and  N_6 
REMARK    5  A    between atoms: C_3  and  OXT_5 
REMARK    6  A    between atoms: CG_7  and  OD2_9 
ROOT
ATOM      1  CA  ASP A   1     -22.692  -4.516  -9.280  1.00  0.00     0.324 C 
ENDROOT
BRANCH   1   2
ATOM      2  CB  ASP A   1     -23.725  -4.709 -10.390  1.00  0.00     0.156 C 
BRANCH   2   3
ATOM      3  CG  ASP A   1     -24.557  -3.470 -10.582  1.00  0.00     0.141 C 
ATOM      4  OD1 ASP A   1     -25.602  -3.254  -9.980  1.00  0.00    -0.650 OA
BRANCH   3   5
ATOM      5  OD2 ASP A   1     -24.053  -2.625 -11.500  1.00  0.00    -0.776 OA
ATOM      6  HD2 ASP A   1     -23.823  -1.741 -11.154  1.00  0.00     0.167 HD
ENDBRANCH   3   5
ENDBRANCH   2   3
ENDBRANCH   1   2
BRANCH   1   7
ATOM      7  C   ASP A   1     -21.296  -4.161  -9.832  1.00  0.00     0.174 C 
ATOM      8  O   ASP A   1     -20.269  -4.723  -9.467  1.00  0.00    -0.648 OA
BRANCH   7   9
ATOM      9  OXT ASP A   1     -21.277  -3.193 -10.772  1.00  0.00    -0.775 OA
ATOM     10  HXT ASP A   1     -20.711  -3.380 -11.563  1.00  0.00     0.167 HD
ENDBRANCH   7   9
ENDBRANCH   1   7
BRANCH   1  11
ATOM     11  N   ASP A   1     -23.168  -3.395  -8.420  1.00  0.00     0.093 N 
ATOM     12  H1  ASP A   1     -24.194  -3.382  -8.463  1.00  0.00     0.314 HD
ATOM     13  H2  ASP A   1     -22.919  -2.518  -8.887  1.00  0.00     0.314 HD
ENDBRANCH   1  11
TORSDOF 6
BEGIN_RES ARG D 557
REMARK  4 active torsions:
REMARK  status: ('A' for Active; 'I' for Inactive)
REMARK    1  A    between atoms: CA   and  CB  
REMARK    2  A    between atoms: CB   and  CG  
REMARK    3  A    between atoms: CG   and  CD  
REMARK    4  A    between atoms: CD   and  NE  
REMARK       I    between atoms: NE   and  CZ  
REMARK       I    between atoms: CZ   and  NH1 
REMARK       I    between atoms: CZ   and  NH2 
ROOT
ATOM      1  CA  ARG D 557     -26.217   2.705 -17.014  1.00 35.49     0.159 C 
ENDROOT
BRANCH   1   2
ATOM      2  CB  ARG D 557     -26.789   1.319 -17.183  1.00 35.49     0.034 C 
BRANCH   2   3
ATOM      3  CG  ARG D 557     -25.945   0.199 -16.751  1.00 35.49     0.027 C 
BRANCH   3   4
ATOM      4  CD  ARG D 557     -26.719  -0.859 -16.062  1.00 35.49     0.116 C 
BRANCH   4   5
ATOM      5  NE  ARG D 557     -25.902  -1.630 -15.162  1.00 35.49    -0.212 N 
ATOM      6  CZ  ARG D 557     -26.010  -2.921 -14.943  1.00 35.49     0.666 C 
ATOM      7  NH1 ARG D 557     -26.921  -3.668 -15.538  1.00 35.49    -0.235 N 
ATOM      8  NH2 ARG D 557     -25.169  -3.460 -14.108  1.00 35.49    -0.235 N 
ATOM      9  HH  ARG D 557     -27.483  -3.335 -16.092  1.00 35.49     0.174 HD
ATOM     10  HH  ARG D 557     -26.942  -4.506 -15.358  1.00 35.49     0.174 HD
ATOM     11  HH  ARG D 557     -24.586  -2.955 -13.745  1.00 35.49     0.174 HD
ATOM     12  HH  ARG D 557     -25.205  -4.291 -13.944  1.00 35.49     0.174 HD
ATOM     13  HE  ARG D 557     -25.336  -1.215 -14.682  1.00 35.49     0.178 HD
ENDBRANCH   4   5
ENDBRANCH   3   4
ENDBRANCH   2   3
ENDBRANCH   1   2
END_RES ARG D 557
BEGIN_RES GLU D 570
REMARK  3 active torsions:
REMARK  status: ('A' for Active; 'I' for Inactive)
REMARK    5  A    between atoms: CA   and  CB  
REMARK    6  A    between atoms: CB   and  CG  
REMARK    7  A    between atoms: CG   and  CD  
ROOT
ATOM     14  CA  GLU D 570     -18.033  -6.348 -13.375  1.00 32.92     0.160 C 
ENDROOT
BRANCH  14  15
ATOM     15  CB  GLU D 570     -19.500  -6.345 -13.794  1.00 32.92     0.043 C 
BRANCH  15  16
ATOM     16  CG  GLU D 570     -20.446  -5.551 -12.968  1.00 32.92     0.100 C 
BRANCH  16  17
ATOM     17  CD  GLU D 570     -21.730  -5.223 -13.694  1.00 32.92     0.185 C 
ATOM     18  OE1 GLU D 570     -22.199  -6.051 -14.498  1.00 32.92    -0.647 OA
ATOM     19  OE2 GLU D 570     -22.264  -4.119 -13.468  1.00 32.92    -0.647 OA
ENDBRANCH  16  17
ENDBRANCH  15  16
ENDBRANCH  14  15
END_RES GLU D 570
ENDMDL
MODEL 4
REMARK VINA RESULT:      -5.2      2.089      2.592
REMARK  6 active torsions:
REMARK  status: ('A' for Active; 'I' for Inactive)
REMARK    1  A    between atoms: CB_1  and  CA_2 
REMARK    2  A    between atoms: CB_1  and  CG_7 
REMARK    3  A    between atoms: CA_2  and  C_3 
REMARK    4  A    between atoms: CA_2  and  N_6 
REMARK    5  A    between atoms: C_3  and  OXT_5 
REMARK    6  A    between atoms: CG_7  and  OD2_9 
ROOT
ATOM      1  CA  ASP A   1     -23.225  -3.622  -9.232  1.00  0.00     0.324 C 
ENDROOT
BRANCH   1   2
ATOM      2  CB  ASP A   1     -21.864  -4.313  -9.337  1.00  0.00     0.156 C 
BRANCH   2   3
ATOM      3  CG  ASP A   1     -21.322  -4.655  -7.976  1.00  0.00     0.141 C 
ATOM      4  OD1 ASP A   1     -21.223  -5.801  -7.553  1.00  0.00    -0.650 OA
BRANCH   3   5
ATOM      5  OD2 ASP A   1     -20.973  -3.576  -7.252  1.00  0.00    -0.776 OA
ATOM      6  HD2 ASP A   1     -20.074  -3.239  -7.432  1.00  0.00     0.167 HD
ENDBRANCH   3   5
ENDBRANCH   2   3
ENDBRANCH   1   2
BRANCH   1   7
ATOM      7  C   ASP A   1     -24.149  -3.961 -10.420  1.00  0.00     0.174 C 
ATOM      8  O   ASP A   1     -25.060  -3.229 -10.789  1.00  0.00    -0.648 OA
BRANCH   7   9
ATOM      9  OXT ASP A   1     -23.873  -5.121 -11.051  1.00  0.00    -0.775 OA
ATOM     10  HXT ASP A   1     -24.052  -5.128 -12.025  1.00  0.00     0.167 HD
ENDBRANCH   7   9
ENDBRANCH   1   7
BRANCH   1  11
ATOM     11  N   ASP A   1     -23.868  -4.095  -7.973  1.00  0.00     0.093 N 
ATOM     12  H1  ASP A   1     -23.174  -4.649  -7.456  1.00  0.00     0.314 HD
ATOM     13  H2  ASP A   1     -24.564  -4.802  -8.227  1.00  0.00     0.314 HD
ENDBRANCH   1  11
TORSDOF 6
BEGIN_RES ARG D 557
REMARK  4 active torsions:
REMARK  status: ('A' for Active; 'I' for Inactive)
REMARK    1  A    between atoms: CA   and  CB  
REMARK    2  A    between atoms: CB   and  CG  
REMARK    3  A    between atoms: CG   and  CD  
REMARK    4  A    between atoms: CD   and  NE  
REMARK       I    between atoms: NE   and  CZ  
REMARK       I    between atoms: CZ   and  NH1 
REMARK       I    between atoms: CZ   and  NH2 
ROOT
ATOM      1  CA  ARG D 557     -26.217   2.705 -17.014  1.00 35.49     0.159 C 
ENDROOT
BRANCH   1   2
ATOM      2  CB  ARG D 557     -26.789   1.319 -17.183  1.00 35.49     0.034 C 
BRANCH   2   3
ATOM      3  CG  ARG D 557     -25.836   0.203 -17.154  1.00 35.49     0.027 C 
BRANCH   3   4
ATOM      4  CD  ARG D 557     -24.757   0.408 -16.161  1.00 35.49     0.116 C 
BRANCH   4   5
ATOM      5  NE  ARG D 557     -24.911  -0.442 -15.010  1.00 35.49    -0.212 N 
ATOM      6  CZ  ARG D 557     -24.101  -1.416 -14.660  1.00 35.49     0.666 C 
ATOM      7  NH1 ARG D 557     -23.030  -1.734 -15.363  1.00 35.49    -0.235 N 
ATOM      8  NH2 ARG D 557     -24.384  -2.071 -13.572  1.00 35.49    -0.235 N 
ATOM      9  HH  ARG D 557     -22.823  -1.316 -16.082  1.00 35.49     0.174 HD
ATOM     10  HH  ARG D 557     -22.536  -2.377 -15.085  1.00 35.49     0.174 HD
ATOM     11  HH  ARG D 557     -25.078  -1.838 -13.134  1.00 35.49     0.174 HD
ATOM     12  HH  ARG D 557     -23.882  -2.703 -13.312  1.00 35.49     0.174 HD
ATOM     13  HE  ARG D 557     -25.614  -0.355 -14.540  1.00 35.49     0.178 HD
ENDBRANCH   4   5
ENDBRANCH   3   4
ENDBRANCH   2   3
ENDBRANCH   1   2
END_RES ARG D 557
BEGIN_RES GLU D 570
REMARK  3 active torsions:
REMARK  status: ('A' for Active; 'I' for Inactive)
REMARK    5  A    between atoms: CA   and  CB  
REMARK    6  A    between atoms: CB   and  CG  
REMARK    7  A    between atoms: CG   and  CD  
ROOT
ATOM     14  CA  GLU D 570     -18.033  -6.348 -13.375  1.00 32.92     0.160 C 
ENDROOT
BRANCH  14  15
ATOM     15  CB  GLU D 570     -19.500  -6.345 -13.794  1.00 32.92     0.043 C 
BRANCH  15  16
ATOM     16  CG  GLU D 570     -20.444  -5.542 -12.975  1.00 32.92     0.100 C 
BRANCH  16  17
ATOM     17  CD  GLU D 570     -21.721  -5.204 -13.709  1.00 32.92     0.185 C 
ATOM     18  OE1 GLU D 570     -22.309  -4.139 -13.441  1.00 32.92    -0.647 OA
ATOM     19  OE2 GLU D 570     -22.146  -6.021 -14.549  1.00 32.92    -0.647 OA
ENDBRANCH  16  17
ENDBRANCH  15  16
ENDBRANCH  14  15
END_RES GLU D 570
ENDMDL
MODEL 5
REMARK VINA RESULT:      -5.2      1.590      2.881
REMARK  6 active torsions:
REMARK  status: ('A' for Active; 'I' for Inactive)
REMARK    1  A    between atoms: CB_1  and  CA_2 
REMARK    2  A    between atoms: CB_1  and  CG_7 
REMARK    3  A    between atoms: CA_2  and  C_3 
REMARK    4  A    between atoms: CA_2  and  N_6 
REMARK    5  A    between atoms: C_3  and  OXT_5 
REMARK    6  A    between atoms: CG_7  and  OD2_9 
ROOT
ATOM      1  CA  ASP A   1     -22.435  -4.537 -11.323  1.00  0.00     0.324 C 
ENDROOT
BRANCH   1   2
ATOM      2  CB  ASP A   1     -23.608  -4.960 -10.437  1.00  0.00     0.156 C 
BRANCH   2   3
ATOM      3  CG  ASP A   1     -24.446  -3.775 -10.043  1.00  0.00     0.141 C 
ATOM      4  OD1 ASP A   1     -25.156  -3.154 -10.825  1.00  0.00    -0.650 OA
BRANCH   3   5
ATOM      5  OD2 ASP A   1     -24.326  -3.443  -8.744  1.00  0.00    -0.776 OA
ATOM      6  HD2 ASP A   1     -25.120  -3.028  -8.356  1.00  0.00     0.167 HD
ENDBRANCH   3   5
ENDBRANCH   2   3
ENDBRANCH   1   2
BRANCH   1   7
ATOM      7  C   ASP A   1     -22.714  -4.779 -12.821  1.00  0.00     0.174 C 
ATOM      8  O   ASP A   1     -23.559  -5.570 -13.225  1.00  0.00    -0.648 OA
BRANCH   7   9
ATOM      9  OXT ASP A   1     -21.973  -4.039 -13.672  1.00  0.00    -0.775 OA
ATOM     10  HXT ASP A   1     -22.020  -4.312 -14.623  1.00  0.00     0.167 HD
ENDBRANCH   7   9
ENDBRANCH   1   7
BRANCH   1  11
ATOM     11  N   ASP A   1     -22.216  -3.079 -11.104  1.00  0.00     0.093 N 
ATOM     12  H1  ASP A   1     -21.564  -2.975 -10.317  1.00  0.00     0.314 HD
ATOM     13  H2  ASP A   1     -23.082  -2.689 -10.721  1.00  0.00     0.314 HD
ENDBRANCH   1  11
TORSDOF 6
BEGIN_RES ARG D 557
REMARK  4 active torsions:
REMARK  status: ('A' for Active; 'I' for Inactive)
REMARK    1  A    between atoms: CA   and  CB  
REMARK    2  A    between atoms: CB   and  CG  
REMARK    3  A    between atoms: CG   and  CD  
REMARK    4  A    between atoms: CD   and  NE  
REMARK       I    between atoms: NE   and  CZ  
REMARK       I    between atoms: CZ   and  NH1 
REMARK       I    between atoms: CZ   and  NH2 
ROOT
ATOM      1  CA  ARG D 557     -26.217   2.705 -17.014  1.00 35.49     0.159 C 
ENDROOT
BRANCH   1   2
ATOM      2  CB  ARG D 557     -26.789   1.319 -17.183  1.00 35.49     0.034 C 
BRANCH   2   3
ATOM      3  CG  ARG D 557     -25.833   0.205 -17.184  1.00 35.49     0.027 C 
BRANCH   3   4
ATOM      4  CD  ARG D 557     -24.745   0.394 -16.197  1.00 35.49     0.116 C 
BRANCH   4   5
ATOM      5  NE  ARG D 557     -24.917  -0.435 -15.034  1.00 35.49    -0.212 N 
ATOM      6  CZ  ARG D 557     -24.122  -1.414 -14.664  1.00 35.49     0.666 C 
ATOM      7  NH1 ARG D 557     -23.050  -1.757 -15.355  1.00 35.49    -0.235 N 
ATOM      8  NH2 ARG D 557     -24.420  -2.047 -13.567  1.00 35.49    -0.235 N 
ATOM      9  HH  ARG D 557     -22.834  -1.352 -16.078  1.00 35.49     0.174 HD
ATOM     10  HH  ARG D 557     -22.567  -2.401 -15.063  1.00 35.49     0.174 HD
ATOM     11  HH  ARG D 557     -25.114  -1.799 -13.138  1.00 35.49     0.174 HD
ATOM     12  HH  ARG D 557     -23.929  -2.682 -13.294  1.00 35.49     0.174 HD
ATOM     13  HE  ARG D 557     -25.622  -0.331 -14.570  1.00 35.49     0.178 HD
ENDBRANCH   4   5
ENDBRANCH   3   4
ENDBRANCH   2   3
ENDBRANCH   1   2
END_RES ARG D 557
BEGIN_RES GLU D 570
REMARK  3 active torsions:
REMARK  status: ('A' for Active; 'I' for Inactive)
REMARK    5  A    between atoms: CA   and  CB  
REMARK    6  A    between atoms: CB   and  CG  
REMARK    7  A    between atoms: CG   and  CD  
ROOT
ATOM     14  CA  GLU D 570     -18.033  -6.348 -13.375  1.00 32.92     0.160 C 
ENDROOT
BRANCH  14  15
ATOM     15  CB  GLU D 570     -19.500  -6.345 -13.794  1.00 32.92     0.043 C 
BRANCH  15  16
ATOM     16  CG  GLU D 570     -20.081  -7.630 -14.262  1.00 32.92     0.100 C 
BRANCH  16  17
ATOM     17  CD  GLU D 570     -20.991  -7.465 -15.457  1.00 32.92     0.185 C 
ATOM     18  OE1 GLU D 570     -21.444  -6.335 -15.721  1.00 32.92    -0.647 OA
ATOM     19  OE2 GLU D 570     -21.266  -8.480 -16.127  1.00 32.92    -0.647 OA
ENDBRANCH  16  17
ENDBRANCH  15  16
ENDBRANCH  14  15
END_RES GLU D 570
ENDMDL
MODEL 6
REMARK VINA RESULT:      -5.2      3.613      5.311
REMARK  6 active torsions:
REMARK  status: ('A' for Active; 'I' for Inactive)
REMARK    1  A    between atoms: CB_1  and  CA_2 
REMARK    2  A    between atoms: CB_1  and  CG_7 
REMARK    3  A    between atoms: CA_2  and  C_3 
REMARK    4  A    between atoms: CA_2  and  N_6 
REMARK    5  A    between atoms: C_3  and  OXT_5 
REMARK    6  A    between atoms: CG_7  and  OD2_9 
ROOT
ATOM      1  CA  ASP A   1     -27.257  -6.074 -16.809  1.00  0.00     0.324 C 
ENDROOT
BRANCH   1   2
ATOM      2  CB  ASP A   1     -27.800  -4.767 -16.232  1.00  0.00     0.156 C 
BRANCH   2   3
ATOM      3  CG  ASP A   1     -26.698  -3.937 -15.631  1.00  0.00     0.141 C 
ATOM      4  OD1 ASP A   1     -25.634  -4.402 -15.239  1.00  0.00    -0.650 OA
BRANCH   3   5
ATOM      5  OD2 ASP A   1     -27.000  -2.629 -15.543  1.00  0.00    -0.776 OA
ATOM      6  HD2 ASP A   1     -27.906  -2.442 -15.231  1.00  0.00     0.167 HD
ENDBRANCH   3   5
ENDBRANCH   2   3
ENDBRANCH   1   2
BRANCH   1   7
ATOM      7  C   ASP A   1     -27.016  -7.141 -15.721  1.00  0.00     0.174 C 
ATOM      8  O   ASP A   1     -27.915  -7.602 -15.026  1.00  0.00    -0.648 OA
BRANCH   7   9
ATOM      9  OXT ASP A   1     -25.739  -7.556 -15.594  1.00  0.00    -0.775 OA
ATOM     10  HXT ASP A   1     -25.236  -7.158 -14.839  1.00  0.00     0.167 HD
ENDBRANCH   7   9
ENDBRANCH   1   7
BRANCH   1  11
ATOM     11  N   ASP A   1     -28.270  -6.590 -17.772  1.00  0.00     0.093 N 
ATOM     12  H1  ASP A   1     -28.759  -7.373 -17.323  1.00  0.00     0.314 HD
ATOM     13  H2  ASP A   1     -27.766  -7.056 -18.533  1.00  0.00     0.314 HD
ENDBRANCH   1  11
TORSDOF 6
BEGIN_RES ARG D 557
REMARK  4 active torsions:
REMARK  status: ('A' for Active; 'I' for Inactive)
REMARK    1  A    between atoms: CA   and  CB  
REMARK    2  A    between atoms: CB   and  CG  
REMARK    3  A    between atoms: CG   and  CD  
REMARK    4  A    between atoms: CD   and  NE  
REMARK       I    between atoms: NE   and  CZ  
REMARK       I    between atoms: CZ   and  NH1 
REMARK       I    between atoms: CZ   and  NH2 
ROOT
ATOM      1  CA  ARG D 557     -26.217   2.705 -17.014  1.00 35.49     0.159 C 
ENDROOT
BRANCH   1   2
ATOM      2  CB  ARG D 557     -26.789   1.319 -17.183  1.00 35.49     0.034 C 
BRANCH   2   3
ATOM      3  CG  ARG D 557     -25.833   0.205 -17.187  1.00 35.49     0.027 C 
BRANCH   3   4
ATOM      4  CD  ARG D 557     -24.740   0.397 -16.206  1.00 35.49     0.116 C 
BRANCH   4   5
ATOM      5  NE  ARG D 557     -24.895  -0.446 -15.050  1.00 35.49    -0.212 N 
ATOM      6  CZ  ARG D 557     -24.074  -1.404 -14.682  1.00 35.49     0.666 C 
ATOM      7  NH1 ARG D 557     -22.990  -1.713 -15.370  1.00 35.49    -0.235 N 
ATOM      8  NH2 ARG D 557     -24.360  -2.054 -13.592  1.00 35.49    -0.235 N 
ATOM      9  HH  ARG D 557     -22.782  -1.297 -16.090  1.00 35.49     0.174 HD
ATOM     10  HH  ARG D 557     -22.491  -2.346 -15.081  1.00 35.49     0.174 HD
ATOM     11  HH  ARG D 557     -25.063  -1.828 -13.164  1.00 35.49     0.174 HD
ATOM     12  HH  ARG D 557     -23.853  -2.677 -13.321  1.00 35.49     0.174 HD
ATOM     13  HE  ARG D 557     -25.605  -0.364 -14.588  1.00 35.49     0.178 HD
ENDBRANCH   4   5
ENDBRANCH   3   4
ENDBRANCH   2   3
ENDBRANCH   1   2
END_RES ARG D 557
BEGIN_RES GLU D 570
REMARK  3 active torsions:
REMARK  status: ('A' for Active; 'I' for Inactive)
REMARK    5  A    between atoms: CA   and  CB  
REMARK    6  A    between atoms: CB   and  CG  
REMARK    7  A    between atoms: CG   and  CD  
ROOT
ATOM     14  CA  GLU D 570     -18.033  -6.348 -13.375  1.00 32.92     0.160 C 
ENDROOT
BRANCH  14  15
ATOM     15  CB  GLU D 570     -19.500  -6.345 -13.794  1.00 32.92     0.043 C 
BRANCH  15  16
ATOM     16  CG  GLU D 570     -20.439  -5.519 -12.992  1.00 32.92     0.100 C 
BRANCH  16  17
ATOM     17  CD  GLU D 570     -21.745  -5.253 -13.704  1.00 32.92     0.185 C 
ATOM     18  OE1 GLU D 570     -22.223  -6.135 -14.443  1.00 32.92    -0.647 OA
ATOM     19  OE2 GLU D 570     -22.288  -4.143 -13.534  1.00 32.92    -0.647 OA
ENDBRANCH  16  17
ENDBRANCH  15  16
ENDBRANCH  14  15
END_RES GLU D 570
ENDMDL
MODEL 7
REMARK VINA RESULT:      -5.2      4.196      5.981
REMARK  6 active torsions:
REMARK  status: ('A' for Active; 'I' for Inactive)
REMARK    1  A    between atoms: CB_1  and  CA_2 
REMARK    2  A    between atoms: CB_1  and  CG_7 
REMARK    3  A    between atoms: CA_2  and  C_3 
REMARK    4  A    between atoms: CA_2  and  N_6 
REMARK    5  A    between atoms: C_3  and  OXT_5 
REMARK    6  A    between atoms: CG_7  and  OD2_9 
ROOT
ATOM      1  CA  ASP A   1     -26.831  -6.126 -16.312  1.00  0.00     0.324 C 
ENDROOT
BRANCH   1   2
ATOM      2  CB  ASP A   1     -27.955  -6.988 -15.737  1.00  0.00     0.156 C 
BRANCH   2   3
ATOM      3  CG  ASP A   1     -29.088  -7.129 -16.717  1.00  0.00     0.141 C 
ATOM      4  OD1 ASP A   1     -29.836  -6.210 -17.028  1.00  0.00    -0.650 OA
BRANCH   3   5
ATOM      5  OD2 ASP A   1     -29.219  -8.375 -17.208  1.00  0.00    -0.776 OA
ATOM      6  HD2 ASP A   1     -28.425  -8.718 -17.662  1.00  0.00     0.167 HD
ENDBRANCH   3   5
ENDBRANCH   2   3
ENDBRANCH   1   2
BRANCH   1   7
ATOM      7  C   ASP A   1     -25.456  -6.473 -15.704  1.00  0.00     0.174 C 
ATOM      8  O   ASP A   1     -25.076  -7.625 -15.523  1.00  0.00    -0.648 OA
BRANCH   7   9
ATOM      9  OXT ASP A   1     -24.677  -5.415 -15.399  1.00  0.00    -0.775 OA
ATOM     10  HXT ASP A   1     -23.926  -5.247 -16.023  1.00  0.00     0.167 HD
ENDBRANCH   7   9
ENDBRANCH   1   7
BRANCH   1  11
ATOM     11  N   ASP A   1     -26.785  -6.375 -17.780  1.00  0.00     0.093 N 
ATOM     12  H1  ASP A   1     -25.919  -6.890 -17.983  1.00  0.00     0.314 HD
ATOM     13  H2  ASP A   1     -26.616  -5.477 -18.243  1.00  0.00     0.314 HD
ENDBRANCH   1  11
TORSDOF 6
BEGIN_RES ARG D 557
REMARK  4 active torsions:
REMARK  status: ('A' for Active; 'I' for Inactive)
REMARK    1  A    between atoms: CA   and  CB  
REMARK    2  A    between atoms: CB   and  CG  
REMARK    3  A    between atoms: CG   and  CD  
REMARK    4  A    between atoms: CD   and  NE  
REMARK       I    between atoms: NE   and  CZ  
REMARK       I    between atoms: CZ   and  NH1 
REMARK       I    between atoms: CZ   and  NH2 
ROOT
ATOM      1  CA  ARG D 557     -26.217   2.705 -17.014  1.00 35.49     0.159 C 
ENDROOT
BRANCH   1   2
ATOM      2  CB  ARG D 557     -26.789   1.319 -17.183  1.00 35.49     0.034 C 
BRANCH   2   3
ATOM      3  CG  ARG D 557     -25.864   0.195 -16.994  1.00 35.49     0.027 C 
BRANCH   3   4
ATOM      4  CD  ARG D 557     -26.262  -0.680 -15.867  1.00 35.49     0.116 C 
BRANCH   4   5
ATOM      5  NE  ARG D 557     -25.166  -0.945 -14.973  1.00 35.49    -0.212 N 
ATOM      6  CZ  ARG D 557     -25.004  -2.037 -14.259  1.00 35.49     0.666 C 
ATOM      7  NH1 ARG D 557     -25.870  -3.033 -14.281  1.00 35.49    -0.235 N 
ATOM      8  NH2 ARG D 557     -23.938  -2.116 -13.517  1.00 35.49    -0.235 N 
ATOM      9  HH  ARG D 557     -26.577  -3.003 -14.764  1.00 35.49     0.174 HD
ATOM     10  HH  ARG D 557     -25.710  -3.722 -13.796  1.00 35.49     0.174 HD
ATOM     11  HH  ARG D 557     -23.393  -1.460 -13.529  1.00 35.49     0.174 HD
ATOM     12  HH  ARG D 557     -23.797  -2.806 -13.046  1.00 35.49     0.174 HD
ATOM     13  HE  ARG D 557     -24.599  -0.325 -14.842  1.00 35.49     0.178 HD
ENDBRANCH   4   5
ENDBRANCH   3   4
ENDBRANCH   2   3
ENDBRANCH   1   2
END_RES ARG D 557
BEGIN_RES GLU D 570
REMARK  3 active torsions:
REMARK  status: ('A' for Active; 'I' for Inactive)
REMARK    5  A    between atoms: CA   and  CB  
REMARK    6  A    between atoms: CB   and  CG  
REMARK    7  A    between atoms: CG   and  CD  
ROOT
ATOM     14  CA  GLU D 570     -18.033  -6.348 -13.375  1.00 32.92     0.160 C 
ENDROOT
BRANCH  14  15
ATOM     15  CB  GLU D 570     -19.500  -6.345 -13.794  1.00 32.92     0.043 C 
BRANCH  15  16
ATOM     16  CG  GLU D 570     -20.445  -5.544 -12.974  1.00 32.92     0.100 C 
BRANCH  16  17
ATOM     17  CD  GLU D 570     -21.703  -5.169 -13.721  1.00 32.92     0.185 C 
ATOM     18  OE1 GLU D 570     -22.738  -4.916 -13.075  1.00 32.92    -0.647 OA
ATOM     19  OE2 GLU D 570     -21.658  -5.146 -14.967  1.00 32.92    -0.647 OA
ENDBRANCH  16  17
ENDBRANCH  15  16
ENDBRANCH  14  15
END_RES GLU D 570
ENDMDL
MODEL 8
REMARK VINA RESULT:      -5.1      4.650      6.467
REMARK  6 active torsions:
REMARK  status: ('A' for Active; 'I' for Inactive)
REMARK    1  A    between atoms: CB_1  and  CA_2 
REMARK    2  A    between atoms: CB_1  and  CG_7 
REMARK    3  A    between atoms: CA_2  and  C_3 
REMARK    4  A    between atoms: CA_2  and  N_6 
REMARK    5  A    between atoms: C_3  and  OXT_5 
REMARK    6  A    between atoms: CG_7  and  OD2_9 
ROOT
ATOM      1  CA  ASP A   1     -26.923  -5.876 -16.513  1.00  0.00     0.324 C 
ENDROOT
BRANCH   1   2
ATOM      2  CB  ASP A   1     -28.236  -6.420 -15.948  1.00  0.00     0.156 C 
BRANCH   2   3
ATOM      3  CG  ASP A   1     -29.136  -6.918 -17.045  1.00  0.00     0.141 C 
ATOM      4  OD1 ASP A   1     -29.787  -6.182 -17.777  1.00  0.00    -0.650 OA
BRANCH   3   5
ATOM      5  OD2 ASP A   1     -29.178  -8.260 -17.135  1.00  0.00    -0.776 OA
ATOM      6  HD2 ASP A   1     -28.403  -8.662 -17.573  1.00  0.00     0.167 HD
ENDBRANCH   3   5
ENDBRANCH   2   3
ENDBRANCH   1   2
BRANCH   1   7
ATOM      7  C   ASP A   1     -25.699  -6.320 -15.685  1.00  0.00     0.174 C 
ATOM      8  O   ASP A   1     -25.464  -7.492 -15.414  1.00  0.00    -0.648 OA
BRANCH   7   9
ATOM      9  OXT ASP A   1     -24.880  -5.324 -15.289  1.00  0.00    -0.775 OA
ATOM     10  HXT ASP A   1     -25.278  -4.673 -14.658  1.00  0.00     0.167 HD
ENDBRANCH   7   9
ENDBRANCH   1   7
BRANCH   1  11
ATOM     11  N   ASP A   1     -26.783  -6.404 -17.899  1.00  0.00     0.093 N 
ATOM     12  H1  ASP A   1     -27.572  -6.047 -18.452  1.00  0.00     0.314 HD
ATOM     13  H2  ASP A   1     -26.977  -7.410 -17.869  1.00  0.00     0.314 HD
ENDBRANCH   1  11
TORSDOF 6
BEGIN_RES ARG D 557
REMARK  4 active torsions:
REMARK  status: ('A' for Active; 'I' for Inactive)
REMARK    1  A    between atoms: CA   and  CB  
REMARK    2  A    between atoms: CB   and  CG  
REMARK    3  A    between atoms: CG   and  CD  
REMARK    4  A    between atoms: CD   and  NE  
REMARK       I    between atoms: NE   and  CZ  
REMARK       I    between atoms: CZ   and  NH1 
REMARK       I    between atoms: CZ   and  NH2 
ROOT
ATOM      1  CA  ARG D 557     -26.217   2.705 -17.014  1.00 35.49     0.159 C 
ENDROOT
BRANCH   1   2
ATOM      2  CB  ARG D 557     -26.789   1.319 -17.183  1.00 35.49     0.034 C 
BRANCH   2   3
ATOM      3  CG  ARG D 557     -28.236   1.225 -17.413  1.00 35.49     0.027 C 
BRANCH   3   4
ATOM      4  CD  ARG D 557     -28.895   0.280 -16.483  1.00 35.49     0.116 C 
BRANCH   4   5
ATOM      5  NE  ARG D 557     -29.273  -0.947 -17.134  1.00 35.49    -0.212 N 
ATOM      6  CZ  ARG D 557     -28.647  -2.097 -17.028  1.00 35.49     0.666 C 
ATOM      7  NH1 ARG D 557     -27.557  -2.247 -16.297  1.00 35.49    -0.235 N 
ATOM      8  NH2 ARG D 557     -29.144  -3.113 -17.672  1.00 35.49    -0.235 N 
ATOM      9  HH  ARG D 557     -27.214  -1.593 -15.863  1.00 35.49     0.174 HD
ATOM     10  HH  ARG D 557     -27.193  -3.022 -16.264  1.00 35.49     0.174 HD
ATOM     11  HH  ARG D 557     -29.852  -2.988 -18.130  1.00 35.49     0.174 HD
ATOM     12  HH  ARG D 557     -28.769  -3.872 -17.625  1.00 35.49     0.174 HD
ATOM     13  HE  ARG D 557     -29.923  -0.924 -17.682  1.00 35.49     0.178 HD
ENDBRANCH   4   5
ENDBRANCH   3   4
ENDBRANCH   2   3
ENDBRANCH   1   2
END_RES ARG D 557
BEGIN_RES GLU D 570
REMARK  3 active torsions:
REMARK  status: ('A' for Active; 'I' for Inactive)
REMARK    5  A    between atoms: CA   and  CB  
REMARK    6  A    between atoms: CB   and  CG  
REMARK    7  A    between atoms: CG   and  CD  
ROOT
ATOM     14  CA  GLU D 570     -18.033  -6.348 -13.375  1.00 32.92     0.160 C 
ENDROOT
BRANCH  14  15
ATOM     15  CB  GLU D 570     -19.500  -6.345 -13.794  1.00 32.92     0.043 C 
BRANCH  15  16
ATOM     16  CG  GLU D 570     -20.433  -5.492 -13.014  1.00 32.92     0.100 C 
BRANCH  16  17
ATOM     17  CD  GLU D 570     -21.764  -5.292 -13.701  1.00 32.92     0.185 C 
ATOM     18  OE1 GLU D 570     -22.242  -6.224 -14.376  1.00 32.92    -0.647 OA
ATOM     19  OE2 GLU D 570     -22.326  -4.187 -13.576  1.00 32.92    -0.647 OA
ENDBRANCH  16  17
ENDBRANCH  15  16
ENDBRANCH  14  15
END_RES GLU D 570
ENDMDL
MODEL 9
REMARK VINA RESULT:      -5.1      5.144      7.151
REMARK  6 active torsions:
REMARK  status: ('A' for Active; 'I' for Inactive)
REMARK    1  A    between atoms: CB_1  and  CA_2 
REMARK    2  A    between atoms: CB_1  and  CG_7 
REMARK    3  A    between atoms: CA_2  and  C_3 
REMARK    4  A    between atoms: CA_2  and  N_6 
REMARK    5  A    between atoms: C_3  and  OXT_5 
REMARK    6  A    between atoms: CG_7  and  OD2_9 
ROOT
ATOM      1  CA  ASP A   1     -30.938  -4.879 -16.845  1.00  0.00     0.324 C 
ENDROOT
BRANCH   1   2
ATOM      2  CB  ASP A   1     -29.893  -4.437 -17.869  1.00  0.00     0.156 C 
BRANCH   2   3
ATOM      3  CG  ASP A   1     -28.979  -3.388 -17.297  1.00  0.00     0.141 C 
ATOM      4  OD1 ASP A   1     -27.944  -3.645 -16.694  1.00  0.00    -0.650 OA
BRANCH   3   5
ATOM      5  OD2 ASP A   1     -29.420  -2.132 -17.490  1.00  0.00    -0.776 OA
ATOM      6  HD2 ASP A   1     -29.418  -1.840 -18.422  1.00  0.00     0.167 HD
ENDBRANCH   3   5
ENDBRANCH   2   3
ENDBRANCH   1   2
BRANCH   1   7
ATOM      7  C   ASP A   1     -32.290  -4.161 -17.038  1.00  0.00     0.174 C 
ATOM      8  O   ASP A   1     -32.404  -3.101 -17.643  1.00  0.00    -0.648 OA
BRANCH   7   9
ATOM      9  OXT ASP A   1     -33.359  -4.793 -16.510  1.00  0.00    -0.775 OA
ATOM     10  HXT ASP A   1     -34.231  -4.568 -16.922  1.00  0.00     0.167 HD
ENDBRANCH   7   9
ENDBRANCH   1   7
BRANCH   1  11
ATOM     11  N   ASP A   1     -31.143  -6.345 -17.021  1.00  0.00     0.093 N 
ATOM     12  H1  ASP A   1     -32.085  -6.485 -17.406  1.00  0.00     0.314 HD
ATOM     13  H2  ASP A   1     -31.225  -6.761 -16.089  1.00  0.00     0.314 HD
ENDBRANCH   1  11
TORSDOF 6
BEGIN_RES ARG D 557
REMARK  4 active torsions:
REMARK  status: ('A' for Active; 'I' for Inactive)
REMARK    1  A    between atoms: CA   and  CB  
REMARK    2  A    between atoms: CB   and  CG  
REMARK    3  A    between atoms: CG   and  CD  
REMARK    4  A    between atoms: CD   and  NE  
REMARK       I    between atoms: NE   and  CZ  
REMARK       I    between atoms: CZ   and  NH1 
REMARK       I    between atoms: CZ   and  NH2 
ROOT
ATOM      1  CA  ARG D 557     -26.217   2.705 -17.014  1.00 35.49     0.159 C 
ENDROOT
BRANCH   1   2
ATOM      2  CB  ARG D 557     -26.789   1.319 -17.183  1.00 35.49     0.034 C 
BRANCH   2   3
ATOM      3  CG  ARG D 557     -25.867   0.195 -16.981  1.00 35.49     0.027 C 
BRANCH   3   4
ATOM      4  CD  ARG D 557     -26.312  -0.713 -15.899  1.00 35.49     0.116 C 
BRANCH   4   5
ATOM      5  NE  ARG D 557     -25.276  -0.949 -14.929  1.00 35.49    -0.212 N 
ATOM      6  CZ  ARG D 557     -25.007  -2.102 -14.358  1.00 35.49     0.666 C 
ATOM      7  NH1 ARG D 557     -25.695  -3.199 -14.616  1.00 35.49    -0.235 N 
ATOM      8  NH2 ARG D 557     -24.015  -2.138 -13.516  1.00 35.49    -0.235 N 
ATOM      9  HH  ARG D 557     -26.350  -3.199 -15.169  1.00 35.49     0.174 HD
ATOM     10  HH  ARG D 557     -25.472  -3.923 -14.216  1.00 35.49     0.174 HD
ATOM     11  HH  ARG D 557     -23.584  -1.416 -13.374  1.00 35.49     0.174 HD
ATOM     12  HH  ARG D 557     -23.809  -2.865 -13.131  1.00 35.49     0.174 HD
ATOM     13  HE  ARG D 557     -24.830  -0.281 -14.650  1.00 35.49     0.178 HD
ENDBRANCH   4   5
ENDBRANCH   3   4
ENDBRANCH   2   3
ENDBRANCH   1   2
END_RES ARG D 557
BEGIN_RES GLU D 570
REMARK  3 active torsions:
REMARK  status: ('A' for Active; 'I' for Inactive)
REMARK    5  A    between atoms: CA   and  CB  
REMARK    6  A    between atoms: CB   and  CG  
REMARK    7  A    between atoms: CG   and  CD  
ROOT
ATOM     14  CA  GLU D 570     -18.033  -6.348 -13.375  1.00 32.92     0.160 C 
ENDROOT
BRANCH  14  15
ATOM     15  CB  GLU D 570     -19.500  -6.345 -13.794  1.00 32.92     0.043 C 
BRANCH  15  16
ATOM     16  CG  GLU D 570     -20.450  -5.568 -12.956  1.00 32.92     0.100 C 
BRANCH  16  17
ATOM     17  CD  GLU D 570     -21.681  -5.129 -13.714  1.00 32.92     0.185 C 
ATOM     18  OE1 GLU D 570     -21.627  -5.037 -14.955  1.00 32.92    -0.647 OA
ATOM     19  OE2 GLU D 570     -22.706  -4.858 -13.057  1.00 32.92    -0.647 OA
ENDBRANCH  16  17
ENDBRANCH  15  16
ENDBRANCH  14  15
END_RES GLU D 570
ENDMDL
