MODEL 1
REMARK VINA RESULT:      -1.1      0.000      0.000
REMARK  23 active torsions:
REMARK  status: ('A' for Active; 'I' for Inactive)
REMARK    1  A    between atoms: C_2  and  C_3 
REMARK    2  A    between atoms: C_3  and  C_4 
REMARK    3  A    between atoms: C_4  and  C_5 
REMARK    4  A    between atoms: C_5  and  C_6 
REMARK    5  A    between atoms: C_6  and  C_7 
REMARK    6  A    between atoms: C_7  and  C_8 
REMARK    7  A    between atoms: C_8  and  C_9 
REMARK    8  A    between atoms: C_10  and  C_11 
REMARK    9  A    between atoms: C_11  and  C_12 
REMARK   10  A    between atoms: C_12  and  C_13 
REMARK   11  A    between atoms: C_13  and  C_14 
REMARK   12  A    between atoms: C_14  and  C_15 
REMARK   13  A    between atoms: C_15  and  C_16 
REMARK   14  A    between atoms: C_16  and  C_17 
REMARK   15  A    between atoms: C_17  and  C_18 
REMARK       I    between atoms: C_18  and  N_20 
REMARK   16  A    between atoms: N_20  and  C_21 
REMARK   17  A    between atoms: C_21  and  C_22 
REMARK   18  A    between atoms: C_22  and  O_23 
REMARK   19  A    between atoms: O_23  and  C_24 
REMARK   20  A    between atoms: C_24  and  C_26 
REMARK   21  A    between atoms: C_26  and  C_27 
REMARK   22  A    between atoms: C_26  and  S_31 
REMARK   23  A    between atoms: C_27  and  C_28 
ROOT
HETATM    1 NA   UNL     2     -25.214  -5.268  -4.970  1.00  0.00     0.000 Na
ENDROOT
TORSDOF 23
BEGIN_RES ARG D 557
REMARK  4 active torsions:
REMARK  status: ('A' for Active; 'I' for Inactive)
REMARK    1  A    between atoms: CA   and  CB  
REMARK    2  A    between atoms: CB   and  CG  
REMARK    3  A    between atoms: CG   and  CD  
REMARK    4  A    between atoms: CD   and  NE  
REMARK       I    between atoms: NE   and  CZ  
REMARK       I    between atoms: CZ   and  NH1 
REMARK       I    between atoms: CZ   and  NH2 
ROOT
ATOM      1  CA  ARG D 557     -26.217   2.705 -17.014  1.00 35.49     0.159 C 
ENDROOT
BRANCH   1   2
ATOM      2  CB  ARG D 557     -26.789   1.319 -17.183  1.00 35.49     0.034 C 
BRANCH   2   3
ATOM      3  CG  ARG D 557     -25.835   0.203 -17.159  1.00 35.49     0.027 C 
BRANCH   3   4
ATOM      4  CD  ARG D 557     -24.752   0.408 -16.171  1.00 35.49     0.116 C 
BRANCH   4   5
ATOM      5  NE  ARG D 557     -24.903  -0.438 -15.017  1.00 35.49    -0.212 N 
ATOM      6  CZ  ARG D 557     -24.093  -1.413 -14.668  1.00 35.49     0.666 C 
ATOM      7  NH1 ARG D 557     -23.026  -1.736 -15.375  1.00 35.49    -0.235 N 
ATOM      8  NH2 ARG D 557     -24.373  -2.063 -13.576  1.00 35.49    -0.235 N 
ATOM      9  HH  ARG D 557     -22.822  -1.320 -16.095  1.00 35.49     0.174 HD
ATOM     10  HH  ARG D 557     -22.533  -2.379 -15.097  1.00 35.49     0.174 HD
ATOM     11  HH  ARG D 557     -25.065  -1.828 -13.136  1.00 35.49     0.174 HD
ATOM     12  HH  ARG D 557     -23.872  -2.696 -13.316  1.00 35.49     0.174 HD
ATOM     13  HE  ARG D 557     -25.604  -0.347 -14.544  1.00 35.49     0.178 HD
ENDBRANCH   4   5
ENDBRANCH   3   4
ENDBRANCH   2   3
ENDBRANCH   1   2
END_RES ARG D 557
BEGIN_RES GLU D 570
REMARK  3 active torsions:
REMARK  status: ('A' for Active; 'I' for Inactive)
REMARK    5  A    between atoms: CA   and  CB  
REMARK    6  A    between atoms: CB   and  CG  
REMARK    7  A    between atoms: CG   and  CD  
ROOT
ATOM     14  CA  GLU D 570     -18.033  -6.348 -13.375  1.00 32.92     0.160 C 
ENDROOT
BRANCH  14  15
ATOM     15  CB  GLU D 570     -19.500  -6.345 -13.794  1.00 32.92     0.043 C 
BRANCH  15  16
ATOM     16  CG  GLU D 570     -20.445  -5.544 -12.973  1.00 32.92     0.100 C 
BRANCH  16  17
ATOM     17  CD  GLU D 570     -21.729  -5.221 -13.700  1.00 32.92     0.185 C 
ATOM     18  OE1 GLU D 570     -22.301  -4.139 -13.466  1.00 32.92    -0.647 OA
ATOM     19  OE2 GLU D 570     -22.177  -6.066 -14.499  1.00 32.92    -0.647 OA
ENDBRANCH  16  17
ENDBRANCH  15  16
ENDBRANCH  14  15
END_RES GLU D 570
ENDMDL
MODEL 2
REMARK VINA RESULT:      -1.1      3.837      3.983
REMARK  23 active torsions:
REMARK  status: ('A' for Active; 'I' for Inactive)
REMARK    1  A    between atoms: C_2  and  C_3 
REMARK    2  A    between atoms: C_3  and  C_4 
REMARK    3  A    between atoms: C_4  and  C_5 
REMARK    4  A    between atoms: C_5  and  C_6 
REMARK    5  A    between atoms: C_6  and  C_7 
REMARK    6  A    between atoms: C_7  and  C_8 
REMARK    7  A    between atoms: C_8  and  C_9 
REMARK    8  A    between atoms: C_10  and  C_11 
REMARK    9  A    between atoms: C_11  and  C_12 
REMARK   10  A    between atoms: C_12  and  C_13 
REMARK   11  A    between atoms: C_13  and  C_14 
REMARK   12  A    between atoms: C_14  and  C_15 
REMARK   13  A    between atoms: C_15  and  C_16 
REMARK   14  A    between atoms: C_16  and  C_17 
REMARK   15  A    between atoms: C_17  and  C_18 
REMARK       I    between atoms: C_18  and  N_20 
REMARK   16  A    between atoms: N_20  and  C_21 
REMARK   17  A    between atoms: C_21  and  C_22 
REMARK   18  A    between atoms: C_22  and  O_23 
REMARK   19  A    between atoms: O_23  and  C_24 
REMARK   20  A    between atoms: C_24  and  C_26 
REMARK   21  A    between atoms: C_26  and  C_27 
REMARK   22  A    between atoms: C_26  and  S_31 
REMARK   23  A    between atoms: C_27  and  C_28 
ROOT
HETATM    1 NA   UNL     2     -32.384  -8.531   4.524  1.00  0.00     0.000 Na
ENDROOT
TORSDOF 23
BEGIN_RES ARG D 557
REMARK  4 active torsions:
REMARK  status: ('A' for Active; 'I' for Inactive)
REMARK    1  A    between atoms: CA   and  CB  
REMARK    2  A    between atoms: CB   and  CG  
REMARK    3  A    between atoms: CG   and  CD  
REMARK    4  A    between atoms: CD   and  NE  
REMARK       I    between atoms: NE   and  CZ  
REMARK       I    between atoms: CZ   and  NH1 
REMARK       I    between atoms: CZ   and  NH2 
ROOT
ATOM      1  CA  ARG D 557     -26.217   2.705 -17.014  1.00 35.49     0.159 C 
ENDROOT
BRANCH   1   2
ATOM      2  CB  ARG D 557     -26.789   1.319 -17.183  1.00 35.49     0.034 C 
BRANCH   2   3
ATOM      3  CG  ARG D 557     -25.862   0.195 -17.004  1.00 35.49     0.027 C 
BRANCH   3   4
ATOM      4  CD  ARG D 557     -26.267  -0.699 -15.895  1.00 35.49     0.116 C 
BRANCH   4   5
ATOM      5  NE  ARG D 557     -25.210  -0.887 -14.937  1.00 35.49    -0.212 N 
ATOM      6  CZ  ARG D 557     -24.904  -2.019 -14.343  1.00 35.49     0.666 C 
ATOM      7  NH1 ARG D 557     -25.570  -3.138 -14.563  1.00 35.49    -0.235 N 
ATOM      8  NH2 ARG D 557     -23.899  -2.011 -13.516  1.00 35.49    -0.235 N 
ATOM      9  HH  ARG D 557     -26.233  -3.167 -15.104  1.00 35.49     0.174 HD
ATOM     10  HH  ARG D 557     -25.323  -3.846 -14.148  1.00 35.49     0.174 HD
ATOM     11  HH  ARG D 557     -23.483  -1.275 -13.399  1.00 35.49     0.174 HD
ATOM     12  HH  ARG D 557     -23.670  -2.723 -13.116  1.00 35.49     0.174 HD
ATOM     13  HE  ARG D 557     -24.776  -0.202 -14.681  1.00 35.49     0.178 HD
ENDBRANCH   4   5
ENDBRANCH   3   4
ENDBRANCH   2   3
ENDBRANCH   1   2
END_RES ARG D 557
BEGIN_RES GLU D 570
REMARK  3 active torsions:
REMARK  status: ('A' for Active; 'I' for Inactive)
REMARK    5  A    between atoms: CA   and  CB  
REMARK    6  A    between atoms: CB   and  CG  
REMARK    7  A    between atoms: CG   and  CD  
ROOT
ATOM     14  CA  GLU D 570     -18.033  -6.348 -13.375  1.00 32.92     0.160 C 
ENDROOT
BRANCH  14  15
ATOM     15  CB  GLU D 570     -19.500  -6.345 -13.794  1.00 32.92     0.043 C 
BRANCH  15  16
ATOM     16  CG  GLU D 570     -20.449  -5.563 -12.960  1.00 32.92     0.100 C 
BRANCH  16  17
ATOM     17  CD  GLU D 570     -21.693  -5.150 -13.711  1.00 32.92     0.185 C 
ATOM     18  OE1 GLU D 570     -21.701  -5.225 -14.955  1.00 32.92    -0.647 OA
ATOM     19  OE2 GLU D 570     -22.663  -4.732 -13.050  1.00 32.92    -0.647 OA
ENDBRANCH  16  17
ENDBRANCH  15  16
ENDBRANCH  14  15
END_RES GLU D 570
ENDMDL
MODEL 3
REMARK VINA RESULT:      -1.1      4.892      4.892
REMARK  23 active torsions:
REMARK  status: ('A' for Active; 'I' for Inactive)
REMARK    1  A    between atoms: C_2  and  C_3 
REMARK    2  A    between atoms: C_3  and  C_4 
REMARK    3  A    between atoms: C_4  and  C_5 
REMARK    4  A    between atoms: C_5  and  C_6 
REMARK    5  A    between atoms: C_6  and  C_7 
REMARK    6  A    between atoms: C_7  and  C_8 
REMARK    7  A    between atoms: C_8  and  C_9 
REMARK    8  A    between atoms: C_10  and  C_11 
REMARK    9  A    between atoms: C_11  and  C_12 
REMARK   10  A    between atoms: C_12  and  C_13 
REMARK   11  A    between atoms: C_13  and  C_14 
REMARK   12  A    between atoms: C_14  and  C_15 
REMARK   13  A    between atoms: C_15  and  C_16 
REMARK   14  A    between atoms: C_16  and  C_17 
REMARK   15  A    between atoms: C_17  and  C_18 
REMARK       I    between atoms: C_18  and  N_20 
REMARK   16  A    between atoms: N_20  and  C_21 
REMARK   17  A    between atoms: C_21  and  C_22 
REMARK   18  A    between atoms: C_22  and  O_23 
REMARK   19  A    between atoms: O_23  and  C_24 
REMARK   20  A    between atoms: C_24  and  C_26 
REMARK   21  A    between atoms: C_26  and  C_27 
REMARK   22  A    between atoms: C_26  and  S_31 
REMARK   23  A    between atoms: C_27  and  C_28 
ROOT
HETATM    1 NA   UNL     2     -11.574   1.105   1.079  1.00  0.00     0.000 Na
ENDROOT
TORSDOF 23
BEGIN_RES ARG D 557
REMARK  4 active torsions:
REMARK  status: ('A' for Active; 'I' for Inactive)
REMARK    1  A    between atoms: CA   and  CB  
REMARK    2  A    between atoms: CB   and  CG  
REMARK    3  A    between atoms: CG   and  CD  
REMARK    4  A    between atoms: CD   and  NE  
REMARK       I    between atoms: NE   and  CZ  
REMARK       I    between atoms: CZ   and  NH1 
REMARK       I    between atoms: CZ   and  NH2 
ROOT
ATOM      1  CA  ARG D 557     -26.217   2.705 -17.014  1.00 35.49     0.159 C 
ENDROOT
BRANCH   1   2
ATOM      2  CB  ARG D 557     -26.789   1.319 -17.183  1.00 35.49     0.034 C 
BRANCH   2   3
ATOM      3  CG  ARG D 557     -25.837   0.202 -17.144  1.00 35.49     0.027 C 
BRANCH   3   4
ATOM      4  CD  ARG D 557     -24.758   0.415 -16.152  1.00 35.49     0.116 C 
BRANCH   4   5
ATOM      5  NE  ARG D 557     -24.901  -0.440 -15.004  1.00 35.49    -0.212 N 
ATOM      6  CZ  ARG D 557     -24.080  -1.406 -14.658  1.00 35.49     0.666 C 
ATOM      7  NH1 ARG D 557     -23.007  -1.712 -15.364  1.00 35.49    -0.235 N 
ATOM      8  NH2 ARG D 557     -24.355  -2.067 -13.571  1.00 35.49    -0.235 N 
ATOM      9  HH  ARG D 557     -22.806  -1.288 -16.081  1.00 35.49     0.174 HD
ATOM     10  HH  ARG D 557     -22.507  -2.350 -15.088  1.00 35.49     0.174 HD
ATOM     11  HH  ARG D 557     -25.050  -1.843 -13.131  1.00 35.49     0.174 HD
ATOM     12  HH  ARG D 557     -23.846  -2.695 -13.313  1.00 35.49     0.174 HD
ATOM     13  HE  ARG D 557     -25.605  -0.361 -14.532  1.00 35.49     0.178 HD
ENDBRANCH   4   5
ENDBRANCH   3   4
ENDBRANCH   2   3
ENDBRANCH   1   2
END_RES ARG D 557
BEGIN_RES GLU D 570
REMARK  3 active torsions:
REMARK  status: ('A' for Active; 'I' for Inactive)
REMARK    5  A    between atoms: CA   and  CB  
REMARK    6  A    between atoms: CB   and  CG  
REMARK    7  A    between atoms: CG   and  CD  
ROOT
ATOM     14  CA  GLU D 570     -18.033  -6.348 -13.375  1.00 32.92     0.160 C 
ENDROOT
BRANCH  14  15
ATOM     15  CB  GLU D 570     -19.500  -6.345 -13.794  1.00 32.92     0.043 C 
BRANCH  15  16
ATOM     16  CG  GLU D 570     -20.445  -5.546 -12.972  1.00 32.92     0.100 C 
BRANCH  16  17
ATOM     17  CD  GLU D 570     -21.728  -5.218 -13.700  1.00 32.92     0.185 C 
ATOM     18  OE1 GLU D 570     -22.286  -4.126 -13.479  1.00 32.92    -0.647 OA
ATOM     19  OE2 GLU D 570     -22.187  -6.068 -14.487  1.00 32.92    -0.647 OA
ENDBRANCH  16  17
ENDBRANCH  15  16
ENDBRANCH  14  15
END_RES GLU D 570
ENDMDL
MODEL 4
REMARK VINA RESULT:      -1.0      3.714      3.846
REMARK  23 active torsions:
REMARK  status: ('A' for Active; 'I' for Inactive)
REMARK    1  A    between atoms: C_2  and  C_3 
REMARK    2  A    between atoms: C_3  and  C_4 
REMARK    3  A    between atoms: C_4  and  C_5 
REMARK    4  A    between atoms: C_5  and  C_6 
REMARK    5  A    between atoms: C_6  and  C_7 
REMARK    6  A    between atoms: C_7  and  C_8 
REMARK    7  A    between atoms: C_8  and  C_9 
REMARK    8  A    between atoms: C_10  and  C_11 
REMARK    9  A    between atoms: C_11  and  C_12 
REMARK   10  A    between atoms: C_12  and  C_13 
REMARK   11  A    between atoms: C_13  and  C_14 
REMARK   12  A    between atoms: C_14  and  C_15 
REMARK   13  A    between atoms: C_15  and  C_16 
REMARK   14  A    between atoms: C_16  and  C_17 
REMARK   15  A    between atoms: C_17  and  C_18 
REMARK       I    between atoms: C_18  and  N_20 
REMARK   16  A    between atoms: N_20  and  C_21 
REMARK   17  A    between atoms: C_21  and  C_22 
REMARK   18  A    between atoms: C_22  and  O_23 
REMARK   19  A    between atoms: O_23  and  C_24 
REMARK   20  A    between atoms: C_24  and  C_26 
REMARK   21  A    between atoms: C_26  and  C_27 
REMARK   22  A    between atoms: C_26  and  S_31 
REMARK   23  A    between atoms: C_27  and  C_28 
ROOT
HETATM    1 NA   UNL     2     -27.134 -13.716 -13.110  1.00  0.00     0.000 Na
ENDROOT
TORSDOF 23
BEGIN_RES ARG D 557
REMARK  4 active torsions:
REMARK  status: ('A' for Active; 'I' for Inactive)
REMARK    1  A    between atoms: CA   and  CB  
REMARK    2  A    between atoms: CB   and  CG  
REMARK    3  A    between atoms: CG   and  CD  
REMARK    4  A    between atoms: CD   and  NE  
REMARK       I    between atoms: NE   and  CZ  
REMARK       I    between atoms: CZ   and  NH1 
REMARK       I    between atoms: CZ   and  NH2 
ROOT
ATOM      1  CA  ARG D 557     -26.217   2.705 -17.014  1.00 35.49     0.159 C 
ENDROOT
BRANCH   1   2
ATOM      2  CB  ARG D 557     -26.789   1.319 -17.183  1.00 35.49     0.034 C 
BRANCH   2   3
ATOM      3  CG  ARG D 557     -25.860   0.195 -17.010  1.00 35.49     0.027 C 
BRANCH   3   4
ATOM      4  CD  ARG D 557     -26.256  -0.697 -15.896  1.00 35.49     0.116 C 
BRANCH   4   5
ATOM      5  NE  ARG D 557     -25.186  -0.896 -14.954  1.00 35.49    -0.212 N 
ATOM      6  CZ  ARG D 557     -24.880  -2.031 -14.367  1.00 35.49     0.666 C 
ATOM      7  NH1 ARG D 557     -25.558  -3.144 -14.580  1.00 35.49    -0.235 N 
ATOM      8  NH2 ARG D 557     -23.863  -2.032 -13.556  1.00 35.49    -0.235 N 
ATOM      9  HH  ARG D 557     -26.229  -3.167 -15.111  1.00 35.49     0.174 HD
ATOM     10  HH  ARG D 557     -25.310  -3.855 -14.171  1.00 35.49     0.174 HD
ATOM     11  HH  ARG D 557     -23.439  -1.301 -13.444  1.00 35.49     0.174 HD
ATOM     12  HH  ARG D 557     -23.632  -2.747 -13.162  1.00 35.49     0.174 HD
ATOM     13  HE  ARG D 557     -24.743  -0.214 -14.704  1.00 35.49     0.178 HD
ENDBRANCH   4   5
ENDBRANCH   3   4
ENDBRANCH   2   3
ENDBRANCH   1   2
END_RES ARG D 557
BEGIN_RES GLU D 570
REMARK  3 active torsions:
REMARK  status: ('A' for Active; 'I' for Inactive)
REMARK    5  A    between atoms: CA   and  CB  
REMARK    6  A    between atoms: CB   and  CG  
REMARK    7  A    between atoms: CG   and  CD  
ROOT
ATOM     14  CA  GLU D 570     -18.033  -6.348 -13.375  1.00 32.92     0.160 C 
ENDROOT
BRANCH  14  15
ATOM     15  CB  GLU D 570     -19.500  -6.345 -13.794  1.00 32.92     0.043 C 
BRANCH  15  16
ATOM     16  CG  GLU D 570     -20.443  -5.538 -12.977  1.00 32.92     0.100 C 
BRANCH  16  17
ATOM     17  CD  GLU D 570     -21.675  -5.116 -13.745  1.00 32.92     0.185 C 
ATOM     18  OE1 GLU D 570     -21.603  -4.990 -14.982  1.00 32.92    -0.647 OA
ATOM     19  OE2 GLU D 570     -22.718  -4.894 -13.099  1.00 32.92    -0.647 OA
ENDBRANCH  16  17
ENDBRANCH  15  16
ENDBRANCH  14  15
END_RES GLU D 570
ENDMDL
MODEL 5
REMARK VINA RESULT:      -1.0      4.309      4.309
REMARK  23 active torsions:
REMARK  status: ('A' for Active; 'I' for Inactive)
REMARK    1  A    between atoms: C_2  and  C_3 
REMARK    2  A    between atoms: C_3  and  C_4 
REMARK    3  A    between atoms: C_4  and  C_5 
REMARK    4  A    between atoms: C_5  and  C_6 
REMARK    5  A    between atoms: C_6  and  C_7 
REMARK    6  A    between atoms: C_7  and  C_8 
REMARK    7  A    between atoms: C_8  and  C_9 
REMARK    8  A    between atoms: C_10  and  C_11 
REMARK    9  A    between atoms: C_11  and  C_12 
REMARK   10  A    between atoms: C_12  and  C_13 
REMARK   11  A    between atoms: C_13  and  C_14 
REMARK   12  A    between atoms: C_14  and  C_15 
REMARK   13  A    between atoms: C_15  and  C_16 
REMARK   14  A    between atoms: C_16  and  C_17 
REMARK   15  A    between atoms: C_17  and  C_18 
REMARK       I    between atoms: C_18  and  N_20 
REMARK   16  A    between atoms: N_20  and  C_21 
REMARK   17  A    between atoms: C_21  and  C_22 
REMARK   18  A    between atoms: C_22  and  O_23 
REMARK   19  A    between atoms: O_23  and  C_24 
REMARK   20  A    between atoms: C_24  and  C_26 
REMARK   21  A    between atoms: C_26  and  C_27 
REMARK   22  A    between atoms: C_26  and  S_31 
REMARK   23  A    between atoms: C_27  and  C_28 
ROOT
HETATM    1 NA   UNL     2     -14.435   3.526  -8.246  1.00  0.00     0.000 Na
ENDROOT
TORSDOF 23
BEGIN_RES ARG D 557
REMARK  4 active torsions:
REMARK  status: ('A' for Active; 'I' for Inactive)
REMARK    1  A    between atoms: CA   and  CB  
REMARK    2  A    between atoms: CB   and  CG  
REMARK    3  A    between atoms: CG   and  CD  
REMARK    4  A    between atoms: CD   and  NE  
REMARK       I    between atoms: NE   and  CZ  
REMARK       I    between atoms: CZ   and  NH1 
REMARK       I    between atoms: CZ   and  NH2 
ROOT
ATOM      1  CA  ARG D 557     -26.217   2.705 -17.014  1.00 35.49     0.159 C 
ENDROOT
BRANCH   1   2
ATOM      2  CB  ARG D 557     -26.789   1.319 -17.183  1.00 35.49     0.034 C 
BRANCH   2   3
ATOM      3  CG  ARG D 557     -25.836   0.203 -17.156  1.00 35.49     0.027 C 
BRANCH   3   4
ATOM      4  CD  ARG D 557     -24.749   0.413 -16.172  1.00 35.49     0.116 C 
BRANCH   4   5
ATOM      5  NE  ARG D 557     -24.892  -0.434 -15.017  1.00 35.49    -0.212 N 
ATOM      6  CZ  ARG D 557     -24.078  -1.406 -14.671  1.00 35.49     0.666 C 
ATOM      7  NH1 ARG D 557     -23.013  -1.725 -15.383  1.00 35.49    -0.235 N 
ATOM      8  NH2 ARG D 557     -24.351  -2.057 -13.578  1.00 35.49    -0.235 N 
ATOM      9  HH  ARG D 557     -22.813  -1.308 -16.104  1.00 35.49     0.174 HD
ATOM     10  HH  ARG D 557     -22.516  -2.367 -15.107  1.00 35.49     0.174 HD
ATOM     11  HH  ARG D 557     -25.041  -1.824 -13.135  1.00 35.49     0.174 HD
ATOM     12  HH  ARG D 557     -23.847  -2.688 -13.321  1.00 35.49     0.174 HD
ATOM     13  HE  ARG D 557     -25.592  -0.345 -14.541  1.00 35.49     0.178 HD
ENDBRANCH   4   5
ENDBRANCH   3   4
ENDBRANCH   2   3
ENDBRANCH   1   2
END_RES ARG D 557
BEGIN_RES GLU D 570
REMARK  3 active torsions:
REMARK  status: ('A' for Active; 'I' for Inactive)
REMARK    5  A    between atoms: CA   and  CB  
REMARK    6  A    between atoms: CB   and  CG  
REMARK    7  A    between atoms: CG   and  CD  
ROOT
ATOM     14  CA  GLU D 570     -18.033  -6.348 -13.375  1.00 32.92     0.160 C 
ENDROOT
BRANCH  14  15
ATOM     15  CB  GLU D 570     -19.500  -6.345 -13.794  1.00 32.92     0.043 C 
BRANCH  15  16
ATOM     16  CG  GLU D 570     -20.445  -5.544 -12.973  1.00 32.92     0.100 C 
BRANCH  16  17
ATOM     17  CD  GLU D 570     -21.739  -5.242 -13.691  1.00 32.92     0.185 C 
ATOM     18  OE1 GLU D 570     -22.269  -4.124 -13.539  1.00 32.92    -0.647 OA
ATOM     19  OE2 GLU D 570     -22.237  -6.138 -14.401  1.00 32.92    -0.647 OA
ENDBRANCH  16  17
ENDBRANCH  15  16
ENDBRANCH  14  15
END_RES GLU D 570
ENDMDL
MODEL 6
REMARK VINA RESULT:      -0.9      5.990      6.309
REMARK  23 active torsions:
REMARK  status: ('A' for Active; 'I' for Inactive)
REMARK    1  A    between atoms: C_2  and  C_3 
REMARK    2  A    between atoms: C_3  and  C_4 
REMARK    3  A    between atoms: C_4  and  C_5 
REMARK    4  A    between atoms: C_5  and  C_6 
REMARK    5  A    between atoms: C_6  and  C_7 
REMARK    6  A    between atoms: C_7  and  C_8 
REMARK    7  A    between atoms: C_8  and  C_9 
REMARK    8  A    between atoms: C_10  and  C_11 
REMARK    9  A    between atoms: C_11  and  C_12 
REMARK   10  A    between atoms: C_12  and  C_13 
REMARK   11  A    between atoms: C_13  and  C_14 
REMARK   12  A    between atoms: C_14  and  C_15 
REMARK   13  A    between atoms: C_15  and  C_16 
REMARK   14  A    between atoms: C_16  and  C_17 
REMARK   15  A    between atoms: C_17  and  C_18 
REMARK       I    between atoms: C_18  and  N_20 
REMARK   16  A    between atoms: N_20  and  C_21 
REMARK   17  A    between atoms: C_21  and  C_22 
REMARK   18  A    between atoms: C_22  and  O_23 
REMARK   19  A    between atoms: O_23  and  C_24 
REMARK   20  A    between atoms: C_24  and  C_26 
REMARK   21  A    between atoms: C_26  and  C_27 
REMARK   22  A    between atoms: C_26  and  S_31 
REMARK   23  A    between atoms: C_27  and  C_28 
ROOT
HETATM    1 NA   UNL     2     -11.287   1.552   2.255  1.00  0.00     0.000 Na
ENDROOT
TORSDOF 23
BEGIN_RES ARG D 557
REMARK  4 active torsions:
REMARK  status: ('A' for Active; 'I' for Inactive)
REMARK    1  A    between atoms: CA   and  CB  
REMARK    2  A    between atoms: CB   and  CG  
REMARK    3  A    between atoms: CG   and  CD  
REMARK    4  A    between atoms: CD   and  NE  
REMARK       I    between atoms: NE   and  CZ  
REMARK       I    between atoms: CZ   and  NH1 
REMARK       I    between atoms: CZ   and  NH2 
ROOT
ATOM      1  CA  ARG D 557     -26.217   2.705 -17.014  1.00 35.49     0.159 C 
ENDROOT
BRANCH   1   2
ATOM      2  CB  ARG D 557     -26.789   1.319 -17.183  1.00 35.49     0.034 C 
BRANCH   2   3
ATOM      3  CG  ARG D 557     -28.233   1.226 -17.431  1.00 35.49     0.027 C 
BRANCH   3   4
ATOM      4  CD  ARG D 557     -28.907   0.297 -16.495  1.00 35.49     0.116 C 
BRANCH   4   5
ATOM      5  NE  ARG D 557     -29.303  -0.928 -17.139  1.00 35.49    -0.212 N 
ATOM      6  CZ  ARG D 557     -28.685  -2.084 -17.036  1.00 35.49     0.666 C 
ATOM      7  NH1 ARG D 557     -27.589  -2.240 -16.317  1.00 35.49    -0.235 N 
ATOM      8  NH2 ARG D 557     -29.197  -3.097 -17.673  1.00 35.49    -0.235 N 
ATOM      9  HH  ARG D 557     -27.235  -1.588 -15.889  1.00 35.49     0.174 HD
ATOM     10  HH  ARG D 557     -27.231  -3.018 -16.286  1.00 35.49     0.174 HD
ATOM     11  HH  ARG D 557     -29.910  -2.968 -18.123  1.00 35.49     0.174 HD
ATOM     12  HH  ARG D 557     -28.829  -3.859 -17.628  1.00 35.49     0.174 HD
ATOM     13  HE  ARG D 557     -29.958  -0.902 -17.680  1.00 35.49     0.178 HD
ENDBRANCH   4   5
ENDBRANCH   3   4
ENDBRANCH   2   3
ENDBRANCH   1   2
END_RES ARG D 557
BEGIN_RES GLU D 570
REMARK  3 active torsions:
REMARK  status: ('A' for Active; 'I' for Inactive)
REMARK    5  A    between atoms: CA   and  CB  
REMARK    6  A    between atoms: CB   and  CG  
REMARK    7  A    between atoms: CG   and  CD  
ROOT
ATOM     14  CA  GLU D 570     -18.033  -6.348 -13.375  1.00 32.92     0.160 C 
ENDROOT
BRANCH  14  15
ATOM     15  CB  GLU D 570     -19.500  -6.345 -13.794  1.00 32.92     0.043 C 
BRANCH  15  16
ATOM     16  CG  GLU D 570     -20.439  -5.517 -12.993  1.00 32.92     0.100 C 
BRANCH  16  17
ATOM     17  CD  GLU D 570     -21.707  -5.176 -13.740  1.00 32.92     0.185 C 
ATOM     18  OE1 GLU D 570     -21.646  -4.946 -14.963  1.00 32.92    -0.647 OA
ATOM     19  OE2 GLU D 570     -22.771  -5.122 -13.092  1.00 32.92    -0.647 OA
ENDBRANCH  16  17
ENDBRANCH  15  16
ENDBRANCH  14  15
END_RES GLU D 570
ENDMDL
MODEL 7
REMARK VINA RESULT:      -0.8      7.125      7.178
REMARK  23 active torsions:
REMARK  status: ('A' for Active; 'I' for Inactive)
REMARK    1  A    between atoms: C_2  and  C_3 
REMARK    2  A    between atoms: C_3  and  C_4 
REMARK    3  A    between atoms: C_4  and  C_5 
REMARK    4  A    between atoms: C_5  and  C_6 
REMARK    5  A    between atoms: C_6  and  C_7 
REMARK    6  A    between atoms: C_7  and  C_8 
REMARK    7  A    between atoms: C_8  and  C_9 
REMARK    8  A    between atoms: C_10  and  C_11 
REMARK    9  A    between atoms: C_11  and  C_12 
REMARK   10  A    between atoms: C_12  and  C_13 
REMARK   11  A    between atoms: C_13  and  C_14 
REMARK   12  A    between atoms: C_14  and  C_15 
REMARK   13  A    between atoms: C_15  and  C_16 
REMARK   14  A    between atoms: C_16  and  C_17 
REMARK   15  A    between atoms: C_17  and  C_18 
REMARK       I    between atoms: C_18  and  N_20 
REMARK   16  A    between atoms: N_20  and  C_21 
REMARK   17  A    between atoms: C_21  and  C_22 
REMARK   18  A    between atoms: C_22  and  O_23 
REMARK   19  A    between atoms: O_23  and  C_24 
REMARK   20  A    between atoms: C_24  and  C_26 
REMARK   21  A    between atoms: C_26  and  C_27 
REMARK   22  A    between atoms: C_26  and  S_31 
REMARK   23  A    between atoms: C_27  and  C_28 
ROOT
HETATM    1 NA   UNL     2      -9.099   5.900 -17.214  1.00  0.00     0.000 Na
ENDROOT
TORSDOF 23
BEGIN_RES ARG D 557
REMARK  4 active torsions:
REMARK  status: ('A' for Active; 'I' for Inactive)
REMARK    1  A    between atoms: CA   and  CB  
REMARK    2  A    between atoms: CB   and  CG  
REMARK    3  A    between atoms: CG   and  CD  
REMARK    4  A    between atoms: CD   and  NE  
REMARK       I    between atoms: NE   and  CZ  
REMARK       I    between atoms: CZ   and  NH1 
REMARK       I    between atoms: CZ   and  NH2 
ROOT
ATOM      1  CA  ARG D 557     -26.217   2.705 -17.014  1.00 35.49     0.159 C 
ENDROOT
BRANCH   1   2
ATOM      2  CB  ARG D 557     -26.789   1.319 -17.183  1.00 35.49     0.034 C 
BRANCH   2   3
ATOM      3  CG  ARG D 557     -25.932   0.197 -16.780  1.00 35.49     0.027 C 
BRANCH   3   4
ATOM      4  CD  ARG D 557     -26.687  -0.865 -16.076  1.00 35.49     0.116 C 
BRANCH   4   5
ATOM      5  NE  ARG D 557     -25.936  -1.433 -14.987  1.00 35.49    -0.212 N 
ATOM      6  CZ  ARG D 557     -25.909  -2.704 -14.654  1.00 35.49     0.666 C 
ATOM      7  NH1 ARG D 557     -26.604  -3.621 -15.300  1.00 35.49    -0.235 N 
ATOM      8  NH2 ARG D 557     -25.154  -3.045 -13.650  1.00 35.49    -0.235 N 
ATOM      9  HH  ARG D 557     -27.106  -3.420 -15.965  1.00 35.49     0.174 HD
ATOM     10  HH  ARG D 557     -26.545  -4.436 -15.040  1.00 35.49     0.174 HD
ATOM     11  HH  ARG D 557     -24.710  -2.432 -13.257  1.00 35.49     0.174 HD
ATOM     12  HH  ARG D 557     -25.107  -3.856 -13.409  1.00 35.49     0.174 HD
ATOM     13  HE  ARG D 557     -25.516  -0.902 -14.472  1.00 35.49     0.178 HD
ENDBRANCH   4   5
ENDBRANCH   3   4
ENDBRANCH   2   3
ENDBRANCH   1   2
END_RES ARG D 557
BEGIN_RES GLU D 570
REMARK  3 active torsions:
REMARK  status: ('A' for Active; 'I' for Inactive)
REMARK    5  A    between atoms: CA   and  CB  
REMARK    6  A    between atoms: CB   and  CG  
REMARK    7  A    between atoms: CG   and  CD  
ROOT
ATOM     14  CA  GLU D 570     -18.033  -6.348 -13.375  1.00 32.92     0.160 C 
ENDROOT
BRANCH  14  15
ATOM     15  CB  GLU D 570     -19.500  -6.345 -13.794  1.00 32.92     0.043 C 
BRANCH  15  16
ATOM     16  CG  GLU D 570     -20.449  -5.566 -12.958  1.00 32.92     0.100 C 
BRANCH  16  17
ATOM     17  CD  GLU D 570     -21.687  -5.140 -13.712  1.00 32.92     0.185 C 
ATOM     18  OE1 GLU D 570     -22.683  -4.754 -13.072  1.00 32.92    -0.647 OA
ATOM     19  OE2 GLU D 570     -21.665  -5.209 -14.957  1.00 32.92    -0.647 OA
ENDBRANCH  16  17
ENDBRANCH  15  16
ENDBRANCH  14  15
END_RES GLU D 570
ENDMDL
MODEL 8
REMARK VINA RESULT:      -0.8      4.516      4.612
REMARK  23 active torsions:
REMARK  status: ('A' for Active; 'I' for Inactive)
REMARK    1  A    between atoms: C_2  and  C_3 
REMARK    2  A    between atoms: C_3  and  C_4 
REMARK    3  A    between atoms: C_4  and  C_5 
REMARK    4  A    between atoms: C_5  and  C_6 
REMARK    5  A    between atoms: C_6  and  C_7 
REMARK    6  A    between atoms: C_7  and  C_8 
REMARK    7  A    between atoms: C_8  and  C_9 
REMARK    8  A    between atoms: C_10  and  C_11 
REMARK    9  A    between atoms: C_11  and  C_12 
REMARK   10  A    between atoms: C_12  and  C_13 
REMARK   11  A    between atoms: C_13  and  C_14 
REMARK   12  A    between atoms: C_14  and  C_15 
REMARK   13  A    between atoms: C_15  and  C_16 
REMARK   14  A    between atoms: C_16  and  C_17 
REMARK   15  A    between atoms: C_17  and  C_18 
REMARK       I    between atoms: C_18  and  N_20 
REMARK   16  A    between atoms: N_20  and  C_21 
REMARK   17  A    between atoms: C_21  and  C_22 
REMARK   18  A    between atoms: C_22  and  O_23 
REMARK   19  A    between atoms: O_23  and  C_24 
REMARK   20  A    between atoms: C_24  and  C_26 
REMARK   21  A    between atoms: C_26  and  C_27 
REMARK   22  A    between atoms: C_26  and  S_31 
REMARK   23  A    between atoms: C_27  and  C_28 
ROOT
HETATM    1 NA   UNL     2     -29.134  -9.547 -18.779  1.00  0.00     0.000 Na
ENDROOT
TORSDOF 23
BEGIN_RES ARG D 557
REMARK  4 active torsions:
REMARK  status: ('A' for Active; 'I' for Inactive)
REMARK    1  A    between atoms: CA   and  CB  
REMARK    2  A    between atoms: CB   and  CG  
REMARK    3  A    between atoms: CG   and  CD  
REMARK    4  A    between atoms: CD   and  NE  
REMARK       I    between atoms: NE   and  CZ  
REMARK       I    between atoms: CZ   and  NH1 
REMARK       I    between atoms: CZ   and  NH2 
ROOT
ATOM      1  CA  ARG D 557     -26.217   2.705 -17.014  1.00 35.49     0.159 C 
ENDROOT
BRANCH   1   2
ATOM      2  CB  ARG D 557     -26.789   1.319 -17.183  1.00 35.49     0.034 C 
BRANCH   2   3
ATOM      3  CG  ARG D 557     -25.834   0.204 -17.167  1.00 35.49     0.027 C 
BRANCH   3   4
ATOM      4  CD  ARG D 557     -24.747   0.406 -16.182  1.00 35.49     0.116 C 
BRANCH   4   5
ATOM      5  NE  ARG D 557     -24.898  -0.439 -15.027  1.00 35.49    -0.212 N 
ATOM      6  CZ  ARG D 557     -24.084  -1.407 -14.672  1.00 35.49     0.666 C 
ATOM      7  NH1 ARG D 557     -23.012  -1.725 -15.373  1.00 35.49    -0.235 N 
ATOM      8  NH2 ARG D 557     -24.365  -2.058 -13.580  1.00 35.49    -0.235 N 
ATOM      9  HH  ARG D 557     -22.806  -1.309 -16.093  1.00 35.49     0.174 HD
ATOM     10  HH  ARG D 557     -22.516  -2.365 -15.091  1.00 35.49     0.174 HD
ATOM     11  HH  ARG D 557     -25.060  -1.826 -13.143  1.00 35.49     0.174 HD
ATOM     12  HH  ARG D 557     -23.861  -2.687 -13.317  1.00 35.49     0.174 HD
ATOM     13  HE  ARG D 557     -25.602  -0.351 -14.557  1.00 35.49     0.178 HD
ENDBRANCH   4   5
ENDBRANCH   3   4
ENDBRANCH   2   3
ENDBRANCH   1   2
END_RES ARG D 557
BEGIN_RES GLU D 570
REMARK  3 active torsions:
REMARK  status: ('A' for Active; 'I' for Inactive)
REMARK    5  A    between atoms: CA   and  CB  
REMARK    6  A    between atoms: CB   and  CG  
REMARK    7  A    between atoms: CG   and  CD  
ROOT
ATOM     14  CA  GLU D 570     -18.033  -6.348 -13.375  1.00 32.92     0.160 C 
ENDROOT
BRANCH  14  15
ATOM     15  CB  GLU D 570     -19.500  -6.345 -13.794  1.00 32.92     0.043 C 
BRANCH  15  16
ATOM     16  CG  GLU D 570     -20.440  -5.520 -12.991  1.00 32.92     0.100 C 
BRANCH  16  17
ATOM     17  CD  GLU D 570     -21.748  -5.260 -13.700  1.00 32.92     0.185 C 
ATOM     18  OE1 GLU D 570     -22.213  -6.136 -14.454  1.00 32.92    -0.647 OA
ATOM     19  OE2 GLU D 570     -22.307  -4.161 -13.512  1.00 32.92    -0.647 OA
ENDBRANCH  16  17
ENDBRANCH  15  16
ENDBRANCH  14  15
END_RES GLU D 570
ENDMDL
MODEL 9
REMARK VINA RESULT:      -0.8      5.235      5.333
REMARK  23 active torsions:
REMARK  status: ('A' for Active; 'I' for Inactive)
REMARK    1  A    between atoms: C_2  and  C_3 
REMARK    2  A    between atoms: C_3  and  C_4 
REMARK    3  A    between atoms: C_4  and  C_5 
REMARK    4  A    between atoms: C_5  and  C_6 
REMARK    5  A    between atoms: C_6  and  C_7 
REMARK    6  A    between atoms: C_7  and  C_8 
REMARK    7  A    between atoms: C_8  and  C_9 
REMARK    8  A    between atoms: C_10  and  C_11 
REMARK    9  A    between atoms: C_11  and  C_12 
REMARK   10  A    between atoms: C_12  and  C_13 
REMARK   11  A    between atoms: C_13  and  C_14 
REMARK   12  A    between atoms: C_14  and  C_15 
REMARK   13  A    between atoms: C_15  and  C_16 
REMARK   14  A    between atoms: C_16  and  C_17 
REMARK   15  A    between atoms: C_17  and  C_18 
REMARK       I    between atoms: C_18  and  N_20 
REMARK   16  A    between atoms: N_20  and  C_21 
REMARK   17  A    between atoms: C_21  and  C_22 
REMARK   18  A    between atoms: C_22  and  O_23 
REMARK   19  A    between atoms: O_23  and  C_24 
REMARK   20  A    between atoms: C_24  and  C_26 
REMARK   21  A    between atoms: C_26  and  C_27 
REMARK   22  A    between atoms: C_26  and  S_31 
REMARK   23  A    between atoms: C_27  and  C_28 
ROOT
HETATM    1 NA   UNL     2      -9.626   0.842  -1.774  1.00  0.00     0.000 Na
ENDROOT
TORSDOF 23
BEGIN_RES ARG D 557
REMARK  4 active torsions:
REMARK  status: ('A' for Active; 'I' for Inactive)
REMARK    1  A    between atoms: CA   and  CB  
REMARK    2  A    between atoms: CB   and  CG  
REMARK    3  A    between atoms: CG   and  CD  
REMARK    4  A    between atoms: CD   and  NE  
REMARK       I    between atoms: NE   and  CZ  
REMARK       I    between atoms: CZ   and  NH1 
REMARK       I    between atoms: CZ   and  NH2 
ROOT
ATOM      1  CA  ARG D 557     -26.217   2.705 -17.014  1.00 35.49     0.159 C 
ENDROOT
BRANCH   1   2
ATOM      2  CB  ARG D 557     -26.789   1.319 -17.183  1.00 35.49     0.034 C 
BRANCH   2   3
ATOM      3  CG  ARG D 557     -25.865   0.195 -16.989  1.00 35.49     0.027 C 
BRANCH   3   4
ATOM      4  CD  ARG D 557     -26.294  -0.705 -15.894  1.00 35.49     0.116 C 
BRANCH   4   5
ATOM      5  NE  ARG D 557     -25.245  -0.930 -14.935  1.00 35.49    -0.212 N 
ATOM      6  CZ  ARG D 557     -24.962  -2.077 -14.360  1.00 35.49     0.666 C 
ATOM      7  NH1 ARG D 557     -25.646  -3.180 -14.603  1.00 35.49    -0.235 N 
ATOM      8  NH2 ARG D 557     -23.961  -2.102 -13.529  1.00 35.49    -0.235 N 
ATOM      9  HH  ARG D 557     -26.308  -3.187 -15.148  1.00 35.49     0.174 HD
ATOM     10  HH  ARG D 557     -25.414  -3.900 -14.201  1.00 35.49     0.174 HD
ATOM     11  HH  ARG D 557     -23.532  -1.376 -13.397  1.00 35.49     0.174 HD
ATOM     12  HH  ARG D 557     -23.746  -2.825 -13.141  1.00 35.49     0.174 HD
ATOM     13  HE  ARG D 557     -24.800  -0.257 -14.665  1.00 35.49     0.178 HD
ENDBRANCH   4   5
ENDBRANCH   3   4
ENDBRANCH   2   3
ENDBRANCH   1   2
END_RES ARG D 557
BEGIN_RES GLU D 570
REMARK  3 active torsions:
REMARK  status: ('A' for Active; 'I' for Inactive)
REMARK    5  A    between atoms: CA   and  CB  
REMARK    6  A    between atoms: CB   and  CG  
REMARK    7  A    between atoms: CG   and  CD  
ROOT
ATOM     14  CA  GLU D 570     -18.033  -6.348 -13.375  1.00 32.92     0.160 C 
ENDROOT
BRANCH  14  15
ATOM     15  CB  GLU D 570     -19.500  -6.345 -13.794  1.00 32.92     0.043 C 
BRANCH  15  16
ATOM     16  CG  GLU D 570     -20.448  -5.560 -12.962  1.00 32.92     0.100 C 
BRANCH  16  17
ATOM     17  CD  GLU D 570     -21.682  -5.130 -13.720  1.00 32.92     0.185 C 
ATOM     18  OE1 GLU D 570     -21.620  -5.012 -14.959  1.00 32.92    -0.647 OA
ATOM     19  OE2 GLU D 570     -22.717  -4.892 -13.067  1.00 32.92    -0.647 OA
ENDBRANCH  16  17
ENDBRANCH  15  16
ENDBRANCH  14  15
END_RES GLU D 570
ENDMDL
