MODEL 1
REMARK VINA RESULT:      -6.1      0.000      0.000
REMARK  4 active torsions:
REMARK  status: ('A' for Active; 'I' for Inactive)
REMARK    1  A    between atoms: C_4  and  O_7 
REMARK    2  A    between atoms: O_7  and  C_8 
REMARK    3  A    between atoms: C_8  and  C_9 
REMARK    4  A    between atoms: C_9  and  O_10 
ROOT
HETATM    1  C   UNL     1     -22.351  -3.814  -9.841  1.00  0.00     0.000 A 
HETATM    2  C   UNL     1     -23.742  -3.731  -9.833  1.00  0.00     0.003 A 
HETATM    3  C   UNL     1     -24.428  -3.288 -10.967  1.00  0.00     0.037 A 
HETATM    4  C   UNL     1     -23.722  -2.923 -12.117  1.00  0.00     0.068 A 
HETATM    5  C   UNL     1     -22.330  -3.028 -12.124  1.00  0.00     0.037 A 
HETATM    6  C   UNL     1     -21.642  -3.462 -10.989  1.00  0.00     0.003 A 
ENDROOT
BRANCH   4   7
HETATM    7  O   UNL     1     -24.281  -2.502 -13.291  1.00  0.00    -0.349 OA
BRANCH   7   8
HETATM    8  C   UNL     1     -23.382  -2.361 -14.399  1.00  0.00     0.201 C 
BRANCH   8   9
HETATM    9  C   UNL     1     -23.710  -1.043 -15.098  1.00  0.00     0.190 C 
BRANCH   9  10
HETATM   10  O   UNL     1     -24.935  -0.510 -14.597  1.00  0.00    -0.399 OA
HETATM   11  H   UNL     1     -25.202  -1.094 -13.863  1.00  0.00     0.209 HD
ENDBRANCH   9  10
ENDBRANCH   8   9
ENDBRANCH   7   8
ENDBRANCH   4   7
TORSDOF 4
BEGIN_RES ARG D 557
REMARK  4 active torsions:
REMARK  status: ('A' for Active; 'I' for Inactive)
REMARK    1  A    between atoms: CA   and  CB  
REMARK    2  A    between atoms: CB   and  CG  
REMARK    3  A    between atoms: CG   and  CD  
REMARK    4  A    between atoms: CD   and  NE  
REMARK       I    between atoms: NE   and  CZ  
REMARK       I    between atoms: CZ   and  NH1 
REMARK       I    between atoms: CZ   and  NH2 
ROOT
ATOM      1  CA  ARG D 557     -26.217   2.705 -17.014  1.00 35.49     0.159 C 
ENDROOT
BRANCH   1   2
ATOM      2  CB  ARG D 557     -26.789   1.319 -17.183  1.00 35.49     0.034 C 
BRANCH   2   3
ATOM      3  CG  ARG D 557     -28.197   1.135 -16.811  1.00 35.49     0.027 C 
BRANCH   3   4
ATOM      4  CD  ARG D 557     -28.594  -0.291 -16.790  1.00 35.49     0.116 C 
BRANCH   4   5
ATOM      5  NE  ARG D 557     -27.641  -1.109 -16.088  1.00 35.49    -0.212 N 
ATOM      6  CZ  ARG D 557     -27.542  -2.417 -16.171  1.00 35.49     0.666 C 
ATOM      7  NH1 ARG D 557     -28.348  -3.142 -16.925  1.00 35.49    -0.235 N 
ATOM      8  NH2 ARG D 557     -26.603  -2.994 -15.479  1.00 35.49    -0.235 N 
ATOM      9  HH  ARG D 557     -28.972  -2.784 -17.390  1.00 35.49     0.174 HD
ATOM     10  HH  ARG D 557     -28.235  -3.992 -16.941  1.00 35.49     0.174 HD
ATOM     11  HH  ARG D 557     -26.093  -2.499 -15.007  1.00 35.49     0.174 HD
ATOM     12  HH  ARG D 557     -26.506  -3.836 -15.510  1.00 35.49     0.174 HD
ATOM     13  HE  ARG D 557     -27.129  -0.731 -15.524  1.00 35.49     0.178 HD
ENDBRANCH   4   5
ENDBRANCH   3   4
ENDBRANCH   2   3
ENDBRANCH   1   2
END_RES ARG D 557
BEGIN_RES GLU D 570
REMARK  3 active torsions:
REMARK  status: ('A' for Active; 'I' for Inactive)
REMARK    5  A    between atoms: CA   and  CB  
REMARK    6  A    between atoms: CB   and  CG  
REMARK    7  A    between atoms: CG   and  CD  
ROOT
ATOM     14  CA  GLU D 570     -18.033  -6.348 -13.375  1.00 32.92     0.160 C 
ENDROOT
BRANCH  14  15
ATOM     15  CB  GLU D 570     -19.500  -6.345 -13.794  1.00 32.92     0.043 C 
BRANCH  15  16
ATOM     16  CG  GLU D 570     -20.081  -7.630 -14.262  1.00 32.92     0.100 C 
BRANCH  16  17
ATOM     17  CD  GLU D 570     -20.658  -7.543 -15.656  1.00 32.92     0.185 C 
ATOM     18  OE1 GLU D 570     -21.258  -8.529 -16.125  1.00 32.92    -0.647 OA
ATOM     19  OE2 GLU D 570     -20.493  -6.483 -16.291  1.00 32.92    -0.647 OA
ENDBRANCH  16  17
ENDBRANCH  15  16
ENDBRANCH  14  15
END_RES GLU D 570
ENDMDL
MODEL 2
REMARK VINA RESULT:      -6.0      2.746      4.010
REMARK  4 active torsions:
REMARK  status: ('A' for Active; 'I' for Inactive)
REMARK    1  A    between atoms: C_4  and  O_7 
REMARK    2  A    between atoms: O_7  and  C_8 
REMARK    3  A    between atoms: C_8  and  C_9 
REMARK    4  A    between atoms: C_9  and  O_10 
ROOT
HETATM    1  C   UNL     1     -19.350  -4.443  -7.827  1.00  0.00     0.000 A 
HETATM    2  C   UNL     1     -20.129  -4.529  -6.675  1.00  0.00     0.003 A 
HETATM    3  C   UNL     1     -21.522  -4.455  -6.759  1.00  0.00     0.037 A 
HETATM    4  C   UNL     1     -22.142  -4.293  -8.001  1.00  0.00     0.068 A 
HETATM    5  C   UNL     1     -21.356  -4.227  -9.152  1.00  0.00     0.037 A 
HETATM    6  C   UNL     1     -19.964  -4.292  -9.070  1.00  0.00     0.003 A 
ENDROOT
BRANCH   4   7
HETATM    7  O   UNL     1     -23.492  -4.235  -8.212  1.00  0.00    -0.349 OA
BRANCH   7   8
HETATM    8  C   UNL     1     -23.926  -4.449  -9.561  1.00  0.00     0.201 C 
BRANCH   8   9
HETATM    9  C   UNL     1     -24.815  -3.271  -9.956  1.00  0.00     0.190 C 
BRANCH   9  10
HETATM   10  O   UNL     1     -24.956  -3.214 -11.375  1.00  0.00    -0.399 OA
HETATM   11  H   UNL     1     -24.308  -2.552 -11.682  1.00  0.00     0.209 HD
ENDBRANCH   9  10
ENDBRANCH   8   9
ENDBRANCH   7   8
ENDBRANCH   4   7
TORSDOF 4
BEGIN_RES ARG D 557
REMARK  4 active torsions:
REMARK  status: ('A' for Active; 'I' for Inactive)
REMARK    1  A    between atoms: CA   and  CB  
REMARK    2  A    between atoms: CB   and  CG  
REMARK    3  A    between atoms: CG   and  CD  
REMARK    4  A    between atoms: CD   and  NE  
REMARK       I    between atoms: NE   and  CZ  
REMARK       I    between atoms: CZ   and  NH1 
REMARK       I    between atoms: CZ   and  NH2 
ROOT
ATOM      1  CA  ARG D 557     -26.217   2.705 -17.014  1.00 35.49     0.159 C 
ENDROOT
BRANCH   1   2
ATOM      2  CB  ARG D 557     -26.789   1.319 -17.183  1.00 35.49     0.034 C 
BRANCH   2   3
ATOM      3  CG  ARG D 557     -25.855   0.196 -17.033  1.00 35.49     0.027 C 
BRANCH   3   4
ATOM      4  CD  ARG D 557     -26.161  -0.637 -15.847  1.00 35.49     0.116 C 
BRANCH   4   5
ATOM      5  NE  ARG D 557     -25.036  -0.746 -14.956  1.00 35.49    -0.212 N 
ATOM      6  CZ  ARG D 557     -24.627  -1.848 -14.367  1.00 35.49     0.666 C 
ATOM      7  NH1 ARG D 557     -25.238  -3.007 -14.528  1.00 35.49    -0.235 N 
ATOM      8  NH2 ARG D 557     -23.574  -1.766 -13.607  1.00 35.49    -0.235 N 
ATOM      9  HH  ARG D 557     -25.932  -3.084 -15.025  1.00 35.49     0.174 HD
ATOM     10  HH  ARG D 557     -24.924  -3.692 -14.121  1.00 35.49     0.174 HD
ATOM     11  HH  ARG D 557     -23.195  -1.006 -13.528  1.00 35.49     0.174 HD
ATOM     12  HH  ARG D 557     -23.278  -2.456 -13.214  1.00 35.49     0.174 HD
ATOM     13  HE  ARG D 557     -24.628  -0.033 -14.739  1.00 35.49     0.178 HD
ENDBRANCH   4   5
ENDBRANCH   3   4
ENDBRANCH   2   3
ENDBRANCH   1   2
END_RES ARG D 557
BEGIN_RES GLU D 570
REMARK  3 active torsions:
REMARK  status: ('A' for Active; 'I' for Inactive)
REMARK    5  A    between atoms: CA   and  CB  
REMARK    6  A    between atoms: CB   and  CG  
REMARK    7  A    between atoms: CG   and  CD  
ROOT
ATOM     14  CA  GLU D 570     -18.033  -6.348 -13.375  1.00 32.92     0.160 C 
ENDROOT
BRANCH  14  15
ATOM     15  CB  GLU D 570     -19.500  -6.345 -13.794  1.00 32.92     0.043 C 
BRANCH  15  16
ATOM     16  CG  GLU D 570     -20.447  -5.555 -12.966  1.00 32.92     0.100 C 
BRANCH  16  17
ATOM     17  CD  GLU D 570     -21.704  -5.171 -13.711  1.00 32.92     0.185 C 
ATOM     18  OE1 GLU D 570     -21.800  -5.453 -14.921  1.00 32.92    -0.647 OA
ATOM     19  OE2 GLU D 570     -22.596  -4.568 -13.082  1.00 32.92    -0.647 OA
ENDBRANCH  16  17
ENDBRANCH  15  16
ENDBRANCH  14  15
END_RES GLU D 570
ENDMDL
MODEL 3
REMARK VINA RESULT:      -5.9      6.927      8.541
REMARK  4 active torsions:
REMARK  status: ('A' for Active; 'I' for Inactive)
REMARK    1  A    between atoms: C_4  and  O_7 
REMARK    2  A    between atoms: O_7  and  C_8 
REMARK    3  A    between atoms: C_8  and  C_9 
REMARK    4  A    between atoms: C_9  and  O_10 
ROOT
HETATM    1  C   UNL     1     -33.816  -2.363 -11.131  1.00  0.00     0.000 A 
HETATM    2  C   UNL     1     -35.132  -2.753 -10.889  1.00  0.00     0.003 A 
HETATM    3  C   UNL     1     -35.485  -4.105 -10.932  1.00  0.00     0.037 A 
HETATM    4  C   UNL     1     -34.520  -5.074 -11.219  1.00  0.00     0.068 A 
HETATM    5  C   UNL     1     -33.200  -4.677 -11.440  1.00  0.00     0.037 A 
HETATM    6  C   UNL     1     -32.846  -3.326 -11.406  1.00  0.00     0.003 A 
ENDROOT
BRANCH   4   7
HETATM    7  O   UNL     1     -34.738  -6.423 -11.261  1.00  0.00    -0.349 OA
BRANCH   7   8
HETATM    8  C   UNL     1     -34.789  -7.091  -9.995  1.00  0.00     0.201 C 
BRANCH   8   9
HETATM    9  C   UNL     1     -34.046  -8.418 -10.138  1.00  0.00     0.190 C 
BRANCH   9  10
HETATM   10  O   UNL     1     -34.161  -9.181  -8.938  1.00  0.00    -0.399 OA
HETATM   11  H   UNL     1     -33.981  -8.559  -8.207  1.00  0.00     0.209 HD
ENDBRANCH   9  10
ENDBRANCH   8   9
ENDBRANCH   7   8
ENDBRANCH   4   7
TORSDOF 4
BEGIN_RES ARG D 557
REMARK  4 active torsions:
REMARK  status: ('A' for Active; 'I' for Inactive)
REMARK    1  A    between atoms: CA   and  CB  
REMARK    2  A    between atoms: CB   and  CG  
REMARK    3  A    between atoms: CG   and  CD  
REMARK    4  A    between atoms: CD   and  NE  
REMARK       I    between atoms: NE   and  CZ  
REMARK       I    between atoms: CZ   and  NH1 
REMARK       I    between atoms: CZ   and  NH2 
ROOT
ATOM      1  CA  ARG D 557     -26.217   2.705 -17.014  1.00 35.49     0.159 C 
ENDROOT
BRANCH   1   2
ATOM      2  CB  ARG D 557     -26.789   1.319 -17.183  1.00 35.49     0.034 C 
BRANCH   2   3
ATOM      3  CG  ARG D 557     -28.231   1.227 -17.445  1.00 35.49     0.027 C 
BRANCH   3   4
ATOM      4  CD  ARG D 557     -28.916   0.305 -16.510  1.00 35.49     0.116 C 
BRANCH   4   5
ATOM      5  NE  ARG D 557     -29.297  -0.929 -17.146  1.00 35.49    -0.212 N 
ATOM      6  CZ  ARG D 557     -28.665  -2.076 -17.037  1.00 35.49     0.666 C 
ATOM      7  NH1 ARG D 557     -27.567  -2.216 -16.317  1.00 35.49    -0.235 N 
ATOM      8  NH2 ARG D 557     -29.165  -3.099 -17.667  1.00 35.49    -0.235 N 
ATOM      9  HH  ARG D 557     -27.222  -1.557 -15.892  1.00 35.49     0.174 HD
ATOM     10  HH  ARG D 557     -27.200  -2.989 -16.280  1.00 35.49     0.174 HD
ATOM     11  HH  ARG D 557     -29.879  -2.981 -18.119  1.00 35.49     0.174 HD
ATOM     12  HH  ARG D 557     -28.788  -3.856 -17.618  1.00 35.49     0.174 HD
ATOM     13  HE  ARG D 557     -29.952  -0.913 -17.687  1.00 35.49     0.178 HD
ENDBRANCH   4   5
ENDBRANCH   3   4
ENDBRANCH   2   3
ENDBRANCH   1   2
END_RES ARG D 557
BEGIN_RES GLU D 570
REMARK  3 active torsions:
REMARK  status: ('A' for Active; 'I' for Inactive)
REMARK    5  A    between atoms: CA   and  CB  
REMARK    6  A    between atoms: CB   and  CG  
REMARK    7  A    between atoms: CG   and  CD  
ROOT
ATOM     14  CA  GLU D 570     -18.033  -6.348 -13.375  1.00 32.92     0.160 C 
ENDROOT
BRANCH  14  15
ATOM     15  CB  GLU D 570     -19.500  -6.345 -13.794  1.00 32.92     0.043 C 
BRANCH  15  16
ATOM     16  CG  GLU D 570     -20.107  -7.648 -14.170  1.00 32.92     0.100 C 
BRANCH  16  17
ATOM     17  CD  GLU D 570     -20.704  -7.641 -15.558  1.00 32.92     0.185 C 
ATOM     18  OE1 GLU D 570     -20.738  -8.703 -16.208  1.00 32.92    -0.647 OA
ATOM     19  OE2 GLU D 570     -21.129  -6.557 -16.007  1.00 32.92    -0.647 OA
ENDBRANCH  16  17
ENDBRANCH  15  16
ENDBRANCH  14  15
END_RES GLU D 570
ENDMDL
MODEL 4
REMARK VINA RESULT:      -5.9      2.387      3.141
REMARK  4 active torsions:
REMARK  status: ('A' for Active; 'I' for Inactive)
REMARK    1  A    between atoms: C_4  and  O_7 
REMARK    2  A    between atoms: O_7  and  C_8 
REMARK    3  A    between atoms: C_8  and  C_9 
REMARK    4  A    between atoms: C_9  and  O_10 
ROOT
HETATM    1  C   UNL     1     -21.440  -4.132  -8.718  1.00  0.00     0.000 A 
HETATM    2  C   UNL     1     -20.393  -4.120  -9.639  1.00  0.00     0.003 A 
HETATM    3  C   UNL     1     -20.658  -4.238 -11.007  1.00  0.00     0.037 A 
HETATM    4  C   UNL     1     -21.973  -4.369 -11.459  1.00  0.00     0.068 A 
HETATM    5  C   UNL     1     -23.017  -4.360 -10.532  1.00  0.00     0.037 A 
HETATM    6  C   UNL     1     -22.755  -4.251  -9.164  1.00  0.00     0.003 A 
ENDROOT
BRANCH   4   7
HETATM    7  O   UNL     1     -22.357  -4.464 -12.768  1.00  0.00    -0.349 OA
BRANCH   7   8
HETATM    8  C   UNL     1     -23.294  -5.504 -13.074  1.00  0.00     0.201 C 
BRANCH   8   9
HETATM    9  C   UNL     1     -23.592  -5.437 -14.571  1.00  0.00     0.190 C 
BRANCH   9  10
HETATM   10  O   UNL     1     -22.667  -4.565 -15.219  1.00  0.00    -0.399 OA
HETATM   11  H   UNL     1     -22.752  -3.702 -14.771  1.00  0.00     0.209 HD
ENDBRANCH   9  10
ENDBRANCH   8   9
ENDBRANCH   7   8
ENDBRANCH   4   7
TORSDOF 4
BEGIN_RES ARG D 557
REMARK  4 active torsions:
REMARK  status: ('A' for Active; 'I' for Inactive)
REMARK    1  A    between atoms: CA   and  CB  
REMARK    2  A    between atoms: CB   and  CG  
REMARK    3  A    between atoms: CG   and  CD  
REMARK    4  A    between atoms: CD   and  NE  
REMARK       I    between atoms: NE   and  CZ  
REMARK       I    between atoms: CZ   and  NH1 
REMARK       I    between atoms: CZ   and  NH2 
ROOT
ATOM      1  CA  ARG D 557     -26.217   2.705 -17.014  1.00 35.49     0.159 C 
ENDROOT
BRANCH   1   2
ATOM      2  CB  ARG D 557     -26.789   1.319 -17.183  1.00 35.49     0.034 C 
BRANCH   2   3
ATOM      3  CG  ARG D 557     -25.840   0.201 -17.121  1.00 35.49     0.027 C 
BRANCH   3   4
ATOM      4  CD  ARG D 557     -24.741   0.446 -16.160  1.00 35.49     0.116 C 
BRANCH   4   5
ATOM      5  NE  ARG D 557     -24.816  -0.424 -15.016  1.00 35.49    -0.212 N 
ATOM      6  CZ  ARG D 557     -23.962  -1.377 -14.718  1.00 35.49     0.666 C 
ATOM      7  NH1 ARG D 557     -22.916  -1.654 -15.475  1.00 35.49    -0.235 N 
ATOM      8  NH2 ARG D 557     -24.175  -2.055 -13.628  1.00 35.49    -0.235 N 
ATOM      9  HH  ARG D 557     -22.756  -1.220 -16.196  1.00 35.49     0.174 HD
ATOM     10  HH  ARG D 557     -22.392  -2.286 -15.229  1.00 35.49     0.174 HD
ATOM     11  HH  ARG D 557     -24.854  -1.849 -13.155  1.00 35.49     0.174 HD
ATOM     12  HH  ARG D 557     -23.644  -2.676 -13.401  1.00 35.49     0.174 HD
ATOM     13  HE  ARG D 557     -25.499  -0.363 -14.512  1.00 35.49     0.178 HD
ENDBRANCH   4   5
ENDBRANCH   3   4
ENDBRANCH   2   3
ENDBRANCH   1   2
END_RES ARG D 557
BEGIN_RES GLU D 570
REMARK  3 active torsions:
REMARK  status: ('A' for Active; 'I' for Inactive)
REMARK    5  A    between atoms: CA   and  CB  
REMARK    6  A    between atoms: CB   and  CG  
REMARK    7  A    between atoms: CG   and  CD  
ROOT
ATOM     14  CA  GLU D 570     -18.033  -6.348 -13.375  1.00 32.92     0.160 C 
ENDROOT
BRANCH  14  15
ATOM     15  CB  GLU D 570     -19.500  -6.345 -13.794  1.00 32.92     0.043 C 
BRANCH  15  16
ATOM     16  CG  GLU D 570     -20.080  -7.629 -14.266  1.00 32.92     0.100 C 
BRANCH  16  17
ATOM     17  CD  GLU D 570     -20.734  -7.516 -15.624  1.00 32.92     0.185 C 
ATOM     18  OE1 GLU D 570     -21.405  -8.474 -16.053  1.00 32.92    -0.647 OA
ATOM     19  OE2 GLU D 570     -20.559  -6.465 -16.271  1.00 32.92    -0.647 OA
ENDBRANCH  16  17
ENDBRANCH  15  16
ENDBRANCH  14  15
END_RES GLU D 570
ENDMDL
MODEL 5
REMARK VINA RESULT:      -5.8      7.002      8.702
REMARK  4 active torsions:
REMARK  status: ('A' for Active; 'I' for Inactive)
REMARK    1  A    between atoms: C_4  and  O_7 
REMARK    2  A    between atoms: O_7  and  C_8 
REMARK    3  A    between atoms: C_8  and  C_9 
REMARK    4  A    between atoms: C_9  and  O_10 
ROOT
HETATM    1  C   UNL     1     -33.966  -2.317 -11.084  1.00  0.00     0.000 A 
HETATM    2  C   UNL     1     -32.906  -3.171 -11.383  1.00  0.00     0.003 A 
HETATM    3  C   UNL     1     -33.110  -4.553 -11.445  1.00  0.00     0.037 A 
HETATM    4  C   UNL     1     -34.380  -5.085 -11.206  1.00  0.00     0.068 A 
HETATM    5  C   UNL     1     -35.440  -4.222 -10.926  1.00  0.00     0.037 A 
HETATM    6  C   UNL     1     -35.237  -2.842 -10.855  1.00  0.00     0.003 A 
ENDROOT
BRANCH   4   7
HETATM    7  O   UNL     1     -34.708  -6.412 -11.264  1.00  0.00    -0.349 OA
BRANCH   7   8
HETATM    8  C   UNL     1     -34.806  -7.090 -10.005  1.00  0.00     0.201 C 
BRANCH   8   9
HETATM    9  C   UNL     1     -34.072  -8.423 -10.137  1.00  0.00     0.190 C 
BRANCH   9  10
HETATM   10  O   UNL     1     -34.140  -9.148  -8.910  1.00  0.00    -0.399 OA
HETATM   11  H   UNL     1     -34.545  -8.541  -8.262  1.00  0.00     0.209 HD
ENDBRANCH   9  10
ENDBRANCH   8   9
ENDBRANCH   7   8
ENDBRANCH   4   7
TORSDOF 4
BEGIN_RES ARG D 557
REMARK  4 active torsions:
REMARK  status: ('A' for Active; 'I' for Inactive)
REMARK    1  A    between atoms: CA   and  CB  
REMARK    2  A    between atoms: CB   and  CG  
REMARK    3  A    between atoms: CG   and  CD  
REMARK    4  A    between atoms: CD   and  NE  
REMARK       I    between atoms: NE   and  CZ  
REMARK       I    between atoms: CZ   and  NH1 
REMARK       I    between atoms: CZ   and  NH2 
ROOT
ATOM      1  CA  ARG D 557     -26.217   2.705 -17.014  1.00 35.49     0.159 C 
ENDROOT
BRANCH   1   2
ATOM      2  CB  ARG D 557     -26.789   1.319 -17.183  1.00 35.49     0.034 C 
BRANCH   2   3
ATOM      3  CG  ARG D 557     -28.186   1.126 -16.774  1.00 35.49     0.027 C 
BRANCH   3   4
ATOM      4  CD  ARG D 557     -28.722  -0.186 -17.201  1.00 35.49     0.116 C 
BRANCH   4   5
ATOM      5  NE  ARG D 557     -27.994  -1.284 -16.622  1.00 35.49    -0.212 N 
ATOM      6  CZ  ARG D 557     -28.255  -2.560 -16.802  1.00 35.49     0.666 C 
ATOM      7  NH1 ARG D 557     -29.260  -2.979 -17.549  1.00 35.49    -0.235 N 
ATOM      8  NH2 ARG D 557     -27.475  -3.421 -16.216  1.00 35.49    -0.235 N 
ATOM      9  HH  ARG D 557     -29.784  -2.430 -17.946  1.00 35.49     0.174 HD
ATOM     10  HH  ARG D 557     -29.380  -3.823 -17.633  1.00 35.49     0.174 HD
ATOM     11  HH  ARG D 557     -26.830  -3.121 -15.746  1.00 35.49     0.174 HD
ATOM     12  HH  ARG D 557     -27.610  -4.252 -16.312  1.00 35.49     0.174 HD
ATOM     13  HE  ARG D 557     -27.374  -1.104 -16.068  1.00 35.49     0.178 HD
ENDBRANCH   4   5
ENDBRANCH   3   4
ENDBRANCH   2   3
ENDBRANCH   1   2
END_RES ARG D 557
BEGIN_RES GLU D 570
REMARK  3 active torsions:
REMARK  status: ('A' for Active; 'I' for Inactive)
REMARK    5  A    between atoms: CA   and  CB  
REMARK    6  A    between atoms: CB   and  CG  
REMARK    7  A    between atoms: CG   and  CD  
ROOT
ATOM     14  CA  GLU D 570     -18.033  -6.348 -13.375  1.00 32.92     0.160 C 
ENDROOT
BRANCH  14  15
ATOM     15  CB  GLU D 570     -19.500  -6.345 -13.794  1.00 32.92     0.043 C 
BRANCH  15  16
ATOM     16  CG  GLU D 570     -20.442  -5.533 -12.982  1.00 32.92     0.100 C 
BRANCH  16  17
ATOM     17  CD  GLU D 570     -21.739  -5.241 -13.700  1.00 32.92     0.185 C 
ATOM     18  OE1 GLU D 570     -22.312  -4.154 -13.496  1.00 32.92    -0.647 OA
ATOM     19  OE2 GLU D 570     -22.196  -6.117 -14.461  1.00 32.92    -0.647 OA
ENDBRANCH  16  17
ENDBRANCH  15  16
ENDBRANCH  14  15
END_RES GLU D 570
ENDMDL
MODEL 6
REMARK VINA RESULT:      -5.8      1.510      2.265
REMARK  4 active torsions:
REMARK  status: ('A' for Active; 'I' for Inactive)
REMARK    1  A    between atoms: C_4  and  O_7 
REMARK    2  A    between atoms: O_7  and  C_8 
REMARK    3  A    between atoms: C_8  and  C_9 
REMARK    4  A    between atoms: C_9  and  O_10 
ROOT
HETATM    1  C   UNL     1     -21.247  -4.446  -8.448  1.00  0.00     0.000 A 
HETATM    2  C   UNL     1     -20.201  -4.643  -9.347  1.00  0.00     0.003 A 
HETATM    3  C   UNL     1     -20.378  -4.365 -10.706  1.00  0.00     0.037 A 
HETATM    4  C   UNL     1     -21.608  -3.889 -11.170  1.00  0.00     0.068 A 
HETATM    5  C   UNL     1     -22.644  -3.676 -10.260  1.00  0.00     0.037 A 
HETATM    6  C   UNL     1     -22.472  -3.961  -8.903  1.00  0.00     0.003 A 
ENDROOT
BRANCH   4   7
HETATM    7  O   UNL     1     -21.892  -3.558 -12.466  1.00  0.00    -0.349 OA
BRANCH   7   8
HETATM    8  C   UNL     1     -23.108  -2.830 -12.675  1.00  0.00     0.201 C 
BRANCH   8   9
HETATM    9  C   UNL     1     -23.254  -2.589 -14.177  1.00  0.00     0.190 C 
BRANCH   9  10
HETATM   10  O   UNL     1     -23.954  -3.674 -14.784  1.00  0.00    -0.399 OA
HETATM   11  H   UNL     1     -23.687  -3.673 -15.723  1.00  0.00     0.209 HD
ENDBRANCH   9  10
ENDBRANCH   8   9
ENDBRANCH   7   8
ENDBRANCH   4   7
TORSDOF 4
BEGIN_RES ARG D 557
REMARK  4 active torsions:
REMARK  status: ('A' for Active; 'I' for Inactive)
REMARK    1  A    between atoms: CA   and  CB  
REMARK    2  A    between atoms: CB   and  CG  
REMARK    3  A    between atoms: CG   and  CD  
REMARK    4  A    between atoms: CD   and  NE  
REMARK       I    between atoms: NE   and  CZ  
REMARK       I    between atoms: CZ   and  NH1 
REMARK       I    between atoms: CZ   and  NH2 
ROOT
ATOM      1  CA  ARG D 557     -26.217   2.705 -17.014  1.00 35.49     0.159 C 
ENDROOT
BRANCH   1   2
ATOM      2  CB  ARG D 557     -26.789   1.319 -17.183  1.00 35.49     0.034 C 
BRANCH   2   3
ATOM      3  CG  ARG D 557     -28.227   1.163 -16.935  1.00 35.49     0.027 C 
BRANCH   3   4
ATOM      4  CD  ARG D 557     -28.638  -0.258 -16.870  1.00 35.49     0.116 C 
BRANCH   4   5
ATOM      5  NE  ARG D 557     -27.685  -1.066 -16.156  1.00 35.49    -0.212 N 
ATOM      6  CZ  ARG D 557     -27.581  -2.374 -16.226  1.00 35.49     0.666 C 
ATOM      7  NH1 ARG D 557     -28.380  -3.109 -16.978  1.00 35.49    -0.235 N 
ATOM      8  NH2 ARG D 557     -26.643  -2.940 -15.524  1.00 35.49    -0.235 N 
ATOM      9  HH  ARG D 557     -29.003  -2.758 -17.449  1.00 35.49     0.174 HD
ATOM     10  HH  ARG D 557     -28.263  -3.958 -16.986  1.00 35.49     0.174 HD
ATOM     11  HH  ARG D 557     -26.137  -2.440 -15.054  1.00 35.49     0.174 HD
ATOM     12  HH  ARG D 557     -26.542  -3.782 -15.547  1.00 35.49     0.174 HD
ATOM     13  HE  ARG D 557     -27.178  -0.681 -15.592  1.00 35.49     0.178 HD
ENDBRANCH   4   5
ENDBRANCH   3   4
ENDBRANCH   2   3
ENDBRANCH   1   2
END_RES ARG D 557
BEGIN_RES GLU D 570
REMARK  3 active torsions:
REMARK  status: ('A' for Active; 'I' for Inactive)
REMARK    5  A    between atoms: CA   and  CB  
REMARK    6  A    between atoms: CB   and  CG  
REMARK    7  A    between atoms: CG   and  CD  
ROOT
ATOM     14  CA  GLU D 570     -18.033  -6.348 -13.375  1.00 32.92     0.160 C 
ENDROOT
BRANCH  14  15
ATOM     15  CB  GLU D 570     -19.500  -6.345 -13.794  1.00 32.92     0.043 C 
BRANCH  15  16
ATOM     16  CG  GLU D 570     -19.811  -5.965 -15.196  1.00 32.92     0.100 C 
BRANCH  16  17
ATOM     17  CD  GLU D 570     -21.268  -5.623 -15.405  1.00 32.92     0.185 C 
ATOM     18  OE1 GLU D 570     -21.585  -4.878 -16.352  1.00 32.92    -0.647 OA
ATOM     19  OE2 GLU D 570     -22.099  -6.093 -14.604  1.00 32.92    -0.647 OA
ENDBRANCH  16  17
ENDBRANCH  15  16
ENDBRANCH  14  15
END_RES GLU D 570
ENDMDL
MODEL 7
REMARK VINA RESULT:      -5.8      6.640      8.474
REMARK  4 active torsions:
REMARK  status: ('A' for Active; 'I' for Inactive)
REMARK    1  A    between atoms: C_4  and  O_7 
REMARK    2  A    between atoms: O_7  and  C_8 
REMARK    3  A    between atoms: C_8  and  C_9 
REMARK    4  A    between atoms: C_9  and  O_10 
ROOT
HETATM    1  C   UNL     1     -33.184  -5.361 -11.150  1.00  0.00     0.000 A 
HETATM    2  C   UNL     1     -34.489  -5.414 -10.663  1.00  0.00     0.003 A 
HETATM    3  C   UNL     1     -35.395  -4.393 -10.965  1.00  0.00     0.037 A 
HETATM    4  C   UNL     1     -34.997  -3.312 -11.756  1.00  0.00     0.068 A 
HETATM    5  C   UNL     1     -33.694  -3.277 -12.257  1.00  0.00     0.037 A 
HETATM    6  C   UNL     1     -32.784  -4.290 -11.949  1.00  0.00     0.003 A 
ENDROOT
BRANCH   4   7
HETATM    7  O   UNL     1     -35.798  -2.273 -12.140  1.00  0.00    -0.349 OA
BRANCH   7   8
HETATM    8  C   UNL     1     -35.170  -1.255 -12.930  1.00  0.00     0.201 C 
BRANCH   8   9
HETATM    9  C   UNL     1     -35.851   0.073 -12.605  1.00  0.00     0.190 C 
BRANCH   9  10
HETATM   10  O   UNL     1     -35.746   0.353 -11.209  1.00  0.00    -0.399 OA
HETATM   11  H   UNL     1     -34.869   0.761 -11.083  1.00  0.00     0.209 HD
ENDBRANCH   9  10
ENDBRANCH   8   9
ENDBRANCH   7   8
ENDBRANCH   4   7
TORSDOF 4
BEGIN_RES ARG D 557
REMARK  4 active torsions:
REMARK  status: ('A' for Active; 'I' for Inactive)
REMARK    1  A    between atoms: CA   and  CB  
REMARK    2  A    between atoms: CB   and  CG  
REMARK    3  A    between atoms: CG   and  CD  
REMARK    4  A    between atoms: CD   and  NE  
REMARK       I    between atoms: NE   and  CZ  
REMARK       I    between atoms: CZ   and  NH1 
REMARK       I    between atoms: CZ   and  NH2 
ROOT
ATOM      1  CA  ARG D 557     -26.217   2.705 -17.014  1.00 35.49     0.159 C 
ENDROOT
BRANCH   1   2
ATOM      2  CB  ARG D 557     -26.789   1.319 -17.183  1.00 35.49     0.034 C 
BRANCH   2   3
ATOM      3  CG  ARG D 557     -25.834   0.204 -17.170  1.00 35.49     0.027 C 
BRANCH   3   4
ATOM      4  CD  ARG D 557     -24.743   0.407 -16.190  1.00 35.49     0.116 C 
BRANCH   4   5
ATOM      5  NE  ARG D 557     -24.894  -0.430 -15.029  1.00 35.49    -0.212 N 
ATOM      6  CZ  ARG D 557     -24.081  -1.397 -14.669  1.00 35.49     0.666 C 
ATOM      7  NH1 ARG D 557     -23.010  -1.722 -15.370  1.00 35.49    -0.235 N 
ATOM      8  NH2 ARG D 557     -24.361  -2.040 -13.572  1.00 35.49    -0.235 N 
ATOM      9  HH  ARG D 557     -22.805  -1.311 -16.093  1.00 35.49     0.174 HD
ATOM     10  HH  ARG D 557     -22.515  -2.360 -15.084  1.00 35.49     0.174 HD
ATOM     11  HH  ARG D 557     -25.055  -1.804 -13.136  1.00 35.49     0.174 HD
ATOM     12  HH  ARG D 557     -23.858  -2.668 -13.306  1.00 35.49     0.174 HD
ATOM     13  HE  ARG D 557     -25.597  -0.338 -14.559  1.00 35.49     0.178 HD
ENDBRANCH   4   5
ENDBRANCH   3   4
ENDBRANCH   2   3
ENDBRANCH   1   2
END_RES ARG D 557
BEGIN_RES GLU D 570
REMARK  3 active torsions:
REMARK  status: ('A' for Active; 'I' for Inactive)
REMARK    5  A    between atoms: CA   and  CB  
REMARK    6  A    between atoms: CB   and  CG  
REMARK    7  A    between atoms: CG   and  CD  
ROOT
ATOM     14  CA  GLU D 570     -18.033  -6.348 -13.375  1.00 32.92     0.160 C 
ENDROOT
BRANCH  14  15
ATOM     15  CB  GLU D 570     -19.500  -6.345 -13.794  1.00 32.92     0.043 C 
BRANCH  15  16
ATOM     16  CG  GLU D 570     -20.439  -5.516 -12.994  1.00 32.92     0.100 C 
BRANCH  16  17
ATOM     17  CD  GLU D 570     -21.749  -5.260 -13.702  1.00 32.92     0.185 C 
ATOM     18  OE1 GLU D 570     -22.222  -6.147 -14.439  1.00 32.92    -0.647 OA
ATOM     19  OE2 GLU D 570     -22.299  -4.155 -13.531  1.00 32.92    -0.647 OA
ENDBRANCH  16  17
ENDBRANCH  15  16
ENDBRANCH  14  15
END_RES GLU D 570
ENDMDL
MODEL 8
REMARK VINA RESULT:      -5.7      3.838      6.417
REMARK  4 active torsions:
REMARK  status: ('A' for Active; 'I' for Inactive)
REMARK    1  A    between atoms: C_4  and  O_7 
REMARK    2  A    between atoms: O_7  and  C_8 
REMARK    3  A    between atoms: C_8  and  C_9 
REMARK    4  A    between atoms: C_9  and  O_10 
ROOT
HETATM    1  C   UNL     1     -27.557  -2.573 -16.215  1.00  0.00     0.000 A 
HETATM    2  C   UNL     1     -26.891  -3.625 -15.589  1.00  0.00     0.003 A 
HETATM    3  C   UNL     1     -27.260  -4.948 -15.851  1.00  0.00     0.037 A 
HETATM    4  C   UNL     1     -28.300  -5.223 -16.742  1.00  0.00     0.068 A 
HETATM    5  C   UNL     1     -28.949  -4.164 -17.380  1.00  0.00     0.037 A 
HETATM    6  C   UNL     1     -28.589  -2.842 -17.113  1.00  0.00     0.003 A 
ENDROOT
BRANCH   4   7
HETATM    7  O   UNL     1     -28.732  -6.471 -17.097  1.00  0.00    -0.349 OA
BRANCH   7   8
HETATM    8  C   UNL     1     -29.148  -6.627 -18.460  1.00  0.00     0.201 C 
BRANCH   8   9
HETATM    9  C   UNL     1     -30.146  -7.782 -18.512  1.00  0.00     0.190 C 
BRANCH   9  10
HETATM   10  O   UNL     1     -29.592  -8.880 -19.236  1.00  0.00    -0.399 OA
HETATM   11  H   UNL     1     -29.609  -8.617 -20.176  1.00  0.00     0.209 HD
ENDBRANCH   9  10
ENDBRANCH   8   9
ENDBRANCH   7   8
ENDBRANCH   4   7
TORSDOF 4
BEGIN_RES ARG D 557
REMARK  4 active torsions:
REMARK  status: ('A' for Active; 'I' for Inactive)
REMARK    1  A    between atoms: CA   and  CB  
REMARK    2  A    between atoms: CB   and  CG  
REMARK    3  A    between atoms: CG   and  CD  
REMARK    4  A    between atoms: CD   and  NE  
REMARK       I    between atoms: NE   and  CZ  
REMARK       I    between atoms: CZ   and  NH1 
REMARK       I    between atoms: CZ   and  NH2 
ROOT
ATOM      1  CA  ARG D 557     -26.217   2.705 -17.014  1.00 35.49     0.159 C 
ENDROOT
BRANCH   1   2
ATOM      2  CB  ARG D 557     -26.789   1.319 -17.183  1.00 35.49     0.034 C 
BRANCH   2   3
ATOM      3  CG  ARG D 557     -25.833   0.205 -17.182  1.00 35.49     0.027 C 
BRANCH   3   4
ATOM      4  CD  ARG D 557     -24.720   0.418 -16.229  1.00 35.49     0.116 C 
BRANCH   4   5
ATOM      5  NE  ARG D 557     -24.851  -0.398 -15.051  1.00 35.49    -0.212 N 
ATOM      6  CZ  ARG D 557     -24.038  -1.368 -14.694  1.00 35.49     0.666 C 
ATOM      7  NH1 ARG D 557     -22.987  -1.714 -15.414  1.00 35.49    -0.235 N 
ATOM      8  NH2 ARG D 557     -24.299  -1.990 -13.581  1.00 35.49    -0.235 N 
ATOM      9  HH  ARG D 557     -22.796  -1.317 -16.149  1.00 35.49     0.174 HD
ATOM     10  HH  ARG D 557     -22.492  -2.352 -15.130  1.00 35.49     0.174 HD
ATOM     11  HH  ARG D 557     -24.980  -1.740 -13.132  1.00 35.49     0.174 HD
ATOM     12  HH  ARG D 557     -23.795  -2.618 -13.315  1.00 35.49     0.174 HD
ATOM     13  HE  ARG D 557     -25.542  -0.292 -14.567  1.00 35.49     0.178 HD
ENDBRANCH   4   5
ENDBRANCH   3   4
ENDBRANCH   2   3
ENDBRANCH   1   2
END_RES ARG D 557
BEGIN_RES GLU D 570
REMARK  3 active torsions:
REMARK  status: ('A' for Active; 'I' for Inactive)
REMARK    5  A    between atoms: CA   and  CB  
REMARK    6  A    between atoms: CB   and  CG  
REMARK    7  A    between atoms: CG   and  CD  
ROOT
ATOM     14  CA  GLU D 570     -18.033  -6.348 -13.375  1.00 32.92     0.160 C 
ENDROOT
BRANCH  14  15
ATOM     15  CB  GLU D 570     -19.500  -6.345 -13.794  1.00 32.92     0.043 C 
BRANCH  15  16
ATOM     16  CG  GLU D 570     -20.441  -5.525 -12.987  1.00 32.92     0.100 C 
BRANCH  16  17
ATOM     17  CD  GLU D 570     -21.739  -5.240 -13.706  1.00 32.92     0.185 C 
ATOM     18  OE1 GLU D 570     -22.304  -4.144 -13.523  1.00 32.92    -0.647 OA
ATOM     19  OE2 GLU D 570     -22.205  -6.129 -14.446  1.00 32.92    -0.647 OA
ENDBRANCH  16  17
ENDBRANCH  15  16
ENDBRANCH  14  15
END_RES GLU D 570
ENDMDL
MODEL 9
REMARK VINA RESULT:      -5.6      3.155      6.020
REMARK  4 active torsions:
REMARK  status: ('A' for Active; 'I' for Inactive)
REMARK    1  A    between atoms: C_4  and  O_7 
REMARK    2  A    between atoms: O_7  and  C_8 
REMARK    3  A    between atoms: C_8  and  C_9 
REMARK    4  A    between atoms: C_9  and  O_10 
ROOT
HETATM    1  C   UNL     1     -30.081  -4.501 -17.939  1.00  0.00     0.000 A 
HETATM    2  C   UNL     1     -29.618  -5.809 -18.080  1.00  0.00     0.003 A 
HETATM    3  C   UNL     1     -28.344  -6.157 -17.623  1.00  0.00     0.037 A 
HETATM    4  C   UNL     1     -27.526  -5.196 -17.023  1.00  0.00     0.068 A 
HETATM    5  C   UNL     1     -28.005  -3.894 -16.868  1.00  0.00     0.037 A 
HETATM    6  C   UNL     1     -29.274  -3.541 -17.331  1.00  0.00     0.003 A 
ENDROOT
BRANCH   4   7
HETATM    7  O   UNL     1     -26.277  -5.423 -16.515  1.00  0.00    -0.349 OA
BRANCH   7   8
HETATM    8  C   UNL     1     -26.062  -6.713 -15.929  1.00  0.00     0.201 C 
BRANCH   8   9
HETATM    9  C   UNL     1     -24.643  -6.736 -15.364  1.00  0.00     0.190 C 
BRANCH   9  10
HETATM   10  O   UNL     1     -23.718  -6.245 -16.333  1.00  0.00    -0.399 OA
HETATM   11  H   UNL     1     -23.053  -5.734 -15.834  1.00  0.00     0.209 HD
ENDBRANCH   9  10
ENDBRANCH   8   9
ENDBRANCH   7   8
ENDBRANCH   4   7
TORSDOF 4
BEGIN_RES ARG D 557
REMARK  4 active torsions:
REMARK  status: ('A' for Active; 'I' for Inactive)
REMARK    1  A    between atoms: CA   and  CB  
REMARK    2  A    between atoms: CB   and  CG  
REMARK    3  A    between atoms: CG   and  CD  
REMARK    4  A    between atoms: CD   and  NE  
REMARK       I    between atoms: NE   and  CZ  
REMARK       I    between atoms: CZ   and  NH1 
REMARK       I    between atoms: CZ   and  NH2 
ROOT
ATOM      1  CA  ARG D 557     -26.217   2.705 -17.014  1.00 35.49     0.159 C 
ENDROOT
BRANCH   1   2
ATOM      2  CB  ARG D 557     -26.789   1.319 -17.183  1.00 35.49     0.034 C 
BRANCH   2   3
ATOM      3  CG  ARG D 557     -25.857   0.196 -17.024  1.00 35.49     0.027 C 
BRANCH   3   4
ATOM      4  CD  ARG D 557     -26.229  -0.690 -15.897  1.00 35.49     0.116 C 
BRANCH   4   5
ATOM      5  NE  ARG D 557     -25.145  -0.867 -14.966  1.00 35.49    -0.212 N 
ATOM      6  CZ  ARG D 557     -24.829  -1.989 -14.359  1.00 35.49     0.666 C 
ATOM      7  NH1 ARG D 557     -25.508  -3.107 -14.538  1.00 35.49    -0.235 N 
ATOM      8  NH2 ARG D 557     -23.800  -1.971 -13.563  1.00 35.49    -0.235 N 
ATOM      9  HH  ARG D 557     -26.187  -3.142 -15.060  1.00 35.49     0.174 HD
ATOM     10  HH  ARG D 557     -25.253  -3.809 -14.118  1.00 35.49     0.174 HD
ATOM     11  HH  ARG D 557     -23.377  -1.237 -13.472  1.00 35.49     0.174 HD
ATOM     12  HH  ARG D 557     -23.563  -2.677 -13.156  1.00 35.49     0.174 HD
ATOM     13  HE  ARG D 557     -24.700  -0.180 -14.737  1.00 35.49     0.178 HD
ENDBRANCH   4   5
ENDBRANCH   3   4
ENDBRANCH   2   3
ENDBRANCH   1   2
END_RES ARG D 557
BEGIN_RES GLU D 570
REMARK  3 active torsions:
REMARK  status: ('A' for Active; 'I' for Inactive)
REMARK    5  A    between atoms: CA   and  CB  
REMARK    6  A    between atoms: CB   and  CG  
REMARK    7  A    between atoms: CG   and  CD  
ROOT
ATOM     14  CA  GLU D 570     -18.033  -6.348 -13.375  1.00 32.92     0.160 C 
ENDROOT
BRANCH  14  15
ATOM     15  CB  GLU D 570     -19.500  -6.345 -13.794  1.00 32.92     0.043 C 
BRANCH  15  16
ATOM     16  CG  GLU D 570     -20.443  -5.536 -12.979  1.00 32.92     0.100 C 
BRANCH  16  17
ATOM     17  CD  GLU D 570     -21.632  -5.043 -13.770  1.00 32.92     0.185 C 
ATOM     18  OE1 GLU D 570     -22.697  -4.796 -13.172  1.00 32.92    -0.647 OA
ATOM     19  OE2 GLU D 570     -21.502  -4.918 -15.004  1.00 32.92    -0.647 OA
ENDBRANCH  16  17
ENDBRANCH  15  16
ENDBRANCH  14  15
END_RES GLU D 570
ENDMDL
