MODEL 1
REMARK VINA RESULT:      -5.8      0.000      0.000
REMARK  2 active torsions:
REMARK  status: ('A' for Active; 'I' for Inactive)
REMARK    1  A    between atoms: C_2  and  C_5 
REMARK    2  A    between atoms: C_8  and  O_11 
ROOT
HETATM    1  C   UNL     1     -28.670  -5.802 -17.924  1.00  0.00    -0.007 C 
HETATM    2  C   UNL     1     -29.166  -4.382 -18.267  1.00  0.00     0.008 C 
HETATM    3  C   UNL     1     -30.314  -3.872 -17.399  1.00  0.00     0.032 C 
HETATM    4  C   UNL     1     -31.450  -4.876 -17.213  1.00  0.00     0.118 C 
HETATM    5  C   UNL     1     -31.004  -6.315 -16.974  1.00  0.00     0.032 C 
HETATM    6  C   UNL     1     -29.893  -6.745 -17.916  1.00  0.00     0.008 C 
ENDROOT
BRANCH   1   7
HETATM    7  C   UNL     1     -27.670  -5.929 -16.704  1.00  0.00    -0.048 C 
HETATM    8  C   UNL     1     -27.517  -4.675 -15.826  1.00  0.00     0.015 C 
HETATM    9  C   UNL     1     -26.251  -6.274 -17.218  1.00  0.00     0.015 C 
HETATM   10  C   UNL     1     -28.107  -7.094 -15.786  1.00  0.00     0.015 C 
ENDBRANCH   1   7
BRANCH   4  11
HETATM   11  O   UNL     1     -32.265  -4.453 -16.118  1.00  0.00    -0.396 OA
HETATM   12  H   UNL     1     -31.763  -4.612 -15.296  1.00  0.00     0.210 HD
ENDBRANCH   4  11
TORSDOF 2
BEGIN_RES ARG D 557
REMARK  4 active torsions:
REMARK  status: ('A' for Active; 'I' for Inactive)
REMARK    1  A    between atoms: CA   and  CB  
REMARK    2  A    between atoms: CB   and  CG  
REMARK    3  A    between atoms: CG   and  CD  
REMARK    4  A    between atoms: CD   and  NE  
REMARK       I    between atoms: NE   and  CZ  
REMARK       I    between atoms: CZ   and  NH1 
REMARK       I    between atoms: CZ   and  NH2 
ROOT
ATOM      1  CA  ARG D 557     -26.217   2.705 -17.014  1.00 35.49     0.159 C 
ENDROOT
BRANCH   1   2
ATOM      2  CB  ARG D 557     -26.789   1.319 -17.183  1.00 35.49     0.034 C 
BRANCH   2   3
ATOM      3  CG  ARG D 557     -25.836   0.203 -17.157  1.00 35.49     0.027 C 
BRANCH   3   4
ATOM      4  CD  ARG D 557     -24.750   0.411 -16.172  1.00 35.49     0.116 C 
BRANCH   4   5
ATOM      5  NE  ARG D 557     -24.895  -0.438 -15.019  1.00 35.49    -0.212 N 
ATOM      6  CZ  ARG D 557     -24.078  -1.407 -14.671  1.00 35.49     0.666 C 
ATOM      7  NH1 ARG D 557     -23.008  -1.720 -15.378  1.00 35.49    -0.235 N 
ATOM      8  NH2 ARG D 557     -24.353  -2.062 -13.580  1.00 35.49    -0.235 N 
ATOM      9  HH  ARG D 557     -22.806  -1.301 -16.097  1.00 35.49     0.174 HD
ATOM     10  HH  ARG D 557     -22.510  -2.360 -15.100  1.00 35.49     0.174 HD
ATOM     11  HH  ARG D 557     -25.046  -1.833 -13.140  1.00 35.49     0.174 HD
ATOM     12  HH  ARG D 557     -23.847  -2.691 -13.321  1.00 35.49     0.174 HD
ATOM     13  HE  ARG D 557     -25.597  -0.354 -14.546  1.00 35.49     0.178 HD
ENDBRANCH   4   5
ENDBRANCH   3   4
ENDBRANCH   2   3
ENDBRANCH   1   2
END_RES ARG D 557
BEGIN_RES GLU D 570
REMARK  3 active torsions:
REMARK  status: ('A' for Active; 'I' for Inactive)
REMARK    5  A    between atoms: CA   and  CB  
REMARK    6  A    between atoms: CB   and  CG  
REMARK    7  A    between atoms: CG   and  CD  
ROOT
ATOM     14  CA  GLU D 570     -18.033  -6.348 -13.375  1.00 32.92     0.160 C 
ENDROOT
BRANCH  14  15
ATOM     15  CB  GLU D 570     -19.500  -6.345 -13.794  1.00 32.92     0.043 C 
BRANCH  15  16
ATOM     16  CG  GLU D 570     -20.441  -5.526 -12.987  1.00 32.92     0.100 C 
BRANCH  16  17
ATOM     17  CD  GLU D 570     -21.745  -5.252 -13.699  1.00 32.92     0.185 C 
ATOM     18  OE1 GLU D 570     -22.239  -6.141 -14.419  1.00 32.92    -0.647 OA
ATOM     19  OE2 GLU D 570     -22.268  -4.130 -13.550  1.00 32.92    -0.647 OA
ENDBRANCH  16  17
ENDBRANCH  15  16
ENDBRANCH  14  15
END_RES GLU D 570
ENDMDL
MODEL 2
REMARK VINA RESULT:      -5.8      1.552      2.422
REMARK  2 active torsions:
REMARK  status: ('A' for Active; 'I' for Inactive)
REMARK    1  A    between atoms: C_2  and  C_5 
REMARK    2  A    between atoms: C_8  and  O_11 
ROOT
HETATM    1  C   UNL     1     -29.249  -5.165 -17.155  1.00  0.00    -0.007 C 
HETATM    2  C   UNL     1     -30.614  -5.883 -17.182  1.00  0.00     0.008 C 
HETATM    3  C   UNL     1     -30.569  -7.338 -17.642  1.00  0.00     0.032 C 
HETATM    4  C   UNL     1     -29.746  -7.567 -18.909  1.00  0.00     0.118 C 
HETATM    5  C   UNL     1     -28.433  -6.793 -18.970  1.00  0.00     0.032 C 
HETATM    6  C   UNL     1     -28.588  -5.345 -18.540  1.00  0.00     0.008 C 
ENDROOT
BRANCH   1   7
HETATM    7  C   UNL     1     -28.331  -5.431 -15.894  1.00  0.00    -0.048 C 
HETATM    8  C   UNL     1     -27.430  -6.676 -15.968  1.00  0.00     0.015 C 
HETATM    9  C   UNL     1     -29.209  -5.606 -14.631  1.00  0.00     0.015 C 
HETATM   10  C   UNL     1     -27.422  -4.207 -15.638  1.00  0.00     0.015 C 
ENDBRANCH   1   7
BRANCH   4  11
HETATM   11  O   UNL     1     -29.470  -8.963 -19.033  1.00  0.00    -0.396 OA
HETATM   12  H   UNL     1     -28.838  -9.077 -19.769  1.00  0.00     0.210 HD
ENDBRANCH   4  11
TORSDOF 2
BEGIN_RES ARG D 557
REMARK  4 active torsions:
REMARK  status: ('A' for Active; 'I' for Inactive)
REMARK    1  A    between atoms: CA   and  CB  
REMARK    2  A    between atoms: CB   and  CG  
REMARK    3  A    between atoms: CG   and  CD  
REMARK    4  A    between atoms: CD   and  NE  
REMARK       I    between atoms: NE   and  CZ  
REMARK       I    between atoms: CZ   and  NH1 
REMARK       I    between atoms: CZ   and  NH2 
ROOT
ATOM      1  CA  ARG D 557     -26.217   2.705 -17.014  1.00 35.49     0.159 C 
ENDROOT
BRANCH   1   2
ATOM      2  CB  ARG D 557     -26.789   1.319 -17.183  1.00 35.49     0.034 C 
BRANCH   2   3
ATOM      3  CG  ARG D 557     -25.836   0.203 -17.154  1.00 35.49     0.027 C 
BRANCH   3   4
ATOM      4  CD  ARG D 557     -24.759   0.406 -16.158  1.00 35.49     0.116 C 
BRANCH   4   5
ATOM      5  NE  ARG D 557     -24.913  -0.448 -15.010  1.00 35.49    -0.212 N 
ATOM      6  CZ  ARG D 557     -24.101  -1.421 -14.663  1.00 35.49     0.666 C 
ATOM      7  NH1 ARG D 557     -23.029  -1.735 -15.366  1.00 35.49    -0.235 N 
ATOM      8  NH2 ARG D 557     -24.384  -2.081 -13.577  1.00 35.49    -0.235 N 
ATOM      9  HH  ARG D 557     -22.822  -1.313 -16.082  1.00 35.49     0.174 HD
ATOM     10  HH  ARG D 557     -22.534  -2.378 -15.089  1.00 35.49     0.174 HD
ATOM     11  HH  ARG D 557     -25.079  -1.851 -13.139  1.00 35.49     0.174 HD
ATOM     12  HH  ARG D 557     -23.882  -2.713 -13.319  1.00 35.49     0.174 HD
ATOM     13  HE  ARG D 557     -25.617  -0.363 -14.541  1.00 35.49     0.178 HD
ENDBRANCH   4   5
ENDBRANCH   3   4
ENDBRANCH   2   3
ENDBRANCH   1   2
END_RES ARG D 557
BEGIN_RES GLU D 570
REMARK  3 active torsions:
REMARK  status: ('A' for Active; 'I' for Inactive)
REMARK    5  A    between atoms: CA   and  CB  
REMARK    6  A    between atoms: CB   and  CG  
REMARK    7  A    between atoms: CG   and  CD  
ROOT
ATOM     14  CA  GLU D 570     -18.033  -6.348 -13.375  1.00 32.92     0.160 C 
ENDROOT
BRANCH  14  15
ATOM     15  CB  GLU D 570     -19.500  -6.345 -13.794  1.00 32.92     0.043 C 
BRANCH  15  16
ATOM     16  CG  GLU D 570     -20.444  -5.541 -12.976  1.00 32.92     0.100 C 
BRANCH  16  17
ATOM     17  CD  GLU D 570     -21.740  -5.243 -13.693  1.00 32.92     0.185 C 
ATOM     18  OE1 GLU D 570     -22.288  -4.138 -13.520  1.00 32.92    -0.647 OA
ATOM     19  OE2 GLU D 570     -22.221  -6.132 -14.424  1.00 32.92    -0.647 OA
ENDBRANCH  16  17
ENDBRANCH  15  16
ENDBRANCH  14  15
END_RES GLU D 570
ENDMDL
MODEL 3
REMARK VINA RESULT:      -5.8      1.741      3.047
REMARK  2 active torsions:
REMARK  status: ('A' for Active; 'I' for Inactive)
REMARK    1  A    between atoms: C_2  and  C_5 
REMARK    2  A    between atoms: C_8  and  O_11 
ROOT
HETATM    1  C   UNL     1     -28.907  -5.004 -16.067  1.00  0.00    -0.007 C 
HETATM    2  C   UNL     1     -27.473  -4.435 -16.101  1.00  0.00     0.008 C 
HETATM    3  C   UNL     1     -26.383  -5.453 -16.428  1.00  0.00     0.032 C 
HETATM    4  C   UNL     1     -26.492  -6.758 -15.641  1.00  0.00     0.118 C 
HETATM    5  C   UNL     1     -27.909  -7.303 -15.493  1.00  0.00     0.032 C 
HETATM    6  C   UNL     1     -28.913  -6.225 -15.122  1.00  0.00     0.008 C 
ENDROOT
BRANCH   1   7
HETATM    7  C   UNL     1     -29.633  -5.185 -17.461  1.00  0.00    -0.048 C 
HETATM    8  C   UNL     1     -30.592  -6.383 -17.570  1.00  0.00     0.015 C 
HETATM    9  C   UNL     1     -28.582  -5.368 -18.584  1.00  0.00     0.015 C 
HETATM   10  C   UNL     1     -30.435  -3.909 -17.805  1.00  0.00     0.015 C 
ENDBRANCH   1   7
BRANCH   4  11
HETATM   11  O   UNL     1     -25.676  -7.747 -16.273  1.00  0.00    -0.396 OA
HETATM   12  H   UNL     1     -26.245  -8.256 -16.882  1.00  0.00     0.210 HD
ENDBRANCH   4  11
TORSDOF 2
BEGIN_RES ARG D 557
REMARK  4 active torsions:
REMARK  status: ('A' for Active; 'I' for Inactive)
REMARK    1  A    between atoms: CA   and  CB  
REMARK    2  A    between atoms: CB   and  CG  
REMARK    3  A    between atoms: CG   and  CD  
REMARK    4  A    between atoms: CD   and  NE  
REMARK       I    between atoms: NE   and  CZ  
REMARK       I    between atoms: CZ   and  NH1 
REMARK       I    between atoms: CZ   and  NH2 
ROOT
ATOM      1  CA  ARG D 557     -26.217   2.705 -17.014  1.00 35.49     0.159 C 
ENDROOT
BRANCH   1   2
ATOM      2  CB  ARG D 557     -26.789   1.319 -17.183  1.00 35.49     0.034 C 
BRANCH   2   3
ATOM      3  CG  ARG D 557     -25.836   0.203 -17.155  1.00 35.49     0.027 C 
BRANCH   3   4
ATOM      4  CD  ARG D 557     -24.756   0.408 -16.163  1.00 35.49     0.116 C 
BRANCH   4   5
ATOM      5  NE  ARG D 557     -24.908  -0.443 -15.012  1.00 35.49    -0.212 N 
ATOM      6  CZ  ARG D 557     -24.096  -1.416 -14.664  1.00 35.49     0.666 C 
ATOM      7  NH1 ARG D 557     -23.025  -1.733 -15.369  1.00 35.49    -0.235 N 
ATOM      8  NH2 ARG D 557     -24.377  -2.072 -13.576  1.00 35.49    -0.235 N 
ATOM      9  HH  ARG D 557     -22.820  -1.313 -16.087  1.00 35.49     0.174 HD
ATOM     10  HH  ARG D 557     -22.531  -2.376 -15.092  1.00 35.49     0.174 HD
ATOM     11  HH  ARG D 557     -25.071  -1.841 -13.137  1.00 35.49     0.174 HD
ATOM     12  HH  ARG D 557     -23.874  -2.704 -13.317  1.00 35.49     0.174 HD
ATOM     13  HE  ARG D 557     -25.610  -0.356 -14.541  1.00 35.49     0.178 HD
ENDBRANCH   4   5
ENDBRANCH   3   4
ENDBRANCH   2   3
ENDBRANCH   1   2
END_RES ARG D 557
BEGIN_RES GLU D 570
REMARK  3 active torsions:
REMARK  status: ('A' for Active; 'I' for Inactive)
REMARK    5  A    between atoms: CA   and  CB  
REMARK    6  A    between atoms: CB   and  CG  
REMARK    7  A    between atoms: CG   and  CD  
ROOT
ATOM     14  CA  GLU D 570     -18.033  -6.348 -13.375  1.00 32.92     0.160 C 
ENDROOT
BRANCH  14  15
ATOM     15  CB  GLU D 570     -19.500  -6.345 -13.794  1.00 32.92     0.043 C 
BRANCH  15  16
ATOM     16  CG  GLU D 570     -20.443  -5.535 -12.980  1.00 32.92     0.100 C 
BRANCH  16  17
ATOM     17  CD  GLU D 570     -21.740  -5.242 -13.698  1.00 32.92     0.185 C 
ATOM     18  OE1 GLU D 570     -22.307  -4.151 -13.501  1.00 32.92    -0.647 OA
ATOM     19  OE2 GLU D 570     -22.202  -6.121 -14.452  1.00 32.92    -0.647 OA
ENDBRANCH  16  17
ENDBRANCH  15  16
ENDBRANCH  14  15
END_RES GLU D 570
ENDMDL
MODEL 4
REMARK VINA RESULT:      -5.5      9.317     13.220
REMARK  2 active torsions:
REMARK  status: ('A' for Active; 'I' for Inactive)
REMARK    1  A    between atoms: C_2  and  C_5 
REMARK    2  A    between atoms: C_8  and  O_11 
ROOT
HETATM    1  C   UNL     1     -21.387  -9.516  -0.236  1.00  0.00    -0.007 C 
HETATM    2  C   UNL     1     -22.008  -8.403   0.634  1.00  0.00     0.008 C 
HETATM    3  C   UNL     1     -22.704  -7.289  -0.145  1.00  0.00     0.032 C 
HETATM    4  C   UNL     1     -21.892  -6.750  -1.322  1.00  0.00     0.118 C 
HETATM    5  C   UNL     1     -21.174  -7.811  -2.148  1.00  0.00     0.032 C 
HETATM    6  C   UNL     1     -20.474  -8.848  -1.286  1.00  0.00     0.008 C 
ENDROOT
BRANCH   1   7
HETATM    7  C   UNL     1     -22.372 -10.637  -0.764  1.00  0.00    -0.048 C 
HETATM    8  C   UNL     1     -22.591 -10.676  -2.286  1.00  0.00     0.015 C 
HETATM    9  C   UNL     1     -23.772 -10.452  -0.129  1.00  0.00     0.015 C 
HETATM   10  C   UNL     1     -21.864 -12.030  -0.327  1.00  0.00     0.015 C 
ENDBRANCH   1   7
BRANCH   4  11
HETATM   11  O   UNL     1     -22.759  -6.001  -2.175  1.00  0.00    -0.396 OA
HETATM   12  H   UNL     1     -23.365  -6.632  -2.610  1.00  0.00     0.210 HD
ENDBRANCH   4  11
TORSDOF 2
BEGIN_RES ARG D 557
REMARK  4 active torsions:
REMARK  status: ('A' for Active; 'I' for Inactive)
REMARK    1  A    between atoms: CA   and  CB  
REMARK    2  A    between atoms: CB   and  CG  
REMARK    3  A    between atoms: CG   and  CD  
REMARK    4  A    between atoms: CD   and  NE  
REMARK       I    between atoms: NE   and  CZ  
REMARK       I    between atoms: CZ   and  NH1 
REMARK       I    between atoms: CZ   and  NH2 
ROOT
ATOM      1  CA  ARG D 557     -26.217   2.705 -17.014  1.00 35.49     0.159 C 
ENDROOT
BRANCH   1   2
ATOM      2  CB  ARG D 557     -26.789   1.319 -17.183  1.00 35.49     0.034 C 
BRANCH   2   3
ATOM      3  CG  ARG D 557     -25.836   0.203 -17.157  1.00 35.49     0.027 C 
BRANCH   3   4
ATOM      4  CD  ARG D 557     -24.752   0.410 -16.168  1.00 35.49     0.116 C 
BRANCH   4   5
ATOM      5  NE  ARG D 557     -24.902  -0.437 -15.014  1.00 35.49    -0.212 N 
ATOM      6  CZ  ARG D 557     -24.094  -1.413 -14.668  1.00 35.49     0.666 C 
ATOM      7  NH1 ARG D 557     -23.029  -1.738 -15.378  1.00 35.49    -0.235 N 
ATOM      8  NH2 ARG D 557     -24.372  -2.064 -13.576  1.00 35.49    -0.235 N 
ATOM      9  HH  ARG D 557     -22.825  -1.322 -16.098  1.00 35.49     0.174 HD
ATOM     10  HH  ARG D 557     -22.536  -2.382 -15.101  1.00 35.49     0.174 HD
ATOM     11  HH  ARG D 557     -25.062  -1.828 -13.134  1.00 35.49     0.174 HD
ATOM     12  HH  ARG D 557     -23.871  -2.698 -13.318  1.00 35.49     0.174 HD
ATOM     13  HE  ARG D 557     -25.602  -0.345 -14.540  1.00 35.49     0.178 HD
ENDBRANCH   4   5
ENDBRANCH   3   4
ENDBRANCH   2   3
ENDBRANCH   1   2
END_RES ARG D 557
BEGIN_RES GLU D 570
REMARK  3 active torsions:
REMARK  status: ('A' for Active; 'I' for Inactive)
REMARK    5  A    between atoms: CA   and  CB  
REMARK    6  A    between atoms: CB   and  CG  
REMARK    7  A    between atoms: CG   and  CD  
ROOT
ATOM     14  CA  GLU D 570     -18.033  -6.348 -13.375  1.00 32.92     0.160 C 
ENDROOT
BRANCH  14  15
ATOM     15  CB  GLU D 570     -19.500  -6.345 -13.794  1.00 32.92     0.043 C 
BRANCH  15  16
ATOM     16  CG  GLU D 570     -20.443  -5.538 -12.978  1.00 32.92     0.100 C 
BRANCH  16  17
ATOM     17  CD  GLU D 570     -21.741  -5.245 -13.694  1.00 32.92     0.185 C 
ATOM     18  OE1 GLU D 570     -22.289  -4.139 -13.524  1.00 32.92    -0.647 OA
ATOM     19  OE2 GLU D 570     -22.222  -6.136 -14.421  1.00 32.92    -0.647 OA
ENDBRANCH  16  17
ENDBRANCH  15  16
ENDBRANCH  14  15
END_RES GLU D 570
ENDMDL
MODEL 5
REMARK VINA RESULT:      -5.2      9.551     13.469
REMARK  2 active torsions:
REMARK  status: ('A' for Active; 'I' for Inactive)
REMARK    1  A    between atoms: C_2  and  C_5 
REMARK    2  A    between atoms: C_8  and  O_11 
ROOT
HETATM    1  C   UNL     1     -21.381  -9.510  -0.236  1.00  0.00    -0.007 C 
HETATM    2  C   UNL     1     -21.985  -8.389   0.635  1.00  0.00     0.008 C 
HETATM    3  C   UNL     1     -22.691  -7.279  -0.140  1.00  0.00     0.032 C 
HETATM    4  C   UNL     1     -21.896  -6.750  -1.333  1.00  0.00     0.118 C 
HETATM    5  C   UNL     1     -21.195  -7.819  -2.163  1.00  0.00     0.032 C 
HETATM    6  C   UNL     1     -20.483  -8.851  -1.306  1.00  0.00     0.008 C 
ENDROOT
BRANCH   1   7
HETATM    7  C   UNL     1     -22.376 -10.632  -0.741  1.00  0.00    -0.048 C 
HETATM    8  C   UNL     1     -22.601 -10.697  -2.261  1.00  0.00     0.015 C 
HETATM    9  C   UNL     1     -23.773 -10.423  -0.105  1.00  0.00     0.015 C 
HETATM   10  C   UNL     1     -21.880 -12.021  -0.280  1.00  0.00     0.015 C 
ENDBRANCH   1   7
BRANCH   4  11
HETATM   11  O   UNL     1     -22.776  -6.005  -2.178  1.00  0.00    -0.396 OA
HETATM   12  H   UNL     1     -22.618  -5.056  -2.009  1.00  0.00     0.210 HD
ENDBRANCH   4  11
TORSDOF 2
BEGIN_RES ARG D 557
REMARK  4 active torsions:
REMARK  status: ('A' for Active; 'I' for Inactive)
REMARK    1  A    between atoms: CA   and  CB  
REMARK    2  A    between atoms: CB   and  CG  
REMARK    3  A    between atoms: CG   and  CD  
REMARK    4  A    between atoms: CD   and  NE  
REMARK       I    between atoms: NE   and  CZ  
REMARK       I    between atoms: CZ   and  NH1 
REMARK       I    between atoms: CZ   and  NH2 
ROOT
ATOM      1  CA  ARG D 557     -26.217   2.705 -17.014  1.00 35.49     0.159 C 
ENDROOT
BRANCH   1   2
ATOM      2  CB  ARG D 557     -26.789   1.319 -17.183  1.00 35.49     0.034 C 
BRANCH   2   3
ATOM      3  CG  ARG D 557     -28.230   1.227 -17.448  1.00 35.49     0.027 C 
BRANCH   3   4
ATOM      4  CD  ARG D 557     -28.918   0.309 -16.512  1.00 35.49     0.116 C 
BRANCH   4   5
ATOM      5  NE  ARG D 557     -29.295  -0.928 -17.145  1.00 35.49    -0.212 N 
ATOM      6  CZ  ARG D 557     -28.661  -2.074 -17.031  1.00 35.49     0.666 C 
ATOM      7  NH1 ARG D 557     -27.564  -2.208 -16.308  1.00 35.49    -0.235 N 
ATOM      8  NH2 ARG D 557     -29.158  -3.100 -17.658  1.00 35.49    -0.235 N 
ATOM      9  HH  ARG D 557     -27.221  -1.547 -15.885  1.00 35.49     0.174 HD
ATOM     10  HH  ARG D 557     -27.195  -2.980 -16.269  1.00 35.49     0.174 HD
ATOM     11  HH  ARG D 557     -29.871  -2.985 -18.111  1.00 35.49     0.174 HD
ATOM     12  HH  ARG D 557     -28.778  -3.856 -17.606  1.00 35.49     0.174 HD
ATOM     13  HE  ARG D 557     -29.950  -0.916 -17.687  1.00 35.49     0.178 HD
ENDBRANCH   4   5
ENDBRANCH   3   4
ENDBRANCH   2   3
ENDBRANCH   1   2
END_RES ARG D 557
BEGIN_RES GLU D 570
REMARK  3 active torsions:
REMARK  status: ('A' for Active; 'I' for Inactive)
REMARK    5  A    between atoms: CA   and  CB  
REMARK    6  A    between atoms: CB   and  CG  
REMARK    7  A    between atoms: CG   and  CD  
ROOT
ATOM     14  CA  GLU D 570     -18.033  -6.348 -13.375  1.00 32.92     0.160 C 
ENDROOT
BRANCH  14  15
ATOM     15  CB  GLU D 570     -19.500  -6.345 -13.794  1.00 32.92     0.043 C 
BRANCH  15  16
ATOM     16  CG  GLU D 570     -20.440  -5.524 -12.988  1.00 32.92     0.100 C 
BRANCH  16  17
ATOM     17  CD  GLU D 570     -21.739  -5.239 -13.707  1.00 32.92     0.185 C 
ATOM     18  OE1 GLU D 570     -22.326  -4.162 -13.491  1.00 32.92    -0.647 OA
ATOM     19  OE2 GLU D 570     -22.182  -6.111 -14.481  1.00 32.92    -0.647 OA
ENDBRANCH  16  17
ENDBRANCH  15  16
ENDBRANCH  14  15
END_RES GLU D 570
ENDMDL
MODEL 6
REMARK VINA RESULT:      -5.1     17.158     21.744
REMARK  2 active torsions:
REMARK  status: ('A' for Active; 'I' for Inactive)
REMARK    1  A    between atoms: C_2  and  C_5 
REMARK    2  A    between atoms: C_8  and  O_11 
ROOT
HETATM    1  C   UNL     1     -14.301   8.351   4.279  1.00  0.00    -0.007 C 
HETATM    2  C   UNL     1     -15.620   7.920   4.955  1.00  0.00     0.008 C 
HETATM    3  C   UNL     1     -16.363   9.035   5.688  1.00  0.00     0.032 C 
HETATM    4  C   UNL     1     -15.474   9.888   6.592  1.00  0.00     0.118 C 
HETATM    5  C   UNL     1     -14.116  10.250   6.002  1.00  0.00     0.032 C 
HETATM    6  C   UNL     1     -13.434   9.067   5.337  1.00  0.00     0.008 C 
ENDROOT
BRANCH   1   7
HETATM    7  C   UNL     1     -14.425   9.059   2.869  1.00  0.00    -0.048 C 
HETATM    8  C   UNL     1     -15.481  10.173   2.765  1.00  0.00     0.015 C 
HETATM    9  C   UNL     1     -14.789   8.015   1.785  1.00  0.00     0.015 C 
HETATM   10  C   UNL     1     -13.062   9.665   2.464  1.00  0.00     0.015 C 
ENDBRANCH   1   7
BRANCH   4  11
HETATM   11  O   UNL     1     -16.174  11.089   6.925  1.00  0.00    -0.396 OA
HETATM   12  H   UNL     1     -15.712  11.831   6.490  1.00  0.00     0.210 HD
ENDBRANCH   4  11
TORSDOF 2
BEGIN_RES ARG D 557
REMARK  4 active torsions:
REMARK  status: ('A' for Active; 'I' for Inactive)
REMARK    1  A    between atoms: CA   and  CB  
REMARK    2  A    between atoms: CB   and  CG  
REMARK    3  A    between atoms: CG   and  CD  
REMARK    4  A    between atoms: CD   and  NE  
REMARK       I    between atoms: NE   and  CZ  
REMARK       I    between atoms: CZ   and  NH1 
REMARK       I    between atoms: CZ   and  NH2 
ROOT
ATOM      1  CA  ARG D 557     -26.217   2.705 -17.014  1.00 35.49     0.159 C 
ENDROOT
BRANCH   1   2
ATOM      2  CB  ARG D 557     -26.789   1.319 -17.183  1.00 35.49     0.034 C 
BRANCH   2   3
ATOM      3  CG  ARG D 557     -25.834   0.204 -17.167  1.00 35.49     0.027 C 
BRANCH   3   4
ATOM      4  CD  ARG D 557     -24.746   0.407 -16.184  1.00 35.49     0.116 C 
BRANCH   4   5
ATOM      5  NE  ARG D 557     -24.896  -0.435 -15.027  1.00 35.49    -0.212 N 
ATOM      6  CZ  ARG D 557     -24.081  -1.403 -14.671  1.00 35.49     0.666 C 
ATOM      7  NH1 ARG D 557     -23.009  -1.722 -15.373  1.00 35.49    -0.235 N 
ATOM      8  NH2 ARG D 557     -24.361  -2.051 -13.578  1.00 35.49    -0.235 N 
ATOM      9  HH  ARG D 557     -22.805  -1.308 -16.094  1.00 35.49     0.174 HD
ATOM     10  HH  ARG D 557     -22.513  -2.361 -15.090  1.00 35.49     0.174 HD
ATOM     11  HH  ARG D 557     -25.055  -1.818 -13.141  1.00 35.49     0.174 HD
ATOM     12  HH  ARG D 557     -23.856  -2.680 -13.313  1.00 35.49     0.174 HD
ATOM     13  HE  ARG D 557     -25.599  -0.347 -14.557  1.00 35.49     0.178 HD
ENDBRANCH   4   5
ENDBRANCH   3   4
ENDBRANCH   2   3
ENDBRANCH   1   2
END_RES ARG D 557
BEGIN_RES GLU D 570
REMARK  3 active torsions:
REMARK  status: ('A' for Active; 'I' for Inactive)
REMARK    5  A    between atoms: CA   and  CB  
REMARK    6  A    between atoms: CB   and  CG  
REMARK    7  A    between atoms: CG   and  CD  
ROOT
ATOM     14  CA  GLU D 570     -18.033  -6.348 -13.375  1.00 32.92     0.160 C 
ENDROOT
BRANCH  14  15
ATOM     15  CB  GLU D 570     -19.500  -6.345 -13.794  1.00 32.92     0.043 C 
BRANCH  15  16
ATOM     16  CG  GLU D 570     -20.441  -5.525 -12.988  1.00 32.92     0.100 C 
BRANCH  16  17
ATOM     17  CD  GLU D 570     -21.743  -5.249 -13.702  1.00 32.92     0.185 C 
ATOM     18  OE1 GLU D 570     -22.310  -4.154 -13.524  1.00 32.92    -0.647 OA
ATOM     19  OE2 GLU D 570     -22.210  -6.144 -14.434  1.00 32.92    -0.647 OA
ENDBRANCH  16  17
ENDBRANCH  15  16
ENDBRANCH  14  15
END_RES GLU D 570
ENDMDL
MODEL 7
REMARK VINA RESULT:      -5.0      8.024     12.269
REMARK  2 active torsions:
REMARK  status: ('A' for Active; 'I' for Inactive)
REMARK    1  A    between atoms: C_2  and  C_5 
REMARK    2  A    between atoms: C_8  and  O_11 
ROOT
HETATM    1  C   UNL     1     -20.484  -7.609  -2.893  1.00  0.00    -0.007 C 
HETATM    2  C   UNL     1     -20.215  -8.358  -1.571  1.00  0.00     0.008 C 
HETATM    3  C   UNL     1     -21.433  -8.526  -0.665  1.00  0.00     0.032 C 
HETATM    4  C   UNL     1     -22.251  -7.249  -0.476  1.00  0.00     0.118 C 
HETATM    5  C   UNL     1     -22.453  -6.422  -1.741  1.00  0.00     0.032 C 
HETATM    6  C   UNL     1     -21.177  -6.271  -2.551  1.00  0.00     0.008 C 
ENDROOT
BRANCH   1   7
HETATM    7  C   UNL     1     -21.119  -8.453  -4.071  1.00  0.00    -0.048 C 
HETATM    8  C   UNL     1     -22.023  -9.624  -3.648  1.00  0.00     0.015 C 
HETATM    9  C   UNL     1     -19.997  -9.065  -4.945  1.00  0.00     0.015 C 
HETATM   10  C   UNL     1     -21.948  -7.529  -4.992  1.00  0.00     0.015 C 
ENDBRANCH   1   7
BRANCH   4  11
HETATM   11  O   UNL     1     -23.528  -7.596   0.064  1.00  0.00    -0.396 OA
HETATM   12  H   UNL     1     -23.990  -6.765   0.289  1.00  0.00     0.210 HD
ENDBRANCH   4  11
TORSDOF 2
BEGIN_RES ARG D 557
REMARK  4 active torsions:
REMARK  status: ('A' for Active; 'I' for Inactive)
REMARK    1  A    between atoms: CA   and  CB  
REMARK    2  A    between atoms: CB   and  CG  
REMARK    3  A    between atoms: CG   and  CD  
REMARK    4  A    between atoms: CD   and  NE  
REMARK       I    between atoms: NE   and  CZ  
REMARK       I    between atoms: CZ   and  NH1 
REMARK       I    between atoms: CZ   and  NH2 
ROOT
ATOM      1  CA  ARG D 557     -26.217   2.705 -17.014  1.00 35.49     0.159 C 
ENDROOT
BRANCH   1   2
ATOM      2  CB  ARG D 557     -26.789   1.319 -17.183  1.00 35.49     0.034 C 
BRANCH   2   3
ATOM      3  CG  ARG D 557     -25.836   0.203 -17.157  1.00 35.49     0.027 C 
BRANCH   3   4
ATOM      4  CD  ARG D 557     -24.749   0.412 -16.173  1.00 35.49     0.116 C 
BRANCH   4   5
ATOM      5  NE  ARG D 557     -24.893  -0.437 -15.019  1.00 35.49    -0.212 N 
ATOM      6  CZ  ARG D 557     -24.074  -1.404 -14.670  1.00 35.49     0.666 C 
ATOM      7  NH1 ARG D 557     -23.003  -1.716 -15.377  1.00 35.49    -0.235 N 
ATOM      8  NH2 ARG D 557     -24.348  -2.058 -13.579  1.00 35.49    -0.235 N 
ATOM      9  HH  ARG D 557     -22.802  -1.297 -16.097  1.00 35.49     0.174 HD
ATOM     10  HH  ARG D 557     -22.504  -2.354 -15.099  1.00 35.49     0.174 HD
ATOM     11  HH  ARG D 557     -25.042  -1.830 -13.139  1.00 35.49     0.174 HD
ATOM     12  HH  ARG D 557     -23.841  -2.686 -13.320  1.00 35.49     0.174 HD
ATOM     13  HE  ARG D 557     -25.595  -0.353 -14.547  1.00 35.49     0.178 HD
ENDBRANCH   4   5
ENDBRANCH   3   4
ENDBRANCH   2   3
ENDBRANCH   1   2
END_RES ARG D 557
BEGIN_RES GLU D 570
REMARK  3 active torsions:
REMARK  status: ('A' for Active; 'I' for Inactive)
REMARK    5  A    between atoms: CA   and  CB  
REMARK    6  A    between atoms: CB   and  CG  
REMARK    7  A    between atoms: CG   and  CD  
ROOT
ATOM     14  CA  GLU D 570     -18.033  -6.348 -13.375  1.00 32.92     0.160 C 
ENDROOT
BRANCH  14  15
ATOM     15  CB  GLU D 570     -19.500  -6.345 -13.794  1.00 32.92     0.043 C 
BRANCH  15  16
ATOM     16  CG  GLU D 570     -20.441  -5.529 -12.984  1.00 32.92     0.100 C 
BRANCH  16  17
ATOM     17  CD  GLU D 570     -21.737  -5.236 -13.705  1.00 32.92     0.185 C 
ATOM     18  OE1 GLU D 570     -22.301  -4.141 -13.514  1.00 32.92    -0.647 OA
ATOM     19  OE2 GLU D 570     -22.201  -6.117 -14.454  1.00 32.92    -0.647 OA
ENDBRANCH  16  17
ENDBRANCH  15  16
ENDBRANCH  14  15
END_RES GLU D 570
ENDMDL
MODEL 8
REMARK VINA RESULT:      -5.0     10.347     13.983
REMARK  2 active torsions:
REMARK  status: ('A' for Active; 'I' for Inactive)
REMARK    1  A    between atoms: C_2  and  C_5 
REMARK    2  A    between atoms: C_8  and  O_11 
ROOT
HETATM    1  C   UNL     1     -21.879  -9.930  -0.915  1.00  0.00    -0.007 C 
HETATM    2  C   UNL     1     -23.120 -10.682  -1.438  1.00  0.00     0.008 C 
HETATM    3  C   UNL     1     -23.781 -11.618  -0.428  1.00  0.00     0.032 C 
HETATM    4  C   UNL     1     -22.801 -12.522   0.318  1.00  0.00     0.118 C 
HETATM    5  C   UNL     1     -21.511 -11.843   0.763  1.00  0.00     0.032 C 
HETATM    6  C   UNL     1     -20.904 -10.972  -0.323  1.00  0.00     0.008 C 
ENDROOT
BRANCH   1   7
HETATM    7  C   UNL     1     -22.147  -8.637  -0.043  1.00  0.00    -0.048 C 
HETATM    8  C   UNL     1     -23.559  -8.510   0.555  1.00  0.00     0.015 C 
HETATM    9  C   UNL     1     -21.924  -7.367  -0.900  1.00  0.00     0.015 C 
HETATM   10  C   UNL     1     -21.135  -8.571   1.124  1.00  0.00     0.015 C 
ENDBRANCH   1   7
BRANCH   4  11
HETATM   11  O   UNL     1     -23.459 -13.069   1.462  1.00  0.00    -0.396 OA
HETATM   12  H   UNL     1     -23.464 -12.384   2.158  1.00  0.00     0.210 HD
ENDBRANCH   4  11
TORSDOF 2
BEGIN_RES ARG D 557
REMARK  4 active torsions:
REMARK  status: ('A' for Active; 'I' for Inactive)
REMARK    1  A    between atoms: CA   and  CB  
REMARK    2  A    between atoms: CB   and  CG  
REMARK    3  A    between atoms: CG   and  CD  
REMARK    4  A    between atoms: CD   and  NE  
REMARK       I    between atoms: NE   and  CZ  
REMARK       I    between atoms: CZ   and  NH1 
REMARK       I    between atoms: CZ   and  NH2 
ROOT
ATOM      1  CA  ARG D 557     -26.217   2.705 -17.014  1.00 35.49     0.159 C 
ENDROOT
BRANCH   1   2
ATOM      2  CB  ARG D 557     -26.789   1.319 -17.183  1.00 35.49     0.034 C 
BRANCH   2   3
ATOM      3  CG  ARG D 557     -25.868   0.195 -16.979  1.00 35.49     0.027 C 
BRANCH   3   4
ATOM      4  CD  ARG D 557     -26.290  -0.686 -15.866  1.00 35.49     0.116 C 
BRANCH   4   5
ATOM      5  NE  ARG D 557     -25.227  -0.916 -14.923  1.00 35.49    -0.212 N 
ATOM      6  CZ  ARG D 557     -24.933  -2.068 -14.363  1.00 35.49     0.666 C 
ATOM      7  NH1 ARG D 557     -25.617  -3.171 -14.607  1.00 35.49    -0.235 N 
ATOM      8  NH2 ARG D 557     -23.920  -2.098 -13.546  1.00 35.49    -0.235 N 
ATOM      9  HH  ARG D 557     -26.286  -3.175 -15.143  1.00 35.49     0.174 HD
ATOM     10  HH  ARG D 557     -25.378  -3.894 -14.215  1.00 35.49     0.174 HD
ATOM     11  HH  ARG D 557     -23.492  -1.372 -13.413  1.00 35.49     0.174 HD
ATOM     12  HH  ARG D 557     -23.698  -2.824 -13.169  1.00 35.49     0.174 HD
ATOM     13  HE  ARG D 557     -24.780  -0.245 -14.653  1.00 35.49     0.178 HD
ENDBRANCH   4   5
ENDBRANCH   3   4
ENDBRANCH   2   3
ENDBRANCH   1   2
END_RES ARG D 557
BEGIN_RES GLU D 570
REMARK  3 active torsions:
REMARK  status: ('A' for Active; 'I' for Inactive)
REMARK    5  A    between atoms: CA   and  CB  
REMARK    6  A    between atoms: CB   and  CG  
REMARK    7  A    between atoms: CG   and  CD  
ROOT
ATOM     14  CA  GLU D 570     -18.033  -6.348 -13.375  1.00 32.92     0.160 C 
ENDROOT
BRANCH  14  15
ATOM     15  CB  GLU D 570     -19.500  -6.345 -13.794  1.00 32.92     0.043 C 
BRANCH  15  16
ATOM     16  CG  GLU D 570     -20.443  -5.535 -12.980  1.00 32.92     0.100 C 
BRANCH  16  17
ATOM     17  CD  GLU D 570     -21.684  -5.133 -13.742  1.00 32.92     0.185 C 
ATOM     18  OE1 GLU D 570     -22.750  -4.968 -13.118  1.00 32.92    -0.647 OA
ATOM     19  OE2 GLU D 570     -21.593  -4.997 -14.978  1.00 32.92    -0.647 OA
ENDBRANCH  16  17
ENDBRANCH  15  16
ENDBRANCH  14  15
END_RES GLU D 570
ENDMDL
MODEL 9
REMARK VINA RESULT:      -4.8      8.644     12.776
REMARK  2 active torsions:
REMARK  status: ('A' for Active; 'I' for Inactive)
REMARK    1  A    between atoms: C_2  and  C_5 
REMARK    2  A    between atoms: C_8  and  O_11 
ROOT
HETATM    1  C   UNL     1     -20.867  -9.265  -1.079  1.00  0.00    -0.007 C 
HETATM    2  C   UNL     1     -19.944  -8.294  -1.845  1.00  0.00     0.008 C 
HETATM    3  C   UNL     1     -20.536  -7.718  -3.129  1.00  0.00     0.032 C 
HETATM    4  C   UNL     1     -21.196  -8.759  -4.033  1.00  0.00     0.118 C 
HETATM    5  C   UNL     1     -22.035  -9.804  -3.305  1.00  0.00     0.032 C 
HETATM    6  C   UNL     1     -21.343 -10.351  -2.069  1.00  0.00     0.008 C 
ENDROOT
BRANCH   1   7
HETATM    7  C   UNL     1     -21.975  -8.613  -0.157  1.00  0.00    -0.048 C 
HETATM    8  C   UNL     1     -22.494  -7.235  -0.601  1.00  0.00     0.015 C 
HETATM    9  C   UNL     1     -21.424  -8.426   1.278  1.00  0.00     0.015 C 
HETATM   10  C   UNL     1     -23.192  -9.560  -0.048  1.00  0.00     0.015 C 
ENDBRANCH   1   7
BRANCH   4  11
HETATM   11  O   UNL     1     -22.016  -8.085  -4.989  1.00  0.00    -0.396 OA
HETATM   12  H   UNL     1     -21.428  -7.709  -5.672  1.00  0.00     0.210 HD
ENDBRANCH   4  11
TORSDOF 2
BEGIN_RES ARG D 557
REMARK  4 active torsions:
REMARK  status: ('A' for Active; 'I' for Inactive)
REMARK    1  A    between atoms: CA   and  CB  
REMARK    2  A    between atoms: CB   and  CG  
REMARK    3  A    between atoms: CG   and  CD  
REMARK    4  A    between atoms: CD   and  NE  
REMARK       I    between atoms: NE   and  CZ  
REMARK       I    between atoms: CZ   and  NH1 
REMARK       I    between atoms: CZ   and  NH2 
ROOT
ATOM      1  CA  ARG D 557     -26.217   2.705 -17.014  1.00 35.49     0.159 C 
ENDROOT
BRANCH   1   2
ATOM      2  CB  ARG D 557     -26.789   1.319 -17.183  1.00 35.49     0.034 C 
BRANCH   2   3
ATOM      3  CG  ARG D 557     -25.837   0.202 -17.146  1.00 35.49     0.027 C 
BRANCH   3   4
ATOM      4  CD  ARG D 557     -24.756   0.415 -16.157  1.00 35.49     0.116 C 
BRANCH   4   5
ATOM      5  NE  ARG D 557     -24.897  -0.439 -15.007  1.00 35.49    -0.212 N 
ATOM      6  CZ  ARG D 557     -24.079  -1.410 -14.666  1.00 35.49     0.666 C 
ATOM      7  NH1 ARG D 557     -23.013  -1.721 -15.379  1.00 35.49    -0.235 N 
ATOM      8  NH2 ARG D 557     -24.351  -2.068 -13.577  1.00 35.49    -0.235 N 
ATOM      9  HH  ARG D 557     -22.813  -1.300 -16.098  1.00 35.49     0.174 HD
ATOM     10  HH  ARG D 557     -22.514  -2.363 -15.106  1.00 35.49     0.174 HD
ATOM     11  HH  ARG D 557     -25.042  -1.840 -13.133  1.00 35.49     0.174 HD
ATOM     12  HH  ARG D 557     -23.844  -2.699 -13.323  1.00 35.49     0.174 HD
ATOM     13  HE  ARG D 557     -25.597  -0.355 -14.531  1.00 35.49     0.178 HD
ENDBRANCH   4   5
ENDBRANCH   3   4
ENDBRANCH   2   3
ENDBRANCH   1   2
END_RES ARG D 557
BEGIN_RES GLU D 570
REMARK  3 active torsions:
REMARK  status: ('A' for Active; 'I' for Inactive)
REMARK    5  A    between atoms: CA   and  CB  
REMARK    6  A    between atoms: CB   and  CG  
REMARK    7  A    between atoms: CG   and  CD  
ROOT
ATOM     14  CA  GLU D 570     -18.033  -6.348 -13.375  1.00 32.92     0.160 C 
ENDROOT
BRANCH  14  15
ATOM     15  CB  GLU D 570     -19.500  -6.345 -13.794  1.00 32.92     0.043 C 
BRANCH  15  16
ATOM     16  CG  GLU D 570     -20.444  -5.541 -12.975  1.00 32.92     0.100 C 
BRANCH  16  17
ATOM     17  CD  GLU D 570     -21.733  -5.228 -13.700  1.00 32.92     0.185 C 
ATOM     18  OE1 GLU D 570     -22.286  -4.129 -13.503  1.00 32.92    -0.647 OA
ATOM     19  OE2 GLU D 570     -22.203  -6.098 -14.459  1.00 32.92    -0.647 OA
ENDBRANCH  16  17
ENDBRANCH  15  16
ENDBRANCH  14  15
END_RES GLU D 570
ENDMDL
