MODEL 1
REMARK VINA RESULT:      -6.7      0.000      0.000
REMARK  18 active torsions:
REMARK  status: ('A' for Active; 'I' for Inactive)
REMARK    1  A    between atoms: C_2  and  C_3 
REMARK    2  A    between atoms: C_3  and  C_4 
REMARK    3  A    between atoms: C_4  and  C_5 
REMARK    4  A    between atoms: C_5  and  C_6 
REMARK    5  A    between atoms: C_6  and  C_7 
REMARK    6  A    between atoms: C_7  and  C_8 
REMARK    7  A    between atoms: C_8  and  C_9 
REMARK    8  A    between atoms: C_9  and  C_10 
REMARK    9  A    between atoms: C_10  and  C_11 
REMARK   10  A    between atoms: C_11  and  C_12 
REMARK   11  A    between atoms: C_11  and  C_20 
REMARK   12  A    between atoms: C_12  and  C_13 
REMARK   13  A    between atoms: C_13  and  C_14 
REMARK   14  A    between atoms: C_14  and  C_15 
REMARK   15  A    between atoms: C_15  and  C_16 
REMARK   16  A    between atoms: C_16  and  C_17 
REMARK   17  A    between atoms: C_17  and  C_18 
REMARK   18  A    between atoms: C_20  and  O_21 
ROOT
HETATM    1  C   UNL     1     -21.018  -4.015  -7.064  1.00  0.00     0.009 C 
ENDROOT
BRANCH   1   2
HETATM    2  C   UNL     1     -20.397  -4.818  -5.888  1.00  0.00     0.007 C 
BRANCH   2   3
HETATM    3  C   UNL     1     -20.478  -6.332  -6.067  1.00  0.00     0.000 C 
BRANCH   3   4
HETATM    4  C   UNL     1     -21.024  -7.044  -4.826  1.00  0.00     0.000 C 
BRANCH   4   5
HETATM    5  C   UNL     1     -21.457  -5.995  -3.801  1.00  0.00     0.000 C 
BRANCH   5   6
HETATM    6  C   UNL     1     -21.759  -6.594  -2.436  1.00  0.00     0.000 C 
BRANCH   6   7
HETATM    7  C   UNL     1     -20.757  -7.698  -2.106  1.00  0.00     0.000 C 
BRANCH   7   8
HETATM    8  C   UNL     1     -21.111  -8.388  -0.793  1.00  0.00     0.000 C 
BRANCH   8   9
HETATM    9  C   UNL     1     -22.131  -7.577   0.009  1.00  0.00    -0.000 C 
BRANCH   9  10
HETATM   10  C   UNL     1     -23.267  -8.476   0.499  1.00  0.00    -0.005 C 
HETATM   11  C   UNL     1     -23.244  -9.825  -0.198  1.00  0.00     0.005 C 
ENDBRANCH   9  10
ENDBRANCH   8   9
ENDBRANCH   7   8
ENDBRANCH   6   7
ENDBRANCH   5   6
ENDBRANCH   4   5
ENDBRANCH   3   4
ENDBRANCH   2   3
ENDBRANCH   1   2
BRANCH   1  12
HETATM   12  C   UNL     1     -19.993  -3.759  -8.196  1.00  0.00     0.007 C 
BRANCH  12  13
HETATM   13  C   UNL     1     -20.158  -4.689  -9.410  1.00  0.00     0.000 C 
BRANCH  13  14
HETATM   14  C   UNL     1     -20.393  -3.950 -10.732  1.00  0.00     0.000 C 
BRANCH  14  15
HETATM   15  C   UNL     1     -21.808  -4.150 -11.269  1.00  0.00     0.000 C 
BRANCH  15  16
HETATM   16  C   UNL     1     -22.297  -2.951 -12.072  1.00  0.00     0.000 C 
BRANCH  16  17
HETATM   17  C   UNL     1     -23.824  -2.866 -12.024  1.00  0.00    -0.000 C 
BRANCH  17  18
HETATM   18  C   UNL     1     -24.435  -3.097 -13.402  1.00  0.00    -0.005 C 
HETATM   19  C   UNL     1     -23.955  -2.055 -14.399  1.00  0.00     0.005 C 
ENDBRANCH  17  18
ENDBRANCH  16  17
ENDBRANCH  15  16
ENDBRANCH  14  15
ENDBRANCH  13  14
ENDBRANCH  12  13
ENDBRANCH   1  12
BRANCH   1  20
HETATM   20  C   UNL     1     -22.254  -4.764  -7.601  1.00  0.00     0.168 C 
BRANCH  20  21
HETATM   21  O   UNL     1     -23.424  -4.429  -6.867  1.00  0.00    -0.400 OA
HETATM   22  H   UNL     1     -24.018  -3.936  -7.457  1.00  0.00     0.209 HD
ENDBRANCH  20  21
ENDBRANCH   1  20
TORSDOF 18
BEGIN_RES ARG D 557
REMARK  4 active torsions:
REMARK  status: ('A' for Active; 'I' for Inactive)
REMARK    1  A    between atoms: CA   and  CB  
REMARK    2  A    between atoms: CB   and  CG  
REMARK    3  A    between atoms: CG   and  CD  
REMARK    4  A    between atoms: CD   and  NE  
REMARK       I    between atoms: NE   and  CZ  
REMARK       I    between atoms: CZ   and  NH1 
REMARK       I    between atoms: CZ   and  NH2 
ROOT
ATOM      1  CA  ARG D 557     -26.217   2.705 -17.014  1.00 35.49     0.159 C 
ENDROOT
BRANCH   1   2
ATOM      2  CB  ARG D 557     -26.789   1.319 -17.183  1.00 35.49     0.034 C 
BRANCH   2   3
ATOM      3  CG  ARG D 557     -28.218   1.229 -17.507  1.00 35.49     0.027 C 
BRANCH   3   4
ATOM      4  CD  ARG D 557     -28.915   0.201 -16.700  1.00 35.49     0.116 C 
BRANCH   4   5
ATOM      5  NE  ARG D 557     -28.016  -0.816 -16.223  1.00 35.49    -0.212 N 
ATOM      6  CZ  ARG D 557     -28.049  -2.087 -16.553  1.00 35.49     0.666 C 
ATOM      7  NH1 ARG D 557     -28.954  -2.583 -17.377  1.00 35.49    -0.235 N 
ATOM      8  NH2 ARG D 557     -27.141  -2.865 -16.040  1.00 35.49    -0.235 N 
ATOM      9  HH  ARG D 557     -29.560  -2.089 -17.728  1.00 35.49     0.174 HD
ATOM     10  HH  ARG D 557     -28.925  -3.420 -17.558  1.00 35.49     0.174 HD
ATOM     11  HH  ARG D 557     -26.565  -2.516 -15.516  1.00 35.49     0.174 HD
ATOM     12  HH  ARG D 557     -27.128  -3.691 -16.232  1.00 35.49     0.174 HD
ATOM     13  HE  ARG D 557     -27.446  -0.598 -15.631  1.00 35.49     0.178 HD
ENDBRANCH   4   5
ENDBRANCH   3   4
ENDBRANCH   2   3
ENDBRANCH   1   2
END_RES ARG D 557
BEGIN_RES GLU D 570
REMARK  3 active torsions:
REMARK  status: ('A' for Active; 'I' for Inactive)
REMARK    5  A    between atoms: CA   and  CB  
REMARK    6  A    between atoms: CB   and  CG  
REMARK    7  A    between atoms: CG   and  CD  
ROOT
ATOM     14  CA  GLU D 570     -18.033  -6.348 -13.375  1.00 32.92     0.160 C 
ENDROOT
BRANCH  14  15
ATOM     15  CB  GLU D 570     -19.500  -6.345 -13.794  1.00 32.92     0.043 C 
BRANCH  15  16
ATOM     16  CG  GLU D 570     -19.797  -6.245 -15.246  1.00 32.92     0.100 C 
BRANCH  16  17
ATOM     17  CD  GLU D 570     -21.100  -5.537 -15.534  1.00 32.92     0.185 C 
ATOM     18  OE1 GLU D 570     -21.311  -5.099 -16.681  1.00 32.92    -0.647 OA
ATOM     19  OE2 GLU D 570     -21.913  -5.405 -14.598  1.00 32.92    -0.647 OA
ENDBRANCH  16  17
ENDBRANCH  15  16
ENDBRANCH  14  15
END_RES GLU D 570
ENDMDL
MODEL 2
REMARK VINA RESULT:      -6.7      4.511     10.584
REMARK  18 active torsions:
REMARK  status: ('A' for Active; 'I' for Inactive)
REMARK    1  A    between atoms: C_2  and  C_3 
REMARK    2  A    between atoms: C_3  and  C_4 
REMARK    3  A    between atoms: C_4  and  C_5 
REMARK    4  A    between atoms: C_5  and  C_6 
REMARK    5  A    between atoms: C_6  and  C_7 
REMARK    6  A    between atoms: C_7  and  C_8 
REMARK    7  A    between atoms: C_8  and  C_9 
REMARK    8  A    between atoms: C_9  and  C_10 
REMARK    9  A    between atoms: C_10  and  C_11 
REMARK   10  A    between atoms: C_11  and  C_12 
REMARK   11  A    between atoms: C_11  and  C_20 
REMARK   12  A    between atoms: C_12  and  C_13 
REMARK   13  A    between atoms: C_13  and  C_14 
REMARK   14  A    between atoms: C_14  and  C_15 
REMARK   15  A    between atoms: C_15  and  C_16 
REMARK   16  A    between atoms: C_16  and  C_17 
REMARK   17  A    between atoms: C_17  and  C_18 
REMARK   18  A    between atoms: C_20  and  O_21 
ROOT
HETATM    1  C   UNL     1     -24.749  -6.336 -16.014  1.00  0.00     0.009 C 
ENDROOT
BRANCH   1   2
HETATM    2  C   UNL     1     -26.284  -6.427 -15.793  1.00  0.00     0.007 C 
BRANCH   2   3
HETATM    3  C   UNL     1     -27.084  -5.422 -16.618  1.00  0.00     0.000 C 
BRANCH   3   4
HETATM    4  C   UNL     1     -27.230  -4.068 -15.919  1.00  0.00     0.000 C 
BRANCH   4   5
HETATM    5  C   UNL     1     -28.166  -3.181 -16.742  1.00  0.00     0.000 C 
BRANCH   5   6
HETATM    6  C   UNL     1     -29.032  -3.977 -17.708  1.00  0.00     0.000 C 
BRANCH   6   7
HETATM    7  C   UNL     1     -30.496  -3.565 -17.571  1.00  0.00     0.000 C 
BRANCH   7   8
HETATM    8  C   UNL     1     -31.305  -4.641 -16.854  1.00  0.00     0.000 C 
BRANCH   8   9
HETATM    9  C   UNL     1     -30.499  -5.930 -16.687  1.00  0.00    -0.000 C 
BRANCH   9  10
HETATM   10  C   UNL     1     -31.039  -7.025 -17.608  1.00  0.00    -0.005 C 
HETATM   11  C   UNL     1     -29.919  -7.696 -18.384  1.00  0.00     0.005 C 
ENDBRANCH   9  10
ENDBRANCH   8   9
ENDBRANCH   7   8
ENDBRANCH   6   7
ENDBRANCH   5   6
ENDBRANCH   4   5
ENDBRANCH   3   4
ENDBRANCH   2   3
ENDBRANCH   1   2
BRANCH   1  12
HETATM   12  C   UNL     1     -23.964  -6.452 -14.684  1.00  0.00     0.007 C 
BRANCH  12  13
HETATM   13  C   UNL     1     -23.931  -5.150 -13.865  1.00  0.00     0.000 C 
BRANCH  13  14
HETATM   14  C   UNL     1     -22.621  -4.929 -13.100  1.00  0.00     0.000 C 
BRANCH  14  15
HETATM   15  C   UNL     1     -22.854  -4.605 -11.626  1.00  0.00     0.000 C 
BRANCH  15  16
HETATM   16  C   UNL     1     -21.829  -3.618 -11.082  1.00  0.00     0.000 C 
BRANCH  16  17
HETATM   17  C   UNL     1     -21.266  -4.116  -9.749  1.00  0.00    -0.000 C 
BRANCH  17  18
HETATM   18  C   UNL     1     -22.176  -3.736  -8.586  1.00  0.00    -0.005 C 
HETATM   19  C   UNL     1     -21.406  -3.687  -7.277  1.00  0.00     0.005 C 
ENDBRANCH  17  18
ENDBRANCH  16  17
ENDBRANCH  15  16
ENDBRANCH  14  15
ENDBRANCH  13  14
ENDBRANCH  12  13
ENDBRANCH   1  12
BRANCH   1  20
HETATM   20  C   UNL     1     -24.308  -7.428 -17.009  1.00  0.00     0.168 C 
BRANCH  20  21
HETATM   21  O   UNL     1     -23.658  -8.504 -16.346  1.00  0.00    -0.400 OA
HETATM   22  H   UNL     1     -23.012  -8.889 -16.961  1.00  0.00     0.209 HD
ENDBRANCH  20  21
ENDBRANCH   1  20
TORSDOF 18
BEGIN_RES ARG D 557
REMARK  4 active torsions:
REMARK  status: ('A' for Active; 'I' for Inactive)
REMARK    1  A    between atoms: CA   and  CB  
REMARK    2  A    between atoms: CB   and  CG  
REMARK    3  A    between atoms: CG   and  CD  
REMARK    4  A    between atoms: CD   and  NE  
REMARK       I    between atoms: NE   and  CZ  
REMARK       I    between atoms: CZ   and  NH1 
REMARK       I    between atoms: CZ   and  NH2 
ROOT
ATOM      1  CA  ARG D 557     -26.217   2.705 -17.014  1.00 35.49     0.159 C 
ENDROOT
BRANCH   1   2
ATOM      2  CB  ARG D 557     -26.789   1.319 -17.183  1.00 35.49     0.034 C 
BRANCH   2   3
ATOM      3  CG  ARG D 557     -25.832   0.206 -17.195  1.00 35.49     0.027 C 
BRANCH   3   4
ATOM      4  CD  ARG D 557     -24.690   0.434 -16.279  1.00 35.49     0.116 C 
BRANCH   4   5
ATOM      5  NE  ARG D 557     -24.816  -0.316 -15.058  1.00 35.49    -0.212 N 
ATOM      6  CZ  ARG D 557     -24.034  -1.301 -14.678  1.00 35.49     0.666 C 
ATOM      7  NH1 ARG D 557     -23.023  -1.729 -15.412  1.00 35.49    -0.235 N 
ATOM      8  NH2 ARG D 557     -24.283  -1.855 -13.527  1.00 35.49    -0.235 N 
ATOM      9  HH  ARG D 557     -22.840  -1.377 -16.172  1.00 35.49     0.174 HD
ATOM     10  HH  ARG D 557     -22.546  -2.373 -15.111  1.00 35.49     0.174 HD
ATOM     11  HH  ARG D 557     -24.937  -1.554 -13.070  1.00 35.49     0.174 HD
ATOM     12  HH  ARG D 557     -23.798  -2.492 -13.246  1.00 35.49     0.174 HD
ATOM     13  HE  ARG D 557     -25.485  -0.156 -14.558  1.00 35.49     0.178 HD
ENDBRANCH   4   5
ENDBRANCH   3   4
ENDBRANCH   2   3
ENDBRANCH   1   2
END_RES ARG D 557
BEGIN_RES GLU D 570
REMARK  3 active torsions:
REMARK  status: ('A' for Active; 'I' for Inactive)
REMARK    5  A    between atoms: CA   and  CB  
REMARK    6  A    between atoms: CB   and  CG  
REMARK    7  A    between atoms: CG   and  CD  
ROOT
ATOM     14  CA  GLU D 570     -18.033  -6.348 -13.375  1.00 32.92     0.160 C 
ENDROOT
BRANCH  14  15
ATOM     15  CB  GLU D 570     -19.500  -6.345 -13.794  1.00 32.92     0.043 C 
BRANCH  15  16
ATOM     16  CG  GLU D 570     -19.808  -5.998 -15.205  1.00 32.92     0.100 C 
BRANCH  16  17
ATOM     17  CD  GLU D 570     -20.621  -7.060 -15.909  1.00 32.92     0.185 C 
ATOM     18  OE1 GLU D 570     -21.112  -6.805 -17.026  1.00 32.92    -0.647 OA
ATOM     19  OE2 GLU D 570     -20.783  -8.152 -15.330  1.00 32.92    -0.647 OA
ENDBRANCH  16  17
ENDBRANCH  15  16
ENDBRANCH  14  15
END_RES GLU D 570
ENDMDL
MODEL 3
REMARK VINA RESULT:      -6.7      2.094      3.061
REMARK  18 active torsions:
REMARK  status: ('A' for Active; 'I' for Inactive)
REMARK    1  A    between atoms: C_2  and  C_3 
REMARK    2  A    between atoms: C_3  and  C_4 
REMARK    3  A    between atoms: C_4  and  C_5 
REMARK    4  A    between atoms: C_5  and  C_6 
REMARK    5  A    between atoms: C_6  and  C_7 
REMARK    6  A    between atoms: C_7  and  C_8 
REMARK    7  A    between atoms: C_8  and  C_9 
REMARK    8  A    between atoms: C_9  and  C_10 
REMARK    9  A    between atoms: C_10  and  C_11 
REMARK   10  A    between atoms: C_11  and  C_12 
REMARK   11  A    between atoms: C_11  and  C_20 
REMARK   12  A    between atoms: C_12  and  C_13 
REMARK   13  A    between atoms: C_13  and  C_14 
REMARK   14  A    between atoms: C_14  and  C_15 
REMARK   15  A    between atoms: C_15  and  C_16 
REMARK   16  A    between atoms: C_16  and  C_17 
REMARK   17  A    between atoms: C_17  and  C_18 
REMARK   18  A    between atoms: C_20  and  O_21 
ROOT
HETATM    1  C   UNL     1     -21.272  -5.935  -5.249  1.00  0.00     0.009 C 
ENDROOT
BRANCH   1   2
HETATM    2  C   UNL     1     -20.902  -7.443  -5.247  1.00  0.00     0.007 C 
BRANCH   2   3
HETATM    3  C   UNL     1     -21.369  -8.189  -3.999  1.00  0.00     0.000 C 
BRANCH   3   4
HETATM    4  C   UNL     1     -20.207  -8.608  -3.094  1.00  0.00     0.000 C 
BRANCH   4   5
HETATM    5  C   UNL     1     -20.350  -7.904  -1.744  1.00  0.00     0.000 C 
BRANCH   5   6
HETATM    6  C   UNL     1     -21.769  -7.423  -1.478  1.00  0.00     0.000 C 
BRANCH   6   7
HETATM    7  C   UNL     1     -22.120  -7.590  -0.002  1.00  0.00     0.000 C 
BRANCH   7   8
HETATM    8  C   UNL     1     -23.260  -8.586   0.183  1.00  0.00     0.000 C 
BRANCH   8   9
HETATM    9  C   UNL     1     -22.891  -9.966  -0.363  1.00  0.00    -0.000 C 
BRANCH   9  10
HETATM   10  C   UNL     1     -24.035 -10.957  -0.141  1.00  0.00    -0.005 C 
HETATM   11  C   UNL     1     -23.518 -12.292   0.368  1.00  0.00     0.005 C 
ENDBRANCH   9  10
ENDBRANCH   8   9
ENDBRANCH   7   8
ENDBRANCH   6   7
ENDBRANCH   5   6
ENDBRANCH   4   5
ENDBRANCH   3   4
ENDBRANCH   2   3
ENDBRANCH   1   2
BRANCH   1  12
HETATM   12  C   UNL     1     -20.128  -5.058  -5.814  1.00  0.00     0.007 C 
BRANCH  12  13
HETATM   13  C   UNL     1     -19.747  -5.391  -7.267  1.00  0.00     0.000 C 
BRANCH  13  14
HETATM   14  C   UNL     1     -19.524  -4.157  -8.149  1.00  0.00     0.000 C 
BRANCH  14  15
HETATM   15  C   UNL     1     -20.377  -4.184  -9.416  1.00  0.00     0.000 C 
BRANCH  15  16
HETATM   16  C   UNL     1     -21.846  -3.897  -9.129  1.00  0.00     0.000 C 
BRANCH  16  17
HETATM   17  C   UNL     1     -22.739  -4.739 -10.043  1.00  0.00    -0.000 C 
BRANCH  17  18
HETATM   18  C   UNL     1     -24.205  -4.628  -9.638  1.00  0.00    -0.005 C 
HETATM   19  C   UNL     1     -24.776  -3.267 -10.000  1.00  0.00     0.005 C 
ENDBRANCH  17  18
ENDBRANCH  16  17
ENDBRANCH  15  16
ENDBRANCH  14  15
ENDBRANCH  13  14
ENDBRANCH  12  13
ENDBRANCH   1  12
BRANCH   1  20
HETATM   20  C   UNL     1     -22.573  -5.726  -6.050  1.00  0.00     0.168 C 
BRANCH  20  21
HETATM   21  O   UNL     1     -23.722  -5.929  -5.238  1.00  0.00    -0.400 OA
HETATM   22  H   UNL     1     -24.349  -5.210  -5.420  1.00  0.00     0.209 HD
ENDBRANCH  20  21
ENDBRANCH   1  20
TORSDOF 18
BEGIN_RES ARG D 557
REMARK  4 active torsions:
REMARK  status: ('A' for Active; 'I' for Inactive)
REMARK    1  A    between atoms: CA   and  CB  
REMARK    2  A    between atoms: CB   and  CG  
REMARK    3  A    between atoms: CG   and  CD  
REMARK    4  A    between atoms: CD   and  NE  
REMARK       I    between atoms: NE   and  CZ  
REMARK       I    between atoms: CZ   and  NH1 
REMARK       I    between atoms: CZ   and  NH2 
ROOT
ATOM      1  CA  ARG D 557     -26.217   2.705 -17.014  1.00 35.49     0.159 C 
ENDROOT
BRANCH   1   2
ATOM      2  CB  ARG D 557     -26.789   1.319 -17.183  1.00 35.49     0.034 C 
BRANCH   2   3
ATOM      3  CG  ARG D 557     -25.835   0.204 -17.166  1.00 35.49     0.027 C 
BRANCH   3   4
ATOM      4  CD  ARG D 557     -24.756   0.399 -16.170  1.00 35.49     0.116 C 
BRANCH   4   5
ATOM      5  NE  ARG D 557     -24.923  -0.446 -15.017  1.00 35.49    -0.212 N 
ATOM      6  CZ  ARG D 557     -24.124  -1.428 -14.663  1.00 35.49     0.666 C 
ATOM      7  NH1 ARG D 557     -23.056  -1.761 -15.363  1.00 35.49    -0.235 N 
ATOM      8  NH2 ARG D 557     -24.418  -2.077 -13.573  1.00 35.49    -0.235 N 
ATOM      9  HH  ARG D 557     -22.843  -1.346 -16.082  1.00 35.49     0.174 HD
ATOM     10  HH  ARG D 557     -22.570  -2.408 -15.082  1.00 35.49     0.174 HD
ATOM     11  HH  ARG D 557     -25.110  -1.835 -13.137  1.00 35.49     0.174 HD
ATOM     12  HH  ARG D 557     -23.924  -2.714 -13.311  1.00 35.49     0.174 HD
ATOM     13  HE  ARG D 557     -25.626  -0.348 -14.549  1.00 35.49     0.178 HD
ENDBRANCH   4   5
ENDBRANCH   3   4
ENDBRANCH   2   3
ENDBRANCH   1   2
END_RES ARG D 557
BEGIN_RES GLU D 570
REMARK  3 active torsions:
REMARK  status: ('A' for Active; 'I' for Inactive)
REMARK    5  A    between atoms: CA   and  CB  
REMARK    6  A    between atoms: CB   and  CG  
REMARK    7  A    between atoms: CG   and  CD  
ROOT
ATOM     14  CA  GLU D 570     -18.033  -6.348 -13.375  1.00 32.92     0.160 C 
ENDROOT
BRANCH  14  15
ATOM     15  CB  GLU D 570     -19.500  -6.345 -13.794  1.00 32.92     0.043 C 
BRANCH  15  16
ATOM     16  CG  GLU D 570     -20.443  -5.535 -12.980  1.00 32.92     0.100 C 
BRANCH  16  17
ATOM     17  CD  GLU D 570     -21.732  -5.225 -13.705  1.00 32.92     0.185 C 
ATOM     18  OE1 GLU D 570     -22.197  -6.066 -14.499  1.00 32.92    -0.647 OA
ATOM     19  OE2 GLU D 570     -22.273  -4.123 -13.489  1.00 32.92    -0.647 OA
ENDBRANCH  16  17
ENDBRANCH  15  16
ENDBRANCH  14  15
END_RES GLU D 570
ENDMDL
MODEL 4
REMARK VINA RESULT:      -6.6      2.106      3.763
REMARK  18 active torsions:
REMARK  status: ('A' for Active; 'I' for Inactive)
REMARK    1  A    between atoms: C_2  and  C_3 
REMARK    2  A    between atoms: C_3  and  C_4 
REMARK    3  A    between atoms: C_4  and  C_5 
REMARK    4  A    between atoms: C_5  and  C_6 
REMARK    5  A    between atoms: C_6  and  C_7 
REMARK    6  A    between atoms: C_7  and  C_8 
REMARK    7  A    between atoms: C_8  and  C_9 
REMARK    8  A    between atoms: C_9  and  C_10 
REMARK    9  A    between atoms: C_10  and  C_11 
REMARK   10  A    between atoms: C_11  and  C_12 
REMARK   11  A    between atoms: C_11  and  C_20 
REMARK   12  A    between atoms: C_12  and  C_13 
REMARK   13  A    between atoms: C_13  and  C_14 
REMARK   14  A    between atoms: C_14  and  C_15 
REMARK   15  A    between atoms: C_15  and  C_16 
REMARK   16  A    between atoms: C_16  and  C_17 
REMARK   17  A    between atoms: C_17  and  C_18 
REMARK   18  A    between atoms: C_20  and  O_21 
ROOT
HETATM    1  C   UNL     1     -21.858  -7.062  -4.391  1.00  0.00     0.009 C 
ENDROOT
BRANCH   1   2
HETATM    2  C   UNL     1     -21.226  -6.705  -3.018  1.00  0.00     0.007 C 
BRANCH   2   3
HETATM    3  C   UNL     1     -22.236  -6.197  -1.990  1.00  0.00     0.000 C 
BRANCH   3   4
HETATM    4  C   UNL     1     -22.373  -7.134  -0.787  1.00  0.00     0.000 C 
BRANCH   4   5
HETATM    5  C   UNL     1     -21.144  -8.041  -0.720  1.00  0.00     0.000 C 
BRANCH   5   6
HETATM    6  C   UNL     1     -21.492  -9.479  -0.365  1.00  0.00     0.000 C 
BRANCH   6   7
HETATM    7  C   UNL     1     -22.836  -9.868  -0.977  1.00  0.00     0.000 C 
BRANCH   7   8
HETATM    8  C   UNL     1     -23.732 -10.551   0.050  1.00  0.00     0.000 C 
BRANCH   8   9
HETATM    9  C   UNL     1     -23.698 -12.073  -0.101  1.00  0.00    -0.000 C 
BRANCH   9  10
HETATM   10  C   UNL     1     -22.699 -12.689   0.881  1.00  0.00    -0.005 C 
HETATM   11  C   UNL     1     -23.383 -13.665   1.823  1.00  0.00     0.005 C 
ENDBRANCH   9  10
ENDBRANCH   8   9
ENDBRANCH   7   8
ENDBRANCH   6   7
ENDBRANCH   5   6
ENDBRANCH   4   5
ENDBRANCH   3   4
ENDBRANCH   2   3
ENDBRANCH   1   2
BRANCH   1  12
HETATM   12  C   UNL     1     -21.664  -5.930  -5.430  1.00  0.00     0.007 C 
BRANCH  12  13
HETATM   13  C   UNL     1     -20.434  -6.120  -6.336  1.00  0.00     0.000 C 
BRANCH  13  14
HETATM   14  C   UNL     1     -19.701  -4.816  -6.670  1.00  0.00     0.000 C 
BRANCH  14  15
HETATM   15  C   UNL     1     -20.548  -3.871  -7.519  1.00  0.00     0.000 C 
BRANCH  15  16
HETATM   16  C   UNL     1     -20.431  -4.170  -9.009  1.00  0.00     0.000 C 
BRANCH  16  17
HETATM   17  C   UNL     1     -21.811  -4.457  -9.604  1.00  0.00    -0.000 C 
BRANCH  17  18
HETATM   18  C   UNL     1     -22.923  -4.054  -8.641  1.00  0.00    -0.005 C 
HETATM   19  C   UNL     1     -24.160  -3.589  -9.392  1.00  0.00     0.005 C 
ENDBRANCH  17  18
ENDBRANCH  16  17
ENDBRANCH  15  16
ENDBRANCH  14  15
ENDBRANCH  13  14
ENDBRANCH  12  13
ENDBRANCH   1  12
BRANCH   1  20
HETATM   20  C   UNL     1     -21.259  -8.388  -4.903  1.00  0.00     0.168 C 
BRANCH  20  21
HETATM   21  O   UNL     1     -21.812  -9.505  -4.221  1.00  0.00    -0.400 OA
HETATM   22  H   UNL     1     -22.210 -10.093  -4.884  1.00  0.00     0.209 HD
ENDBRANCH  20  21
ENDBRANCH   1  20
TORSDOF 18
BEGIN_RES ARG D 557
REMARK  4 active torsions:
REMARK  status: ('A' for Active; 'I' for Inactive)
REMARK    1  A    between atoms: CA   and  CB  
REMARK    2  A    between atoms: CB   and  CG  
REMARK    3  A    between atoms: CG   and  CD  
REMARK    4  A    between atoms: CD   and  NE  
REMARK       I    between atoms: NE   and  CZ  
REMARK       I    between atoms: CZ   and  NH1 
REMARK       I    between atoms: CZ   and  NH2 
ROOT
ATOM      1  CA  ARG D 557     -26.217   2.705 -17.014  1.00 35.49     0.159 C 
ENDROOT
BRANCH   1   2
ATOM      2  CB  ARG D 557     -26.789   1.319 -17.183  1.00 35.49     0.034 C 
BRANCH   2   3
ATOM      3  CG  ARG D 557     -25.933   0.197 -16.779  1.00 35.49     0.027 C 
BRANCH   3   4
ATOM      4  CD  ARG D 557     -26.688  -0.863 -16.072  1.00 35.49     0.116 C 
BRANCH   4   5
ATOM      5  NE  ARG D 557     -25.943  -1.416 -14.972  1.00 35.49    -0.212 N 
ATOM      6  CZ  ARG D 557     -25.915  -2.683 -14.623  1.00 35.49     0.666 C 
ATOM      7  NH1 ARG D 557     -26.605  -3.610 -15.263  1.00 35.49    -0.235 N 
ATOM      8  NH2 ARG D 557     -25.167  -3.011 -13.610  1.00 35.49    -0.235 N 
ATOM      9  HH  ARG D 557     -27.102  -3.417 -15.934  1.00 35.49     0.174 HD
ATOM     10  HH  ARG D 557     -26.546  -4.421 -14.992  1.00 35.49     0.174 HD
ATOM     11  HH  ARG D 557     -24.727  -2.393 -13.221  1.00 35.49     0.174 HD
ATOM     12  HH  ARG D 557     -25.121  -3.819 -13.358  1.00 35.49     0.174 HD
ATOM     13  HE  ARG D 557     -25.527  -0.879 -14.460  1.00 35.49     0.178 HD
ENDBRANCH   4   5
ENDBRANCH   3   4
ENDBRANCH   2   3
ENDBRANCH   1   2
END_RES ARG D 557
BEGIN_RES GLU D 570
REMARK  3 active torsions:
REMARK  status: ('A' for Active; 'I' for Inactive)
REMARK    5  A    between atoms: CA   and  CB  
REMARK    6  A    between atoms: CB   and  CG  
REMARK    7  A    between atoms: CG   and  CD  
ROOT
ATOM     14  CA  GLU D 570     -18.033  -6.348 -13.375  1.00 32.92     0.160 C 
ENDROOT
BRANCH  14  15
ATOM     15  CB  GLU D 570     -19.500  -6.345 -13.794  1.00 32.92     0.043 C 
BRANCH  15  16
ATOM     16  CG  GLU D 570     -20.447  -5.556 -12.965  1.00 32.92     0.100 C 
BRANCH  16  17
ATOM     17  CD  GLU D 570     -21.693  -5.150 -13.718  1.00 32.92     0.185 C 
ATOM     18  OE1 GLU D 570     -21.760  -5.373 -14.942  1.00 32.92    -0.647 OA
ATOM     19  OE2 GLU D 570     -22.605  -4.588 -13.080  1.00 32.92    -0.647 OA
ENDBRANCH  16  17
ENDBRANCH  15  16
ENDBRANCH  14  15
END_RES GLU D 570
ENDMDL
MODEL 5
REMARK VINA RESULT:      -6.6      1.637      2.401
REMARK  18 active torsions:
REMARK  status: ('A' for Active; 'I' for Inactive)
REMARK    1  A    between atoms: C_2  and  C_3 
REMARK    2  A    between atoms: C_3  and  C_4 
REMARK    3  A    between atoms: C_4  and  C_5 
REMARK    4  A    between atoms: C_5  and  C_6 
REMARK    5  A    between atoms: C_6  and  C_7 
REMARK    6  A    between atoms: C_7  and  C_8 
REMARK    7  A    between atoms: C_8  and  C_9 
REMARK    8  A    between atoms: C_9  and  C_10 
REMARK    9  A    between atoms: C_10  and  C_11 
REMARK   10  A    between atoms: C_11  and  C_12 
REMARK   11  A    between atoms: C_11  and  C_20 
REMARK   12  A    between atoms: C_12  and  C_13 
REMARK   13  A    between atoms: C_13  and  C_14 
REMARK   14  A    between atoms: C_14  and  C_15 
REMARK   15  A    between atoms: C_15  and  C_16 
REMARK   16  A    between atoms: C_16  and  C_17 
REMARK   17  A    between atoms: C_17  and  C_18 
REMARK   18  A    between atoms: C_20  and  O_21 
ROOT
HETATM    1  C   UNL     1     -21.259  -4.802  -8.929  1.00  0.00     0.009 C 
ENDROOT
BRANCH   1   2
HETATM    2  C   UNL     1     -20.446  -5.446  -7.772  1.00  0.00     0.007 C 
BRANCH   2   3
HETATM    3  C   UNL     1     -20.060  -4.461  -6.670  1.00  0.00     0.000 C 
BRANCH   3   4
HETATM    4  C   UNL     1     -20.379  -4.990  -5.269  1.00  0.00     0.000 C 
BRANCH   4   5
HETATM    5  C   UNL     1     -21.076  -6.345  -5.396  1.00  0.00     0.000 C 
BRANCH   5   6
HETATM    6  C   UNL     1     -22.013  -6.637  -4.234  1.00  0.00     0.000 C 
BRANCH   6   7
HETATM    7  C   UNL     1     -21.451  -6.056  -2.938  1.00  0.00     0.000 C 
BRANCH   7   8
HETATM    8  C   UNL     1     -22.067  -6.734  -1.719  1.00  0.00     0.000 C 
BRANCH   8   9
HETATM    9  C   UNL     1     -21.196  -7.889  -1.221  1.00  0.00    -0.000 C 
BRANCH   9  10
HETATM   10  C   UNL     1     -21.932  -8.695  -0.149  1.00  0.00    -0.005 C 
HETATM   11  C   UNL     1     -23.116  -7.923   0.406  1.00  0.00     0.005 C 
ENDBRANCH   9  10
ENDBRANCH   8   9
ENDBRANCH   7   8
ENDBRANCH   6   7
ENDBRANCH   5   6
ENDBRANCH   4   5
ENDBRANCH   3   4
ENDBRANCH   2   3
ENDBRANCH   1   2
BRANCH   1  12
HETATM   12  C   UNL     1     -22.390  -3.885  -8.401  1.00  0.00     0.007 C 
BRANCH  12  13
HETATM   13  C   UNL     1     -23.799  -4.316  -8.845  1.00  0.00     0.000 C 
BRANCH  13  14
HETATM   14  C   UNL     1     -24.498  -3.306  -9.763  1.00  0.00     0.000 C 
BRANCH  14  15
HETATM   15  C   UNL     1     -23.768  -3.124 -11.092  1.00  0.00     0.000 C 
BRANCH  15  16
HETATM   16  C   UNL     1     -23.565  -4.444 -11.826  1.00  0.00     0.000 C 
BRANCH  16  17
HETATM   17  C   UNL     1     -22.483  -4.295 -12.898  1.00  0.00    -0.000 C 
BRANCH  17  18
HETATM   18  C   UNL     1     -23.008  -4.693 -14.273  1.00  0.00    -0.005 C 
HETATM   19  C   UNL     1     -23.783  -5.999 -14.210  1.00  0.00     0.005 C 
ENDBRANCH  17  18
ENDBRANCH  16  17
ENDBRANCH  15  16
ENDBRANCH  14  15
ENDBRANCH  13  14
ENDBRANCH  12  13
ENDBRANCH   1  12
BRANCH   1  20
HETATM   20  C   UNL     1     -20.305  -4.022  -9.855  1.00  0.00     0.168 C 
BRANCH  20  21
HETATM   21  O   UNL     1     -19.673  -4.882 -10.794  1.00  0.00    -0.400 OA
HETATM   22  H   UNL     1     -18.742  -4.976 -10.535  1.00  0.00     0.209 HD
ENDBRANCH  20  21
ENDBRANCH   1  20
TORSDOF 18
BEGIN_RES ARG D 557
REMARK  4 active torsions:
REMARK  status: ('A' for Active; 'I' for Inactive)
REMARK    1  A    between atoms: CA   and  CB  
REMARK    2  A    between atoms: CB   and  CG  
REMARK    3  A    between atoms: CG   and  CD  
REMARK    4  A    between atoms: CD   and  NE  
REMARK       I    between atoms: NE   and  CZ  
REMARK       I    between atoms: CZ   and  NH1 
REMARK       I    between atoms: CZ   and  NH2 
ROOT
ATOM      1  CA  ARG D 557     -26.217   2.705 -17.014  1.00 35.49     0.159 C 
ENDROOT
BRANCH   1   2
ATOM      2  CB  ARG D 557     -26.789   1.319 -17.183  1.00 35.49     0.034 C 
BRANCH   2   3
ATOM      3  CG  ARG D 557     -28.187   1.127 -16.778  1.00 35.49     0.027 C 
BRANCH   3   4
ATOM      4  CD  ARG D 557     -28.723  -0.186 -17.204  1.00 35.49     0.116 C 
BRANCH   4   5
ATOM      5  NE  ARG D 557     -28.001  -1.283 -16.614  1.00 35.49    -0.212 N 
ATOM      6  CZ  ARG D 557     -28.262  -2.558 -16.793  1.00 35.49     0.666 C 
ATOM      7  NH1 ARG D 557     -29.260  -2.979 -17.549  1.00 35.49    -0.235 N 
ATOM      8  NH2 ARG D 557     -27.489  -3.419 -16.196  1.00 35.49    -0.235 N 
ATOM      9  HH  ARG D 557     -29.779  -2.431 -17.953  1.00 35.49     0.174 HD
ATOM     10  HH  ARG D 557     -29.380  -3.823 -17.631  1.00 35.49     0.174 HD
ATOM     11  HH  ARG D 557     -26.848  -3.118 -15.720  1.00 35.49     0.174 HD
ATOM     12  HH  ARG D 557     -27.624  -4.250 -16.291  1.00 35.49     0.174 HD
ATOM     13  HE  ARG D 557     -27.387  -1.102 -16.055  1.00 35.49     0.178 HD
ENDBRANCH   4   5
ENDBRANCH   3   4
ENDBRANCH   2   3
ENDBRANCH   1   2
END_RES ARG D 557
BEGIN_RES GLU D 570
REMARK  3 active torsions:
REMARK  status: ('A' for Active; 'I' for Inactive)
REMARK    5  A    between atoms: CA   and  CB  
REMARK    6  A    between atoms: CB   and  CG  
REMARK    7  A    between atoms: CG   and  CD  
ROOT
ATOM     14  CA  GLU D 570     -18.033  -6.348 -13.375  1.00 32.92     0.160 C 
ENDROOT
BRANCH  14  15
ATOM     15  CB  GLU D 570     -19.500  -6.345 -13.794  1.00 32.92     0.043 C 
BRANCH  15  16
ATOM     16  CG  GLU D 570     -19.797  -6.226 -15.245  1.00 32.92     0.100 C 
BRANCH  16  17
ATOM     17  CD  GLU D 570     -20.677  -7.341 -15.759  1.00 32.92     0.185 C 
ATOM     18  OE1 GLU D 570     -20.579  -8.474 -15.250  1.00 32.92    -0.647 OA
ATOM     19  OE2 GLU D 570     -21.462  -7.083 -16.693  1.00 32.92    -0.647 OA
ENDBRANCH  16  17
ENDBRANCH  15  16
ENDBRANCH  14  15
END_RES GLU D 570
ENDMDL
MODEL 6
REMARK VINA RESULT:      -6.5      1.589      8.055
REMARK  18 active torsions:
REMARK  status: ('A' for Active; 'I' for Inactive)
REMARK    1  A    between atoms: C_2  and  C_3 
REMARK    2  A    between atoms: C_3  and  C_4 
REMARK    3  A    between atoms: C_4  and  C_5 
REMARK    4  A    between atoms: C_5  and  C_6 
REMARK    5  A    between atoms: C_6  and  C_7 
REMARK    6  A    between atoms: C_7  and  C_8 
REMARK    7  A    between atoms: C_8  and  C_9 
REMARK    8  A    between atoms: C_9  and  C_10 
REMARK    9  A    between atoms: C_10  and  C_11 
REMARK   10  A    between atoms: C_11  and  C_12 
REMARK   11  A    between atoms: C_11  and  C_20 
REMARK   12  A    between atoms: C_12  and  C_13 
REMARK   13  A    between atoms: C_13  and  C_14 
REMARK   14  A    between atoms: C_14  and  C_15 
REMARK   15  A    between atoms: C_15  and  C_16 
REMARK   16  A    between atoms: C_16  and  C_17 
REMARK   17  A    between atoms: C_17  and  C_18 
REMARK   18  A    between atoms: C_20  and  O_21 
ROOT
HETATM    1  C   UNL     1     -20.966  -6.497  -4.380  1.00  0.00     0.009 C 
ENDROOT
BRANCH   1   2
HETATM    2  C   UNL     1     -21.566  -5.774  -5.617  1.00  0.00     0.007 C 
BRANCH   2   3
HETATM    3  C   UNL     1     -20.654  -4.700  -6.204  1.00  0.00     0.000 C 
BRANCH   3   4
HETATM    4  C   UNL     1     -21.195  -4.117  -7.513  1.00  0.00     0.000 C 
BRANCH   4   5
HETATM    5  C   UNL     1     -20.039  -3.953  -8.500  1.00  0.00     0.000 C 
BRANCH   5   6
HETATM    6  C   UNL     1     -20.311  -4.616  -9.842  1.00  0.00     0.000 C 
BRANCH   6   7
HETATM    7  C   UNL     1     -20.574  -3.560 -10.913  1.00  0.00     0.000 C 
BRANCH   7   8
HETATM    8  C   UNL     1     -22.068  -3.295 -11.069  1.00  0.00     0.000 C 
BRANCH   8   9
HETATM    9  C   UNL     1     -22.845  -4.591 -11.306  1.00  0.00    -0.000 C 
BRANCH   9  10
HETATM   10  C   UNL     1     -23.954  -4.752 -10.266  1.00  0.00    -0.005 C 
HETATM   11  C   UNL     1     -24.292  -3.424  -9.609  1.00  0.00     0.005 C 
ENDBRANCH   9  10
ENDBRANCH   8   9
ENDBRANCH   7   8
ENDBRANCH   6   7
ENDBRANCH   5   6
ENDBRANCH   4   5
ENDBRANCH   3   4
ENDBRANCH   2   3
ENDBRANCH   1   2
BRANCH   1  12
HETATM   12  C   UNL     1     -21.852  -6.325  -3.122  1.00  0.00     0.007 C 
BRANCH  12  13
HETATM   13  C   UNL     1     -21.588  -7.372  -2.026  1.00  0.00     0.000 C 
BRANCH  13  14
HETATM   14  C   UNL     1     -22.269  -7.058  -0.689  1.00  0.00     0.000 C 
BRANCH  14  15
HETATM   15  C   UNL     1     -22.227  -8.239   0.278  1.00  0.00     0.000 C 
BRANCH  15  16
HETATM   16  C   UNL     1     -23.417  -9.175   0.100  1.00  0.00     0.000 C 
BRANCH  16  17
HETATM   17  C   UNL     1     -22.937 -10.618  -0.071  1.00  0.00    -0.000 C 
BRANCH  17  18
HETATM   18  C   UNL     1     -23.623 -11.294  -1.253  1.00  0.00    -0.005 C 
HETATM   19  C   UNL     1     -22.943 -10.934  -2.564  1.00  0.00     0.005 C 
ENDBRANCH  17  18
ENDBRANCH  16  17
ENDBRANCH  15  16
ENDBRANCH  14  15
ENDBRANCH  13  14
ENDBRANCH  12  13
ENDBRANCH   1  12
BRANCH   1  20
HETATM   20  C   UNL     1     -20.757  -7.989  -4.707  1.00  0.00     0.168 C 
BRANCH  20  21
HETATM   21  O   UNL     1     -21.235  -8.307  -6.007  1.00  0.00    -0.400 OA
HETATM   22  H   UNL     1     -20.476  -8.306  -6.614  1.00  0.00     0.209 HD
ENDBRANCH  20  21
ENDBRANCH   1  20
TORSDOF 18
BEGIN_RES ARG D 557
REMARK  4 active torsions:
REMARK  status: ('A' for Active; 'I' for Inactive)
REMARK    1  A    between atoms: CA   and  CB  
REMARK    2  A    between atoms: CB   and  CG  
REMARK    3  A    between atoms: CG   and  CD  
REMARK    4  A    between atoms: CD   and  NE  
REMARK       I    between atoms: NE   and  CZ  
REMARK       I    between atoms: CZ   and  NH1 
REMARK       I    between atoms: CZ   and  NH2 
ROOT
ATOM      1  CA  ARG D 557     -26.217   2.705 -17.014  1.00 35.49     0.159 C 
ENDROOT
BRANCH   1   2
ATOM      2  CB  ARG D 557     -26.789   1.319 -17.183  1.00 35.49     0.034 C 
BRANCH   2   3
ATOM      3  CG  ARG D 557     -28.238   1.175 -16.999  1.00 35.49     0.027 C 
BRANCH   3   4
ATOM      4  CD  ARG D 557     -28.621  -0.193 -16.584  1.00 35.49     0.116 C 
BRANCH   4   5
ATOM      5  NE  ARG D 557     -27.570  -0.854 -15.856  1.00 35.49    -0.212 N 
ATOM      6  CZ  ARG D 557     -27.272  -2.132 -15.927  1.00 35.49     0.666 C 
ATOM      7  NH1 ARG D 557     -27.941  -2.974 -16.692  1.00 35.49    -0.235 N 
ATOM      8  NH2 ARG D 557     -26.271  -2.555 -15.211  1.00 35.49    -0.235 N 
ATOM      9  HH  ARG D 557     -28.602  -2.717 -17.173  1.00 35.49     0.174 HD
ATOM     10  HH  ARG D 557     -27.699  -3.796 -16.700  1.00 35.49     0.174 HD
ATOM     11  HH  ARG D 557     -25.852  -1.987 -14.732  1.00 35.49     0.174 HD
ATOM     12  HH  ARG D 557     -26.046  -3.372 -15.234  1.00 35.49     0.174 HD
ATOM     13  HE  ARG D 557     -27.134  -0.400 -15.284  1.00 35.49     0.178 HD
ENDBRANCH   4   5
ENDBRANCH   3   4
ENDBRANCH   2   3
ENDBRANCH   1   2
END_RES ARG D 557
BEGIN_RES GLU D 570
REMARK  3 active torsions:
REMARK  status: ('A' for Active; 'I' for Inactive)
REMARK    5  A    between atoms: CA   and  CB  
REMARK    6  A    between atoms: CB   and  CG  
REMARK    7  A    between atoms: CG   and  CD  
ROOT
ATOM     14  CA  GLU D 570     -18.033  -6.348 -13.375  1.00 32.92     0.160 C 
ENDROOT
BRANCH  14  15
ATOM     15  CB  GLU D 570     -19.500  -6.345 -13.794  1.00 32.92     0.043 C 
BRANCH  15  16
ATOM     16  CG  GLU D 570     -19.797  -6.256 -15.247  1.00 32.92     0.100 C 
BRANCH  16  17
ATOM     17  CD  GLU D 570     -20.704  -7.363 -15.732  1.00 32.92     0.185 C 
ATOM     18  OE1 GLU D 570     -20.589  -8.500 -15.237  1.00 32.92    -0.647 OA
ATOM     19  OE2 GLU D 570     -21.528  -7.093 -16.628  1.00 32.92    -0.647 OA
ENDBRANCH  16  17
ENDBRANCH  15  16
ENDBRANCH  14  15
END_RES GLU D 570
ENDMDL
MODEL 7
REMARK VINA RESULT:      -6.4      1.637      3.534
REMARK  18 active torsions:
REMARK  status: ('A' for Active; 'I' for Inactive)
REMARK    1  A    between atoms: C_2  and  C_3 
REMARK    2  A    between atoms: C_3  and  C_4 
REMARK    3  A    between atoms: C_4  and  C_5 
REMARK    4  A    between atoms: C_5  and  C_6 
REMARK    5  A    between atoms: C_6  and  C_7 
REMARK    6  A    between atoms: C_7  and  C_8 
REMARK    7  A    between atoms: C_8  and  C_9 
REMARK    8  A    between atoms: C_9  and  C_10 
REMARK    9  A    between atoms: C_10  and  C_11 
REMARK   10  A    between atoms: C_11  and  C_12 
REMARK   11  A    between atoms: C_11  and  C_20 
REMARK   12  A    between atoms: C_12  and  C_13 
REMARK   13  A    between atoms: C_13  and  C_14 
REMARK   14  A    between atoms: C_14  and  C_15 
REMARK   15  A    between atoms: C_15  and  C_16 
REMARK   16  A    between atoms: C_16  and  C_17 
REMARK   17  A    between atoms: C_17  and  C_18 
REMARK   18  A    between atoms: C_20  and  O_21 
ROOT
HETATM    1  C   UNL     1     -21.557  -7.438  -4.337  1.00  0.00     0.009 C 
ENDROOT
BRANCH   1   2
HETATM    2  C   UNL     1     -21.228  -6.706  -3.007  1.00  0.00     0.007 C 
BRANCH   2   3
HETATM    3  C   UNL     1     -21.383  -7.585  -1.767  1.00  0.00     0.000 C 
BRANCH   3   4
HETATM    4  C   UNL     1     -22.383  -7.012  -0.759  1.00  0.00     0.000 C 
BRANCH   4   5
HETATM    5  C   UNL     1     -22.612  -8.037   0.352  1.00  0.00     0.000 C 
BRANCH   5   6
HETATM    6  C   UNL     1     -21.563  -9.140   0.361  1.00  0.00     0.000 C 
BRANCH   6   7
HETATM    7  C   UNL     1     -22.234 -10.512   0.361  1.00  0.00     0.000 C 
BRANCH   7   8
HETATM    8  C   UNL     1     -23.581 -10.465  -0.351  1.00  0.00     0.000 C 
BRANCH   8   9
HETATM    9  C   UNL     1     -23.631 -11.450  -1.521  1.00  0.00    -0.000 C 
BRANCH   9  10
HETATM   10  C   UNL     1     -22.895 -10.881  -2.735  1.00  0.00    -0.005 C 
HETATM   11  C   UNL     1     -21.603 -11.634  -3.000  1.00  0.00     0.005 C 
ENDBRANCH   9  10
ENDBRANCH   8   9
ENDBRANCH   7   8
ENDBRANCH   6   7
ENDBRANCH   5   6
ENDBRANCH   4   5
ENDBRANCH   3   4
ENDBRANCH   2   3
ENDBRANCH   1   2
BRANCH   1  12
HETATM   12  C   UNL     1     -21.862  -6.444  -5.484  1.00  0.00     0.007 C 
BRANCH  12  13
HETATM   13  C   UNL     1     -20.620  -6.017  -6.286  1.00  0.00     0.000 C 
BRANCH  13  14
HETATM   14  C   UNL     1     -20.358  -4.507  -6.270  1.00  0.00     0.000 C 
BRANCH  14  15
HETATM   15  C   UNL     1     -21.266  -3.747  -7.235  1.00  0.00     0.000 C 
BRANCH  15  16
HETATM   16  C   UNL     1     -21.444  -4.480  -8.560  1.00  0.00     0.000 C 
BRANCH  16  17
HETATM   17  C   UNL     1     -20.305  -4.128  -9.519  1.00  0.00    -0.000 C 
BRANCH  17  18
HETATM   18  C   UNL     1     -20.737  -4.288 -10.973  1.00  0.00    -0.005 C 
HETATM   19  C   UNL     1     -21.483  -3.059 -11.464  1.00  0.00     0.005 C 
ENDBRANCH  17  18
ENDBRANCH  16  17
ENDBRANCH  15  16
ENDBRANCH  14  15
ENDBRANCH  13  14
ENDBRANCH  12  13
ENDBRANCH   1  12
BRANCH   1  20
HETATM   20  C   UNL     1     -20.387  -8.370  -4.713  1.00  0.00     0.168 C 
BRANCH  20  21
HETATM   21  O   UNL     1     -20.800  -9.378  -5.625  1.00  0.00    -0.400 OA
HETATM   22  H   UNL     1     -20.188  -9.368  -6.380  1.00  0.00     0.209 HD
ENDBRANCH  20  21
ENDBRANCH   1  20
TORSDOF 18
BEGIN_RES ARG D 557
REMARK  4 active torsions:
REMARK  status: ('A' for Active; 'I' for Inactive)
REMARK    1  A    between atoms: CA   and  CB  
REMARK    2  A    between atoms: CB   and  CG  
REMARK    3  A    between atoms: CG   and  CD  
REMARK    4  A    between atoms: CD   and  NE  
REMARK       I    between atoms: NE   and  CZ  
REMARK       I    between atoms: CZ   and  NH1 
REMARK       I    between atoms: CZ   and  NH2 
ROOT
ATOM      1  CA  ARG D 557     -26.217   2.705 -17.014  1.00 35.49     0.159 C 
ENDROOT
BRANCH   1   2
ATOM      2  CB  ARG D 557     -26.789   1.319 -17.183  1.00 35.49     0.034 C 
BRANCH   2   3
ATOM      3  CG  ARG D 557     -28.235   1.172 -16.978  1.00 35.49     0.027 C 
BRANCH   3   4
ATOM      4  CD  ARG D 557     -28.610  -0.203 -16.574  1.00 35.49     0.116 C 
BRANCH   4   5
ATOM      5  NE  ARG D 557     -27.551  -0.868 -15.863  1.00 35.49    -0.212 N 
ATOM      6  CZ  ARG D 557     -27.257  -2.146 -15.942  1.00 35.49     0.666 C 
ATOM      7  NH1 ARG D 557     -27.938  -2.985 -16.700  1.00 35.49    -0.235 N 
ATOM      8  NH2 ARG D 557     -26.247  -2.574 -15.241  1.00 35.49    -0.235 N 
ATOM      9  HH  ARG D 557     -28.605  -2.725 -17.171  1.00 35.49     0.174 HD
ATOM     10  HH  ARG D 557     -27.698  -3.808 -16.714  1.00 35.49     0.174 HD
ATOM     11  HH  ARG D 557     -25.821  -2.008 -14.766  1.00 35.49     0.174 HD
ATOM     12  HH  ARG D 557     -26.024  -3.392 -15.270  1.00 35.49     0.174 HD
ATOM     13  HE  ARG D 557     -27.106  -0.416 -15.295  1.00 35.49     0.178 HD
ENDBRANCH   4   5
ENDBRANCH   3   4
ENDBRANCH   2   3
ENDBRANCH   1   2
END_RES ARG D 557
BEGIN_RES GLU D 570
REMARK  3 active torsions:
REMARK  status: ('A' for Active; 'I' for Inactive)
REMARK    5  A    between atoms: CA   and  CB  
REMARK    6  A    between atoms: CB   and  CG  
REMARK    7  A    between atoms: CG   and  CD  
ROOT
ATOM     14  CA  GLU D 570     -18.033  -6.348 -13.375  1.00 32.92     0.160 C 
ENDROOT
BRANCH  14  15
ATOM     15  CB  GLU D 570     -19.500  -6.345 -13.794  1.00 32.92     0.043 C 
BRANCH  15  16
ATOM     16  CG  GLU D 570     -19.806  -6.021 -15.211  1.00 32.92     0.100 C 
BRANCH  16  17
ATOM     17  CD  GLU D 570     -21.149  -5.351 -15.386  1.00 32.92     0.185 C 
ATOM     18  OE1 GLU D 570     -21.530  -5.047 -16.532  1.00 32.92    -0.647 OA
ATOM     19  OE2 GLU D 570     -21.821  -5.112 -14.363  1.00 32.92    -0.647 OA
ENDBRANCH  16  17
ENDBRANCH  15  16
ENDBRANCH  14  15
END_RES GLU D 570
ENDMDL
MODEL 8
REMARK VINA RESULT:      -6.4      2.213      8.343
REMARK  18 active torsions:
REMARK  status: ('A' for Active; 'I' for Inactive)
REMARK    1  A    between atoms: C_2  and  C_3 
REMARK    2  A    between atoms: C_3  and  C_4 
REMARK    3  A    between atoms: C_4  and  C_5 
REMARK    4  A    between atoms: C_5  and  C_6 
REMARK    5  A    between atoms: C_6  and  C_7 
REMARK    6  A    between atoms: C_7  and  C_8 
REMARK    7  A    between atoms: C_8  and  C_9 
REMARK    8  A    between atoms: C_9  and  C_10 
REMARK    9  A    between atoms: C_10  and  C_11 
REMARK   10  A    between atoms: C_11  and  C_12 
REMARK   11  A    between atoms: C_11  and  C_20 
REMARK   12  A    between atoms: C_12  and  C_13 
REMARK   13  A    between atoms: C_13  and  C_14 
REMARK   14  A    between atoms: C_14  and  C_15 
REMARK   15  A    between atoms: C_15  and  C_16 
REMARK   16  A    between atoms: C_16  and  C_17 
REMARK   17  A    between atoms: C_17  and  C_18 
REMARK   18  A    between atoms: C_20  and  O_21 
ROOT
HETATM    1  C   UNL     1     -21.222  -6.839  -3.012  1.00  0.00     0.009 C 
ENDROOT
BRANCH   1   2
HETATM    2  C   UNL     1     -21.066  -5.897  -4.237  1.00  0.00     0.007 C 
BRANCH   2   3
HETATM    3  C   UNL     1     -21.931  -6.293  -5.432  1.00  0.00     0.000 C 
BRANCH   3   4
HETATM    4  C   UNL     1     -21.123  -6.429  -6.725  1.00  0.00     0.000 C 
BRANCH   4   5
HETATM    5  C   UNL     1     -20.065  -5.325  -6.769  1.00  0.00     0.000 C 
BRANCH   5   6
HETATM    6  C   UNL     1     -19.735  -4.882  -8.187  1.00  0.00     0.000 C 
BRANCH   6   7
HETATM    7  C   UNL     1     -20.602  -3.691  -8.588  1.00  0.00     0.000 C 
BRANCH   7   8
HETATM    8  C   UNL     1     -21.326  -3.957  -9.903  1.00  0.00     0.000 C 
BRANCH   8   9
HETATM    9  C   UNL     1     -22.590  -4.791  -9.688  1.00  0.00    -0.000 C 
BRANCH   9  10
HETATM   10  C   UNL     1     -23.582  -4.044  -8.793  1.00  0.00    -0.005 C 
HETATM   11  C   UNL     1     -24.630  -3.317  -9.618  1.00  0.00     0.005 C 
ENDBRANCH   9  10
ENDBRANCH   8   9
ENDBRANCH   7   8
ENDBRANCH   6   7
ENDBRANCH   5   6
ENDBRANCH   4   5
ENDBRANCH   3   4
ENDBRANCH   2   3
ENDBRANCH   1   2
BRANCH   1  12
HETATM   12  C   UNL     1     -22.395  -6.409  -2.097  1.00  0.00     0.007 C 
BRANCH  12  13
HETATM   13  C   UNL     1     -22.128  -6.630  -0.598  1.00  0.00     0.000 C 
BRANCH  13  14
HETATM   14  C   UNL     1     -22.839  -7.856  -0.014  1.00  0.00     0.000 C 
BRANCH  14  15
HETATM   15  C   UNL     1     -21.885  -8.777   0.746  1.00  0.00     0.000 C 
BRANCH  15  16
HETATM   16  C   UNL     1     -21.698 -10.118   0.047  1.00  0.00     0.000 C 
BRANCH  16  17
HETATM   17  C   UNL     1     -22.923 -10.448  -0.808  1.00  0.00    -0.000 C 
BRANCH  17  18
HETATM   18  C   UNL     1     -23.953 -11.245  -0.015  1.00  0.00    -0.005 C 
HETATM   19  C   UNL     1     -23.361 -12.544   0.507  1.00  0.00     0.005 C 
ENDBRANCH  17  18
ENDBRANCH  16  17
ENDBRANCH  15  16
ENDBRANCH  14  15
ENDBRANCH  13  14
ENDBRANCH  12  13
ENDBRANCH   1  12
BRANCH   1  20
HETATM   20  C   UNL     1     -21.408  -8.290  -3.500  1.00  0.00     0.168 C 
BRANCH  20  21
HETATM   21  O   UNL     1     -20.350  -9.128  -3.053  1.00  0.00    -0.400 OA
HETATM   22  H   UNL     1     -19.996  -8.750  -2.231  1.00  0.00     0.209 HD
ENDBRANCH  20  21
ENDBRANCH   1  20
TORSDOF 18
BEGIN_RES ARG D 557
REMARK  4 active torsions:
REMARK  status: ('A' for Active; 'I' for Inactive)
REMARK    1  A    between atoms: CA   and  CB  
REMARK    2  A    between atoms: CB   and  CG  
REMARK    3  A    between atoms: CG   and  CD  
REMARK    4  A    between atoms: CD   and  NE  
REMARK       I    between atoms: NE   and  CZ  
REMARK       I    between atoms: CZ   and  NH1 
REMARK       I    between atoms: CZ   and  NH2 
ROOT
ATOM      1  CA  ARG D 557     -26.217   2.705 -17.014  1.00 35.49     0.159 C 
ENDROOT
BRANCH   1   2
ATOM      2  CB  ARG D 557     -26.789   1.319 -17.183  1.00 35.49     0.034 C 
BRANCH   2   3
ATOM      3  CG  ARG D 557     -25.873   0.194 -16.958  1.00 35.49     0.027 C 
BRANCH   3   4
ATOM      4  CD  ARG D 557     -26.375  -0.745 -15.930  1.00 35.49     0.116 C 
BRANCH   4   5
ATOM      5  NE  ARG D 557     -25.418  -0.957 -14.875  1.00 35.49    -0.212 N 
ATOM      6  CZ  ARG D 557     -25.131  -2.112 -14.319  1.00 35.49     0.666 C 
ATOM      7  NH1 ARG D 557     -25.724  -3.237 -14.674  1.00 35.49    -0.235 N 
ATOM      8  NH2 ARG D 557     -24.220  -2.121 -13.390  1.00 35.49    -0.235 N 
ATOM      9  HH  ARG D 557     -26.325  -3.255 -15.285  1.00 35.49     0.174 HD
ATOM     10  HH  ARG D 557     -25.494  -3.961 -14.278  1.00 35.49     0.174 HD
ATOM     11  HH  ARG D 557     -23.849  -1.381 -13.186  1.00 35.49     0.174 HD
ATOM     12  HH  ARG D 557     -24.005  -2.849 -13.010  1.00 35.49     0.174 HD
ATOM     13  HE  ARG D 557     -25.041  -0.275 -14.535  1.00 35.49     0.178 HD
ENDBRANCH   4   5
ENDBRANCH   3   4
ENDBRANCH   2   3
ENDBRANCH   1   2
END_RES ARG D 557
BEGIN_RES GLU D 570
REMARK  3 active torsions:
REMARK  status: ('A' for Active; 'I' for Inactive)
REMARK    5  A    between atoms: CA   and  CB  
REMARK    6  A    between atoms: CB   and  CG  
REMARK    7  A    between atoms: CG   and  CD  
ROOT
ATOM     14  CA  GLU D 570     -18.033  -6.348 -13.375  1.00 32.92     0.160 C 
ENDROOT
BRANCH  14  15
ATOM     15  CB  GLU D 570     -19.500  -6.345 -13.794  1.00 32.92     0.043 C 
BRANCH  15  16
ATOM     16  CG  GLU D 570     -20.446  -5.549 -12.969  1.00 32.92     0.100 C 
BRANCH  16  17
ATOM     17  CD  GLU D 570     -21.761  -5.290 -13.666  1.00 32.92     0.185 C 
ATOM     18  OE1 GLU D 570     -22.417  -4.275 -13.363  1.00 32.92    -0.647 OA
ATOM     19  OE2 GLU D 570     -22.148  -6.120 -14.513  1.00 32.92    -0.647 OA
ENDBRANCH  16  17
ENDBRANCH  15  16
ENDBRANCH  14  15
END_RES GLU D 570
ENDMDL
MODEL 9
REMARK VINA RESULT:      -6.3      1.562      2.341
REMARK  18 active torsions:
REMARK  status: ('A' for Active; 'I' for Inactive)
REMARK    1  A    between atoms: C_2  and  C_3 
REMARK    2  A    between atoms: C_3  and  C_4 
REMARK    3  A    between atoms: C_4  and  C_5 
REMARK    4  A    between atoms: C_5  and  C_6 
REMARK    5  A    between atoms: C_6  and  C_7 
REMARK    6  A    between atoms: C_7  and  C_8 
REMARK    7  A    between atoms: C_8  and  C_9 
REMARK    8  A    between atoms: C_9  and  C_10 
REMARK    9  A    between atoms: C_10  and  C_11 
REMARK   10  A    between atoms: C_11  and  C_12 
REMARK   11  A    between atoms: C_11  and  C_20 
REMARK   12  A    between atoms: C_12  and  C_13 
REMARK   13  A    between atoms: C_13  and  C_14 
REMARK   14  A    between atoms: C_14  and  C_15 
REMARK   15  A    between atoms: C_15  and  C_16 
REMARK   16  A    between atoms: C_16  and  C_17 
REMARK   17  A    between atoms: C_17  and  C_18 
REMARK   18  A    between atoms: C_20  and  O_21 
ROOT
HETATM    1  C   UNL     1     -21.158  -5.874  -5.267  1.00  0.00     0.009 C 
ENDROOT
BRANCH   1   2
HETATM    2  C   UNL     1     -20.406  -7.182  -5.634  1.00  0.00     0.007 C 
BRANCH   2   3
HETATM    3  C   UNL     1     -20.051  -8.048  -4.427  1.00  0.00     0.000 C 
BRANCH   3   4
HETATM    4  C   UNL     1     -21.236  -8.251  -3.479  1.00  0.00     0.000 C 
BRANCH   4   5
HETATM    5  C   UNL     1     -20.950  -7.527  -2.163  1.00  0.00     0.000 C 
BRANCH   5   6
HETATM    6  C   UNL     1     -22.149  -6.743  -1.649  1.00  0.00     0.000 C 
BRANCH   6   7
HETATM    7  C   UNL     1     -22.444  -7.113  -0.197  1.00  0.00     0.000 C 
BRANCH   7   8
HETATM    8  C   UNL     1     -22.205  -8.598   0.052  1.00  0.00     0.000 C 
BRANCH   8   9
HETATM    9  C   UNL     1     -21.255  -8.822   1.230  1.00  0.00    -0.000 C 
BRANCH   9  10
HETATM   10  C   UNL     1     -20.620 -10.212   1.152  1.00  0.00    -0.005 C 
HETATM   11  C   UNL     1     -21.493 -11.175   0.367  1.00  0.00     0.005 C 
ENDBRANCH   9  10
ENDBRANCH   8   9
ENDBRANCH   7   8
ENDBRANCH   6   7
ENDBRANCH   5   6
ENDBRANCH   4   5
ENDBRANCH   3   4
ENDBRANCH   2   3
ENDBRANCH   1   2
BRANCH   1  12
HETATM   12  C   UNL     1     -20.354  -4.612  -5.662  1.00  0.00     0.007 C 
BRANCH  12  13
HETATM   13  C   UNL     1     -19.265  -4.873  -6.718  1.00  0.00     0.000 C 
BRANCH  13  14
HETATM   14  C   UNL     1     -19.453  -4.077  -8.015  1.00  0.00     0.000 C 
BRANCH  14  15
HETATM   15  C   UNL     1     -20.179  -4.881  -9.092  1.00  0.00     0.000 C 
BRANCH  15  16
HETATM   16  C   UNL     1     -21.038  -4.000  -9.990  1.00  0.00     0.000 C 
BRANCH  16  17
HETATM   17  C   UNL     1     -22.501  -4.445  -9.929  1.00  0.00    -0.000 C 
BRANCH  17  18
HETATM   18  C   UNL     1     -23.440  -3.319 -10.346  1.00  0.00    -0.005 C 
HETATM   19  C   UNL     1     -24.805  -3.470  -9.694  1.00  0.00     0.005 C 
ENDBRANCH  17  18
ENDBRANCH  16  17
ENDBRANCH  15  16
ENDBRANCH  14  15
ENDBRANCH  13  14
ENDBRANCH  12  13
ENDBRANCH   1  12
BRANCH   1  20
HETATM   20  C   UNL     1     -22.547  -5.875  -5.937  1.00  0.00     0.168 C 
BRANCH  20  21
HETATM   21  O   UNL     1     -22.841  -4.613  -6.522  1.00  0.00    -0.400 OA
HETATM   22  H   UNL     1     -23.553  -4.202  -6.005  1.00  0.00     0.209 HD
ENDBRANCH  20  21
ENDBRANCH   1  20
TORSDOF 18
BEGIN_RES ARG D 557
REMARK  4 active torsions:
REMARK  status: ('A' for Active; 'I' for Inactive)
REMARK    1  A    between atoms: CA   and  CB  
REMARK    2  A    between atoms: CB   and  CG  
REMARK    3  A    between atoms: CG   and  CD  
REMARK    4  A    between atoms: CD   and  NE  
REMARK       I    between atoms: NE   and  CZ  
REMARK       I    between atoms: CZ   and  NH1 
REMARK       I    between atoms: CZ   and  NH2 
ROOT
ATOM      1  CA  ARG D 557     -26.217   2.705 -17.014  1.00 35.49     0.159 C 
ENDROOT
BRANCH   1   2
ATOM      2  CB  ARG D 557     -26.789   1.319 -17.183  1.00 35.49     0.034 C 
BRANCH   2   3
ATOM      3  CG  ARG D 557     -28.242   1.180 -17.023  1.00 35.49     0.027 C 
BRANCH   3   4
ATOM      4  CD  ARG D 557     -28.635  -0.185 -16.604  1.00 35.49     0.116 C 
BRANCH   4   5
ATOM      5  NE  ARG D 557     -27.583  -0.856 -15.888  1.00 35.49    -0.212 N 
ATOM      6  CZ  ARG D 557     -27.298  -2.137 -15.963  1.00 35.49     0.666 C 
ATOM      7  NH1 ARG D 557     -27.984  -2.972 -16.722  1.00 35.49    -0.235 N 
ATOM      8  NH2 ARG D 557     -26.294  -2.572 -15.259  1.00 35.49    -0.235 N 
ATOM      9  HH  ARG D 557     -28.647  -2.708 -17.195  1.00 35.49     0.174 HD
ATOM     10  HH  ARG D 557     -27.751  -3.797 -16.733  1.00 35.49     0.174 HD
ATOM     11  HH  ARG D 557     -25.865  -2.008 -14.784  1.00 35.49     0.174 HD
ATOM     12  HH  ARG D 557     -26.078  -3.391 -15.284  1.00 35.49     0.174 HD
ATOM     13  HE  ARG D 557     -27.136  -0.407 -15.320  1.00 35.49     0.178 HD
ENDBRANCH   4   5
ENDBRANCH   3   4
ENDBRANCH   2   3
ENDBRANCH   1   2
END_RES ARG D 557
BEGIN_RES GLU D 570
REMARK  3 active torsions:
REMARK  status: ('A' for Active; 'I' for Inactive)
REMARK    5  A    between atoms: CA   and  CB  
REMARK    6  A    between atoms: CB   and  CG  
REMARK    7  A    between atoms: CG   and  CD  
ROOT
ATOM     14  CA  GLU D 570     -18.033  -6.348 -13.375  1.00 32.92     0.160 C 
ENDROOT
BRANCH  14  15
ATOM     15  CB  GLU D 570     -19.500  -6.345 -13.794  1.00 32.92     0.043 C 
BRANCH  15  16
ATOM     16  CG  GLU D 570     -20.431  -5.482 -13.022  1.00 32.92     0.100 C 
BRANCH  16  17
ATOM     17  CD  GLU D 570     -21.754  -5.269 -13.720  1.00 32.92     0.185 C 
ATOM     18  OE1 GLU D 570     -22.395  -4.224 -13.498  1.00 32.92    -0.647 OA
ATOM     19  OE2 GLU D 570     -22.162  -6.166 -14.485  1.00 32.92    -0.647 OA
ENDBRANCH  16  17
ENDBRANCH  15  16
ENDBRANCH  14  15
END_RES GLU D 570
ENDMDL
