MODEL 1
REMARK VINA RESULT:      -6.6      0.000      0.000
REMARK  2 active torsions:
REMARK  status: ('A' for Active; 'I' for Inactive)
REMARK    1  A    between atoms: CA_6  and  C_7 
REMARK    2  A    between atoms: C_7  and  O_8 
ROOT
HETATM    1  C   UNL     1     -23.359  -4.782 -12.683  1.00  0.00     0.045 C 
HETATM    2  C   UNL     1     -23.545  -4.702 -11.170  1.00  0.00     0.105 C 
HETATM    3  C   UNL     1     -24.296  -3.413 -11.037  1.00  0.00     0.218 C 
HETATM    4  O   UNL     1     -25.273  -3.174 -10.345  1.00  0.00    -0.274 OA
HETATM    5  N   UNL     1     -23.794  -2.556 -11.990  1.00  0.00    -0.347 N 
HETATM    6  CA  UNL     1     -23.430  -3.332 -13.178  1.00  0.00     0.187 C 
HETATM    7  H   UNL     1     -24.257  -1.668 -12.137  1.00  0.00     0.163 HD
ENDROOT
BRANCH   6   8
HETATM    8  C   UNL     1     -24.555  -3.301 -14.262  1.00  0.00     0.312 C 
HETATM    9  OXT UNL     1     -24.803  -4.371 -14.855  1.00  0.00    -0.260 OA
BRANCH   8  10
HETATM   10  O   UNL     1     -25.093  -2.145 -14.400  1.00  0.00    -0.148 OA
HETATM   11 NA   UNL     2     -25.018  -0.179 -14.137  1.00  0.00     0.000 Na
ENDBRANCH   8  10
ENDBRANCH   6   8
TORSDOF 2
BEGIN_RES ARG D 557
REMARK  4 active torsions:
REMARK  status: ('A' for Active; 'I' for Inactive)
REMARK    1  A    between atoms: CA   and  CB  
REMARK    2  A    between atoms: CB   and  CG  
REMARK    3  A    between atoms: CG   and  CD  
REMARK    4  A    between atoms: CD   and  NE  
REMARK       I    between atoms: NE   and  CZ  
REMARK       I    between atoms: CZ   and  NH1 
REMARK       I    between atoms: CZ   and  NH2 
ROOT
ATOM      1  CA  ARG D 557     -26.217   2.705 -17.014  1.00 35.49     0.159 C 
ENDROOT
BRANCH   1   2
ATOM      2  CB  ARG D 557     -26.789   1.319 -17.183  1.00 35.49     0.034 C 
BRANCH   2   3
ATOM      3  CG  ARG D 557     -28.187   1.128 -16.779  1.00 35.49     0.027 C 
BRANCH   3   4
ATOM      4  CD  ARG D 557     -28.717  -0.194 -17.188  1.00 35.49     0.116 C 
BRANCH   4   5
ATOM      5  NE  ARG D 557     -27.979  -1.280 -16.598  1.00 35.49    -0.212 N 
ATOM      6  CZ  ARG D 557     -28.224  -2.559 -16.773  1.00 35.49     0.666 C 
ATOM      7  NH1 ARG D 557     -29.217  -2.994 -17.526  1.00 35.49    -0.235 N 
ATOM      8  NH2 ARG D 557     -27.438  -3.408 -16.176  1.00 35.49    -0.235 N 
ATOM      9  HH  ARG D 557     -29.745  -2.454 -17.929  1.00 35.49     0.174 HD
ATOM     10  HH  ARG D 557     -29.327  -3.840 -17.605  1.00 35.49     0.174 HD
ATOM     11  HH  ARG D 557     -26.800  -3.098 -15.702  1.00 35.49     0.174 HD
ATOM     12  HH  ARG D 557     -27.562  -4.241 -16.269  1.00 35.49     0.174 HD
ATOM     13  HE  ARG D 557     -27.366  -1.089 -16.040  1.00 35.49     0.178 HD
ENDBRANCH   4   5
ENDBRANCH   3   4
ENDBRANCH   2   3
ENDBRANCH   1   2
END_RES ARG D 557
BEGIN_RES GLU D 570
REMARK  3 active torsions:
REMARK  status: ('A' for Active; 'I' for Inactive)
REMARK    5  A    between atoms: CA   and  CB  
REMARK    6  A    between atoms: CB   and  CG  
REMARK    7  A    between atoms: CG   and  CD  
ROOT
ATOM     14  CA  GLU D 570     -18.033  -6.348 -13.375  1.00 32.92     0.160 C 
ENDROOT
BRANCH  14  15
ATOM     15  CB  GLU D 570     -19.500  -6.345 -13.794  1.00 32.92     0.043 C 
BRANCH  15  16
ATOM     16  CG  GLU D 570     -19.802  -6.101 -15.228  1.00 32.92     0.100 C 
BRANCH  16  17
ATOM     17  CD  GLU D 570     -21.270  -5.857 -15.488  1.00 32.92     0.185 C 
ATOM     18  OE1 GLU D 570     -22.083  -6.778 -15.280  1.00 32.92    -0.647 OA
ATOM     19  OE2 GLU D 570     -21.609  -4.738 -15.921  1.00 32.92    -0.647 OA
ENDBRANCH  16  17
ENDBRANCH  15  16
ENDBRANCH  14  15
END_RES GLU D 570
ENDMDL
MODEL 2
REMARK VINA RESULT:      -6.2      2.839      3.929
REMARK  2 active torsions:
REMARK  status: ('A' for Active; 'I' for Inactive)
REMARK    1  A    between atoms: CA_6  and  C_7 
REMARK    2  A    between atoms: C_7  and  O_8 
ROOT
HETATM    1  C   UNL     1     -23.386  -4.090  -8.128  1.00  0.00     0.045 C 
HETATM    2  C   UNL     1     -21.875  -4.304  -8.131  1.00  0.00     0.105 C 
HETATM    3  C   UNL     1     -21.576  -4.250  -9.597  1.00  0.00     0.218 C 
HETATM    4  O   UNL     1     -20.669  -3.662 -10.164  1.00  0.00    -0.274 OA
HETATM    5  N   UNL     1     -22.632  -4.851 -10.244  1.00  0.00    -0.347 N 
HETATM    6  CA  UNL     1     -23.865  -4.558  -9.508  1.00  0.00     0.187 C 
HETATM    7  H   UNL     1     -22.671  -4.807 -11.255  1.00  0.00     0.163 HD
ENDROOT
BRANCH   6   8
HETATM    8  C   UNL     1     -24.640  -3.350 -10.127  1.00  0.00     0.312 C 
HETATM    9  OXT UNL     1     -25.831  -3.203  -9.783  1.00  0.00    -0.260 OA
BRANCH   8  10
HETATM   10  O   UNL     1     -23.926  -2.648 -10.929  1.00  0.00    -0.148 OA
HETATM   11 NA   UNL     2     -22.169  -2.264 -11.767  1.00  0.00     0.000 Na
ENDBRANCH   8  10
ENDBRANCH   6   8
TORSDOF 2
BEGIN_RES ARG D 557
REMARK  4 active torsions:
REMARK  status: ('A' for Active; 'I' for Inactive)
REMARK    1  A    between atoms: CA   and  CB  
REMARK    2  A    between atoms: CB   and  CG  
REMARK    3  A    between atoms: CG   and  CD  
REMARK    4  A    between atoms: CD   and  NE  
REMARK       I    between atoms: NE   and  CZ  
REMARK       I    between atoms: CZ   and  NH1 
REMARK       I    between atoms: CZ   and  NH2 
ROOT
ATOM      1  CA  ARG D 557     -26.217   2.705 -17.014  1.00 35.49     0.159 C 
ENDROOT
BRANCH   1   2
ATOM      2  CB  ARG D 557     -26.789   1.319 -17.183  1.00 35.49     0.034 C 
BRANCH   2   3
ATOM      3  CG  ARG D 557     -25.832   0.206 -17.190  1.00 35.49     0.027 C 
BRANCH   3   4
ATOM      4  CD  ARG D 557     -24.778   0.361 -16.161  1.00 35.49     0.116 C 
BRANCH   4   5
ATOM      5  NE  ARG D 557     -24.975  -0.526 -15.045  1.00 35.49    -0.212 N 
ATOM      6  CZ  ARG D 557     -24.165  -1.494 -14.682  1.00 35.49     0.666 C 
ATOM      7  NH1 ARG D 557     -23.052  -1.772 -15.337  1.00 35.49    -0.235 N 
ATOM      8  NH2 ARG D 557     -24.491  -2.187 -13.629  1.00 35.49    -0.235 N 
ATOM      9  HH  ARG D 557     -22.817  -1.328 -16.031  1.00 35.49     0.174 HD
ATOM     10  HH  ARG D 557     -22.562  -2.414 -15.051  1.00 35.49     0.174 HD
ATOM     11  HH  ARG D 557     -25.211  -1.980 -13.221  1.00 35.49     0.174 HD
ATOM     12  HH  ARG D 557     -23.991  -2.817 -13.361  1.00 35.49     0.174 HD
ATOM     13  HE  ARG D 557     -25.703  -0.465 -14.610  1.00 35.49     0.178 HD
ENDBRANCH   4   5
ENDBRANCH   3   4
ENDBRANCH   2   3
ENDBRANCH   1   2
END_RES ARG D 557
BEGIN_RES GLU D 570
REMARK  3 active torsions:
REMARK  status: ('A' for Active; 'I' for Inactive)
REMARK    5  A    between atoms: CA   and  CB  
REMARK    6  A    between atoms: CB   and  CG  
REMARK    7  A    between atoms: CG   and  CD  
ROOT
ATOM     14  CA  GLU D 570     -18.033  -6.348 -13.375  1.00 32.92     0.160 C 
ENDROOT
BRANCH  14  15
ATOM     15  CB  GLU D 570     -19.500  -6.345 -13.794  1.00 32.92     0.043 C 
BRANCH  15  16
ATOM     16  CG  GLU D 570     -20.448  -5.561 -12.961  1.00 32.92     0.100 C 
BRANCH  16  17
ATOM     17  CD  GLU D 570     -21.703  -5.171 -13.706  1.00 32.92     0.185 C 
ATOM     18  OE1 GLU D 570     -22.343  -4.169 -13.331  1.00 32.92    -0.647 OA
ATOM     19  OE2 GLU D 570     -22.060  -5.884 -14.665  1.00 32.92    -0.647 OA
ENDBRANCH  16  17
ENDBRANCH  15  16
ENDBRANCH  14  15
END_RES GLU D 570
ENDMDL
MODEL 3
REMARK VINA RESULT:      -6.2      1.836      2.080
REMARK  2 active torsions:
REMARK  status: ('A' for Active; 'I' for Inactive)
REMARK    1  A    between atoms: CA_6  and  C_7 
REMARK    2  A    between atoms: C_7  and  O_8 
ROOT
HETATM    1  C   UNL     1     -22.586  -4.690 -12.467  1.00  0.00     0.045 C 
HETATM    2  C   UNL     1     -23.246  -4.604 -11.093  1.00  0.00     0.105 C 
HETATM    3  C   UNL     1     -24.059  -3.355 -11.239  1.00  0.00     0.218 C 
HETATM    4  O   UNL     1     -25.216  -3.160 -10.898  1.00  0.00    -0.274 OA
HETATM    5  N   UNL     1     -23.321  -2.483 -12.006  1.00  0.00    -0.347 N 
HETATM    6  CA  UNL     1     -22.564  -3.251 -12.998  1.00  0.00     0.187 C 
HETATM    7  H   UNL     1     -23.755  -1.622 -12.316  1.00  0.00     0.163 HD
ENDROOT
BRANCH   6   8
HETATM    8  C   UNL     1     -23.288  -3.291 -14.382  1.00  0.00     0.312 C 
HETATM    9  OXT UNL     1     -23.221  -2.264 -15.088  1.00  0.00    -0.260 OA
BRANCH   8  10
HETATM   10  O   UNL     1     -23.871  -4.409 -14.617  1.00  0.00    -0.148 OA
HETATM   11 NA   UNL     2     -23.811  -6.392 -14.672  1.00  0.00     0.000 Na
ENDBRANCH   8  10
ENDBRANCH   6   8
TORSDOF 2
BEGIN_RES ARG D 557
REMARK  4 active torsions:
REMARK  status: ('A' for Active; 'I' for Inactive)
REMARK    1  A    between atoms: CA   and  CB  
REMARK    2  A    between atoms: CB   and  CG  
REMARK    3  A    between atoms: CG   and  CD  
REMARK    4  A    between atoms: CD   and  NE  
REMARK       I    between atoms: NE   and  CZ  
REMARK       I    between atoms: CZ   and  NH1 
REMARK       I    between atoms: CZ   and  NH2 
ROOT
ATOM      1  CA  ARG D 557     -26.217   2.705 -17.014  1.00 35.49     0.159 C 
ENDROOT
BRANCH   1   2
ATOM      2  CB  ARG D 557     -26.789   1.319 -17.183  1.00 35.49     0.034 C 
BRANCH   2   3
ATOM      3  CG  ARG D 557     -28.223   1.159 -16.913  1.00 35.49     0.027 C 
BRANCH   3   4
ATOM      4  CD  ARG D 557     -28.608  -0.260 -16.731  1.00 35.49     0.116 C 
BRANCH   4   5
ATOM      5  NE  ARG D 557     -27.601  -1.009 -16.027  1.00 35.49    -0.212 N 
ATOM      6  CZ  ARG D 557     -27.419  -2.308 -16.100  1.00 35.49     0.666 C 
ATOM      7  NH1 ARG D 557     -28.179  -3.090 -16.844  1.00 35.49    -0.235 N 
ATOM      8  NH2 ARG D 557     -26.441  -2.817 -15.407  1.00 35.49    -0.235 N 
ATOM      9  HH  ARG D 557     -28.826  -2.776 -17.309  1.00 35.49     0.174 HD
ATOM     10  HH  ARG D 557     -28.011  -3.930 -16.854  1.00 35.49     0.174 HD
ATOM     11  HH  ARG D 557     -25.962  -2.287 -14.942  1.00 35.49     0.174 HD
ATOM     12  HH  ARG D 557     -26.290  -3.651 -15.432  1.00 35.49     0.174 HD
ATOM     13  HE  ARG D 557     -27.112  -0.594 -15.468  1.00 35.49     0.178 HD
ENDBRANCH   4   5
ENDBRANCH   3   4
ENDBRANCH   2   3
ENDBRANCH   1   2
END_RES ARG D 557
BEGIN_RES GLU D 570
REMARK  3 active torsions:
REMARK  status: ('A' for Active; 'I' for Inactive)
REMARK    5  A    between atoms: CA   and  CB  
REMARK    6  A    between atoms: CB   and  CG  
REMARK    7  A    between atoms: CG   and  CD  
ROOT
ATOM     14  CA  GLU D 570     -18.033  -6.348 -13.375  1.00 32.92     0.160 C 
ENDROOT
BRANCH  14  15
ATOM     15  CB  GLU D 570     -19.500  -6.345 -13.794  1.00 32.92     0.043 C 
BRANCH  15  16
ATOM     16  CG  GLU D 570     -20.121  -7.654 -14.122  1.00 32.92     0.100 C 
BRANCH  16  17
ATOM     17  CD  GLU D 570     -20.871  -7.639 -15.433  1.00 32.92     0.185 C 
ATOM     18  OE1 GLU D 570     -21.626  -6.681 -15.688  1.00 32.92    -0.647 OA
ATOM     19  OE2 GLU D 570     -20.716  -8.605 -16.207  1.00 32.92    -0.647 OA
ENDBRANCH  16  17
ENDBRANCH  15  16
ENDBRANCH  14  15
END_RES GLU D 570
ENDMDL
MODEL 4
REMARK VINA RESULT:      -6.2      2.472      3.112
REMARK  2 active torsions:
REMARK  status: ('A' for Active; 'I' for Inactive)
REMARK    1  A    between atoms: CA_6  and  C_7 
REMARK    2  A    between atoms: C_7  and  O_8 
ROOT
HETATM    1  C   UNL     1     -22.858  -4.413  -9.253  1.00  0.00     0.045 C 
HETATM    2  C   UNL     1     -21.340  -4.392  -9.410  1.00  0.00     0.105 C 
HETATM    3  C   UNL     1     -21.200  -3.928 -10.828  1.00  0.00     0.218 C 
HETATM    4  O   UNL     1     -20.437  -3.089 -11.278  1.00  0.00    -0.274 OA
HETATM    5  N   UNL     1     -22.232  -4.498 -11.539  1.00  0.00    -0.347 N 
HETATM    6  CA  UNL     1     -23.411  -4.584 -10.673  1.00  0.00     0.187 C 
HETATM    7  H   UNL     1     -22.378  -4.208 -12.498  1.00  0.00     0.163 HD
ENDROOT
BRANCH   6   8
HETATM    8  C   UNL     1     -24.391  -3.389 -10.901  1.00  0.00     0.312 C 
HETATM    9  OXT UNL     1     -24.230  -2.711 -11.937  1.00  0.00    -0.260 OA
BRANCH   8  10
HETATM   10  O   UNL     1     -25.260  -3.261  -9.966  1.00  0.00    -0.148 OA
HETATM   11 NA   UNL     2     -27.141  -3.389  -9.347  1.00  0.00     0.000 Na
ENDBRANCH   8  10
ENDBRANCH   6   8
TORSDOF 2
BEGIN_RES ARG D 557
REMARK  4 active torsions:
REMARK  status: ('A' for Active; 'I' for Inactive)
REMARK    1  A    between atoms: CA   and  CB  
REMARK    2  A    between atoms: CB   and  CG  
REMARK    3  A    between atoms: CG   and  CD  
REMARK    4  A    between atoms: CD   and  NE  
REMARK       I    between atoms: NE   and  CZ  
REMARK       I    between atoms: CZ   and  NH1 
REMARK       I    between atoms: CZ   and  NH2 
ROOT
ATOM      1  CA  ARG D 557     -26.217   2.705 -17.014  1.00 35.49     0.159 C 
ENDROOT
BRANCH   1   2
ATOM      2  CB  ARG D 557     -26.789   1.319 -17.183  1.00 35.49     0.034 C 
BRANCH   2   3
ATOM      3  CG  ARG D 557     -25.985   0.205 -16.666  1.00 35.49     0.027 C 
BRANCH   3   4
ATOM      4  CD  ARG D 557     -26.820  -0.874 -16.090  1.00 35.49     0.116 C 
BRANCH   4   5
ATOM      5  NE  ARG D 557     -26.058  -1.763 -15.254  1.00 35.49    -0.212 N 
ATOM      6  CZ  ARG D 557     -26.250  -3.057 -15.131  1.00 35.49     0.666 C 
ATOM      7  NH1 ARG D 557     -27.209  -3.695 -15.776  1.00 35.49    -0.235 N 
ATOM      8  NH2 ARG D 557     -25.449  -3.711 -14.342  1.00 35.49    -0.235 N 
ATOM      9  HH  ARG D 557     -27.747  -3.285 -16.302  1.00 35.49     0.174 HD
ATOM     10  HH  ARG D 557     -27.285  -4.541 -15.659  1.00 35.49     0.174 HD
ATOM     11  HH  ARG D 557     -24.834  -3.274 -13.944  1.00 35.49     0.174 HD
ATOM     12  HH  ARG D 557     -25.539  -4.548 -14.240  1.00 35.49     0.174 HD
ATOM     13  HE  ARG D 557     -25.466  -1.423 -14.746  1.00 35.49     0.178 HD
ENDBRANCH   4   5
ENDBRANCH   3   4
ENDBRANCH   2   3
ENDBRANCH   1   2
END_RES ARG D 557
BEGIN_RES GLU D 570
REMARK  3 active torsions:
REMARK  status: ('A' for Active; 'I' for Inactive)
REMARK    5  A    between atoms: CA   and  CB  
REMARK    6  A    between atoms: CB   and  CG  
REMARK    7  A    between atoms: CG   and  CD  
ROOT
ATOM     14  CA  GLU D 570     -18.033  -6.348 -13.375  1.00 32.92     0.160 C 
ENDROOT
BRANCH  14  15
ATOM     15  CB  GLU D 570     -19.500  -6.345 -13.794  1.00 32.92     0.043 C 
BRANCH  15  16
ATOM     16  CG  GLU D 570     -19.801  -6.116 -15.231  1.00 32.92     0.100 C 
BRANCH  16  17
ATOM     17  CD  GLU D 570     -21.097  -5.371 -15.450  1.00 32.92     0.185 C 
ATOM     18  OE1 GLU D 570     -21.764  -5.013 -14.460  1.00 32.92    -0.647 OA
ATOM     19  OE2 GLU D 570     -21.457  -5.157 -16.624  1.00 32.92    -0.647 OA
ENDBRANCH  16  17
ENDBRANCH  15  16
ENDBRANCH  14  15
END_RES GLU D 570
ENDMDL
MODEL 5
REMARK VINA RESULT:      -6.2      2.817      3.238
REMARK  2 active torsions:
REMARK  status: ('A' for Active; 'I' for Inactive)
REMARK    1  A    between atoms: CA_6  and  C_7 
REMARK    2  A    between atoms: C_7  and  O_8 
ROOT
HETATM    1  C   UNL     1     -23.822  -4.434 -12.945  1.00  0.00     0.045 C 
HETATM    2  C   UNL     1     -23.235  -3.031 -13.078  1.00  0.00     0.105 C 
HETATM    3  C   UNL     1     -22.736  -3.057 -14.490  1.00  0.00     0.218 C 
HETATM    4  O   UNL     1     -22.855  -2.200 -15.352  1.00  0.00    -0.274 OA
HETATM    5  N   UNL     1     -22.254  -4.325 -14.722  1.00  0.00    -0.347 N 
HETATM    6  CA  UNL     1     -23.076  -5.285 -13.981  1.00  0.00     0.187 C 
HETATM    7  H   UNL     1     -21.979  -4.576 -15.663  1.00  0.00     0.163 HD
ENDROOT
BRANCH   6   8
HETATM    8  C   UNL     1     -24.178  -5.928 -14.884  1.00  0.00     0.312 C 
HETATM    9  OXT UNL     1     -25.116  -5.190 -15.249  1.00  0.00    -0.260 OA
BRANCH   8  10
HETATM   10  O   UNL     1     -23.964  -7.167 -15.139  1.00  0.00    -0.148 OA
HETATM   11 NA   UNL     2     -23.659  -8.614 -16.462  1.00  0.00     0.000 Na
ENDBRANCH   8  10
ENDBRANCH   6   8
TORSDOF 2
BEGIN_RES ARG D 557
REMARK  4 active torsions:
REMARK  status: ('A' for Active; 'I' for Inactive)
REMARK    1  A    between atoms: CA   and  CB  
REMARK    2  A    between atoms: CB   and  CG  
REMARK    3  A    between atoms: CG   and  CD  
REMARK    4  A    between atoms: CD   and  NE  
REMARK       I    between atoms: NE   and  CZ  
REMARK       I    between atoms: CZ   and  NH1 
REMARK       I    between atoms: CZ   and  NH2 
ROOT
ATOM      1  CA  ARG D 557     -26.217   2.705 -17.014  1.00 35.49     0.159 C 
ENDROOT
BRANCH   1   2
ATOM      2  CB  ARG D 557     -26.789   1.319 -17.183  1.00 35.49     0.034 C 
BRANCH   2   3
ATOM      3  CG  ARG D 557     -28.226   1.162 -16.929  1.00 35.49     0.027 C 
BRANCH   3   4
ATOM      4  CD  ARG D 557     -28.581  -0.219 -16.530  1.00 35.49     0.116 C 
BRANCH   4   5
ATOM      5  NE  ARG D 557     -27.508  -0.874 -15.830  1.00 35.49    -0.212 N 
ATOM      6  CZ  ARG D 557     -27.208  -2.152 -15.905  1.00 35.49     0.666 C 
ATOM      7  NH1 ARG D 557     -27.896  -2.999 -16.648  1.00 35.49    -0.235 N 
ATOM      8  NH2 ARG D 557     -26.186  -2.570 -15.217  1.00 35.49    -0.235 N 
ATOM      9  HH  ARG D 557     -28.571  -2.745 -17.111  1.00 35.49     0.174 HD
ATOM     10  HH  ARG D 557     -27.653  -3.820 -16.660  1.00 35.49     0.174 HD
ATOM     11  HH  ARG D 557     -25.756  -1.999 -14.752  1.00 35.49     0.174 HD
ATOM     12  HH  ARG D 557     -25.960  -3.387 -15.243  1.00 35.49     0.174 HD
ATOM     13  HE  ARG D 557     -27.057  -0.417 -15.272  1.00 35.49     0.178 HD
ENDBRANCH   4   5
ENDBRANCH   3   4
ENDBRANCH   2   3
ENDBRANCH   1   2
END_RES ARG D 557
BEGIN_RES GLU D 570
REMARK  3 active torsions:
REMARK  status: ('A' for Active; 'I' for Inactive)
REMARK    5  A    between atoms: CA   and  CB  
REMARK    6  A    between atoms: CB   and  CG  
REMARK    7  A    between atoms: CG   and  CD  
ROOT
ATOM     14  CA  GLU D 570     -18.033  -6.348 -13.375  1.00 32.92     0.160 C 
ENDROOT
BRANCH  14  15
ATOM     15  CB  GLU D 570     -19.500  -6.345 -13.794  1.00 32.92     0.043 C 
BRANCH  15  16
ATOM     16  CG  GLU D 570     -20.086  -7.634 -14.246  1.00 32.92     0.100 C 
BRANCH  16  17
ATOM     17  CD  GLU D 570     -20.637  -7.570 -15.651  1.00 32.92     0.185 C 
ATOM     18  OE1 GLU D 570     -21.111  -8.603 -16.163  1.00 32.92    -0.647 OA
ATOM     19  OE2 GLU D 570     -20.581  -6.479 -16.252  1.00 32.92    -0.647 OA
ENDBRANCH  16  17
ENDBRANCH  15  16
ENDBRANCH  14  15
END_RES GLU D 570
ENDMDL
MODEL 6
REMARK VINA RESULT:      -6.0      6.599      7.943
REMARK  2 active torsions:
REMARK  status: ('A' for Active; 'I' for Inactive)
REMARK    1  A    between atoms: CA_6  and  C_7 
REMARK    2  A    between atoms: C_7  and  O_8 
ROOT
HETATM    1  C   UNL     1     -33.159  -2.987 -11.199  1.00  0.00     0.045 C 
HETATM    2  C   UNL     1     -33.296  -4.495 -11.399  1.00  0.00     0.105 C 
HETATM    3  C   UNL     1     -34.701  -4.593 -11.912  1.00  0.00     0.218 C 
HETATM    4  O   UNL     1     -35.121  -5.259 -12.845  1.00  0.00    -0.274 OA
HETATM    5  N   UNL     1     -35.439  -3.642 -11.245  1.00  0.00    -0.347 N 
HETATM    6  CA  UNL     1     -34.590  -2.473 -11.000  1.00  0.00     0.187 C 
HETATM    7  H   UNL     1     -36.392  -3.473 -11.540  1.00  0.00     0.163 HD
ENDROOT
BRANCH   6   8
HETATM    8  C   UNL     1     -34.803  -1.362 -12.079  1.00  0.00     0.312 C 
HETATM    9  OXT UNL     1     -35.084  -0.217 -11.669  1.00  0.00    -0.260 OA
BRANCH   8  10
HETATM   10  O   UNL     1     -34.652  -1.788 -13.280  1.00  0.00    -0.148 OA
HETATM   11 NA   UNL     2     -34.206  -3.263 -14.530  1.00  0.00     0.000 Na
ENDBRANCH   8  10
ENDBRANCH   6   8
TORSDOF 2
BEGIN_RES ARG D 557
REMARK  4 active torsions:
REMARK  status: ('A' for Active; 'I' for Inactive)
REMARK    1  A    between atoms: CA   and  CB  
REMARK    2  A    between atoms: CB   and  CG  
REMARK    3  A    between atoms: CG   and  CD  
REMARK    4  A    between atoms: CD   and  NE  
REMARK       I    between atoms: NE   and  CZ  
REMARK       I    between atoms: CZ   and  NH1 
REMARK       I    between atoms: CZ   and  NH2 
ROOT
ATOM      1  CA  ARG D 557     -26.217   2.705 -17.014  1.00 35.49     0.159 C 
ENDROOT
BRANCH   1   2
ATOM      2  CB  ARG D 557     -26.789   1.319 -17.183  1.00 35.49     0.034 C 
BRANCH   2   3
ATOM      3  CG  ARG D 557     -25.835   0.203 -17.160  1.00 35.49     0.027 C 
BRANCH   3   4
ATOM      4  CD  ARG D 557     -24.748   0.411 -16.176  1.00 35.49     0.116 C 
BRANCH   4   5
ATOM      5  NE  ARG D 557     -24.895  -0.433 -15.019  1.00 35.49    -0.212 N 
ATOM      6  CZ  ARG D 557     -24.082  -1.405 -14.670  1.00 35.49     0.666 C 
ATOM      7  NH1 ARG D 557     -23.017  -1.728 -15.379  1.00 35.49    -0.235 N 
ATOM      8  NH2 ARG D 557     -24.358  -2.054 -13.576  1.00 35.49    -0.235 N 
ATOM      9  HH  ARG D 557     -22.815  -1.313 -16.101  1.00 35.49     0.174 HD
ATOM     10  HH  ARG D 557     -22.522  -2.370 -15.101  1.00 35.49     0.174 HD
ATOM     11  HH  ARG D 557     -25.049  -1.818 -13.134  1.00 35.49     0.174 HD
ATOM     12  HH  ARG D 557     -23.855  -2.685 -13.316  1.00 35.49     0.174 HD
ATOM     13  HE  ARG D 557     -25.594  -0.342 -14.545  1.00 35.49     0.178 HD
ENDBRANCH   4   5
ENDBRANCH   3   4
ENDBRANCH   2   3
ENDBRANCH   1   2
END_RES ARG D 557
BEGIN_RES GLU D 570
REMARK  3 active torsions:
REMARK  status: ('A' for Active; 'I' for Inactive)
REMARK    5  A    between atoms: CA   and  CB  
REMARK    6  A    between atoms: CB   and  CG  
REMARK    7  A    between atoms: CG   and  CD  
ROOT
ATOM     14  CA  GLU D 570     -18.033  -6.348 -13.375  1.00 32.92     0.160 C 
ENDROOT
BRANCH  14  15
ATOM     15  CB  GLU D 570     -19.500  -6.345 -13.794  1.00 32.92     0.043 C 
BRANCH  15  16
ATOM     16  CG  GLU D 570     -20.443  -5.537 -12.979  1.00 32.92     0.100 C 
BRANCH  16  17
ATOM     17  CD  GLU D 570     -21.731  -5.225 -13.704  1.00 32.92     0.185 C 
ATOM     18  OE1 GLU D 570     -22.269  -4.114 -13.532  1.00 32.92    -0.647 OA
ATOM     19  OE2 GLU D 570     -22.216  -6.107 -14.440  1.00 32.92    -0.647 OA
ENDBRANCH  16  17
ENDBRANCH  15  16
ENDBRANCH  14  15
END_RES GLU D 570
ENDMDL
MODEL 7
REMARK VINA RESULT:      -6.0      6.772      8.134
REMARK  2 active torsions:
REMARK  status: ('A' for Active; 'I' for Inactive)
REMARK    1  A    between atoms: CA_6  and  C_7 
REMARK    2  A    between atoms: C_7  and  O_8 
ROOT
HETATM    1  C   UNL     1     -33.601  -3.310 -10.775  1.00  0.00     0.045 C 
HETATM    2  C   UNL     1     -34.010  -1.901 -11.199  1.00  0.00     0.105 C 
HETATM    3  C   UNL     1     -34.813  -2.190 -12.430  1.00  0.00     0.218 C 
HETATM    4  O   UNL     1     -35.889  -1.716 -12.761  1.00  0.00    -0.274 OA
HETATM    5  N   UNL     1     -34.204  -3.246 -13.068  1.00  0.00    -0.347 N 
HETATM    6  CA  UNL     1     -33.645  -4.149 -12.057  1.00  0.00     0.187 C 
HETATM    7  H   UNL     1     -34.670  -3.667 -13.863  1.00  0.00     0.163 HD
ENDROOT
BRANCH   6   8
HETATM    8  C   UNL     1     -34.600  -5.349 -11.755  1.00  0.00     0.312 C 
HETATM    9  OXT UNL     1     -34.745  -5.672 -10.558  1.00  0.00    -0.260 OA
BRANCH   8  10
HETATM   10  O   UNL     1     -35.126  -5.855 -12.810  1.00  0.00    -0.148 OA
HETATM   11 NA   UNL     2     -35.273  -7.358 -14.097  1.00  0.00     0.000 Na
ENDBRANCH   8  10
ENDBRANCH   6   8
TORSDOF 2
BEGIN_RES ARG D 557
REMARK  4 active torsions:
REMARK  status: ('A' for Active; 'I' for Inactive)
REMARK    1  A    between atoms: CA   and  CB  
REMARK    2  A    between atoms: CB   and  CG  
REMARK    3  A    between atoms: CG   and  CD  
REMARK    4  A    between atoms: CD   and  NE  
REMARK       I    between atoms: NE   and  CZ  
REMARK       I    between atoms: CZ   and  NH1 
REMARK       I    between atoms: CZ   and  NH2 
ROOT
ATOM      1  CA  ARG D 557     -26.217   2.705 -17.014  1.00 35.49     0.159 C 
ENDROOT
BRANCH   1   2
ATOM      2  CB  ARG D 557     -26.789   1.319 -17.183  1.00 35.49     0.034 C 
BRANCH   2   3
ATOM      3  CG  ARG D 557     -25.835   0.203 -17.161  1.00 35.49     0.027 C 
BRANCH   3   4
ATOM      4  CD  ARG D 557     -24.744   0.413 -16.183  1.00 35.49     0.116 C 
BRANCH   4   5
ATOM      5  NE  ARG D 557     -24.885  -0.428 -15.024  1.00 35.49    -0.212 N 
ATOM      6  CZ  ARG D 557     -24.067  -1.394 -14.671  1.00 35.49     0.666 C 
ATOM      7  NH1 ARG D 557     -22.999  -1.713 -15.380  1.00 35.49    -0.235 N 
ATOM      8  NH2 ARG D 557     -24.339  -2.041 -13.576  1.00 35.49    -0.235 N 
ATOM      9  HH  ARG D 557     -22.800  -1.299 -16.103  1.00 35.49     0.174 HD
ATOM     10  HH  ARG D 557     -22.500  -2.350 -15.099  1.00 35.49     0.174 HD
ATOM     11  HH  ARG D 557     -25.031  -1.809 -13.135  1.00 35.49     0.174 HD
ATOM     12  HH  ARG D 557     -23.832  -2.669 -13.314  1.00 35.49     0.174 HD
ATOM     13  HE  ARG D 557     -25.585  -0.340 -14.549  1.00 35.49     0.178 HD
ENDBRANCH   4   5
ENDBRANCH   3   4
ENDBRANCH   2   3
ENDBRANCH   1   2
END_RES ARG D 557
BEGIN_RES GLU D 570
REMARK  3 active torsions:
REMARK  status: ('A' for Active; 'I' for Inactive)
REMARK    5  A    between atoms: CA   and  CB  
REMARK    6  A    between atoms: CB   and  CG  
REMARK    7  A    between atoms: CG   and  CD  
ROOT
ATOM     14  CA  GLU D 570     -18.033  -6.348 -13.375  1.00 32.92     0.160 C 
ENDROOT
BRANCH  14  15
ATOM     15  CB  GLU D 570     -19.500  -6.345 -13.794  1.00 32.92     0.043 C 
BRANCH  15  16
ATOM     16  CG  GLU D 570     -20.442  -5.532 -12.983  1.00 32.92     0.100 C 
BRANCH  16  17
ATOM     17  CD  GLU D 570     -21.746  -5.256 -13.694  1.00 32.92     0.185 C 
ATOM     18  OE1 GLU D 570     -22.230  -6.135 -14.433  1.00 32.92    -0.647 OA
ATOM     19  OE2 GLU D 570     -22.282  -4.143 -13.522  1.00 32.92    -0.647 OA
ENDBRANCH  16  17
ENDBRANCH  15  16
ENDBRANCH  14  15
END_RES GLU D 570
ENDMDL
MODEL 8
REMARK VINA RESULT:      -6.0      3.090      4.137
REMARK  2 active torsions:
REMARK  status: ('A' for Active; 'I' for Inactive)
REMARK    1  A    between atoms: CA_6  and  C_7 
REMARK    2  A    between atoms: C_7  and  O_8 
ROOT
HETATM    1  C   UNL     1     -21.684  -4.296 -10.041  1.00  0.00     0.045 C 
HETATM    2  C   UNL     1     -20.983  -4.640  -8.729  1.00  0.00     0.105 C 
HETATM    3  C   UNL     1     -22.087  -4.415  -7.741  1.00  0.00     0.218 C 
HETATM    4  O   UNL     1     -22.415  -5.119  -6.799  1.00  0.00    -0.274 OA
HETATM    5  N   UNL     1     -22.811  -3.333  -8.189  1.00  0.00    -0.347 N 
HETATM    6  CA  UNL     1     -22.827  -3.350  -9.654  1.00  0.00     0.187 C 
HETATM    7  H   UNL     1     -23.674  -3.097  -7.716  1.00  0.00     0.163 HD
ENDROOT
BRANCH   6   8
HETATM    8  C   UNL     1     -24.133  -4.000 -10.215  1.00  0.00     0.312 C 
HETATM    9  OXT UNL     1     -25.204  -3.391 -10.013  1.00  0.00    -0.260 OA
BRANCH   8  10
HETATM   10  O   UNL     1     -23.924  -5.106 -10.831  1.00  0.00    -0.148 OA
HETATM   11 NA   UNL     2     -23.936  -6.157 -12.513  1.00  0.00     0.000 Na
ENDBRANCH   8  10
ENDBRANCH   6   8
TORSDOF 2
BEGIN_RES ARG D 557
REMARK  4 active torsions:
REMARK  status: ('A' for Active; 'I' for Inactive)
REMARK    1  A    between atoms: CA   and  CB  
REMARK    2  A    between atoms: CB   and  CG  
REMARK    3  A    between atoms: CG   and  CD  
REMARK    4  A    between atoms: CD   and  NE  
REMARK       I    between atoms: NE   and  CZ  
REMARK       I    between atoms: CZ   and  NH1 
REMARK       I    between atoms: CZ   and  NH2 
ROOT
ATOM      1  CA  ARG D 557     -26.217   2.705 -17.014  1.00 35.49     0.159 C 
ENDROOT
BRANCH   1   2
ATOM      2  CB  ARG D 557     -26.789   1.319 -17.183  1.00 35.49     0.034 C 
BRANCH   2   3
ATOM      3  CG  ARG D 557     -25.838   0.202 -17.138  1.00 35.49     0.027 C 
BRANCH   3   4
ATOM      4  CD  ARG D 557     -24.762   0.416 -16.143  1.00 35.49     0.116 C 
BRANCH   4   5
ATOM      5  NE  ARG D 557     -24.906  -0.442 -14.996  1.00 35.49    -0.212 N 
ATOM      6  CZ  ARG D 557     -24.090  -1.415 -14.658  1.00 35.49     0.666 C 
ATOM      7  NH1 ARG D 557     -23.023  -1.726 -15.370  1.00 35.49    -0.235 N 
ATOM      8  NH2 ARG D 557     -24.365  -2.078 -13.572  1.00 35.49    -0.235 N 
ATOM      9  HH  ARG D 557     -22.822  -1.302 -16.087  1.00 35.49     0.174 HD
ATOM     10  HH  ARG D 557     -22.526  -2.369 -15.099  1.00 35.49     0.174 HD
ATOM     11  HH  ARG D 557     -25.056  -1.850 -13.128  1.00 35.49     0.174 HD
ATOM     12  HH  ARG D 557     -23.859  -2.710 -13.319  1.00 35.49     0.174 HD
ATOM     13  HE  ARG D 557     -25.607  -0.359 -14.521  1.00 35.49     0.178 HD
ENDBRANCH   4   5
ENDBRANCH   3   4
ENDBRANCH   2   3
ENDBRANCH   1   2
END_RES ARG D 557
BEGIN_RES GLU D 570
REMARK  3 active torsions:
REMARK  status: ('A' for Active; 'I' for Inactive)
REMARK    5  A    between atoms: CA   and  CB  
REMARK    6  A    between atoms: CB   and  CG  
REMARK    7  A    between atoms: CG   and  CD  
ROOT
ATOM     14  CA  GLU D 570     -18.033  -6.348 -13.375  1.00 32.92     0.160 C 
ENDROOT
BRANCH  14  15
ATOM     15  CB  GLU D 570     -19.500  -6.345 -13.794  1.00 32.92     0.043 C 
BRANCH  15  16
ATOM     16  CG  GLU D 570     -20.432  -5.487 -13.017  1.00 32.92     0.100 C 
BRANCH  16  17
ATOM     17  CD  GLU D 570     -21.752  -5.265 -13.719  1.00 32.92     0.185 C 
ATOM     18  OE1 GLU D 570     -22.344  -4.180 -13.564  1.00 32.92    -0.647 OA
ATOM     19  OE2 GLU D 570     -22.206  -6.193 -14.417  1.00 32.92    -0.647 OA
ENDBRANCH  16  17
ENDBRANCH  15  16
ENDBRANCH  14  15
END_RES GLU D 570
ENDMDL
MODEL 9
REMARK VINA RESULT:      -5.9      2.258      3.156
REMARK  2 active torsions:
REMARK  status: ('A' for Active; 'I' for Inactive)
REMARK    1  A    between atoms: CA_6  and  C_7 
REMARK    2  A    between atoms: C_7  and  O_8 
ROOT
HETATM    1  C   UNL     1     -22.066  -3.790 -10.827  1.00  0.00     0.045 C 
HETATM    2  C   UNL     1     -21.736  -3.225 -12.206  1.00  0.00     0.105 C 
HETATM    3  C   UNL     1     -23.105  -3.097 -12.802  1.00  0.00     0.218 C 
HETATM    4  O   UNL     1     -23.571  -2.162 -13.435  1.00  0.00    -0.274 OA
HETATM    5  N   UNL     1     -23.839  -4.172 -12.355  1.00  0.00    -0.347 N 
HETATM    6  CA  UNL     1     -23.418  -4.496 -10.989  1.00  0.00     0.187 C 
HETATM    7  H   UNL     1     -24.831  -4.199 -12.556  1.00  0.00     0.163 HD
ENDROOT
BRANCH   6   8
HETATM    8  C   UNL     1     -24.366  -3.862  -9.921  1.00  0.00     0.312 C 
HETATM    9  OXT UNL     1     -25.396  -3.294 -10.340  1.00  0.00    -0.260 OA
BRANCH   8  10
HETATM   10  O   UNL     1     -23.948  -4.016  -8.718  1.00  0.00    -0.148 OA
HETATM   11 NA   UNL     2     -24.320  -4.066  -6.769  1.00  0.00     0.000 Na
ENDBRANCH   8  10
ENDBRANCH   6   8
TORSDOF 2
BEGIN_RES ARG D 557
REMARK  4 active torsions:
REMARK  status: ('A' for Active; 'I' for Inactive)
REMARK    1  A    between atoms: CA   and  CB  
REMARK    2  A    between atoms: CB   and  CG  
REMARK    3  A    between atoms: CG   and  CD  
REMARK    4  A    between atoms: CD   and  NE  
REMARK       I    between atoms: NE   and  CZ  
REMARK       I    between atoms: CZ   and  NH1 
REMARK       I    between atoms: CZ   and  NH2 
ROOT
ATOM      1  CA  ARG D 557     -26.217   2.705 -17.014  1.00 35.49     0.159 C 
ENDROOT
BRANCH   1   2
ATOM      2  CB  ARG D 557     -26.789   1.319 -17.183  1.00 35.49     0.034 C 
BRANCH   2   3
ATOM      3  CG  ARG D 557     -28.209   1.145 -16.853  1.00 35.49     0.027 C 
BRANCH   3   4
ATOM      4  CD  ARG D 557     -28.538  -0.254 -16.498  1.00 35.49     0.116 C 
BRANCH   4   5
ATOM      5  NE  ARG D 557     -27.463  -0.903 -15.796  1.00 35.49    -0.212 N 
ATOM      6  CZ  ARG D 557     -27.160  -2.180 -15.867  1.00 35.49     0.666 C 
ATOM      7  NH1 ARG D 557     -27.847  -3.032 -16.605  1.00 35.49    -0.235 N 
ATOM      8  NH2 ARG D 557     -26.136  -2.593 -15.178  1.00 35.49    -0.235 N 
ATOM      9  HH  ARG D 557     -28.523  -2.782 -17.069  1.00 35.49     0.174 HD
ATOM     10  HH  ARG D 557     -27.601  -3.853 -16.615  1.00 35.49     0.174 HD
ATOM     11  HH  ARG D 557     -25.707  -2.019 -14.715  1.00 35.49     0.174 HD
ATOM     12  HH  ARG D 557     -25.908  -3.410 -15.201  1.00 35.49     0.174 HD
ATOM     13  HE  ARG D 557     -27.013  -0.443 -15.240  1.00 35.49     0.178 HD
ENDBRANCH   4   5
ENDBRANCH   3   4
ENDBRANCH   2   3
ENDBRANCH   1   2
END_RES ARG D 557
BEGIN_RES GLU D 570
REMARK  3 active torsions:
REMARK  status: ('A' for Active; 'I' for Inactive)
REMARK    5  A    between atoms: CA   and  CB  
REMARK    6  A    between atoms: CB   and  CG  
REMARK    7  A    between atoms: CG   and  CD  
ROOT
ATOM     14  CA  GLU D 570     -18.033  -6.348 -13.375  1.00 32.92     0.160 C 
ENDROOT
BRANCH  14  15
ATOM     15  CB  GLU D 570     -19.500  -6.345 -13.794  1.00 32.92     0.043 C 
BRANCH  15  16
ATOM     16  CG  GLU D 570     -19.817  -5.891 -15.173  1.00 32.92     0.100 C 
BRANCH  16  17
ATOM     17  CD  GLU D 570     -21.271  -5.520 -15.351  1.00 32.92     0.185 C 
ATOM     18  OE1 GLU D 570     -22.104  -5.916 -14.513  1.00 32.92    -0.647 OA
ATOM     19  OE2 GLU D 570     -21.582  -4.840 -16.349  1.00 32.92    -0.647 OA
ENDBRANCH  16  17
ENDBRANCH  15  16
ENDBRANCH  14  15
END_RES GLU D 570
ENDMDL
