MODEL 1
REMARK VINA RESULT:      -4.2      0.000      0.000
REMARK  5 active torsions:
REMARK  status: ('A' for Active; 'I' for Inactive)
REMARK    1  A    between atoms: C_1  and  C_2 
REMARK    2  A    between atoms: C_1  and  O_6 
REMARK    3  A    between atoms: C_2  and  C_3 
REMARK    4  A    between atoms: C_2  and  O_5 
REMARK    5  A    between atoms: C_3  and  O_4 
ROOT
HETATM    1  C   UNL     1     -29.605 -14.930 -21.132  1.00  0.00     0.165 C 
ENDROOT
BRANCH   1   2
HETATM    2  C   UNL     1     -29.828 -14.845 -19.620  1.00  0.00     0.198 C 
BRANCH   2   3
HETATM    3  O   UNL     1     -30.531 -13.643 -19.288  1.00  0.00    -0.398 OA
HETATM    4  H   UNL     1     -30.057 -13.276 -18.516  1.00  0.00     0.209 HD
ENDBRANCH   2   3
ENDBRANCH   1   2
BRANCH   1   5
HETATM    5  C   UNL     1     -30.915 -15.113 -21.910  1.00  0.00     0.198 C 
BRANCH   5   6
HETATM    6  O   UNL     1     -31.508 -13.839 -22.182  1.00  0.00    -0.398 OA
HETATM    7  H   UNL     1     -32.326 -14.019 -22.696  1.00  0.00     0.209 HD
ENDBRANCH   5   6
ENDBRANCH   1   5
BRANCH   1   8
HETATM    8  O   UNL     1     -28.979 -13.708 -21.556  1.00  0.00    -0.391 OA
HETATM    9  H   UNL     1     -29.695 -13.042 -21.600  1.00  0.00     0.210 HD
ENDBRANCH   1   8
TORSDOF 5
BEGIN_RES ARG D 557
REMARK  4 active torsions:
REMARK  status: ('A' for Active; 'I' for Inactive)
REMARK    1  A    between atoms: CA   and  CB  
REMARK    2  A    between atoms: CB   and  CG  
REMARK    3  A    between atoms: CG   and  CD  
REMARK    4  A    between atoms: CD   and  NE  
REMARK       I    between atoms: NE   and  CZ  
REMARK       I    between atoms: CZ   and  NH1 
REMARK       I    between atoms: CZ   and  NH2 
ROOT
ATOM      1  CA  ARG D 557     -26.217   2.705 -17.014  1.00 35.49     0.159 C 
ENDROOT
BRANCH   1   2
ATOM      2  CB  ARG D 557     -26.789   1.319 -17.183  1.00 35.49     0.034 C 
BRANCH   2   3
ATOM      3  CG  ARG D 557     -25.863   0.195 -16.998  1.00 35.49     0.027 C 
BRANCH   3   4
ATOM      4  CD  ARG D 557     -26.274  -0.699 -15.892  1.00 35.49     0.116 C 
BRANCH   4   5
ATOM      5  NE  ARG D 557     -25.213  -0.912 -14.944  1.00 35.49    -0.212 N 
ATOM      6  CZ  ARG D 557     -24.923  -2.053 -14.360  1.00 35.49     0.666 C 
ATOM      7  NH1 ARG D 557     -25.610  -3.159 -14.581  1.00 35.49    -0.235 N 
ATOM      8  NH2 ARG D 557     -23.911  -2.068 -13.542  1.00 35.49    -0.235 N 
ATOM      9  HH  ARG D 557     -26.278  -3.172 -15.117  1.00 35.49     0.174 HD
ATOM     10  HH  ARG D 557     -25.372  -3.874 -14.174  1.00 35.49     0.174 HD
ATOM     11  HH  ARG D 557     -23.481  -1.341 -13.424  1.00 35.49     0.174 HD
ATOM     12  HH  ARG D 557     -23.690  -2.787 -13.149  1.00 35.49     0.174 HD
ATOM     13  HE  ARG D 557     -24.765  -0.237 -14.688  1.00 35.49     0.178 HD
ENDBRANCH   4   5
ENDBRANCH   3   4
ENDBRANCH   2   3
ENDBRANCH   1   2
END_RES ARG D 557
BEGIN_RES GLU D 570
REMARK  3 active torsions:
REMARK  status: ('A' for Active; 'I' for Inactive)
REMARK    5  A    between atoms: CA   and  CB  
REMARK    6  A    between atoms: CB   and  CG  
REMARK    7  A    between atoms: CG   and  CD  
ROOT
ATOM     14  CA  GLU D 570     -18.033  -6.348 -13.375  1.00 32.92     0.160 C 
ENDROOT
BRANCH  14  15
ATOM     15  CB  GLU D 570     -19.500  -6.345 -13.794  1.00 32.92     0.043 C 
BRANCH  15  16
ATOM     16  CG  GLU D 570     -20.452  -5.580 -12.948  1.00 32.92     0.100 C 
BRANCH  16  17
ATOM     17  CD  GLU D 570     -21.683  -5.134 -13.701  1.00 32.92     0.185 C 
ATOM     18  OE1 GLU D 570     -21.636  -5.052 -14.944  1.00 32.92    -0.647 OA
ATOM     19  OE2 GLU D 570     -22.701  -4.846 -13.041  1.00 32.92    -0.647 OA
ENDBRANCH  16  17
ENDBRANCH  15  16
ENDBRANCH  14  15
END_RES GLU D 570
ENDMDL
MODEL 2
REMARK VINA RESULT:      -4.1      8.228      9.461
REMARK  5 active torsions:
REMARK  status: ('A' for Active; 'I' for Inactive)
REMARK    1  A    between atoms: C_1  and  C_2 
REMARK    2  A    between atoms: C_1  and  O_6 
REMARK    3  A    between atoms: C_2  and  C_3 
REMARK    4  A    between atoms: C_2  and  O_5 
REMARK    5  A    between atoms: C_3  and  O_4 
ROOT
HETATM    1  C   UNL     1     -23.254  -2.181 -14.385  1.00  0.00     0.165 C 
ENDROOT
BRANCH   1   2
HETATM    2  C   UNL     1     -24.201  -1.111 -14.936  1.00  0.00     0.198 C 
BRANCH   2   3
HETATM    3  O   UNL     1     -25.543  -1.366 -14.506  1.00  0.00    -0.398 OA
HETATM    4  H   UNL     1     -25.815  -2.173 -14.987  1.00  0.00     0.209 HD
ENDBRANCH   2   3
ENDBRANCH   1   2
BRANCH   1   5
HETATM    5  C   UNL     1     -24.000  -3.430 -13.896  1.00  0.00     0.198 C 
BRANCH   5   6
HETATM    6  O   UNL     1     -24.380  -4.245 -15.009  1.00  0.00    -0.398 OA
HETATM    7  H   UNL     1     -23.911  -3.881 -15.793  1.00  0.00     0.209 HD
ENDBRANCH   5   6
ENDBRANCH   1   5
BRANCH   1   8
HETATM    8  O   UNL     1     -22.355  -2.561 -15.439  1.00  0.00    -0.391 OA
HETATM    9  H   UNL     1     -21.795  -3.274 -15.069  1.00  0.00     0.210 HD
ENDBRANCH   1   8
TORSDOF 5
BEGIN_RES ARG D 557
REMARK  4 active torsions:
REMARK  status: ('A' for Active; 'I' for Inactive)
REMARK    1  A    between atoms: CA   and  CB  
REMARK    2  A    between atoms: CB   and  CG  
REMARK    3  A    between atoms: CG   and  CD  
REMARK    4  A    between atoms: CD   and  NE  
REMARK       I    between atoms: NE   and  CZ  
REMARK       I    between atoms: CZ   and  NH1 
REMARK       I    between atoms: CZ   and  NH2 
ROOT
ATOM      1  CA  ARG D 557     -26.217   2.705 -17.014  1.00 35.49     0.159 C 
ENDROOT
BRANCH   1   2
ATOM      2  CB  ARG D 557     -26.789   1.319 -17.183  1.00 35.49     0.034 C 
BRANCH   2   3
ATOM      3  CG  ARG D 557     -28.192   1.131 -16.794  1.00 35.49     0.027 C 
BRANCH   3   4
ATOM      4  CD  ARG D 557     -28.691  -0.225 -17.117  1.00 35.49     0.116 C 
BRANCH   4   5
ATOM      5  NE  ARG D 557     -27.900  -1.255 -16.496  1.00 35.49    -0.212 N 
ATOM      6  CZ  ARG D 557     -28.058  -2.549 -16.663  1.00 35.49     0.666 C 
ATOM      7  NH1 ARG D 557     -29.002  -3.055 -17.435  1.00 35.49    -0.235 N 
ATOM      8  NH2 ARG D 557     -27.235  -3.340 -16.037  1.00 35.49    -0.235 N 
ATOM      9  HH  ARG D 557     -29.553  -2.554 -17.858  1.00 35.49     0.174 HD
ATOM     10  HH  ARG D 557     -29.055  -3.908 -17.508  1.00 35.49     0.174 HD
ATOM     11  HH  ARG D 557     -26.631  -2.985 -15.551  1.00 35.49     0.174 HD
ATOM     12  HH  ARG D 557     -27.303  -4.181 -16.123  1.00 35.49     0.174 HD
ATOM     13  HE  ARG D 557     -27.315  -1.021 -15.926  1.00 35.49     0.178 HD
ENDBRANCH   4   5
ENDBRANCH   3   4
ENDBRANCH   2   3
ENDBRANCH   1   2
END_RES ARG D 557
BEGIN_RES GLU D 570
REMARK  3 active torsions:
REMARK  status: ('A' for Active; 'I' for Inactive)
REMARK    5  A    between atoms: CA   and  CB  
REMARK    6  A    between atoms: CB   and  CG  
REMARK    7  A    between atoms: CG   and  CD  
ROOT
ATOM     14  CA  GLU D 570     -18.033  -6.348 -13.375  1.00 32.92     0.160 C 
ENDROOT
BRANCH  14  15
ATOM     15  CB  GLU D 570     -19.500  -6.345 -13.794  1.00 32.92     0.043 C 
BRANCH  15  16
ATOM     16  CG  GLU D 570     -19.805  -6.040 -15.216  1.00 32.92     0.100 C 
BRANCH  16  17
ATOM     17  CD  GLU D 570     -21.276  -5.802 -15.465  1.00 32.92     0.185 C 
ATOM     18  OE1 GLU D 570     -21.619  -5.053 -16.400  1.00 32.92    -0.647 OA
ATOM     19  OE2 GLU D 570     -22.095  -6.358 -14.706  1.00 32.92    -0.647 OA
ENDBRANCH  16  17
ENDBRANCH  15  16
ENDBRANCH  14  15
END_RES GLU D 570
ENDMDL
MODEL 3
REMARK VINA RESULT:      -4.1      2.203      2.727
REMARK  5 active torsions:
REMARK  status: ('A' for Active; 'I' for Inactive)
REMARK    1  A    between atoms: C_1  and  C_2 
REMARK    2  A    between atoms: C_1  and  O_6 
REMARK    3  A    between atoms: C_2  and  C_3 
REMARK    4  A    between atoms: C_2  and  O_5 
REMARK    5  A    between atoms: C_3  and  O_4 
ROOT
HETATM    1  C   UNL     1     -29.639 -14.879 -21.049  1.00  0.00     0.165 C 
ENDROOT
BRANCH   1   2
HETATM    2  C   UNL     1     -29.758 -14.698 -19.533  1.00  0.00     0.198 C 
BRANCH   2   3
HETATM    3  O   UNL     1     -30.698 -13.663 -19.229  1.00  0.00    -0.398 OA
HETATM    4  H   UNL     1     -30.790 -13.680 -18.255  1.00  0.00     0.209 HD
ENDBRANCH   2   3
ENDBRANCH   1   2
BRANCH   1   5
HETATM    5  C   UNL     1     -31.004 -15.040 -21.730  1.00  0.00     0.198 C 
BRANCH   5   6
HETATM    6  O   UNL     1     -31.458 -13.777 -22.228  1.00  0.00    -0.398 OA
HETATM    7  H   UNL     1     -32.421 -13.733 -22.035  1.00  0.00     0.209 HD
ENDBRANCH   5   6
ENDBRANCH   1   5
BRANCH   1   8
HETATM    8  O   UNL     1     -28.987 -13.716 -21.584  1.00  0.00    -0.391 OA
HETATM    9  H   UNL     1     -28.111 -14.021 -21.898  1.00  0.00     0.210 HD
ENDBRANCH   1   8
TORSDOF 5
BEGIN_RES ARG D 557
REMARK  4 active torsions:
REMARK  status: ('A' for Active; 'I' for Inactive)
REMARK    1  A    between atoms: CA   and  CB  
REMARK    2  A    between atoms: CB   and  CG  
REMARK    3  A    between atoms: CG   and  CD  
REMARK    4  A    between atoms: CD   and  NE  
REMARK       I    between atoms: NE   and  CZ  
REMARK       I    between atoms: CZ   and  NH1 
REMARK       I    between atoms: CZ   and  NH2 
ROOT
ATOM      1  CA  ARG D 557     -26.217   2.705 -17.014  1.00 35.49     0.159 C 
ENDROOT
BRANCH   1   2
ATOM      2  CB  ARG D 557     -26.789   1.319 -17.183  1.00 35.49     0.034 C 
BRANCH   2   3
ATOM      3  CG  ARG D 557     -28.232   1.226 -17.437  1.00 35.49     0.027 C 
BRANCH   3   4
ATOM      4  CD  ARG D 557     -28.912   0.307 -16.496  1.00 35.49     0.116 C 
BRANCH   4   5
ATOM      5  NE  ARG D 557     -29.299  -0.927 -17.128  1.00 35.49    -0.212 N 
ATOM      6  CZ  ARG D 557     -28.661  -2.072 -17.031  1.00 35.49     0.666 C 
ATOM      7  NH1 ARG D 557     -27.552  -2.209 -16.328  1.00 35.49    -0.235 N 
ATOM      8  NH2 ARG D 557     -29.167  -3.096 -17.655  1.00 35.49    -0.235 N 
ATOM      9  HH  ARG D 557     -27.202  -1.549 -15.908  1.00 35.49     0.174 HD
ATOM     10  HH  ARG D 557     -27.181  -2.981 -16.299  1.00 35.49     0.174 HD
ATOM     11  HH  ARG D 557     -29.889  -2.980 -18.095  1.00 35.49     0.174 HD
ATOM     12  HH  ARG D 557     -28.786  -3.852 -17.612  1.00 35.49     0.174 HD
ATOM     13  HE  ARG D 557     -29.963  -0.913 -17.659  1.00 35.49     0.178 HD
ENDBRANCH   4   5
ENDBRANCH   3   4
ENDBRANCH   2   3
ENDBRANCH   1   2
END_RES ARG D 557
BEGIN_RES GLU D 570
REMARK  3 active torsions:
REMARK  status: ('A' for Active; 'I' for Inactive)
REMARK    5  A    between atoms: CA   and  CB  
REMARK    6  A    between atoms: CB   and  CG  
REMARK    7  A    between atoms: CG   and  CD  
ROOT
ATOM     14  CA  GLU D 570     -18.033  -6.348 -13.375  1.00 32.92     0.160 C 
ENDROOT
BRANCH  14  15
ATOM     15  CB  GLU D 570     -19.500  -6.345 -13.794  1.00 32.92     0.043 C 
BRANCH  15  16
ATOM     16  CG  GLU D 570     -20.439  -5.517 -12.993  1.00 32.92     0.100 C 
BRANCH  16  17
ATOM     17  CD  GLU D 570     -21.741  -5.244 -13.709  1.00 32.92     0.185 C 
ATOM     18  OE1 GLU D 570     -22.383  -4.215 -13.425  1.00 32.92    -0.647 OA
ATOM     19  OE2 GLU D 570     -22.131  -6.076 -14.551  1.00 32.92    -0.647 OA
ENDBRANCH  16  17
ENDBRANCH  15  16
ENDBRANCH  14  15
END_RES GLU D 570
ENDMDL
MODEL 4
REMARK VINA RESULT:      -4.0      8.753     10.410
REMARK  5 active torsions:
REMARK  status: ('A' for Active; 'I' for Inactive)
REMARK    1  A    between atoms: C_1  and  C_2 
REMARK    2  A    between atoms: C_1  and  O_6 
REMARK    3  A    between atoms: C_2  and  C_3 
REMARK    4  A    between atoms: C_2  and  O_5 
REMARK    5  A    between atoms: C_3  and  O_4 
ROOT
HETATM    1  C   UNL     1     -23.665  -4.188  -9.277  1.00  0.00     0.165 C 
ENDROOT
BRANCH   1   2
HETATM    2  C   UNL     1     -24.720  -3.266  -9.894  1.00  0.00     0.198 C 
BRANCH   2   3
HETATM    3  O   UNL     1     -24.871  -3.549 -11.290  1.00  0.00    -0.398 OA
HETATM    4  H   UNL     1     -25.789  -3.287 -11.504  1.00  0.00     0.209 HD
ENDBRANCH   2   3
ENDBRANCH   1   2
BRANCH   1   5
HETATM    5  C   UNL     1     -22.235  -3.776  -9.649  1.00  0.00     0.198 C 
BRANCH   5   6
HETATM    6  O   UNL     1     -22.232  -3.073 -10.895  1.00  0.00    -0.398 OA
HETATM    7  H   UNL     1     -23.171  -2.865 -11.098  1.00  0.00     0.209 HD
ENDBRANCH   5   6
ENDBRANCH   1   5
BRANCH   1   8
HETATM    8  O   UNL     1     -23.808  -4.131  -7.849  1.00  0.00    -0.391 OA
HETATM    9  H   UNL     1     -24.719  -4.436  -7.658  1.00  0.00     0.210 HD
ENDBRANCH   1   8
TORSDOF 5
BEGIN_RES ARG D 557
REMARK  4 active torsions:
REMARK  status: ('A' for Active; 'I' for Inactive)
REMARK    1  A    between atoms: CA   and  CB  
REMARK    2  A    between atoms: CB   and  CG  
REMARK    3  A    between atoms: CG   and  CD  
REMARK    4  A    between atoms: CD   and  NE  
REMARK       I    between atoms: NE   and  CZ  
REMARK       I    between atoms: CZ   and  NH1 
REMARK       I    between atoms: CZ   and  NH2 
ROOT
ATOM      1  CA  ARG D 557     -26.217   2.705 -17.014  1.00 35.49     0.159 C 
ENDROOT
BRANCH   1   2
ATOM      2  CB  ARG D 557     -26.789   1.319 -17.183  1.00 35.49     0.034 C 
BRANCH   2   3
ATOM      3  CG  ARG D 557     -25.860   0.195 -17.010  1.00 35.49     0.027 C 
BRANCH   3   4
ATOM      4  CD  ARG D 557     -26.220  -0.662 -15.858  1.00 35.49     0.116 C 
BRANCH   4   5
ATOM      5  NE  ARG D 557     -25.107  -0.873 -14.970  1.00 35.49    -0.212 N 
ATOM      6  CZ  ARG D 557     -24.853  -1.978 -14.306  1.00 35.49     0.666 C 
ATOM      7  NH1 ARG D 557     -25.629  -3.043 -14.379  1.00 35.49    -0.235 N 
ATOM      8  NH2 ARG D 557     -23.785  -1.999 -13.562  1.00 35.49    -0.235 N 
ATOM      9  HH  ARG D 557     -26.335  -3.052 -14.864  1.00 35.49     0.174 HD
ATOM     10  HH  ARG D 557     -25.411  -3.737 -13.925  1.00 35.49     0.174 HD
ATOM     11  HH  ARG D 557     -23.298  -1.299 -13.541  1.00 35.49     0.174 HD
ATOM     12  HH  ARG D 557     -23.586  -2.696 -13.122  1.00 35.49     0.174 HD
ATOM     13  HE  ARG D 557     -24.595  -0.213 -14.808  1.00 35.49     0.178 HD
ENDBRANCH   4   5
ENDBRANCH   3   4
ENDBRANCH   2   3
ENDBRANCH   1   2
END_RES ARG D 557
BEGIN_RES GLU D 570
REMARK  3 active torsions:
REMARK  status: ('A' for Active; 'I' for Inactive)
REMARK    5  A    between atoms: CA   and  CB  
REMARK    6  A    between atoms: CB   and  CG  
REMARK    7  A    between atoms: CG   and  CD  
ROOT
ATOM     14  CA  GLU D 570     -18.033  -6.348 -13.375  1.00 32.92     0.160 C 
ENDROOT
BRANCH  14  15
ATOM     15  CB  GLU D 570     -19.500  -6.345 -13.794  1.00 32.92     0.043 C 
BRANCH  15  16
ATOM     16  CG  GLU D 570     -20.449  -5.563 -12.960  1.00 32.92     0.100 C 
BRANCH  16  17
ATOM     17  CD  GLU D 570     -21.695  -5.154 -13.710  1.00 32.92     0.185 C 
ATOM     18  OE1 GLU D 570     -21.666  -5.116 -14.955  1.00 32.92    -0.647 OA
ATOM     19  OE2 GLU D 570     -22.706  -4.854 -13.045  1.00 32.92    -0.647 OA
ENDBRANCH  16  17
ENDBRANCH  15  16
ENDBRANCH  14  15
END_RES GLU D 570
ENDMDL
MODEL 5
REMARK VINA RESULT:      -3.9      0.448      1.563
REMARK  5 active torsions:
REMARK  status: ('A' for Active; 'I' for Inactive)
REMARK    1  A    between atoms: C_1  and  C_2 
REMARK    2  A    between atoms: C_1  and  O_6 
REMARK    3  A    between atoms: C_2  and  C_3 
REMARK    4  A    between atoms: C_2  and  O_5 
REMARK    5  A    between atoms: C_3  and  O_4 
ROOT
HETATM    1  C   UNL     1     -30.522 -15.152 -20.791  1.00  0.00     0.165 C 
ENDROOT
BRANCH   1   2
HETATM    2  C   UNL     1     -29.231 -15.072 -21.610  1.00  0.00     0.198 C 
BRANCH   2   3
HETATM    3  O   UNL     1     -28.774 -13.717 -21.686  1.00  0.00    -0.398 OA
HETATM    4  H   UNL     1     -28.052 -13.728 -22.345  1.00  0.00     0.209 HD
ENDBRANCH   2   3
ENDBRANCH   1   2
BRANCH   1   5
HETATM    5  C   UNL     1     -30.299 -14.822 -19.309  1.00  0.00     0.198 C 
BRANCH   5   6
HETATM    6  O   UNL     1     -30.230 -13.404 -19.125  1.00  0.00    -0.398 OA
HETATM    7  H   UNL     1     -30.656 -13.216 -18.260  1.00  0.00     0.209 HD
ENDBRANCH   5   6
ENDBRANCH   1   5
BRANCH   1   8
HETATM    8  O   UNL     1     -31.455 -14.210 -21.341  1.00  0.00    -0.391 OA
HETATM    9  H   UNL     1     -31.994 -14.711 -21.986  1.00  0.00     0.210 HD
ENDBRANCH   1   8
TORSDOF 5
BEGIN_RES ARG D 557
REMARK  4 active torsions:
REMARK  status: ('A' for Active; 'I' for Inactive)
REMARK    1  A    between atoms: CA   and  CB  
REMARK    2  A    between atoms: CB   and  CG  
REMARK    3  A    between atoms: CG   and  CD  
REMARK    4  A    between atoms: CD   and  NE  
REMARK       I    between atoms: NE   and  CZ  
REMARK       I    between atoms: CZ   and  NH1 
REMARK       I    between atoms: CZ   and  NH2 
ROOT
ATOM      1  CA  ARG D 557     -26.217   2.705 -17.014  1.00 35.49     0.159 C 
ENDROOT
BRANCH   1   2
ATOM      2  CB  ARG D 557     -26.789   1.319 -17.183  1.00 35.49     0.034 C 
BRANCH   2   3
ATOM      3  CG  ARG D 557     -25.864   0.195 -16.995  1.00 35.49     0.027 C 
BRANCH   3   4
ATOM      4  CD  ARG D 557     -26.290  -0.711 -15.904  1.00 35.49     0.116 C 
BRANCH   4   5
ATOM      5  NE  ARG D 557     -25.243  -0.932 -14.942  1.00 35.49    -0.212 N 
ATOM      6  CZ  ARG D 557     -24.965  -2.077 -14.359  1.00 35.49     0.666 C 
ATOM      7  NH1 ARG D 557     -25.655  -3.178 -14.594  1.00 35.49    -0.235 N 
ATOM      8  NH2 ARG D 557     -23.965  -2.100 -13.527  1.00 35.49    -0.235 N 
ATOM      9  HH  ARG D 557     -26.316  -3.186 -15.139  1.00 35.49     0.174 HD
ATOM     10  HH  ARG D 557     -25.426  -3.896 -14.186  1.00 35.49     0.174 HD
ATOM     11  HH  ARG D 557     -23.533  -1.375 -13.401  1.00 35.49     0.174 HD
ATOM     12  HH  ARG D 557     -23.753  -2.821 -13.134  1.00 35.49     0.174 HD
ATOM     13  HE  ARG D 557     -24.795  -0.260 -14.678  1.00 35.49     0.178 HD
ENDBRANCH   4   5
ENDBRANCH   3   4
ENDBRANCH   2   3
ENDBRANCH   1   2
END_RES ARG D 557
BEGIN_RES GLU D 570
REMARK  3 active torsions:
REMARK  status: ('A' for Active; 'I' for Inactive)
REMARK    5  A    between atoms: CA   and  CB  
REMARK    6  A    between atoms: CB   and  CG  
REMARK    7  A    between atoms: CG   and  CD  
ROOT
ATOM     14  CA  GLU D 570     -18.033  -6.348 -13.375  1.00 32.92     0.160 C 
ENDROOT
BRANCH  14  15
ATOM     15  CB  GLU D 570     -19.500  -6.345 -13.794  1.00 32.92     0.043 C 
BRANCH  15  16
ATOM     16  CG  GLU D 570     -20.447  -5.556 -12.965  1.00 32.92     0.100 C 
BRANCH  16  17
ATOM     17  CD  GLU D 570     -21.682  -5.130 -13.725  1.00 32.92     0.185 C 
ATOM     18  OE1 GLU D 570     -21.618  -5.007 -14.963  1.00 32.92    -0.647 OA
ATOM     19  OE2 GLU D 570     -22.719  -4.899 -13.072  1.00 32.92    -0.647 OA
ENDBRANCH  16  17
ENDBRANCH  15  16
ENDBRANCH  14  15
END_RES GLU D 570
ENDMDL
MODEL 6
REMARK VINA RESULT:      -3.9      6.252      7.269
REMARK  5 active torsions:
REMARK  status: ('A' for Active; 'I' for Inactive)
REMARK    1  A    between atoms: C_1  and  C_2 
REMARK    2  A    between atoms: C_1  and  O_6 
REMARK    3  A    between atoms: C_2  and  C_3 
REMARK    4  A    between atoms: C_2  and  O_5 
REMARK    5  A    between atoms: C_3  and  O_4 
ROOT
HETATM    1  C   UNL     1     -24.905  -6.553 -15.421  1.00  0.00     0.165 C 
ENDROOT
BRANCH   1   2
HETATM    2  C   UNL     1     -24.289  -7.224 -16.651  1.00  0.00     0.198 C 
BRANCH   2   3
HETATM    3  O   UNL     1     -24.076  -8.617 -16.403  1.00  0.00    -0.398 OA
HETATM    4  H   UNL     1     -24.873  -9.063 -16.752  1.00  0.00     0.209 HD
ENDBRANCH   2   3
ENDBRANCH   1   2
BRANCH   1   5
HETATM    5  C   UNL     1     -23.844  -6.010 -14.454  1.00  0.00     0.198 C 
BRANCH   5   6
HETATM    6  O   UNL     1     -23.185  -4.878 -15.030  1.00  0.00    -0.398 OA
HETATM    7  H   UNL     1     -22.860  -4.334 -14.278  1.00  0.00     0.209 HD
ENDBRANCH   5   6
ENDBRANCH   1   5
BRANCH   1   8
HETATM    8  O   UNL     1     -25.722  -5.461 -15.874  1.00  0.00    -0.391 OA
HETATM    9  H   UNL     1     -25.892  -5.630 -16.823  1.00  0.00     0.210 HD
ENDBRANCH   1   8
TORSDOF 5
BEGIN_RES ARG D 557
REMARK  4 active torsions:
REMARK  status: ('A' for Active; 'I' for Inactive)
REMARK    1  A    between atoms: CA   and  CB  
REMARK    2  A    between atoms: CB   and  CG  
REMARK    3  A    between atoms: CG   and  CD  
REMARK    4  A    between atoms: CD   and  NE  
REMARK       I    between atoms: NE   and  CZ  
REMARK       I    between atoms: CZ   and  NH1 
REMARK       I    between atoms: CZ   and  NH2 
ROOT
ATOM      1  CA  ARG D 557     -26.217   2.705 -17.014  1.00 35.49     0.159 C 
ENDROOT
BRANCH   1   2
ATOM      2  CB  ARG D 557     -26.789   1.319 -17.183  1.00 35.49     0.034 C 
BRANCH   2   3
ATOM      3  CG  ARG D 557     -25.864   0.195 -16.996  1.00 35.49     0.027 C 
BRANCH   3   4
ATOM      4  CD  ARG D 557     -26.246  -0.667 -15.854  1.00 35.49     0.116 C 
BRANCH   4   5
ATOM      5  NE  ARG D 557     -25.138  -0.924 -14.973  1.00 35.49    -0.212 N 
ATOM      6  CZ  ARG D 557     -24.943  -2.028 -14.286  1.00 35.49     0.666 C 
ATOM      7  NH1 ARG D 557     -25.784  -3.045 -14.325  1.00 35.49    -0.235 N 
ATOM      8  NH2 ARG D 557     -23.870  -2.097 -13.553  1.00 35.49    -0.235 N 
ATOM      9  HH  ARG D 557     -26.495  -3.022 -14.802  1.00 35.49     0.174 HD
ATOM     10  HH  ARG D 557     -25.603  -3.740 -13.857  1.00 35.49     0.174 HD
ATOM     11  HH  ARG D 557     -23.341  -1.427 -13.553  1.00 35.49     0.174 HD
ATOM     12  HH  ARG D 557     -23.708  -2.794 -13.099  1.00 35.49     0.174 HD
ATOM     13  HE  ARG D 557     -24.585  -0.294 -14.832  1.00 35.49     0.178 HD
ENDBRANCH   4   5
ENDBRANCH   3   4
ENDBRANCH   2   3
ENDBRANCH   1   2
END_RES ARG D 557
BEGIN_RES GLU D 570
REMARK  3 active torsions:
REMARK  status: ('A' for Active; 'I' for Inactive)
REMARK    5  A    between atoms: CA   and  CB  
REMARK    6  A    between atoms: CB   and  CG  
REMARK    7  A    between atoms: CG   and  CD  
ROOT
ATOM     14  CA  GLU D 570     -18.033  -6.348 -13.375  1.00 32.92     0.160 C 
ENDROOT
BRANCH  14  15
ATOM     15  CB  GLU D 570     -19.500  -6.345 -13.794  1.00 32.92     0.043 C 
BRANCH  15  16
ATOM     16  CG  GLU D 570     -20.089  -7.636 -14.234  1.00 32.92     0.100 C 
BRANCH  16  17
ATOM     17  CD  GLU D 570     -20.691  -7.568 -15.618  1.00 32.92     0.185 C 
ATOM     18  OE1 GLU D 570     -20.819  -6.458 -16.169  1.00 32.92    -0.647 OA
ATOM     19  OE2 GLU D 570     -21.054  -8.635 -16.151  1.00 32.92    -0.647 OA
ENDBRANCH  16  17
ENDBRANCH  15  16
ENDBRANCH  14  15
END_RES GLU D 570
ENDMDL
MODEL 7
REMARK VINA RESULT:      -3.8      0.896      1.712
REMARK  5 active torsions:
REMARK  status: ('A' for Active; 'I' for Inactive)
REMARK    1  A    between atoms: C_1  and  C_2 
REMARK    2  A    between atoms: C_1  and  O_6 
REMARK    3  A    between atoms: C_2  and  C_3 
REMARK    4  A    between atoms: C_2  and  O_5 
REMARK    5  A    between atoms: C_3  and  O_4 
ROOT
HETATM    1  C   UNL     1     -30.396 -15.624 -21.874  1.00  0.00     0.165 C 
ENDROOT
BRANCH   1   2
HETATM    2  C   UNL     1     -31.781 -15.119 -22.289  1.00  0.00     0.198 C 
BRANCH   2   3
HETATM    3  O   UNL     1     -31.757 -13.700 -22.476  1.00  0.00    -0.398 OA
HETATM    4  H   UNL     1     -32.504 -13.361 -21.945  1.00  0.00     0.209 HD
ENDBRANCH   2   3
ENDBRANCH   1   2
BRANCH   1   5
HETATM    5  C   UNL     1     -29.673 -14.649 -20.934  1.00  0.00     0.198 C 
BRANCH   5   6
HETATM    6  O   UNL     1     -28.885 -13.726 -21.693  1.00  0.00    -0.398 OA
HETATM    7  H   UNL     1     -27.954 -14.031 -21.620  1.00  0.00     0.209 HD
ENDBRANCH   5   6
ENDBRANCH   1   5
BRANCH   1   8
HETATM    8  O   UNL     1     -30.566 -16.880 -21.199  1.00  0.00    -0.391 OA
HETATM    9  H   UNL     1     -31.224 -16.717 -20.492  1.00  0.00     0.210 HD
ENDBRANCH   1   8
TORSDOF 5
BEGIN_RES ARG D 557
REMARK  4 active torsions:
REMARK  status: ('A' for Active; 'I' for Inactive)
REMARK    1  A    between atoms: CA   and  CB  
REMARK    2  A    between atoms: CB   and  CG  
REMARK    3  A    between atoms: CG   and  CD  
REMARK    4  A    between atoms: CD   and  NE  
REMARK       I    between atoms: NE   and  CZ  
REMARK       I    between atoms: CZ   and  NH1 
REMARK       I    between atoms: CZ   and  NH2 
ROOT
ATOM      1  CA  ARG D 557     -26.217   2.705 -17.014  1.00 35.49     0.159 C 
ENDROOT
BRANCH   1   2
ATOM      2  CB  ARG D 557     -26.789   1.319 -17.183  1.00 35.49     0.034 C 
BRANCH   2   3
ATOM      3  CG  ARG D 557     -25.864   0.195 -16.995  1.00 35.49     0.027 C 
BRANCH   3   4
ATOM      4  CD  ARG D 557     -26.286  -0.705 -15.897  1.00 35.49     0.116 C 
BRANCH   4   5
ATOM      5  NE  ARG D 557     -25.234  -0.921 -14.938  1.00 35.49    -0.212 N 
ATOM      6  CZ  ARG D 557     -24.946  -2.064 -14.358  1.00 35.49     0.666 C 
ATOM      7  NH1 ARG D 557     -25.627  -3.170 -14.594  1.00 35.49    -0.235 N 
ATOM      8  NH2 ARG D 557     -23.944  -2.081 -13.528  1.00 35.49    -0.235 N 
ATOM      9  HH  ARG D 557     -26.289  -3.183 -15.138  1.00 35.49     0.174 HD
ATOM     10  HH  ARG D 557     -25.392  -3.888 -14.188  1.00 35.49     0.174 HD
ATOM     11  HH  ARG D 557     -23.518  -1.353 -13.401  1.00 35.49     0.174 HD
ATOM     12  HH  ARG D 557     -23.726  -2.801 -13.138  1.00 35.49     0.174 HD
ATOM     13  HE  ARG D 557     -24.791  -0.245 -14.673  1.00 35.49     0.178 HD
ENDBRANCH   4   5
ENDBRANCH   3   4
ENDBRANCH   2   3
ENDBRANCH   1   2
END_RES ARG D 557
BEGIN_RES GLU D 570
REMARK  3 active torsions:
REMARK  status: ('A' for Active; 'I' for Inactive)
REMARK    5  A    between atoms: CA   and  CB  
REMARK    6  A    between atoms: CB   and  CG  
REMARK    7  A    between atoms: CG   and  CD  
ROOT
ATOM     14  CA  GLU D 570     -18.033  -6.348 -13.375  1.00 32.92     0.160 C 
ENDROOT
BRANCH  14  15
ATOM     15  CB  GLU D 570     -19.500  -6.345 -13.794  1.00 32.92     0.043 C 
BRANCH  15  16
ATOM     16  CG  GLU D 570     -20.450  -5.567 -12.957  1.00 32.92     0.100 C 
BRANCH  16  17
ATOM     17  CD  GLU D 570     -21.678  -5.124 -13.716  1.00 32.92     0.185 C 
ATOM     18  OE1 GLU D 570     -21.620  -5.025 -14.957  1.00 32.92    -0.647 OA
ATOM     19  OE2 GLU D 570     -22.705  -4.857 -13.061  1.00 32.92    -0.647 OA
ENDBRANCH  16  17
ENDBRANCH  15  16
ENDBRANCH  14  15
END_RES GLU D 570
ENDMDL
MODEL 8
REMARK VINA RESULT:      -3.8      8.764     10.408
REMARK  5 active torsions:
REMARK  status: ('A' for Active; 'I' for Inactive)
REMARK    1  A    between atoms: C_1  and  C_2 
REMARK    2  A    between atoms: C_1  and  O_6 
REMARK    3  A    between atoms: C_2  and  C_3 
REMARK    4  A    between atoms: C_2  and  O_5 
REMARK    5  A    between atoms: C_3  and  O_4 
ROOT
HETATM    1  C   UNL     1     -23.658  -3.506  -9.012  1.00  0.00     0.165 C 
ENDROOT
BRANCH   1   2
HETATM    2  C   UNL     1     -22.592  -4.269  -9.802  1.00  0.00     0.198 C 
BRANCH   2   3
HETATM    3  O   UNL     1     -21.844  -3.369 -10.626  1.00  0.00    -0.398 OA
HETATM    4  H   UNL     1     -21.516  -3.915 -11.367  1.00  0.00     0.209 HD
ENDBRANCH   2   3
ENDBRANCH   1   2
BRANCH   1   5
HETATM    5  C   UNL     1     -24.994  -3.417  -9.762  1.00  0.00     0.198 C 
BRANCH   5   6
HETATM    6  O   UNL     1     -24.763  -3.309 -11.170  1.00  0.00    -0.398 OA
HETATM    7  H   UNL     1     -23.814  -3.520 -11.312  1.00  0.00     0.209 HD
ENDBRANCH   5   6
ENDBRANCH   1   5
BRANCH   1   8
HETATM    8  O   UNL     1     -23.868  -4.196  -7.770  1.00  0.00    -0.391 OA
HETATM    9  H   UNL     1     -24.829  -4.143  -7.593  1.00  0.00     0.210 HD
ENDBRANCH   1   8
TORSDOF 5
BEGIN_RES ARG D 557
REMARK  4 active torsions:
REMARK  status: ('A' for Active; 'I' for Inactive)
REMARK    1  A    between atoms: CA   and  CB  
REMARK    2  A    between atoms: CB   and  CG  
REMARK    3  A    between atoms: CG   and  CD  
REMARK    4  A    between atoms: CD   and  NE  
REMARK       I    between atoms: NE   and  CZ  
REMARK       I    between atoms: CZ   and  NH1 
REMARK       I    between atoms: CZ   and  NH2 
ROOT
ATOM      1  CA  ARG D 557     -26.217   2.705 -17.014  1.00 35.49     0.159 C 
ENDROOT
BRANCH   1   2
ATOM      2  CB  ARG D 557     -26.789   1.319 -17.183  1.00 35.49     0.034 C 
BRANCH   2   3
ATOM      3  CG  ARG D 557     -25.858   0.196 -17.020  1.00 35.49     0.027 C 
BRANCH   3   4
ATOM      4  CD  ARG D 557     -26.199  -0.655 -15.857  1.00 35.49     0.116 C 
BRANCH   4   5
ATOM      5  NE  ARG D 557     -25.071  -0.864 -14.988  1.00 35.49    -0.212 N 
ATOM      6  CZ  ARG D 557     -24.826  -1.955 -14.296  1.00 35.49     0.666 C 
ATOM      7  NH1 ARG D 557     -25.628  -3.003 -14.318  1.00 35.49    -0.235 N 
ATOM      8  NH2 ARG D 557     -23.742  -1.978 -13.576  1.00 35.49    -0.235 N 
ATOM      9  HH  ARG D 557     -26.345  -3.011 -14.786  1.00 35.49     0.174 HD
ATOM     10  HH  ARG D 557     -25.415  -3.688 -13.848  1.00 35.49     0.174 HD
ATOM     11  HH  ARG D 557     -23.240  -1.289 -13.588  1.00 35.49     0.174 HD
ATOM     12  HH  ARG D 557     -23.549  -2.665 -13.119  1.00 35.49     0.174 HD
ATOM     13  HE  ARG D 557     -24.541  -0.212 -14.858  1.00 35.49     0.178 HD
ENDBRANCH   4   5
ENDBRANCH   3   4
ENDBRANCH   2   3
ENDBRANCH   1   2
END_RES ARG D 557
BEGIN_RES GLU D 570
REMARK  3 active torsions:
REMARK  status: ('A' for Active; 'I' for Inactive)
REMARK    5  A    between atoms: CA   and  CB  
REMARK    6  A    between atoms: CB   and  CG  
REMARK    7  A    between atoms: CG   and  CD  
ROOT
ATOM     14  CA  GLU D 570     -18.033  -6.348 -13.375  1.00 32.92     0.160 C 
ENDROOT
BRANCH  14  15
ATOM     15  CB  GLU D 570     -19.500  -6.345 -13.794  1.00 32.92     0.043 C 
BRANCH  15  16
ATOM     16  CG  GLU D 570     -20.444  -5.543 -12.974  1.00 32.92     0.100 C 
BRANCH  16  17
ATOM     17  CD  GLU D 570     -21.674  -5.115 -13.741  1.00 32.92     0.185 C 
ATOM     18  OE1 GLU D 570     -21.637  -5.105 -14.987  1.00 32.92    -0.647 OA
ATOM     19  OE2 GLU D 570     -22.679  -4.769 -13.090  1.00 32.92    -0.647 OA
ENDBRANCH  16  17
ENDBRANCH  15  16
ENDBRANCH  14  15
END_RES GLU D 570
ENDMDL
MODEL 9
REMARK VINA RESULT:      -3.7      1.911      2.600
REMARK  5 active torsions:
REMARK  status: ('A' for Active; 'I' for Inactive)
REMARK    1  A    between atoms: C_1  and  C_2 
REMARK    2  A    between atoms: C_1  and  O_6 
REMARK    3  A    between atoms: C_2  and  C_3 
REMARK    4  A    between atoms: C_2  and  O_5 
REMARK    5  A    between atoms: C_3  and  O_4 
ROOT
HETATM    1  C   UNL     1     -30.511 -15.043 -20.755  1.00  0.00     0.165 C 
ENDROOT
BRANCH   1   2
HETATM    2  C   UNL     1     -29.165 -14.977 -21.482  1.00  0.00     0.198 C 
BRANCH   2   3
HETATM    3  O   UNL     1     -28.795 -13.615 -21.721  1.00  0.00    -0.398 OA
HETATM    4  H   UNL     1     -29.280 -13.098 -21.047  1.00  0.00     0.209 HD
ENDBRANCH   2   3
ENDBRANCH   1   2
BRANCH   1   5
HETATM    5  C   UNL     1     -30.400 -14.646 -19.277  1.00  0.00     0.198 C 
BRANCH   5   6
HETATM    6  O   UNL     1     -29.968 -13.286 -19.163  1.00  0.00    -0.398 OA
HETATM    7  H   UNL     1     -29.586 -13.191 -18.262  1.00  0.00     0.209 HD
ENDBRANCH   5   6
ENDBRANCH   1   5
BRANCH   1   8
HETATM    8  O   UNL     1     -31.414 -14.139 -21.412  1.00  0.00    -0.391 OA
HETATM    9  H   UNL     1     -31.320 -13.282 -20.948  1.00  0.00     0.210 HD
ENDBRANCH   1   8
TORSDOF 5
BEGIN_RES ARG D 557
REMARK  4 active torsions:
REMARK  status: ('A' for Active; 'I' for Inactive)
REMARK    1  A    between atoms: CA   and  CB  
REMARK    2  A    between atoms: CB   and  CG  
REMARK    3  A    between atoms: CG   and  CD  
REMARK    4  A    between atoms: CD   and  NE  
REMARK       I    between atoms: NE   and  CZ  
REMARK       I    between atoms: CZ   and  NH1 
REMARK       I    between atoms: CZ   and  NH2 
ROOT
ATOM      1  CA  ARG D 557     -26.217   2.705 -17.014  1.00 35.49     0.159 C 
ENDROOT
BRANCH   1   2
ATOM      2  CB  ARG D 557     -26.789   1.319 -17.183  1.00 35.49     0.034 C 
BRANCH   2   3
ATOM      3  CG  ARG D 557     -28.222   1.158 -16.910  1.00 35.49     0.027 C 
BRANCH   3   4
ATOM      4  CD  ARG D 557     -28.606  -0.260 -16.726  1.00 35.49     0.116 C 
BRANCH   4   5
ATOM      5  NE  ARG D 557     -27.604  -1.004 -16.009  1.00 35.49    -0.212 N 
ATOM      6  CZ  ARG D 557     -27.419  -2.304 -16.073  1.00 35.49     0.666 C 
ATOM      7  NH1 ARG D 557     -28.172  -3.091 -16.820  1.00 35.49    -0.235 N 
ATOM      8  NH2 ARG D 557     -26.447  -2.807 -15.370  1.00 35.49    -0.235 N 
ATOM      9  HH  ARG D 557     -28.816  -2.780 -17.292  1.00 35.49     0.174 HD
ATOM     10  HH  ARG D 557     -28.003  -3.931 -16.824  1.00 35.49     0.174 HD
ATOM     11  HH  ARG D 557     -25.973  -2.274 -14.903  1.00 35.49     0.174 HD
ATOM     12  HH  ARG D 557     -26.295  -3.641 -15.389  1.00 35.49     0.174 HD
ATOM     13  HE  ARG D 557     -27.121  -0.585 -15.448  1.00 35.49     0.178 HD
ENDBRANCH   4   5
ENDBRANCH   3   4
ENDBRANCH   2   3
ENDBRANCH   1   2
END_RES ARG D 557
BEGIN_RES GLU D 570
REMARK  3 active torsions:
REMARK  status: ('A' for Active; 'I' for Inactive)
REMARK    5  A    between atoms: CA   and  CB  
REMARK    6  A    between atoms: CB   and  CG  
REMARK    7  A    between atoms: CG   and  CD  
ROOT
ATOM     14  CA  GLU D 570     -18.033  -6.348 -13.375  1.00 32.92     0.160 C 
ENDROOT
BRANCH  14  15
ATOM     15  CB  GLU D 570     -19.500  -6.345 -13.794  1.00 32.92     0.043 C 
BRANCH  15  16
ATOM     16  CG  GLU D 570     -19.803  -6.072 -15.223  1.00 32.92     0.100 C 
BRANCH  16  17
ATOM     17  CD  GLU D 570     -21.267  -5.791 -15.471  1.00 32.92     0.185 C 
ATOM     18  OE1 GLU D 570     -21.586  -4.785 -16.132  1.00 32.92    -0.647 OA
ATOM     19  OE2 GLU D 570     -22.104  -6.577 -14.985  1.00 32.92    -0.647 OA
ENDBRANCH  16  17
ENDBRANCH  15  16
ENDBRANCH  14  15
END_RES GLU D 570
ENDMDL
