MODEL 1
REMARK VINA RESULT:      -3.7      0.000      0.000
REMARK  0 active torsions:
REMARK  status: ('A' for Active; 'I' for Inactive)
REMARK       I    between atoms: C_1  and  N_3 
REMARK       I    between atoms: C_1  and  N_4 
ROOT
HETATM    1  C   UNL     1     -24.228  -3.384 -10.301  1.00  0.00     0.311 C 
HETATM    2  O   UNL     1     -25.032  -3.192 -11.199  1.00  0.00    -0.248 OA
HETATM    3  N   UNL     1     -22.924  -3.632 -10.525  1.00  0.00    -0.352 N 
HETATM    4  N   UNL     1     -24.567  -3.364  -8.999  1.00  0.00    -0.352 N 
HETATM    5  H   UNL     1     -22.615  -3.657 -11.487  1.00  0.00     0.160 HD
HETATM    6  H   UNL     1     -22.257  -3.791  -9.789  1.00  0.00     0.160 HD
HETATM    7  H   UNL     1     -25.535  -3.182  -8.774  1.00  0.00     0.160 HD
HETATM    8  H   UNL     1     -23.910  -3.521  -8.253  1.00  0.00     0.160 HD
ENDROOT
TORSDOF 0
BEGIN_RES ARG D 557
REMARK  4 active torsions:
REMARK  status: ('A' for Active; 'I' for Inactive)
REMARK    1  A    between atoms: CA   and  CB  
REMARK    2  A    between atoms: CB   and  CG  
REMARK    3  A    between atoms: CG   and  CD  
REMARK    4  A    between atoms: CD   and  NE  
REMARK       I    between atoms: NE   and  CZ  
REMARK       I    between atoms: CZ   and  NH1 
REMARK       I    between atoms: CZ   and  NH2 
ROOT
ATOM      1  CA  ARG D 557     -26.217   2.705 -17.014  1.00 35.49     0.159 C 
ENDROOT
BRANCH   1   2
ATOM      2  CB  ARG D 557     -26.789   1.319 -17.183  1.00 35.49     0.034 C 
BRANCH   2   3
ATOM      3  CG  ARG D 557     -25.853   0.197 -17.047  1.00 35.49     0.027 C 
BRANCH   3   4
ATOM      4  CD  ARG D 557     -26.187  -0.681 -15.902  1.00 35.49     0.116 C 
BRANCH   4   5
ATOM      5  NE  ARG D 557     -25.100  -0.788 -14.965  1.00 35.49    -0.212 N 
ATOM      6  CZ  ARG D 557     -24.734  -1.881 -14.333  1.00 35.49     0.666 C 
ATOM      7  NH1 ARG D 557     -25.359  -3.033 -14.490  1.00 35.49    -0.235 N 
ATOM      8  NH2 ARG D 557     -23.710  -1.798 -13.534  1.00 35.49    -0.235 N 
ATOM      9  HH  ARG D 557     -26.034  -3.110 -15.012  1.00 35.49     0.174 HD
ATOM     10  HH  ARG D 557     -25.074  -3.713 -14.054  1.00 35.49     0.174 HD
ATOM     11  HH  ARG D 557     -23.321  -1.043 -13.459  1.00 35.49     0.174 HD
ATOM     12  HH  ARG D 557     -23.442  -2.483 -13.113  1.00 35.49     0.174 HD
ATOM     13  HE  ARG D 557     -24.687  -0.076 -14.749  1.00 35.49     0.178 HD
ENDBRANCH   4   5
ENDBRANCH   3   4
ENDBRANCH   2   3
ENDBRANCH   1   2
END_RES ARG D 557
BEGIN_RES GLU D 570
REMARK  3 active torsions:
REMARK  status: ('A' for Active; 'I' for Inactive)
REMARK    5  A    between atoms: CA   and  CB  
REMARK    6  A    between atoms: CB   and  CG  
REMARK    7  A    between atoms: CG   and  CD  
ROOT
ATOM     14  CA  GLU D 570     -18.033  -6.348 -13.375  1.00 32.92     0.160 C 
ENDROOT
BRANCH  14  15
ATOM     15  CB  GLU D 570     -19.500  -6.345 -13.794  1.00 32.92     0.043 C 
BRANCH  15  16
ATOM     16  CG  GLU D 570     -20.439  -5.517 -12.994  1.00 32.92     0.100 C 
BRANCH  16  17
ATOM     17  CD  GLU D 570     -21.783  -5.338 -13.661  1.00 32.92     0.185 C 
ATOM     18  OE1 GLU D 570     -22.474  -4.343 -13.372  1.00 32.92    -0.647 OA
ATOM     19  OE2 GLU D 570     -22.155  -6.212 -14.469  1.00 32.92    -0.647 OA
ENDBRANCH  16  17
ENDBRANCH  15  16
ENDBRANCH  14  15
END_RES GLU D 570
ENDMDL
MODEL 2
REMARK VINA RESULT:      -3.3      2.592      4.134
REMARK  0 active torsions:
REMARK  status: ('A' for Active; 'I' for Inactive)
REMARK       I    between atoms: C_1  and  N_3 
REMARK       I    between atoms: C_1  and  N_4 
ROOT
HETATM    1  C   UNL     1     -24.062  -7.582 -16.446  1.00  0.00     0.311 C 
HETATM    2  O   UNL     1     -24.894  -7.541 -15.554  1.00  0.00    -0.248 OA
HETATM    3  N   UNL     1     -24.376  -7.445 -17.748  1.00  0.00    -0.352 N 
HETATM    4  N   UNL     1     -22.749  -7.766 -16.214  1.00  0.00    -0.352 N 
HETATM    5  H   UNL     1     -25.351  -7.303 -17.977  1.00  0.00     0.160 HD
HETATM    6  H   UNL     1     -23.696  -7.477 -18.487  1.00  0.00     0.160 HD
HETATM    7  H   UNL     1     -22.458  -7.875 -15.253  1.00  0.00     0.160 HD
HETATM    8  H   UNL     1     -22.058  -7.801 -16.944  1.00  0.00     0.160 HD
ENDROOT
TORSDOF 0
BEGIN_RES ARG D 557
REMARK  4 active torsions:
REMARK  status: ('A' for Active; 'I' for Inactive)
REMARK    1  A    between atoms: CA   and  CB  
REMARK    2  A    between atoms: CB   and  CG  
REMARK    3  A    between atoms: CG   and  CD  
REMARK    4  A    between atoms: CD   and  NE  
REMARK       I    between atoms: NE   and  CZ  
REMARK       I    between atoms: CZ   and  NH1 
REMARK       I    between atoms: CZ   and  NH2 
ROOT
ATOM      1  CA  ARG D 557     -26.217   2.705 -17.014  1.00 35.49     0.159 C 
ENDROOT
BRANCH   1   2
ATOM      2  CB  ARG D 557     -26.789   1.319 -17.183  1.00 35.49     0.034 C 
BRANCH   2   3
ATOM      3  CG  ARG D 557     -25.862   0.195 -17.004  1.00 35.49     0.027 C 
BRANCH   3   4
ATOM      4  CD  ARG D 557     -26.287  -0.719 -15.919  1.00 35.49     0.116 C 
BRANCH   4   5
ATOM      5  NE  ARG D 557     -25.241  -0.941 -14.956  1.00 35.49    -0.212 N 
ATOM      6  CZ  ARG D 557     -24.993  -2.074 -14.338  1.00 35.49     0.666 C 
ATOM      7  NH1 ARG D 557     -25.715  -3.162 -14.535  1.00 35.49    -0.235 N 
ATOM      8  NH2 ARG D 557     -23.990  -2.099 -13.510  1.00 35.49    -0.235 N 
ATOM      9  HH  ARG D 557     -26.379  -3.169 -15.077  1.00 35.49     0.174 HD
ATOM     10  HH  ARG D 557     -25.505  -3.873 -14.106  1.00 35.49     0.174 HD
ATOM     11  HH  ARG D 557     -23.537  -1.384 -13.408  1.00 35.49     0.174 HD
ATOM     12  HH  ARG D 557     -23.796  -2.814 -13.096  1.00 35.49     0.174 HD
ATOM     13  HE  ARG D 557     -24.773  -0.273 -14.714  1.00 35.49     0.178 HD
ENDBRANCH   4   5
ENDBRANCH   3   4
ENDBRANCH   2   3
ENDBRANCH   1   2
END_RES ARG D 557
BEGIN_RES GLU D 570
REMARK  3 active torsions:
REMARK  status: ('A' for Active; 'I' for Inactive)
REMARK    5  A    between atoms: CA   and  CB  
REMARK    6  A    between atoms: CB   and  CG  
REMARK    7  A    between atoms: CG   and  CD  
ROOT
ATOM     14  CA  GLU D 570     -18.033  -6.348 -13.375  1.00 32.92     0.160 C 
ENDROOT
BRANCH  14  15
ATOM     15  CB  GLU D 570     -19.500  -6.345 -13.794  1.00 32.92     0.043 C 
BRANCH  15  16
ATOM     16  CG  GLU D 570     -20.447  -5.555 -12.965  1.00 32.92     0.100 C 
BRANCH  16  17
ATOM     17  CD  GLU D 570     -21.704  -5.171 -13.711  1.00 32.92     0.185 C 
ATOM     18  OE1 GLU D 570     -22.717  -4.848 -13.062  1.00 32.92    -0.647 OA
ATOM     19  OE2 GLU D 570     -21.679  -5.210 -14.957  1.00 32.92    -0.647 OA
ENDBRANCH  16  17
ENDBRANCH  15  16
ENDBRANCH  14  15
END_RES GLU D 570
ENDMDL
MODEL 3
REMARK VINA RESULT:      -3.3      7.303      8.723
REMARK  0 active torsions:
REMARK  status: ('A' for Active; 'I' for Inactive)
REMARK       I    between atoms: C_1  and  N_3 
REMARK       I    between atoms: C_1  and  N_4 
ROOT
HETATM    1  C   UNL     1     -29.944 -14.401 -20.293  1.00  0.00     0.311 C 
HETATM    2  O   UNL     1     -30.073 -13.555 -19.423  1.00  0.00    -0.248 OA
HETATM    3  N   UNL     1     -30.609 -15.572 -20.282  1.00  0.00    -0.352 N 
HETATM    4  N   UNL     1     -29.125 -14.245 -21.350  1.00  0.00    -0.352 N 
HETATM    5  H   UNL     1     -31.239 -15.740 -19.509  1.00  0.00     0.160 HD
HETATM    6  H   UNL     1     -30.507 -16.272 -20.996  1.00  0.00     0.160 HD
HETATM    7  H   UNL     1     -28.601 -13.383 -21.408  1.00  0.00     0.160 HD
HETATM    8  H   UNL     1     -29.014 -14.938 -22.070  1.00  0.00     0.160 HD
ENDROOT
TORSDOF 0
BEGIN_RES ARG D 557
REMARK  4 active torsions:
REMARK  status: ('A' for Active; 'I' for Inactive)
REMARK    1  A    between atoms: CA   and  CB  
REMARK    2  A    between atoms: CB   and  CG  
REMARK    3  A    between atoms: CG   and  CD  
REMARK    4  A    between atoms: CD   and  NE  
REMARK       I    between atoms: NE   and  CZ  
REMARK       I    between atoms: CZ   and  NH1 
REMARK       I    between atoms: CZ   and  NH2 
ROOT
ATOM      1  CA  ARG D 557     -26.217   2.705 -17.014  1.00 35.49     0.159 C 
ENDROOT
BRANCH   1   2
ATOM      2  CB  ARG D 557     -26.789   1.319 -17.183  1.00 35.49     0.034 C 
BRANCH   2   3
ATOM      3  CG  ARG D 557     -25.835   0.204 -17.163  1.00 35.49     0.027 C 
BRANCH   3   4
ATOM      4  CD  ARG D 557     -24.746   0.409 -16.181  1.00 35.49     0.116 C 
BRANCH   4   5
ATOM      5  NE  ARG D 557     -24.893  -0.435 -15.024  1.00 35.49    -0.212 N 
ATOM      6  CZ  ARG D 557     -24.077  -1.403 -14.672  1.00 35.49     0.666 C 
ATOM      7  NH1 ARG D 557     -23.008  -1.722 -15.378  1.00 35.49    -0.235 N 
ATOM      8  NH2 ARG D 557     -24.354  -2.053 -13.579  1.00 35.49    -0.235 N 
ATOM      9  HH  ARG D 557     -22.806  -1.306 -16.100  1.00 35.49     0.174 HD
ATOM     10  HH  ARG D 557     -22.511  -2.362 -15.098  1.00 35.49     0.174 HD
ATOM     11  HH  ARG D 557     -25.047  -1.821 -13.140  1.00 35.49     0.174 HD
ATOM     12  HH  ARG D 557     -23.849  -2.682 -13.318  1.00 35.49     0.174 HD
ATOM     13  HE  ARG D 557     -25.594  -0.347 -14.552  1.00 35.49     0.178 HD
ENDBRANCH   4   5
ENDBRANCH   3   4
ENDBRANCH   2   3
ENDBRANCH   1   2
END_RES ARG D 557
BEGIN_RES GLU D 570
REMARK  3 active torsions:
REMARK  status: ('A' for Active; 'I' for Inactive)
REMARK    5  A    between atoms: CA   and  CB  
REMARK    6  A    between atoms: CB   and  CG  
REMARK    7  A    between atoms: CG   and  CD  
ROOT
ATOM     14  CA  GLU D 570     -18.033  -6.348 -13.375  1.00 32.92     0.160 C 
ENDROOT
BRANCH  14  15
ATOM     15  CB  GLU D 570     -19.500  -6.345 -13.794  1.00 32.92     0.043 C 
BRANCH  15  16
ATOM     16  CG  GLU D 570     -20.441  -5.526 -12.987  1.00 32.92     0.100 C 
BRANCH  16  17
ATOM     17  CD  GLU D 570     -21.751  -5.265 -13.693  1.00 32.92     0.185 C 
ATOM     18  OE1 GLU D 570     -22.223  -6.146 -14.437  1.00 32.92    -0.647 OA
ATOM     19  OE2 GLU D 570     -22.302  -4.161 -13.514  1.00 32.92    -0.647 OA
ENDBRANCH  16  17
ENDBRANCH  15  16
ENDBRANCH  14  15
END_RES GLU D 570
ENDMDL
MODEL 4
REMARK VINA RESULT:      -3.2      6.314      7.197
REMARK  0 active torsions:
REMARK  status: ('A' for Active; 'I' for Inactive)
REMARK       I    between atoms: C_1  and  N_3 
REMARK       I    between atoms: C_1  and  N_4 
ROOT
HETATM    1  C   UNL     1     -35.966  -7.050 -15.674  1.00  0.00     0.311 C 
HETATM    2  O   UNL     1     -37.033  -6.596 -16.055  1.00  0.00    -0.248 OA
HETATM    3  N   UNL     1     -34.808  -6.851 -16.332  1.00  0.00    -0.352 N 
HETATM    4  N   UNL     1     -35.843  -7.792 -14.559  1.00  0.00    -0.352 N 
HETATM    5  H   UNL     1     -34.844  -6.298 -17.178  1.00  0.00     0.160 HD
HETATM    6  H   UNL     1     -33.926  -7.222 -16.023  1.00  0.00     0.160 HD
HETATM    7  H   UNL     1     -36.683  -7.973 -14.026  1.00  0.00     0.160 HD
HETATM    8  H   UNL     1     -34.967  -8.169 -14.239  1.00  0.00     0.160 HD
ENDROOT
TORSDOF 0
BEGIN_RES ARG D 557
REMARK  4 active torsions:
REMARK  status: ('A' for Active; 'I' for Inactive)
REMARK    1  A    between atoms: CA   and  CB  
REMARK    2  A    between atoms: CB   and  CG  
REMARK    3  A    between atoms: CG   and  CD  
REMARK    4  A    between atoms: CD   and  NE  
REMARK       I    between atoms: NE   and  CZ  
REMARK       I    between atoms: CZ   and  NH1 
REMARK       I    between atoms: CZ   and  NH2 
ROOT
ATOM      1  CA  ARG D 557     -26.217   2.705 -17.014  1.00 35.49     0.159 C 
ENDROOT
BRANCH   1   2
ATOM      2  CB  ARG D 557     -26.789   1.319 -17.183  1.00 35.49     0.034 C 
BRANCH   2   3
ATOM      3  CG  ARG D 557     -25.865   0.195 -16.991  1.00 35.49     0.027 C 
BRANCH   3   4
ATOM      4  CD  ARG D 557     -26.288  -0.702 -15.891  1.00 35.49     0.116 C 
BRANCH   4   5
ATOM      5  NE  ARG D 557     -25.234  -0.925 -14.936  1.00 35.49    -0.212 N 
ATOM      6  CZ  ARG D 557     -24.953  -2.070 -14.356  1.00 35.49     0.666 C 
ATOM      7  NH1 ARG D 557     -25.643  -3.171 -14.588  1.00 35.49    -0.235 N 
ATOM      8  NH2 ARG D 557     -23.946  -2.093 -13.531  1.00 35.49    -0.235 N 
ATOM      9  HH  ARG D 557     -26.308  -3.179 -15.129  1.00 35.49     0.174 HD
ATOM     10  HH  ARG D 557     -25.412  -3.889 -14.183  1.00 35.49     0.174 HD
ATOM     11  HH  ARG D 557     -23.514  -1.369 -13.407  1.00 35.49     0.174 HD
ATOM     12  HH  ARG D 557     -23.732  -2.815 -13.141  1.00 35.49     0.174 HD
ATOM     13  HE  ARG D 557     -24.785  -0.252 -14.674  1.00 35.49     0.178 HD
ENDBRANCH   4   5
ENDBRANCH   3   4
ENDBRANCH   2   3
ENDBRANCH   1   2
END_RES ARG D 557
BEGIN_RES GLU D 570
REMARK  3 active torsions:
REMARK  status: ('A' for Active; 'I' for Inactive)
REMARK    5  A    between atoms: CA   and  CB  
REMARK    6  A    between atoms: CB   and  CG  
REMARK    7  A    between atoms: CG   and  CD  
ROOT
ATOM     14  CA  GLU D 570     -18.033  -6.348 -13.375  1.00 32.92     0.160 C 
ENDROOT
BRANCH  14  15
ATOM     15  CB  GLU D 570     -19.500  -6.345 -13.794  1.00 32.92     0.043 C 
BRANCH  15  16
ATOM     16  CG  GLU D 570     -20.446  -5.548 -12.970  1.00 32.92     0.100 C 
BRANCH  16  17
ATOM     17  CD  GLU D 570     -21.682  -5.130 -13.731  1.00 32.92     0.185 C 
ATOM     18  OE1 GLU D 570     -22.741  -4.934 -13.104  1.00 32.92    -0.647 OA
ATOM     19  OE2 GLU D 570     -21.596  -5.014 -14.970  1.00 32.92    -0.647 OA
ENDBRANCH  16  17
ENDBRANCH  15  16
ENDBRANCH  14  15
END_RES GLU D 570
ENDMDL
MODEL 5
REMARK VINA RESULT:      -3.2      2.312      2.806
REMARK  0 active torsions:
REMARK  status: ('A' for Active; 'I' for Inactive)
REMARK       I    between atoms: C_1  and  N_3 
REMARK       I    between atoms: C_1  and  N_4 
ROOT
HETATM    1  C   UNL     1     -24.630  -3.403  -9.727  1.00  0.00     0.311 C 
HETATM    2  O   UNL     1     -25.815  -3.160  -9.887  1.00  0.00    -0.248 OA
HETATM    3  N   UNL     1     -24.109  -3.761  -8.538  1.00  0.00    -0.352 N 
HETATM    4  N   UNL     1     -23.728  -3.337 -10.724  1.00  0.00    -0.352 N 
HETATM    5  H   UNL     1     -24.744  -3.826  -7.754  1.00  0.00     0.160 HD
HETATM    6  H   UNL     1     -23.133  -3.962  -8.400  1.00  0.00     0.160 HD
HETATM    7  H   UNL     1     -24.066  -3.073 -11.639  1.00  0.00     0.160 HD
HETATM    8  H   UNL     1     -22.750  -3.536 -10.599  1.00  0.00     0.160 HD
ENDROOT
TORSDOF 0
BEGIN_RES ARG D 557
REMARK  4 active torsions:
REMARK  status: ('A' for Active; 'I' for Inactive)
REMARK    1  A    between atoms: CA   and  CB  
REMARK    2  A    between atoms: CB   and  CG  
REMARK    3  A    between atoms: CG   and  CD  
REMARK    4  A    between atoms: CD   and  NE  
REMARK       I    between atoms: NE   and  CZ  
REMARK       I    between atoms: CZ   and  NH1 
REMARK       I    between atoms: CZ   and  NH2 
ROOT
ATOM      1  CA  ARG D 557     -26.217   2.705 -17.014  1.00 35.49     0.159 C 
ENDROOT
BRANCH   1   2
ATOM      2  CB  ARG D 557     -26.789   1.319 -17.183  1.00 35.49     0.034 C 
BRANCH   2   3
ATOM      3  CG  ARG D 557     -28.229   1.227 -17.455  1.00 35.49     0.027 C 
BRANCH   3   4
ATOM      4  CD  ARG D 557     -28.920   0.304 -16.526  1.00 35.49     0.116 C 
BRANCH   4   5
ATOM      5  NE  ARG D 557     -28.143  -0.876 -16.254  1.00 35.49    -0.212 N 
ATOM      6  CZ  ARG D 557     -28.385  -2.080 -16.723  1.00 35.49     0.666 C 
ATOM      7  NH1 ARG D 557     -29.413  -2.342 -17.508  1.00 35.49    -0.235 N 
ATOM      8  NH2 ARG D 557     -27.561  -3.030 -16.389  1.00 35.49    -0.235 N 
ATOM      9  HH  ARG D 557     -29.967  -1.731 -17.742  1.00 35.49     0.174 HD
ATOM     10  HH  ARG D 557     -29.519  -3.146 -17.785  1.00 35.49     0.174 HD
ATOM     11  HH  ARG D 557     -26.901  -2.830 -15.887  1.00 35.49     0.174 HD
ATOM     12  HH  ARG D 557     -27.682  -3.819 -16.675  1.00 35.49     0.174 HD
ATOM     13  HE  ARG D 557     -27.503  -0.813 -15.698  1.00 35.49     0.178 HD
ENDBRANCH   4   5
ENDBRANCH   3   4
ENDBRANCH   2   3
ENDBRANCH   1   2
END_RES ARG D 557
BEGIN_RES GLU D 570
REMARK  3 active torsions:
REMARK  status: ('A' for Active; 'I' for Inactive)
REMARK    5  A    between atoms: CA   and  CB  
REMARK    6  A    between atoms: CB   and  CG  
REMARK    7  A    between atoms: CG   and  CD  
ROOT
ATOM     14  CA  GLU D 570     -18.033  -6.348 -13.375  1.00 32.92     0.160 C 
ENDROOT
BRANCH  14  15
ATOM     15  CB  GLU D 570     -19.500  -6.345 -13.794  1.00 32.92     0.043 C 
BRANCH  15  16
ATOM     16  CG  GLU D 570     -20.449  -5.567 -12.957  1.00 32.92     0.100 C 
BRANCH  16  17
ATOM     17  CD  GLU D 570     -21.701  -5.167 -13.702  1.00 32.92     0.185 C 
ATOM     18  OE1 GLU D 570     -22.729  -4.890 -13.055  1.00 32.92    -0.647 OA
ATOM     19  OE2 GLU D 570     -21.659  -5.147 -14.948  1.00 32.92    -0.647 OA
ENDBRANCH  16  17
ENDBRANCH  15  16
ENDBRANCH  14  15
END_RES GLU D 570
ENDMDL
MODEL 6
REMARK VINA RESULT:      -3.1      4.877      6.377
REMARK  0 active torsions:
REMARK  status: ('A' for Active; 'I' for Inactive)
REMARK       I    between atoms: C_1  and  N_3 
REMARK       I    between atoms: C_1  and  N_4 
ROOT
HETATM    1  C   UNL     1     -32.241  -4.249 -16.832  1.00  0.00     0.311 C 
HETATM    2  O   UNL     1     -31.846  -3.236 -17.387  1.00  0.00    -0.248 OA
HETATM    3  N   UNL     1     -33.437  -4.330 -16.220  1.00  0.00    -0.352 N 
HETATM    4  N   UNL     1     -31.520  -5.384 -16.780  1.00  0.00    -0.352 N 
HETATM    5  H   UNL     1     -34.021  -3.505 -16.229  1.00  0.00     0.160 HD
HETATM    6  H   UNL     1     -33.768  -5.162 -15.761  1.00  0.00     0.160 HD
HETATM    7  H   UNL     1     -30.612  -5.378 -17.225  1.00  0.00     0.160 HD
HETATM    8  H   UNL     1     -31.839  -6.222 -16.326  1.00  0.00     0.160 HD
ENDROOT
TORSDOF 0
BEGIN_RES ARG D 557
REMARK  4 active torsions:
REMARK  status: ('A' for Active; 'I' for Inactive)
REMARK    1  A    between atoms: CA   and  CB  
REMARK    2  A    between atoms: CB   and  CG  
REMARK    3  A    between atoms: CG   and  CD  
REMARK    4  A    between atoms: CD   and  NE  
REMARK       I    between atoms: NE   and  CZ  
REMARK       I    between atoms: CZ   and  NH1 
REMARK       I    between atoms: CZ   and  NH2 
ROOT
ATOM      1  CA  ARG D 557     -26.217   2.705 -17.014  1.00 35.49     0.159 C 
ENDROOT
BRANCH   1   2
ATOM      2  CB  ARG D 557     -26.789   1.319 -17.183  1.00 35.49     0.034 C 
BRANCH   2   3
ATOM      3  CG  ARG D 557     -28.228   1.227 -17.456  1.00 35.49     0.027 C 
BRANCH   3   4
ATOM      4  CD  ARG D 557     -28.919   0.298 -16.533  1.00 35.49     0.116 C 
BRANCH   4   5
ATOM      5  NE  ARG D 557     -29.209  -0.968 -17.154  1.00 35.49    -0.212 N 
ATOM      6  CZ  ARG D 557     -28.521  -2.077 -16.995  1.00 35.49     0.666 C 
ATOM      7  NH1 ARG D 557     -27.446  -2.141 -16.232  1.00 35.49    -0.235 N 
ATOM      8  NH2 ARG D 557     -28.941  -3.138 -17.620  1.00 35.49    -0.235 N 
ATOM      9  HH  ARG D 557     -27.153  -1.455 -15.810  1.00 35.49     0.174 HD
ATOM     10  HH  ARG D 557     -27.039  -2.892 -16.164  1.00 35.49     0.174 HD
ATOM     11  HH  ARG D 557     -29.642  -3.069 -18.100  1.00 35.49     0.174 HD
ATOM     12  HH  ARG D 557     -28.525  -3.873 -17.539  1.00 35.49     0.174 HD
ATOM     13  HE  ARG D 557     -29.843  -1.000 -17.720  1.00 35.49     0.178 HD
ENDBRANCH   4   5
ENDBRANCH   3   4
ENDBRANCH   2   3
ENDBRANCH   1   2
END_RES ARG D 557
BEGIN_RES GLU D 570
REMARK  3 active torsions:
REMARK  status: ('A' for Active; 'I' for Inactive)
REMARK    5  A    between atoms: CA   and  CB  
REMARK    6  A    between atoms: CB   and  CG  
REMARK    7  A    between atoms: CG   and  CD  
ROOT
ATOM     14  CA  GLU D 570     -18.033  -6.348 -13.375  1.00 32.92     0.160 C 
ENDROOT
BRANCH  14  15
ATOM     15  CB  GLU D 570     -19.500  -6.345 -13.794  1.00 32.92     0.043 C 
BRANCH  15  16
ATOM     16  CG  GLU D 570     -20.450  -5.570 -12.955  1.00 32.92     0.100 C 
BRANCH  16  17
ATOM     17  CD  GLU D 570     -21.696  -5.157 -13.703  1.00 32.92     0.185 C 
ATOM     18  OE1 GLU D 570     -21.643  -5.026 -14.941  1.00 32.92    -0.647 OA
ATOM     19  OE2 GLU D 570     -22.732  -4.946 -13.042  1.00 32.92    -0.647 OA
ENDBRANCH  16  17
ENDBRANCH  15  16
ENDBRANCH  14  15
END_RES GLU D 570
ENDMDL
MODEL 7
REMARK VINA RESULT:      -2.9      1.814      2.172
REMARK  0 active torsions:
REMARK  status: ('A' for Active; 'I' for Inactive)
REMARK       I    between atoms: C_1  and  N_3 
REMARK       I    between atoms: C_1  and  N_4 
ROOT
HETATM    1  C   UNL     1     -24.572  -3.435  -9.723  1.00  0.00     0.311 C 
HETATM    2  O   UNL     1     -23.947  -3.167 -10.737  1.00  0.00    -0.248 OA
HETATM    3  N   UNL     1     -25.917  -3.464  -9.678  1.00  0.00    -0.352 N 
HETATM    4  N   UNL     1     -23.977  -3.728  -8.552  1.00  0.00    -0.352 N 
HETATM    5  H   UNL     1     -26.415  -3.252 -10.532  1.00  0.00     0.160 HD
HETATM    6  H   UNL     1     -26.438  -3.684  -8.846  1.00  0.00     0.160 HD
HETATM    7  H   UNL     1     -22.966  -3.720  -8.530  1.00  0.00     0.160 HD
HETATM    8  H   UNL     1     -24.485  -3.950  -7.714  1.00  0.00     0.160 HD
ENDROOT
TORSDOF 0
BEGIN_RES ARG D 557
REMARK  4 active torsions:
REMARK  status: ('A' for Active; 'I' for Inactive)
REMARK    1  A    between atoms: CA   and  CB  
REMARK    2  A    between atoms: CB   and  CG  
REMARK    3  A    between atoms: CG   and  CD  
REMARK    4  A    between atoms: CD   and  NE  
REMARK       I    between atoms: NE   and  CZ  
REMARK       I    between atoms: CZ   and  NH1 
REMARK       I    between atoms: CZ   and  NH2 
ROOT
ATOM      1  CA  ARG D 557     -26.217   2.705 -17.014  1.00 35.49     0.159 C 
ENDROOT
BRANCH   1   2
ATOM      2  CB  ARG D 557     -26.789   1.319 -17.183  1.00 35.49     0.034 C 
BRANCH   2   3
ATOM      3  CG  ARG D 557     -25.930   0.197 -16.786  1.00 35.49     0.027 C 
BRANCH   3   4
ATOM      4  CD  ARG D 557     -26.683  -0.873 -16.092  1.00 35.49     0.116 C 
BRANCH   4   5
ATOM      5  NE  ARG D 557     -25.962  -1.400 -14.964  1.00 35.49    -0.212 N 
ATOM      6  CZ  ARG D 557     -25.922  -2.662 -14.600  1.00 35.49     0.666 C 
ATOM      7  NH1 ARG D 557     -26.576  -3.608 -15.247  1.00 35.49    -0.235 N 
ATOM      8  NH2 ARG D 557     -25.198  -2.965 -13.562  1.00 35.49    -0.235 N 
ATOM      9  HH  ARG D 557     -27.057  -3.432 -15.934  1.00 35.49     0.174 HD
ATOM     10  HH  ARG D 557     -26.511  -4.415 -14.965  1.00 35.49     0.174 HD
ATOM     11  HH  ARG D 557     -24.780  -2.334 -13.167  1.00 35.49     0.174 HD
ATOM     12  HH  ARG D 557     -25.144  -3.769 -13.299  1.00 35.49     0.174 HD
ATOM     13  HE  ARG D 557     -25.570  -0.849 -14.448  1.00 35.49     0.178 HD
ENDBRANCH   4   5
ENDBRANCH   3   4
ENDBRANCH   2   3
ENDBRANCH   1   2
END_RES ARG D 557
BEGIN_RES GLU D 570
REMARK  3 active torsions:
REMARK  status: ('A' for Active; 'I' for Inactive)
REMARK    5  A    between atoms: CA   and  CB  
REMARK    6  A    between atoms: CB   and  CG  
REMARK    7  A    between atoms: CG   and  CD  
ROOT
ATOM     14  CA  GLU D 570     -18.033  -6.348 -13.375  1.00 32.92     0.160 C 
ENDROOT
BRANCH  14  15
ATOM     15  CB  GLU D 570     -19.500  -6.345 -13.794  1.00 32.92     0.043 C 
BRANCH  15  16
ATOM     16  CG  GLU D 570     -19.798  -6.209 -15.243  1.00 32.92     0.100 C 
BRANCH  16  17
ATOM     17  CD  GLU D 570     -20.645  -7.339 -15.780  1.00 32.92     0.185 C 
ATOM     18  OE1 GLU D 570     -21.361  -7.137 -16.779  1.00 32.92    -0.647 OA
ATOM     19  OE2 GLU D 570     -20.605  -8.433 -15.184  1.00 32.92    -0.647 OA
ENDBRANCH  16  17
ENDBRANCH  15  16
ENDBRANCH  14  15
END_RES GLU D 570
ENDMDL
MODEL 8
REMARK VINA RESULT:      -2.8      6.325      7.725
REMARK  0 active torsions:
REMARK  status: ('A' for Active; 'I' for Inactive)
REMARK       I    between atoms: C_1  and  N_3 
REMARK       I    between atoms: C_1  and  N_4 
ROOT
HETATM    1  C   UNL     1     -36.800  -0.160 -15.831  1.00  0.00     0.311 C 
HETATM    2  O   UNL     1     -36.739  -0.819 -14.805  1.00  0.00    -0.248 OA
HETATM    3  N   UNL     1     -36.388  -0.625 -17.026  1.00  0.00    -0.352 N 
HETATM    4  N   UNL     1     -37.284   1.094 -15.867  1.00  0.00    -0.352 N 
HETATM    5  H   UNL     1     -36.015  -1.565 -17.055  1.00  0.00     0.160 HD
HETATM    6  H   UNL     1     -36.436  -0.088 -17.874  1.00  0.00     0.160 HD
HETATM    7  H   UNL     1     -37.607   1.493 -14.997  1.00  0.00     0.160 HD
HETATM    8  H   UNL     1     -37.337   1.643 -16.709  1.00  0.00     0.160 HD
ENDROOT
TORSDOF 0
BEGIN_RES ARG D 557
REMARK  4 active torsions:
REMARK  status: ('A' for Active; 'I' for Inactive)
REMARK    1  A    between atoms: CA   and  CB  
REMARK    2  A    between atoms: CB   and  CG  
REMARK    3  A    between atoms: CG   and  CD  
REMARK    4  A    between atoms: CD   and  NE  
REMARK       I    between atoms: NE   and  CZ  
REMARK       I    between atoms: CZ   and  NH1 
REMARK       I    between atoms: CZ   and  NH2 
ROOT
ATOM      1  CA  ARG D 557     -26.217   2.705 -17.014  1.00 35.49     0.159 C 
ENDROOT
BRANCH   1   2
ATOM      2  CB  ARG D 557     -26.789   1.319 -17.183  1.00 35.49     0.034 C 
BRANCH   2   3
ATOM      3  CG  ARG D 557     -25.932   0.197 -16.782  1.00 35.49     0.027 C 
BRANCH   3   4
ATOM      4  CD  ARG D 557     -26.684  -0.864 -16.074  1.00 35.49     0.116 C 
BRANCH   4   5
ATOM      5  NE  ARG D 557     -25.936  -1.421 -14.979  1.00 35.49    -0.212 N 
ATOM      6  CZ  ARG D 557     -25.908  -2.689 -14.634  1.00 35.49     0.666 C 
ATOM      7  NH1 ARG D 557     -26.601  -3.613 -15.273  1.00 35.49    -0.235 N 
ATOM      8  NH2 ARG D 557     -25.156  -3.020 -13.625  1.00 35.49    -0.235 N 
ATOM      9  HH  ARG D 557     -27.101  -3.418 -15.941  1.00 35.49     0.174 HD
ATOM     10  HH  ARG D 557     -26.542  -4.425 -15.004  1.00 35.49     0.174 HD
ATOM     11  HH  ARG D 557     -24.714  -2.403 -13.236  1.00 35.49     0.174 HD
ATOM     12  HH  ARG D 557     -25.109  -3.829 -13.375  1.00 35.49     0.174 HD
ATOM     13  HE  ARG D 557     -25.517  -0.885 -14.468  1.00 35.49     0.178 HD
ENDBRANCH   4   5
ENDBRANCH   3   4
ENDBRANCH   2   3
ENDBRANCH   1   2
END_RES ARG D 557
BEGIN_RES GLU D 570
REMARK  3 active torsions:
REMARK  status: ('A' for Active; 'I' for Inactive)
REMARK    5  A    between atoms: CA   and  CB  
REMARK    6  A    between atoms: CB   and  CG  
REMARK    7  A    between atoms: CG   and  CD  
ROOT
ATOM     14  CA  GLU D 570     -18.033  -6.348 -13.375  1.00 32.92     0.160 C 
ENDROOT
BRANCH  14  15
ATOM     15  CB  GLU D 570     -19.500  -6.345 -13.794  1.00 32.92     0.043 C 
BRANCH  15  16
ATOM     16  CG  GLU D 570     -20.440  -5.522 -12.990  1.00 32.92     0.100 C 
BRANCH  16  17
ATOM     17  CD  GLU D 570     -21.748  -5.258 -13.699  1.00 32.92     0.185 C 
ATOM     18  OE1 GLU D 570     -22.218  -6.136 -14.448  1.00 32.92    -0.647 OA
ATOM     19  OE2 GLU D 570     -22.299  -4.155 -13.517  1.00 32.92    -0.647 OA
ENDBRANCH  16  17
ENDBRANCH  15  16
ENDBRANCH  14  15
END_RES GLU D 570
ENDMDL
MODEL 9
REMARK VINA RESULT:      -2.7      8.879     10.189
REMARK  0 active torsions:
REMARK  status: ('A' for Active; 'I' for Inactive)
REMARK       I    between atoms: C_1  and  N_3 
REMARK       I    between atoms: C_1  and  N_4 
ROOT
HETATM    1  C   UNL     1     -10.358   5.623 -19.430  1.00  0.00     0.311 C 
HETATM    2  O   UNL     1     -11.509   5.522 -19.037  1.00  0.00    -0.248 OA
HETATM    3  N   UNL     1      -9.291   5.442 -18.629  1.00  0.00    -0.352 N 
HETATM    4  N   UNL     1     -10.043   5.925 -20.704  1.00  0.00    -0.352 N 
HETATM    5  H   UNL     1      -9.471   5.213 -17.661  1.00  0.00     0.160 HD
HETATM    6  H   UNL     1      -8.340   5.524 -18.948  1.00  0.00     0.160 HD
HETATM    7  H   UNL     1     -10.807   6.071 -21.348  1.00  0.00     0.160 HD
HETATM    8  H   UNL     1      -9.098   6.010 -21.035  1.00  0.00     0.160 HD
ENDROOT
TORSDOF 0
BEGIN_RES ARG D 557
REMARK  4 active torsions:
REMARK  status: ('A' for Active; 'I' for Inactive)
REMARK    1  A    between atoms: CA   and  CB  
REMARK    2  A    between atoms: CB   and  CG  
REMARK    3  A    between atoms: CG   and  CD  
REMARK    4  A    between atoms: CD   and  NE  
REMARK       I    between atoms: NE   and  CZ  
REMARK       I    between atoms: CZ   and  NH1 
REMARK       I    between atoms: CZ   and  NH2 
ROOT
ATOM      1  CA  ARG D 557     -26.217   2.705 -17.014  1.00 35.49     0.159 C 
ENDROOT
BRANCH   1   2
ATOM      2  CB  ARG D 557     -26.789   1.319 -17.183  1.00 35.49     0.034 C 
BRANCH   2   3
ATOM      3  CG  ARG D 557     -25.865   0.195 -16.990  1.00 35.49     0.027 C 
BRANCH   3   4
ATOM      4  CD  ARG D 557     -26.292  -0.704 -15.893  1.00 35.49     0.116 C 
BRANCH   4   5
ATOM      5  NE  ARG D 557     -25.243  -0.922 -14.932  1.00 35.49    -0.212 N 
ATOM      6  CZ  ARG D 557     -24.958  -2.067 -14.352  1.00 35.49     0.666 C 
ATOM      7  NH1 ARG D 557     -25.639  -3.172 -14.592  1.00 35.49    -0.235 N 
ATOM      8  NH2 ARG D 557     -23.958  -2.085 -13.520  1.00 35.49    -0.235 N 
ATOM      9  HH  ARG D 557     -26.299  -3.183 -15.138  1.00 35.49     0.174 HD
ATOM     10  HH  ARG D 557     -25.405  -3.890 -14.187  1.00 35.49     0.174 HD
ATOM     11  HH  ARG D 557     -23.532  -1.358 -13.390  1.00 35.49     0.174 HD
ATOM     12  HH  ARG D 557     -23.741  -2.806 -13.129  1.00 35.49     0.174 HD
ATOM     13  HE  ARG D 557     -24.801  -0.247 -14.664  1.00 35.49     0.178 HD
ENDBRANCH   4   5
ENDBRANCH   3   4
ENDBRANCH   2   3
ENDBRANCH   1   2
END_RES ARG D 557
BEGIN_RES GLU D 570
REMARK  3 active torsions:
REMARK  status: ('A' for Active; 'I' for Inactive)
REMARK    5  A    between atoms: CA   and  CB  
REMARK    6  A    between atoms: CB   and  CG  
REMARK    7  A    between atoms: CG   and  CD  
ROOT
ATOM     14  CA  GLU D 570     -18.033  -6.348 -13.375  1.00 32.92     0.160 C 
ENDROOT
BRANCH  14  15
ATOM     15  CB  GLU D 570     -19.500  -6.345 -13.794  1.00 32.92     0.043 C 
BRANCH  15  16
ATOM     16  CG  GLU D 570     -20.450  -5.570 -12.955  1.00 32.92     0.100 C 
BRANCH  16  17
ATOM     17  CD  GLU D 570     -21.682  -5.131 -13.711  1.00 32.92     0.185 C 
ATOM     18  OE1 GLU D 570     -21.621  -5.011 -14.950  1.00 32.92    -0.647 OA
ATOM     19  OE2 GLU D 570     -22.715  -4.889 -13.056  1.00 32.92    -0.647 OA
ENDBRANCH  16  17
ENDBRANCH  15  16
ENDBRANCH  14  15
END_RES GLU D 570
ENDMDL
