MODEL 1
REMARK VINA RESULT:      -7.9      0.000      0.000
REMARK  6 active torsions:
REMARK  status: ('A' for Active; 'I' for Inactive)
REMARK    1  A    between atoms: C_2  and  C_4 
REMARK    2  A    between atoms: C_4  and  C_5 
REMARK    3  A    between atoms: C_5  and  C_6 
REMARK    4  A    between atoms: C_6  and  C_7 
REMARK    5  A    between atoms: C_7  and  C_9 
REMARK    6  A    between atoms: C_24  and  O_26 
ROOT
HETATM    1  C   UNL     1     -19.556  -9.528  -4.583  1.00  0.00    -0.002 C 
HETATM    2  C   UNL     1     -20.198 -10.488  -5.605  1.00  0.00     0.006 C 
HETATM    3  C   UNL     1     -21.537 -10.837  -4.965  1.00  0.00     0.010 C 
HETATM    4  C   UNL     1     -21.679  -9.874  -3.755  1.00  0.00     0.023 C 
HETATM    5  C   UNL     1     -20.788  -8.632  -4.175  1.00  0.00    -0.033 C 
HETATM    6  C   UNL     1     -20.836  -7.605  -3.016  1.00  0.00     0.011 C 
HETATM    7  C   UNL     1     -20.903  -8.037  -1.555  1.00  0.00     0.011 C 
HETATM    8  C   UNL     1     -20.864  -9.530  -1.270  1.00  0.00     0.027 C 
HETATM    9  C   UNL     1     -21.156 -10.470  -2.425  1.00  0.00    -0.070 C 
HETATM   10  C   UNL     1     -20.763 -11.742  -2.173  1.00  0.00     0.004 C 
HETATM   11  C   UNL     1     -20.595 -12.222  -0.813  1.00  0.00     0.004 C 
HETATM   12  C   UNL     1     -21.250 -11.545   0.166  1.00  0.00    -0.069 C 
HETATM   13  C   UNL     1     -21.640 -10.050  -0.002  1.00  0.00    -0.013 C 
HETATM   14  C   UNL     1     -23.176  -9.972  -0.144  1.00  0.00     0.017 C 
HETATM   15  C   UNL     1     -23.818 -11.287  -0.598  1.00  0.00     0.033 C 
HETATM   16  C   UNL     1     -23.508 -12.467   0.378  1.00  0.00     0.122 C 
HETATM   17  C   UNL     1     -22.140 -12.334   1.077  1.00  0.00     0.066 C 
HETATM   18  C   UNL     1     -21.183  -9.233   1.235  1.00  0.00     0.021 C 
HETATM   19  C   UNL     1     -21.418  -7.852  -5.374  1.00  0.00     0.016 C 
ENDROOT
BRANCH   1  20
HETATM   20  C   UNL     1     -18.028  -9.425  -4.720  1.00  0.00    -0.014 C 
HETATM   21  C   UNL     1     -17.352 -10.563  -5.472  1.00  0.00     0.010 C 
BRANCH  20  22
HETATM   22  C   UNL     1     -17.491  -9.425  -3.204  1.00  0.00     0.005 C 
BRANCH  22  23
HETATM   23  C   UNL     1     -16.024  -9.738  -3.088  1.00  0.00     0.001 C 
BRANCH  23  24
HETATM   24  C   UNL     1     -15.673 -10.923  -2.179  1.00  0.00     0.004 C 
BRANCH  24  25
HETATM   25  C   UNL     1     -16.983 -11.622  -1.752  1.00  0.00    -0.023 C 
HETATM   26  C   UNL     1     -17.224 -12.922  -2.510  1.00  0.00     0.009 C 
HETATM   27  C   UNL     1     -17.011 -11.890  -0.246  1.00  0.00     0.009 C 
ENDBRANCH  24  25
ENDBRANCH  23  24
ENDBRANCH  22  23
ENDBRANCH  20  22
ENDBRANCH   1  20
BRANCH  16  28
HETATM   28  O   UNL     1     -23.560 -13.703  -0.351  1.00  0.00    -0.395 OA
HETATM   29  H   UNL     1     -22.772 -13.748  -0.925  1.00  0.00     0.210 HD
ENDBRANCH  16  28
TORSDOF 6
BEGIN_RES ARG D 557
REMARK  4 active torsions:
REMARK  status: ('A' for Active; 'I' for Inactive)
REMARK    1  A    between atoms: CA   and  CB  
REMARK    2  A    between atoms: CB   and  CG  
REMARK    3  A    between atoms: CG   and  CD  
REMARK    4  A    between atoms: CD   and  NE  
REMARK       I    between atoms: NE   and  CZ  
REMARK       I    between atoms: CZ   and  NH1 
REMARK       I    between atoms: CZ   and  NH2 
ROOT
ATOM      1  CA  ARG D 557     -26.217   2.705 -17.014  1.00 35.49     0.159 C 
ENDROOT
BRANCH   1   2
ATOM      2  CB  ARG D 557     -26.789   1.319 -17.183  1.00 35.49     0.034 C 
BRANCH   2   3
ATOM      3  CG  ARG D 557     -25.835   0.203 -17.159  1.00 35.49     0.027 C 
BRANCH   3   4
ATOM      4  CD  ARG D 557     -24.757   0.405 -16.164  1.00 35.49     0.116 C 
BRANCH   4   5
ATOM      5  NE  ARG D 557     -24.913  -0.447 -15.015  1.00 35.49    -0.212 N 
ATOM      6  CZ  ARG D 557     -24.100  -1.417 -14.661  1.00 35.49     0.666 C 
ATOM      7  NH1 ARG D 557     -23.025  -1.731 -15.360  1.00 35.49    -0.235 N 
ATOM      8  NH2 ARG D 557     -24.386  -2.074 -13.574  1.00 35.49    -0.235 N 
ATOM      9  HH  ARG D 557     -22.816  -1.311 -16.077  1.00 35.49     0.174 HD
ATOM     10  HH  ARG D 557     -22.530  -2.372 -15.079  1.00 35.49     0.174 HD
ATOM     11  HH  ARG D 557     -25.083  -1.844 -13.140  1.00 35.49     0.174 HD
ATOM     12  HH  ARG D 557     -23.883  -2.704 -13.312  1.00 35.49     0.174 HD
ATOM     13  HE  ARG D 557     -25.619  -0.362 -14.548  1.00 35.49     0.178 HD
ENDBRANCH   4   5
ENDBRANCH   3   4
ENDBRANCH   2   3
ENDBRANCH   1   2
END_RES ARG D 557
BEGIN_RES GLU D 570
REMARK  3 active torsions:
REMARK  status: ('A' for Active; 'I' for Inactive)
REMARK    5  A    between atoms: CA   and  CB  
REMARK    6  A    between atoms: CB   and  CG  
REMARK    7  A    between atoms: CG   and  CD  
ROOT
ATOM     14  CA  GLU D 570     -18.033  -6.348 -13.375  1.00 32.92     0.160 C 
ENDROOT
BRANCH  14  15
ATOM     15  CB  GLU D 570     -19.500  -6.345 -13.794  1.00 32.92     0.043 C 
BRANCH  15  16
ATOM     16  CG  GLU D 570     -20.439  -5.519 -12.992  1.00 32.92     0.100 C 
BRANCH  16  17
ATOM     17  CD  GLU D 570     -21.729  -5.218 -13.720  1.00 32.92     0.185 C 
ATOM     18  OE1 GLU D 570     -22.319  -4.146 -13.487  1.00 32.92    -0.647 OA
ATOM     19  OE2 GLU D 570     -22.161  -6.071 -14.520  1.00 32.92    -0.647 OA
ENDBRANCH  16  17
ENDBRANCH  15  16
ENDBRANCH  14  15
END_RES GLU D 570
ENDMDL
MODEL 2
REMARK VINA RESULT:      -7.6      1.333      1.559
REMARK  6 active torsions:
REMARK  status: ('A' for Active; 'I' for Inactive)
REMARK    1  A    between atoms: C_2  and  C_4 
REMARK    2  A    between atoms: C_4  and  C_5 
REMARK    3  A    between atoms: C_5  and  C_6 
REMARK    4  A    between atoms: C_6  and  C_7 
REMARK    5  A    between atoms: C_7  and  C_9 
REMARK    6  A    between atoms: C_24  and  O_26 
ROOT
HETATM    1  C   UNL     1     -19.576  -9.461  -4.558  1.00  0.00    -0.002 C 
HETATM    2  C   UNL     1     -20.224 -10.410  -5.588  1.00  0.00     0.006 C 
HETATM    3  C   UNL     1     -21.563 -10.759  -4.949  1.00  0.00     0.010 C 
HETATM    4  C   UNL     1     -21.700  -9.807  -3.730  1.00  0.00     0.023 C 
HETATM    5  C   UNL     1     -20.804  -8.564  -4.140  1.00  0.00    -0.033 C 
HETATM    6  C   UNL     1     -20.848  -7.547  -2.972  1.00  0.00     0.011 C 
HETATM    7  C   UNL     1     -20.915  -7.992  -1.515  1.00  0.00     0.011 C 
HETATM    8  C   UNL     1     -20.880  -9.488  -1.243  1.00  0.00     0.027 C 
HETATM    9  C   UNL     1     -21.178 -10.417  -2.406  1.00  0.00    -0.070 C 
HETATM   10  C   UNL     1     -20.788 -11.692  -2.166  1.00  0.00     0.004 C 
HETATM   11  C   UNL     1     -20.621 -12.185  -0.811  1.00  0.00     0.004 C 
HETATM   12  C   UNL     1     -21.272 -11.514   0.175  1.00  0.00    -0.069 C 
HETATM   13  C   UNL     1     -21.656 -10.016   0.021  1.00  0.00    -0.013 C 
HETATM   14  C   UNL     1     -23.193  -9.931  -0.118  1.00  0.00     0.017 C 
HETATM   15  C   UNL     1     -23.841 -11.240  -0.584  1.00  0.00     0.033 C 
HETATM   16  C   UNL     1     -23.533 -12.430   0.382  1.00  0.00     0.122 C 
HETATM   17  C   UNL     1     -22.164 -12.308   1.080  1.00  0.00     0.066 C 
HETATM   18  C   UNL     1     -21.196  -9.212   1.265  1.00  0.00     0.021 C 
HETATM   19  C   UNL     1     -21.433  -7.772  -5.331  1.00  0.00     0.016 C 
ENDROOT
BRANCH   1  20
HETATM   20  C   UNL     1     -18.048  -9.363  -4.696  1.00  0.00    -0.014 C 
HETATM   21  C   UNL     1     -17.378 -10.493  -5.465  1.00  0.00     0.010 C 
BRANCH  20  22
HETATM   22  C   UNL     1     -17.509  -9.386  -3.181  1.00  0.00     0.005 C 
BRANCH  22  23
HETATM   23  C   UNL     1     -16.048  -9.730  -3.070  1.00  0.00     0.001 C 
BRANCH  23  24
HETATM   24  C   UNL     1     -15.712 -10.869  -2.098  1.00  0.00     0.004 C 
BRANCH  24  25
HETATM   25  C   UNL     1     -17.021 -11.593  -1.714  1.00  0.00    -0.023 C 
HETATM   26  C   UNL     1     -17.238 -12.869  -2.519  1.00  0.00     0.009 C 
HETATM   27  C   UNL     1     -17.069 -11.912  -0.219  1.00  0.00     0.009 C 
ENDBRANCH  24  25
ENDBRANCH  23  24
ENDBRANCH  22  23
ENDBRANCH  20  22
ENDBRANCH   1  20
BRANCH  16  28
HETATM   28  O   UNL     1     -23.591 -13.659  -0.358  1.00  0.00    -0.395 OA
HETATM   29  H   UNL     1     -22.681 -14.001  -0.446  1.00  0.00     0.210 HD
ENDBRANCH  16  28
TORSDOF 6
BEGIN_RES ARG D 557
REMARK  4 active torsions:
REMARK  status: ('A' for Active; 'I' for Inactive)
REMARK    1  A    between atoms: CA   and  CB  
REMARK    2  A    between atoms: CB   and  CG  
REMARK    3  A    between atoms: CG   and  CD  
REMARK    4  A    between atoms: CD   and  NE  
REMARK       I    between atoms: NE   and  CZ  
REMARK       I    between atoms: CZ   and  NH1 
REMARK       I    between atoms: CZ   and  NH2 
ROOT
ATOM      1  CA  ARG D 557     -26.217   2.705 -17.014  1.00 35.49     0.159 C 
ENDROOT
BRANCH   1   2
ATOM      2  CB  ARG D 557     -26.789   1.319 -17.183  1.00 35.49     0.034 C 
BRANCH   2   3
ATOM      3  CG  ARG D 557     -28.222   1.158 -16.910  1.00 35.49     0.027 C 
BRANCH   3   4
ATOM      4  CD  ARG D 557     -28.613  -0.263 -16.764  1.00 35.49     0.116 C 
BRANCH   4   5
ATOM      5  NE  ARG D 557     -27.616  -1.030 -16.064  1.00 35.49    -0.212 N 
ATOM      6  CZ  ARG D 557     -27.468  -2.334 -16.126  1.00 35.49     0.666 C 
ATOM      7  NH1 ARG D 557     -28.257  -3.104 -16.852  1.00 35.49    -0.235 N 
ATOM      8  NH2 ARG D 557     -26.495  -2.861 -15.440  1.00 35.49    -0.235 N 
ATOM      9  HH  ARG D 557     -28.902  -2.779 -17.312  1.00 35.49     0.174 HD
ATOM     10  HH  ARG D 557     -28.110  -3.949 -16.855  1.00 35.49     0.174 HD
ATOM     11  HH  ARG D 557     -25.996  -2.338 -14.986  1.00 35.49     0.174 HD
ATOM     12  HH  ARG D 557     -26.365  -3.698 -15.458  1.00 35.49     0.174 HD
ATOM     13  HE  ARG D 557     -27.110  -0.622 -15.516  1.00 35.49     0.178 HD
ENDBRANCH   4   5
ENDBRANCH   3   4
ENDBRANCH   2   3
ENDBRANCH   1   2
END_RES ARG D 557
BEGIN_RES GLU D 570
REMARK  3 active torsions:
REMARK  status: ('A' for Active; 'I' for Inactive)
REMARK    5  A    between atoms: CA   and  CB  
REMARK    6  A    between atoms: CB   and  CG  
REMARK    7  A    between atoms: CG   and  CD  
ROOT
ATOM     14  CA  GLU D 570     -18.033  -6.348 -13.375  1.00 32.92     0.160 C 
ENDROOT
BRANCH  14  15
ATOM     15  CB  GLU D 570     -19.500  -6.345 -13.794  1.00 32.92     0.043 C 
BRANCH  15  16
ATOM     16  CG  GLU D 570     -20.444  -5.539 -12.977  1.00 32.92     0.100 C 
BRANCH  16  17
ATOM     17  CD  GLU D 570     -21.702  -5.167 -13.725  1.00 32.92     0.185 C 
ATOM     18  OE1 GLU D 570     -21.639  -4.966 -14.953  1.00 32.92    -0.647 OA
ATOM     19  OE2 GLU D 570     -22.760  -5.059 -13.074  1.00 32.92    -0.647 OA
ENDBRANCH  16  17
ENDBRANCH  15  16
ENDBRANCH  14  15
END_RES GLU D 570
ENDMDL
MODEL 3
REMARK VINA RESULT:      -7.5      1.828      5.391
REMARK  6 active torsions:
REMARK  status: ('A' for Active; 'I' for Inactive)
REMARK    1  A    between atoms: C_2  and  C_4 
REMARK    2  A    between atoms: C_4  and  C_5 
REMARK    3  A    between atoms: C_5  and  C_6 
REMARK    4  A    between atoms: C_6  and  C_7 
REMARK    5  A    between atoms: C_7  and  C_9 
REMARK    6  A    between atoms: C_24  and  O_26 
ROOT
HETATM    1  C   UNL     1     -21.599 -10.296  -0.748  1.00  0.00    -0.002 C 
HETATM    2  C   UNL     1     -22.790 -10.675  -1.652  1.00  0.00     0.006 C 
HETATM    3  C   UNL     1     -22.153 -11.559  -2.718  1.00  0.00     0.010 C 
HETATM    4  C   UNL     1     -20.707 -11.828  -2.222  1.00  0.00     0.023 C 
HETATM    5  C   UNL     1     -20.830 -11.669  -0.649  1.00  0.00    -0.033 C 
HETATM    6  C   UNL     1     -19.422 -11.895  -0.042  1.00  0.00     0.011 C 
HETATM    7  C   UNL     1     -18.152 -11.447  -0.757  1.00  0.00     0.011 C 
HETATM    8  C   UNL     1     -18.321 -10.712  -2.078  1.00  0.00     0.027 C 
HETATM    9  C   UNL     1     -19.666 -10.821  -2.772  1.00  0.00    -0.070 C 
HETATM   10  C   UNL     1     -19.837  -9.878  -3.728  1.00  0.00     0.004 C 
HETATM   11  C   UNL     1     -18.700  -9.226  -4.353  1.00  0.00     0.004 C 
HETATM   12  C   UNL     1     -17.506  -9.874  -4.293  1.00  0.00    -0.069 C 
HETATM   13  C   UNL     1     -17.191 -10.891  -3.161  1.00  0.00    -0.013 C 
HETATM   14  C   UNL     1     -17.155 -12.303  -3.787  1.00  0.00     0.017 C 
HETATM   15  C   UNL     1     -17.910 -12.404  -5.117  1.00  0.00     0.033 C 
HETATM   16  C   UNL     1     -17.356 -11.413  -6.190  1.00  0.00     0.122 C 
HETATM   17  C   UNL     1     -16.785 -10.116  -5.583  1.00  0.00     0.066 C 
HETATM   18  C   UNL     1     -15.820 -10.567  -2.513  1.00  0.00     0.021 C 
HETATM   19  C   UNL     1     -21.681 -12.819  -0.021  1.00  0.00     0.016 C 
ENDROOT
BRANCH   1  20
HETATM   20  C   UNL     1     -21.847  -9.030   0.089  1.00  0.00    -0.014 C 
HETATM   21  C   UNL     1     -23.304  -8.627   0.265  1.00  0.00     0.010 C 
BRANCH  20  22
HETATM   22  C   UNL     1     -21.088  -7.864  -0.718  1.00  0.00     0.005 C 
BRANCH  22  23
HETATM   23  C   UNL     1     -21.941  -7.211  -1.771  1.00  0.00     0.001 C 
BRANCH  23  24
HETATM   24  C   UNL     1     -21.232  -6.159  -2.633  1.00  0.00     0.004 C 
BRANCH  24  25
HETATM   25  C   UNL     1     -21.782  -6.249  -4.074  1.00  0.00    -0.023 C 
HETATM   26  C   UNL     1     -20.833  -5.639  -5.099  1.00  0.00     0.009 C 
HETATM   27  C   UNL     1     -22.104  -7.692  -4.464  1.00  0.00     0.009 C 
ENDBRANCH  24  25
ENDBRANCH  23  24
ENDBRANCH  22  23
ENDBRANCH  20  22
ENDBRANCH   1  20
BRANCH  16  28
HETATM   28  O   UNL     1     -18.406 -11.091  -7.116  1.00  0.00    -0.395 OA
HETATM   29  H   UNL     1     -19.134 -10.678  -6.614  1.00  0.00     0.210 HD
ENDBRANCH  16  28
TORSDOF 6
BEGIN_RES ARG D 557
REMARK  4 active torsions:
REMARK  status: ('A' for Active; 'I' for Inactive)
REMARK    1  A    between atoms: CA   and  CB  
REMARK    2  A    between atoms: CB   and  CG  
REMARK    3  A    between atoms: CG   and  CD  
REMARK    4  A    between atoms: CD   and  NE  
REMARK       I    between atoms: NE   and  CZ  
REMARK       I    between atoms: CZ   and  NH1 
REMARK       I    between atoms: CZ   and  NH2 
ROOT
ATOM      1  CA  ARG D 557     -26.217   2.705 -17.014  1.00 35.49     0.159 C 
ENDROOT
BRANCH   1   2
ATOM      2  CB  ARG D 557     -26.789   1.319 -17.183  1.00 35.49     0.034 C 
BRANCH   2   3
ATOM      3  CG  ARG D 557     -25.835   0.204 -17.164  1.00 35.49     0.027 C 
BRANCH   3   4
ATOM      4  CD  ARG D 557     -24.751   0.405 -16.175  1.00 35.49     0.116 C 
BRANCH   4   5
ATOM      5  NE  ARG D 557     -24.906  -0.440 -15.021  1.00 35.49    -0.212 N 
ATOM      6  CZ  ARG D 557     -24.096  -1.413 -14.667  1.00 35.49     0.666 C 
ATOM      7  NH1 ARG D 557     -23.025  -1.735 -15.369  1.00 35.49    -0.235 N 
ATOM      8  NH2 ARG D 557     -24.380  -2.064 -13.576  1.00 35.49    -0.235 N 
ATOM      9  HH  ARG D 557     -22.818  -1.319 -16.089  1.00 35.49     0.174 HD
ATOM     10  HH  ARG D 557     -22.532  -2.377 -15.088  1.00 35.49     0.174 HD
ATOM     11  HH  ARG D 557     -25.074  -1.829 -13.139  1.00 35.49     0.174 HD
ATOM     12  HH  ARG D 557     -23.879  -2.695 -13.314  1.00 35.49     0.174 HD
ATOM     13  HE  ARG D 557     -25.609  -0.350 -14.551  1.00 35.49     0.178 HD
ENDBRANCH   4   5
ENDBRANCH   3   4
ENDBRANCH   2   3
ENDBRANCH   1   2
END_RES ARG D 557
BEGIN_RES GLU D 570
REMARK  3 active torsions:
REMARK  status: ('A' for Active; 'I' for Inactive)
REMARK    5  A    between atoms: CA   and  CB  
REMARK    6  A    between atoms: CB   and  CG  
REMARK    7  A    between atoms: CG   and  CD  
ROOT
ATOM     14  CA  GLU D 570     -18.033  -6.348 -13.375  1.00 32.92     0.160 C 
ENDROOT
BRANCH  14  15
ATOM     15  CB  GLU D 570     -19.500  -6.345 -13.794  1.00 32.92     0.043 C 
BRANCH  15  16
ATOM     16  CG  GLU D 570     -20.441  -5.526 -12.987  1.00 32.92     0.100 C 
BRANCH  16  17
ATOM     17  CD  GLU D 570     -21.737  -5.237 -13.706  1.00 32.92     0.185 C 
ATOM     18  OE1 GLU D 570     -22.321  -4.157 -13.491  1.00 32.92    -0.647 OA
ATOM     19  OE2 GLU D 570     -22.183  -6.106 -14.481  1.00 32.92    -0.647 OA
ENDBRANCH  16  17
ENDBRANCH  15  16
ENDBRANCH  14  15
END_RES GLU D 570
ENDMDL
MODEL 4
REMARK VINA RESULT:      -7.2      1.830      4.766
REMARK  6 active torsions:
REMARK  status: ('A' for Active; 'I' for Inactive)
REMARK    1  A    between atoms: C_2  and  C_4 
REMARK    2  A    between atoms: C_4  and  C_5 
REMARK    3  A    between atoms: C_5  and  C_6 
REMARK    4  A    between atoms: C_6  and  C_7 
REMARK    5  A    between atoms: C_7  and  C_9 
REMARK    6  A    between atoms: C_24  and  O_26 
ROOT
HETATM    1  C   UNL     1     -22.410 -10.610  -0.263  1.00  0.00    -0.002 C 
HETATM    2  C   UNL     1     -23.931 -10.869  -0.220  1.00  0.00     0.006 C 
HETATM    3  C   UNL     1     -24.086 -12.170  -0.999  1.00  0.00     0.010 C 
HETATM    4  C   UNL     1     -22.642 -12.694  -1.220  1.00  0.00     0.023 C 
HETATM    5  C   UNL     1     -21.837 -12.058  -0.011  1.00  0.00    -0.033 C 
HETATM    6  C   UNL     1     -20.358 -12.499  -0.146  1.00  0.00     0.011 C 
HETATM    7  C   UNL     1     -19.686 -12.670  -1.504  1.00  0.00     0.011 C 
HETATM    8  C   UNL     1     -20.512 -12.334  -2.736  1.00  0.00     0.027 C 
HETATM    9  C   UNL     1     -22.017 -12.241  -2.563  1.00  0.00    -0.070 C 
HETATM   10  C   UNL     1     -22.621 -11.609  -3.598  1.00  0.00     0.004 C 
HETATM   11  C   UNL     1     -21.990 -11.529  -4.902  1.00  0.00     0.004 C 
HETATM   12  C   UNL     1     -21.031 -12.451  -5.182  1.00  0.00    -0.069 C 
HETATM   13  C   UNL     1     -20.215 -13.141  -4.054  1.00  0.00    -0.013 C 
HETATM   14  C   UNL     1     -20.657 -14.620  -3.985  1.00  0.00     0.017 C 
HETATM   15  C   UNL     1     -22.038 -14.878  -4.597  1.00  0.00     0.033 C 
HETATM   16  C   UNL     1     -22.111 -14.448  -6.098  1.00  0.00     0.122 C 
HETATM   17  C   UNL     1     -21.192 -13.258  -6.435  1.00  0.00     0.066 C 
HETATM   18  C   UNL     1     -18.697 -13.060  -4.362  1.00  0.00     0.021 C 
HETATM   19  C   UNL     1     -22.274 -12.674   1.356  1.00  0.00     0.016 C 
ENDROOT
BRANCH   1  20
HETATM   20  C   UNL     1     -22.035  -9.141  -0.007  1.00  0.00    -0.014 C 
HETATM   21  C   UNL     1     -23.111  -8.287   0.648  1.00  0.00     0.010 C 
BRANCH  20  22
HETATM   22  C   UNL     1     -21.729  -8.547  -1.469  1.00  0.00     0.005 C 
BRANCH  22  23
HETATM   23  C   UNL     1     -20.307  -8.758  -1.916  1.00  0.00     0.001 C 
BRANCH  23  24
HETATM   24  C   UNL     1     -20.054  -8.569  -3.417  1.00  0.00     0.004 C 
BRANCH  24  25
HETATM   25  C   UNL     1     -18.939  -9.543  -3.857  1.00  0.00    -0.023 C 
HETATM   26  C   UNL     1     -18.537  -9.350  -5.314  1.00  0.00     0.009 C 
HETATM   27  C   UNL     1     -17.705  -9.426  -2.961  1.00  0.00     0.009 C 
ENDBRANCH  24  25
ENDBRANCH  23  24
ENDBRANCH  22  23
ENDBRANCH  20  22
ENDBRANCH   1  20
BRANCH  16  28
HETATM   28  O   UNL     1     -23.469 -14.116  -6.424  1.00  0.00    -0.395 OA
HETATM   29  H   UNL     1     -24.055 -14.620  -5.827  1.00  0.00     0.210 HD
ENDBRANCH  16  28
TORSDOF 6
BEGIN_RES ARG D 557
REMARK  4 active torsions:
REMARK  status: ('A' for Active; 'I' for Inactive)
REMARK    1  A    between atoms: CA   and  CB  
REMARK    2  A    between atoms: CB   and  CG  
REMARK    3  A    between atoms: CG   and  CD  
REMARK    4  A    between atoms: CD   and  NE  
REMARK       I    between atoms: NE   and  CZ  
REMARK       I    between atoms: CZ   and  NH1 
REMARK       I    between atoms: CZ   and  NH2 
ROOT
ATOM      1  CA  ARG D 557     -26.217   2.705 -17.014  1.00 35.49     0.159 C 
ENDROOT
BRANCH   1   2
ATOM      2  CB  ARG D 557     -26.789   1.319 -17.183  1.00 35.49     0.034 C 
BRANCH   2   3
ATOM      3  CG  ARG D 557     -25.833   0.205 -17.182  1.00 35.49     0.027 C 
BRANCH   3   4
ATOM      4  CD  ARG D 557     -24.741   0.400 -16.200  1.00 35.49     0.116 C 
BRANCH   4   5
ATOM      5  NE  ARG D 557     -24.898  -0.438 -15.041  1.00 35.49    -0.212 N 
ATOM      6  CZ  ARG D 557     -24.085  -1.403 -14.674  1.00 35.49     0.666 C 
ATOM      7  NH1 ARG D 557     -23.007  -1.723 -15.366  1.00 35.49    -0.235 N 
ATOM      8  NH2 ARG D 557     -24.372  -2.046 -13.580  1.00 35.49    -0.235 N 
ATOM      9  HH  ARG D 557     -22.798  -1.311 -16.088  1.00 35.49     0.174 HD
ATOM     10  HH  ARG D 557     -22.512  -2.360 -15.077  1.00 35.49     0.174 HD
ATOM     11  HH  ARG D 557     -25.070  -1.813 -13.150  1.00 35.49     0.174 HD
ATOM     12  HH  ARG D 557     -23.868  -2.673 -13.309  1.00 35.49     0.174 HD
ATOM     13  HE  ARG D 557     -25.605  -0.348 -14.576  1.00 35.49     0.178 HD
ENDBRANCH   4   5
ENDBRANCH   3   4
ENDBRANCH   2   3
ENDBRANCH   1   2
END_RES ARG D 557
BEGIN_RES GLU D 570
REMARK  3 active torsions:
REMARK  status: ('A' for Active; 'I' for Inactive)
REMARK    5  A    between atoms: CA   and  CB  
REMARK    6  A    between atoms: CB   and  CG  
REMARK    7  A    between atoms: CG   and  CD  
ROOT
ATOM     14  CA  GLU D 570     -18.033  -6.348 -13.375  1.00 32.92     0.160 C 
ENDROOT
BRANCH  14  15
ATOM     15  CB  GLU D 570     -19.500  -6.345 -13.794  1.00 32.92     0.043 C 
BRANCH  15  16
ATOM     16  CG  GLU D 570     -20.439  -5.519 -12.992  1.00 32.92     0.100 C 
BRANCH  16  17
ATOM     17  CD  GLU D 570     -21.730  -5.220 -13.720  1.00 32.92     0.185 C 
ATOM     18  OE1 GLU D 570     -22.350  -4.175 -13.447  1.00 32.92    -0.647 OA
ATOM     19  OE2 GLU D 570     -22.133  -6.049 -14.559  1.00 32.92    -0.647 OA
ENDBRANCH  16  17
ENDBRANCH  15  16
ENDBRANCH  14  15
END_RES GLU D 570
ENDMDL
MODEL 5
REMARK VINA RESULT:      -7.1      1.843      5.113
REMARK  6 active torsions:
REMARK  status: ('A' for Active; 'I' for Inactive)
REMARK    1  A    between atoms: C_2  and  C_4 
REMARK    2  A    between atoms: C_4  and  C_5 
REMARK    3  A    between atoms: C_5  and  C_6 
REMARK    4  A    between atoms: C_6  and  C_7 
REMARK    5  A    between atoms: C_7  and  C_9 
REMARK    6  A    between atoms: C_24  and  O_26 
ROOT
HETATM    1  C   UNL     1     -21.935 -10.641  -0.978  1.00  0.00    -0.002 C 
HETATM    2  C   UNL     1     -21.635 -11.325   0.372  1.00  0.00     0.006 C 
HETATM    3  C   UNL     1     -20.128 -11.152   0.525  1.00  0.00     0.010 C 
HETATM    4  C   UNL     1     -19.707 -10.178  -0.608  1.00  0.00     0.023 C 
HETATM    5  C   UNL     1     -21.031  -9.351  -0.885  1.00  0.00    -0.033 C 
HETATM    6  C   UNL     1     -20.730  -8.352  -2.031  1.00  0.00     0.011 C 
HETATM    7  C   UNL     1     -19.793  -8.700  -3.182  1.00  0.00     0.011 C 
HETATM    8  C   UNL     1     -19.200 -10.100  -3.196  1.00  0.00     0.027 C 
HETATM    9  C   UNL     1     -19.254 -10.895  -1.904  1.00  0.00    -0.070 C 
HETATM   10  C   UNL     1     -19.031 -12.217  -2.097  1.00  0.00     0.004 C 
HETATM   11  C   UNL     1     -18.317 -12.697  -3.266  1.00  0.00     0.004 C 
HETATM   12  C   UNL     1     -17.512 -11.808  -3.906  1.00  0.00    -0.069 C 
HETATM   13  C   UNL     1     -17.767 -10.277  -3.824  1.00  0.00    -0.013 C 
HETATM   14  C   UNL     1     -16.639  -9.652  -2.974  1.00  0.00     0.017 C 
HETATM   15  C   UNL     1     -15.936 -10.655  -2.053  1.00  0.00     0.033 C 
HETATM   16  C   UNL     1     -15.306 -11.847  -2.844  1.00  0.00     0.122 C 
HETATM   17  C   UNL     1     -16.083 -12.203  -4.127  1.00  0.00     0.066 C 
HETATM   18  C   UNL     1     -17.762  -9.655  -5.245  1.00  0.00     0.021 C 
HETATM   19  C   UNL     1     -21.390  -8.422   0.318  1.00  0.00     0.016 C 
ENDROOT
BRANCH   1  20
HETATM   20  C   UNL     1     -23.256 -11.100  -1.615  1.00  0.00    -0.014 C 
HETATM   21  C   UNL     1     -24.291 -11.670  -0.655  1.00  0.00     0.010 C 
BRANCH  20  22
HETATM   22  C   UNL     1     -22.822 -12.257  -2.644  1.00  0.00     0.005 C 
BRANCH  22  23
HETATM   23  C   UNL     1     -22.364 -11.732  -3.977  1.00  0.00     0.001 C 
BRANCH  23  24
HETATM   24  C   UNL     1     -21.630 -12.744  -4.867  1.00  0.00     0.004 C 
BRANCH  24  25
HETATM   25  C   UNL     1     -21.231 -12.046  -6.185  1.00  0.00    -0.023 C 
HETATM   26  C   UNL     1     -21.266 -10.526  -6.073  1.00  0.00     0.009 C 
HETATM   27  C   UNL     1     -19.851 -12.496  -6.665  1.00  0.00     0.009 C 
ENDBRANCH  24  25
ENDBRANCH  23  24
ENDBRANCH  22  23
ENDBRANCH  20  22
ENDBRANCH   1  20
BRANCH  16  28
HETATM   28  O   UNL     1     -15.240 -12.995  -1.985  1.00  0.00    -0.395 OA
HETATM   29  H   UNL     1     -15.570 -13.766  -2.485  1.00  0.00     0.210 HD
ENDBRANCH  16  28
TORSDOF 6
BEGIN_RES ARG D 557
REMARK  4 active torsions:
REMARK  status: ('A' for Active; 'I' for Inactive)
REMARK    1  A    between atoms: CA   and  CB  
REMARK    2  A    between atoms: CB   and  CG  
REMARK    3  A    between atoms: CG   and  CD  
REMARK    4  A    between atoms: CD   and  NE  
REMARK       I    between atoms: NE   and  CZ  
REMARK       I    between atoms: CZ   and  NH1 
REMARK       I    between atoms: CZ   and  NH2 
ROOT
ATOM      1  CA  ARG D 557     -26.217   2.705 -17.014  1.00 35.49     0.159 C 
ENDROOT
BRANCH   1   2
ATOM      2  CB  ARG D 557     -26.789   1.319 -17.183  1.00 35.49     0.034 C 
BRANCH   2   3
ATOM      3  CG  ARG D 557     -25.839   0.201 -17.132  1.00 35.49     0.027 C 
BRANCH   3   4
ATOM      4  CD  ARG D 557     -24.766   0.417 -16.134  1.00 35.49     0.116 C 
BRANCH   4   5
ATOM      5  NE  ARG D 557     -24.880  -0.477 -15.013  1.00 35.49    -0.212 N 
ATOM      6  CZ  ARG D 557     -24.039  -1.441 -14.710  1.00 35.49     0.666 C 
ATOM      7  NH1 ARG D 557     -22.971  -1.705 -15.440  1.00 35.49    -0.235 N 
ATOM      8  NH2 ARG D 557     -24.289  -2.142 -13.642  1.00 35.49    -0.235 N 
ATOM      9  HH  ARG D 557     -22.786  -1.255 -16.145  1.00 35.49     0.174 HD
ATOM     10  HH  ARG D 557     -22.457  -2.344 -15.192  1.00 35.49     0.174 HD
ATOM     11  HH  ARG D 557     -24.982  -1.944 -13.187  1.00 35.49     0.174 HD
ATOM     12  HH  ARG D 557     -23.767  -2.769 -13.413  1.00 35.49     0.174 HD
ATOM     13  HE  ARG D 557     -25.579  -0.425 -14.530  1.00 35.49     0.178 HD
ENDBRANCH   4   5
ENDBRANCH   3   4
ENDBRANCH   2   3
ENDBRANCH   1   2
END_RES ARG D 557
BEGIN_RES GLU D 570
REMARK  3 active torsions:
REMARK  status: ('A' for Active; 'I' for Inactive)
REMARK    5  A    between atoms: CA   and  CB  
REMARK    6  A    between atoms: CB   and  CG  
REMARK    7  A    between atoms: CG   and  CD  
ROOT
ATOM     14  CA  GLU D 570     -18.033  -6.348 -13.375  1.00 32.92     0.160 C 
ENDROOT
BRANCH  14  15
ATOM     15  CB  GLU D 570     -19.500  -6.345 -13.794  1.00 32.92     0.043 C 
BRANCH  15  16
ATOM     16  CG  GLU D 570     -20.446  -5.549 -12.969  1.00 32.92     0.100 C 
BRANCH  16  17
ATOM     17  CD  GLU D 570     -21.632  -5.043 -13.757  1.00 32.92     0.185 C 
ATOM     18  OE1 GLU D 570     -21.492  -4.795 -14.970  1.00 32.92    -0.647 OA
ATOM     19  OE2 GLU D 570     -22.708  -4.876 -13.150  1.00 32.92    -0.647 OA
ENDBRANCH  16  17
ENDBRANCH  15  16
ENDBRANCH  14  15
END_RES GLU D 570
ENDMDL
MODEL 6
REMARK VINA RESULT:      -6.8      2.470      5.407
REMARK  6 active torsions:
REMARK  status: ('A' for Active; 'I' for Inactive)
REMARK    1  A    between atoms: C_2  and  C_4 
REMARK    2  A    between atoms: C_4  and  C_5 
REMARK    3  A    between atoms: C_5  and  C_6 
REMARK    4  A    between atoms: C_6  and  C_7 
REMARK    5  A    between atoms: C_7  and  C_9 
REMARK    6  A    between atoms: C_24  and  O_26 
ROOT
HETATM    1  C   UNL     1     -22.061 -10.775  -0.656  1.00  0.00    -0.002 C 
HETATM    2  C   UNL     1     -21.646 -11.575   0.595  1.00  0.00     0.006 C 
HETATM    3  C   UNL     1     -20.132 -11.392   0.643  1.00  0.00     0.010 C 
HETATM    4  C   UNL     1     -19.814 -10.311  -0.425  1.00  0.00     0.023 C 
HETATM    5  C   UNL     1     -21.164  -9.484  -0.516  1.00  0.00    -0.033 C 
HETATM    6  C   UNL     1     -20.967  -8.379  -1.584  1.00  0.00     0.011 C 
HETATM    7  C   UNL     1     -20.124  -8.603  -2.834  1.00  0.00     0.011 C 
HETATM    8  C   UNL     1     -19.521  -9.986  -3.027  1.00  0.00     0.027 C 
HETATM    9  C   UNL     1     -19.462 -10.897  -1.814  1.00  0.00    -0.070 C 
HETATM   10  C   UNL     1     -19.244 -12.192  -2.147  1.00  0.00     0.004 C 
HETATM   11  C   UNL     1     -18.623 -12.549  -3.410  1.00  0.00     0.004 C 
HETATM   12  C   UNL     1     -17.881 -11.592  -4.026  1.00  0.00    -0.069 C 
HETATM   13  C   UNL     1     -18.143 -10.080  -3.782  1.00  0.00    -0.013 C 
HETATM   14  C   UNL     1     -16.955  -9.517  -2.971  1.00  0.00     0.017 C 
HETATM   15  C   UNL     1     -16.169 -10.589  -2.207  1.00  0.00     0.033 C 
HETATM   16  C   UNL     1     -15.596 -11.692  -3.154  1.00  0.00     0.122 C 
HETATM   17  C   UNL     1     -16.472 -11.941  -4.397  1.00  0.00     0.066 C 
HETATM   18  C   UNL     1     -18.259  -9.329  -5.135  1.00  0.00     0.021 C 
HETATM   19  C   UNL     1     -21.432  -8.676   0.794  1.00  0.00     0.016 C 
ENDROOT
BRANCH   1  20
HETATM   20  C   UNL     1     -23.425 -11.196  -1.225  1.00  0.00    -0.014 C 
HETATM   21  C   UNL     1     -23.798 -12.659  -1.037  1.00  0.00     0.010 C 
BRANCH  20  22
HETATM   22  C   UNL     1     -23.311 -10.895  -2.800  1.00  0.00     0.005 C 
BRANCH  22  23
HETATM   23  C   UNL     1     -22.567 -11.960  -3.560  1.00  0.00     0.001 C 
BRANCH  23  24
HETATM   24  C   UNL     1     -21.925 -11.502  -4.877  1.00  0.00     0.004 C 
BRANCH  24  25
HETATM   25  C   UNL     1     -21.718 -12.737  -5.781  1.00  0.00    -0.023 C 
HETATM   26  C   UNL     1     -20.490 -12.606  -6.674  1.00  0.00     0.009 C 
HETATM   27  C   UNL     1     -21.624 -14.025  -4.961  1.00  0.00     0.009 C 
ENDBRANCH  24  25
ENDBRANCH  23  24
ENDBRANCH  22  23
ENDBRANCH  20  22
ENDBRANCH   1  20
BRANCH  16  28
HETATM   28  O   UNL     1     -15.448 -12.913  -2.414  1.00  0.00    -0.395 OA
HETATM   29  H   UNL     1     -15.540 -12.704  -1.465  1.00  0.00     0.210 HD
ENDBRANCH  16  28
TORSDOF 6
BEGIN_RES ARG D 557
REMARK  4 active torsions:
REMARK  status: ('A' for Active; 'I' for Inactive)
REMARK    1  A    between atoms: CA   and  CB  
REMARK    2  A    between atoms: CB   and  CG  
REMARK    3  A    between atoms: CG   and  CD  
REMARK    4  A    between atoms: CD   and  NE  
REMARK       I    between atoms: NE   and  CZ  
REMARK       I    between atoms: CZ   and  NH1 
REMARK       I    between atoms: CZ   and  NH2 
ROOT
ATOM      1  CA  ARG D 557     -26.217   2.705 -17.014  1.00 35.49     0.159 C 
ENDROOT
BRANCH   1   2
ATOM      2  CB  ARG D 557     -26.789   1.319 -17.183  1.00 35.49     0.034 C 
BRANCH   2   3
ATOM      3  CG  ARG D 557     -28.234   1.226 -17.426  1.00 35.49     0.027 C 
BRANCH   3   4
ATOM      4  CD  ARG D 557     -28.905   0.298 -16.487  1.00 35.49     0.116 C 
BRANCH   4   5
ATOM      5  NE  ARG D 557     -29.313  -0.923 -17.130  1.00 35.49    -0.212 N 
ATOM      6  CZ  ARG D 557     -28.695  -2.080 -17.044  1.00 35.49     0.666 C 
ATOM      7  NH1 ARG D 557     -27.587  -2.242 -16.344  1.00 35.49    -0.235 N 
ATOM      8  NH2 ARG D 557     -29.219  -3.089 -17.677  1.00 35.49    -0.235 N 
ATOM      9  HH  ARG D 557     -27.226  -1.592 -15.918  1.00 35.49     0.174 HD
ATOM     10  HH  ARG D 557     -27.230  -3.020 -16.322  1.00 35.49     0.174 HD
ATOM     11  HH  ARG D 557     -29.939  -2.957 -18.115  1.00 35.49     0.174 HD
ATOM     12  HH  ARG D 557     -28.851  -3.852 -17.642  1.00 35.49     0.174 HD
ATOM     13  HE  ARG D 557     -29.977  -0.893 -17.660  1.00 35.49     0.178 HD
ENDBRANCH   4   5
ENDBRANCH   3   4
ENDBRANCH   2   3
ENDBRANCH   1   2
END_RES ARG D 557
BEGIN_RES GLU D 570
REMARK  3 active torsions:
REMARK  status: ('A' for Active; 'I' for Inactive)
REMARK    5  A    between atoms: CA   and  CB  
REMARK    6  A    between atoms: CB   and  CG  
REMARK    7  A    between atoms: CG   and  CD  
ROOT
ATOM     14  CA  GLU D 570     -18.033  -6.348 -13.375  1.00 32.92     0.160 C 
ENDROOT
BRANCH  14  15
ATOM     15  CB  GLU D 570     -19.500  -6.345 -13.794  1.00 32.92     0.043 C 
BRANCH  15  16
ATOM     16  CG  GLU D 570     -20.441  -5.526 -12.987  1.00 32.92     0.100 C 
BRANCH  16  17
ATOM     17  CD  GLU D 570     -21.733  -5.228 -13.711  1.00 32.92     0.185 C 
ATOM     18  OE1 GLU D 570     -22.319  -4.151 -13.485  1.00 32.92    -0.647 OA
ATOM     19  OE2 GLU D 570     -22.173  -6.088 -14.499  1.00 32.92    -0.647 OA
ENDBRANCH  16  17
ENDBRANCH  15  16
ENDBRANCH  14  15
END_RES GLU D 570
ENDMDL
MODEL 7
REMARK VINA RESULT:      -6.7      1.945      3.767
REMARK  6 active torsions:
REMARK  status: ('A' for Active; 'I' for Inactive)
REMARK    1  A    between atoms: C_2  and  C_4 
REMARK    2  A    between atoms: C_4  and  C_5 
REMARK    3  A    between atoms: C_5  and  C_6 
REMARK    4  A    between atoms: C_6  and  C_7 
REMARK    5  A    between atoms: C_7  and  C_9 
REMARK    6  A    between atoms: C_24  and  O_26 
ROOT
HETATM    1  C   UNL     1     -18.576 -11.309  -4.121  1.00  0.00    -0.002 C 
HETATM    2  C   UNL     1     -18.354  -9.918  -4.748  1.00  0.00     0.006 C 
HETATM    3  C   UNL     1     -18.644  -8.963  -3.594  1.00  0.00     0.010 C 
HETATM    4  C   UNL     1     -18.768  -9.863  -2.335  1.00  0.00     0.023 C 
HETATM    5  C   UNL     1     -17.893 -11.131  -2.710  1.00  0.00    -0.033 C 
HETATM    6  C   UNL     1     -17.965 -12.121  -1.520  1.00  0.00     0.011 C 
HETATM    7  C   UNL     1     -19.227 -12.286  -0.681  1.00  0.00     0.011 C 
HETATM    8  C   UNL     1     -20.447 -11.476  -1.094  1.00  0.00     0.027 C 
HETATM    9  C   UNL     1     -20.221 -10.301  -2.027  1.00  0.00    -0.070 C 
HETATM   10  C   UNL     1     -21.367  -9.869  -2.606  1.00  0.00     0.004 C 
HETATM   11  C   UNL     1     -22.661 -10.137  -2.004  1.00  0.00     0.004 C 
HETATM   12  C   UNL     1     -22.678 -10.419  -0.675  1.00  0.00    -0.069 C 
HETATM   13  C   UNL     1     -21.437 -11.021   0.043  1.00  0.00    -0.013 C 
HETATM   14  C   UNL     1     -20.852  -9.935   0.972  1.00  0.00     0.017 C 
HETATM   15  C   UNL     1     -21.256  -8.509   0.582  1.00  0.00     0.033 C 
HETATM   16  C   UNL     1     -22.807  -8.314   0.570  1.00  0.00     0.122 C 
HETATM   17  C   UNL     1     -23.577  -9.596   0.197  1.00  0.00     0.066 C 
HETATM   18  C   UNL     1     -21.849 -12.262   0.877  1.00  0.00     0.021 C 
HETATM   19  C   UNL     1     -16.373 -10.776  -2.791  1.00  0.00     0.016 C 
ENDROOT
BRANCH   1  20
HETATM   20  C   UNL     1     -18.847 -12.410  -5.159  1.00  0.00    -0.014 C 
HETATM   21  C   UNL     1     -17.859 -12.489  -6.314  1.00  0.00     0.010 C 
BRANCH  20  22
HETATM   22  C   UNL     1     -20.298 -12.050  -5.751  1.00  0.00     0.005 C 
BRANCH  22  23
HETATM   23  C   UNL     1     -21.329 -13.116  -5.498  1.00  0.00     0.001 C 
BRANCH  23  24
HETATM   24  C   UNL     1     -22.280 -12.847  -4.324  1.00  0.00     0.004 C 
BRANCH  24  25
HETATM   25  C   UNL     1     -22.314 -14.099  -3.420  1.00  0.00    -0.023 C 
HETATM   26  C   UNL     1     -20.919 -14.564  -3.016  1.00  0.00     0.009 C 
HETATM   27  C   UNL     1     -23.162 -13.865  -2.169  1.00  0.00     0.009 C 
ENDBRANCH  24  25
ENDBRANCH  23  24
ENDBRANCH  22  23
ENDBRANCH  20  22
ENDBRANCH   1  20
BRANCH  16  28
HETATM   28  O   UNL     1     -23.139  -7.265  -0.352  1.00  0.00    -0.395 OA
HETATM   29  H   UNL     1     -23.967  -7.513  -0.806  1.00  0.00     0.210 HD
ENDBRANCH  16  28
TORSDOF 6
BEGIN_RES ARG D 557
REMARK  4 active torsions:
REMARK  status: ('A' for Active; 'I' for Inactive)
REMARK    1  A    between atoms: CA   and  CB  
REMARK    2  A    between atoms: CB   and  CG  
REMARK    3  A    between atoms: CG   and  CD  
REMARK    4  A    between atoms: CD   and  NE  
REMARK       I    between atoms: NE   and  CZ  
REMARK       I    between atoms: CZ   and  NH1 
REMARK       I    between atoms: CZ   and  NH2 
ROOT
ATOM      1  CA  ARG D 557     -26.217   2.705 -17.014  1.00 35.49     0.159 C 
ENDROOT
BRANCH   1   2
ATOM      2  CB  ARG D 557     -26.789   1.319 -17.183  1.00 35.49     0.034 C 
BRANCH   2   3
ATOM      3  CG  ARG D 557     -25.921   0.196 -16.808  1.00 35.49     0.027 C 
BRANCH   3   4
ATOM      4  CD  ARG D 557     -26.657  -0.872 -16.093  1.00 35.49     0.116 C 
BRANCH   4   5
ATOM      5  NE  ARG D 557     -25.846  -1.511 -15.091  1.00 35.49    -0.212 N 
ATOM      6  CZ  ARG D 557     -25.883  -2.785 -14.770  1.00 35.49     0.666 C 
ATOM      7  NH1 ARG D 557     -26.709  -3.638 -15.348  1.00 35.49    -0.235 N 
ATOM      8  NH2 ARG D 557     -25.060  -3.197 -13.851  1.00 35.49    -0.235 N 
ATOM      9  HH  ARG D 557     -27.258  -3.389 -15.957  1.00 35.49     0.174 HD
ATOM     10  HH  ARG D 557     -26.687  -4.458 -15.100  1.00 35.49     0.174 HD
ATOM     11  HH  ARG D 557     -24.533  -2.626 -13.500  1.00 35.49     0.174 HD
ATOM     12  HH  ARG D 557     -25.052  -4.013 -13.620  1.00 35.49     0.174 HD
ATOM     13  HE  ARG D 557     -25.336  -1.022 -14.618  1.00 35.49     0.178 HD
ENDBRANCH   4   5
ENDBRANCH   3   4
ENDBRANCH   2   3
ENDBRANCH   1   2
END_RES ARG D 557
BEGIN_RES GLU D 570
REMARK  3 active torsions:
REMARK  status: ('A' for Active; 'I' for Inactive)
REMARK    5  A    between atoms: CA   and  CB  
REMARK    6  A    between atoms: CB   and  CG  
REMARK    7  A    between atoms: CG   and  CD  
ROOT
ATOM     14  CA  GLU D 570     -18.033  -6.348 -13.375  1.00 32.92     0.160 C 
ENDROOT
BRANCH  14  15
ATOM     15  CB  GLU D 570     -19.500  -6.345 -13.794  1.00 32.92     0.043 C 
BRANCH  15  16
ATOM     16  CG  GLU D 570     -20.438  -5.511 -12.998  1.00 32.92     0.100 C 
BRANCH  16  17
ATOM     17  CD  GLU D 570     -21.704  -5.169 -13.748  1.00 32.92     0.185 C 
ATOM     18  OE1 GLU D 570     -21.635  -4.908 -14.964  1.00 32.92    -0.647 OA
ATOM     19  OE2 GLU D 570     -22.774  -5.146 -13.108  1.00 32.92    -0.647 OA
ENDBRANCH  16  17
ENDBRANCH  15  16
ENDBRANCH  14  15
END_RES GLU D 570
ENDMDL
MODEL 8
REMARK VINA RESULT:      -6.7      1.838      3.291
REMARK  6 active torsions:
REMARK  status: ('A' for Active; 'I' for Inactive)
REMARK    1  A    between atoms: C_2  and  C_4 
REMARK    2  A    between atoms: C_4  and  C_5 
REMARK    3  A    between atoms: C_5  and  C_6 
REMARK    4  A    between atoms: C_6  and  C_7 
REMARK    5  A    between atoms: C_7  and  C_9 
REMARK    6  A    between atoms: C_24  and  O_26 
ROOT
HETATM    1  C   UNL     1     -19.658 -11.165  -4.126  1.00  0.00    -0.002 C 
HETATM    2  C   UNL     1     -18.798 -12.417  -4.395  1.00  0.00     0.006 C 
HETATM    3  C   UNL     1     -19.667 -13.558  -3.878  1.00  0.00     0.010 C 
HETATM    4  C   UNL     1     -21.050 -12.920  -3.579  1.00  0.00     0.023 C 
HETATM    5  C   UNL     1     -21.090 -11.670  -4.553  1.00  0.00    -0.033 C 
HETATM    6  C   UNL     1     -22.434 -10.934  -4.320  1.00  0.00     0.011 C 
HETATM    7  C   UNL     1     -23.079 -10.847  -2.941  1.00  0.00     0.011 C 
HETATM    8  C   UNL     1     -22.321 -11.468  -1.778  1.00  0.00     0.027 C 
HETATM    9  C   UNL     1     -21.210 -12.448  -2.112  1.00  0.00    -0.070 C 
HETATM   10  C   UNL     1     -20.382 -12.672  -1.064  1.00  0.00     0.004 C 
HETATM   11  C   UNL     1     -20.815 -12.436   0.301  1.00  0.00     0.004 C 
HETATM   12  C   UNL     1     -22.155 -12.423   0.530  1.00  0.00    -0.069 C 
HETATM   13  C   UNL     1     -23.167 -12.067  -0.594  1.00  0.00    -0.013 C 
HETATM   14  C   UNL     1     -23.931 -13.356  -0.971  1.00  0.00     0.017 C 
HETATM   15  C   UNL     1     -23.194 -14.642  -0.583  1.00  0.00     0.033 C 
HETATM   16  C   UNL     1     -22.898 -14.718   0.949  1.00  0.00     0.122 C 
HETATM   17  C   UNL     1     -22.683 -13.335   1.596  1.00  0.00     0.066 C 
HETATM   18  C   UNL     1     -24.166 -10.990  -0.096  1.00  0.00     0.021 C 
HETATM   19  C   UNL     1     -21.177 -12.111  -6.050  1.00  0.00     0.016 C 
ENDROOT
BRANCH   1  20
HETATM   20  C   UNL     1     -18.842  -9.864  -4.076  1.00  0.00    -0.014 C 
HETATM   21  C   UNL     1     -17.520  -9.882  -4.831  1.00  0.00     0.010 C 
BRANCH  20  22
HETATM   22  C   UNL     1     -18.536  -9.644  -2.513  1.00  0.00     0.005 C 
BRANCH  22  23
HETATM   23  C   UNL     1     -19.710  -9.104  -1.743  1.00  0.00     0.001 C 
BRANCH  23  24
HETATM   24  C   UNL     1     -20.553  -8.053  -2.477  1.00  0.00     0.004 C 
BRANCH  24  25
HETATM   25  C   UNL     1     -21.803  -7.739  -1.626  1.00  0.00    -0.023 C 
HETATM   26  C   UNL     1     -21.617  -8.111  -0.160  1.00  0.00     0.009 C 
HETATM   27  C   UNL     1     -22.205  -6.268  -1.739  1.00  0.00     0.009 C 
ENDBRANCH  24  25
ENDBRANCH  23  24
ENDBRANCH  22  23
ENDBRANCH  20  22
ENDBRANCH   1  20
BRANCH  16  28
HETATM   28  O   UNL     1     -21.737 -15.536   1.162  1.00  0.00    -0.395 OA
HETATM   29  H   UNL     1     -22.040 -16.432   1.402  1.00  0.00     0.210 HD
ENDBRANCH  16  28
TORSDOF 6
BEGIN_RES ARG D 557
REMARK  4 active torsions:
REMARK  status: ('A' for Active; 'I' for Inactive)
REMARK    1  A    between atoms: CA   and  CB  
REMARK    2  A    between atoms: CB   and  CG  
REMARK    3  A    between atoms: CG   and  CD  
REMARK    4  A    between atoms: CD   and  NE  
REMARK       I    between atoms: NE   and  CZ  
REMARK       I    between atoms: CZ   and  NH1 
REMARK       I    between atoms: CZ   and  NH2 
ROOT
ATOM      1  CA  ARG D 557     -26.217   2.705 -17.014  1.00 35.49     0.159 C 
ENDROOT
BRANCH   1   2
ATOM      2  CB  ARG D 557     -26.789   1.319 -17.183  1.00 35.49     0.034 C 
BRANCH   2   3
ATOM      3  CG  ARG D 557     -25.839   0.201 -17.129  1.00 35.49     0.027 C 
BRANCH   3   4
ATOM      4  CD  ARG D 557     -24.746   0.436 -16.158  1.00 35.49     0.116 C 
BRANCH   4   5
ATOM      5  NE  ARG D 557     -24.844  -0.430 -15.012  1.00 35.49    -0.212 N 
ATOM      6  CZ  ARG D 557     -23.997  -1.385 -14.697  1.00 35.49     0.666 C 
ATOM      7  NH1 ARG D 557     -22.939  -1.666 -15.434  1.00 35.49    -0.235 N 
ATOM      8  NH2 ARG D 557     -24.231  -2.058 -13.608  1.00 35.49    -0.235 N 
ATOM      9  HH  ARG D 557     -22.765  -1.234 -16.153  1.00 35.49     0.174 HD
ATOM     10  HH  ARG D 557     -22.420  -2.298 -15.177  1.00 35.49     0.174 HD
ATOM     11  HH  ARG D 557     -24.918  -1.850 -13.148  1.00 35.49     0.174 HD
ATOM     12  HH  ARG D 557     -23.705  -2.679 -13.370  1.00 35.49     0.174 HD
ATOM     13  HE  ARG D 557     -25.535  -0.367 -14.521  1.00 35.49     0.178 HD
ENDBRANCH   4   5
ENDBRANCH   3   4
ENDBRANCH   2   3
ENDBRANCH   1   2
END_RES ARG D 557
BEGIN_RES GLU D 570
REMARK  3 active torsions:
REMARK  status: ('A' for Active; 'I' for Inactive)
REMARK    5  A    between atoms: CA   and  CB  
REMARK    6  A    between atoms: CB   and  CG  
REMARK    7  A    between atoms: CG   and  CD  
ROOT
ATOM     14  CA  GLU D 570     -18.033  -6.348 -13.375  1.00 32.92     0.160 C 
ENDROOT
BRANCH  14  15
ATOM     15  CB  GLU D 570     -19.500  -6.345 -13.794  1.00 32.92     0.043 C 
BRANCH  15  16
ATOM     16  CG  GLU D 570     -20.055  -7.605 -14.351  1.00 32.92     0.100 C 
BRANCH  16  17
ATOM     17  CD  GLU D 570     -20.773  -7.403 -15.666  1.00 32.92     0.185 C 
ATOM     18  OE1 GLU D 570     -21.534  -8.297 -16.083  1.00 32.92    -0.647 OA
ATOM     19  OE2 GLU D 570     -20.558  -6.347 -16.292  1.00 32.92    -0.647 OA
ENDBRANCH  16  17
ENDBRANCH  15  16
ENDBRANCH  14  15
END_RES GLU D 570
ENDMDL
MODEL 9
REMARK VINA RESULT:      -6.6     14.252     17.806
REMARK  6 active torsions:
REMARK  status: ('A' for Active; 'I' for Inactive)
REMARK    1  A    between atoms: C_2  and  C_4 
REMARK    2  A    between atoms: C_4  and  C_5 
REMARK    3  A    between atoms: C_5  and  C_6 
REMARK    4  A    between atoms: C_6  and  C_7 
REMARK    5  A    between atoms: C_7  and  C_9 
REMARK    6  A    between atoms: C_24  and  O_26 
ROOT
HETATM    1  C   UNL     1     -23.711   7.787  -3.019  1.00  0.00    -0.002 C 
HETATM    2  C   UNL     1     -22.700   7.194  -2.015  1.00  0.00     0.006 C 
HETATM    3  C   UNL     1     -23.548   6.938  -0.774  1.00  0.00     0.010 C 
HETATM    4  C   UNL     1     -25.017   7.164  -1.223  1.00  0.00     0.023 C 
HETATM    5  C   UNL     1     -24.968   6.865  -2.780  1.00  0.00    -0.033 C 
HETATM    6  C   UNL     1     -26.394   7.087  -3.346  1.00  0.00     0.011 C 
HETATM    7  C   UNL     1     -27.318   8.172  -2.806  1.00  0.00     0.011 C 
HETATM    8  C   UNL     1     -26.765   9.078  -1.717  1.00  0.00     0.027 C 
HETATM    9  C   UNL     1     -25.523   8.608  -0.981  1.00  0.00    -0.070 C 
HETATM   10  C   UNL     1     -24.914   9.606  -0.297  1.00  0.00     0.004 C 
HETATM   11  C   UNL     1     -25.644  10.795   0.106  1.00  0.00     0.004 C 
HETATM   12  C   UNL     1     -26.997  10.693   0.182  1.00  0.00    -0.069 C 
HETATM   13  C   UNL     1     -27.781   9.646  -0.656  1.00  0.00    -0.013 C 
HETATM   14  C   UNL     1     -28.325   8.572   0.312  1.00  0.00     0.017 C 
HETATM   15  C   UNL     1     -27.569   8.506   1.644  1.00  0.00     0.033 C 
HETATM   16  C   UNL     1     -27.594   9.869   2.409  1.00  0.00     0.122 C 
HETATM   17  C   UNL     1     -27.649  11.091   1.471  1.00  0.00     0.066 C 
HETATM   18  C   UNL     1     -28.958  10.326  -1.403  1.00  0.00     0.021 C 
HETATM   19  C   UNL     1     -24.699   5.353  -3.066  1.00  0.00     0.016 C 
ENDROOT
BRANCH   1  20
HETATM   20  C   UNL     1     -23.048   8.593  -4.147  1.00  0.00    -0.014 C 
HETATM   21  C   UNL     1     -21.526   8.602  -4.149  1.00  0.00     0.010 C 
BRANCH  20  22
HETATM   22  C   UNL     1     -23.568  10.098  -3.920  1.00  0.00     0.005 C 
BRANCH  22  23
HETATM   23  C   UNL     1     -24.954  10.339  -4.453  1.00  0.00     0.001 C 
BRANCH  23  24
HETATM   24  C   UNL     1     -25.325   9.541  -5.709  1.00  0.00     0.004 C 
BRANCH  24  25
HETATM   25  C   UNL     1     -26.700  10.029  -6.217  1.00  0.00    -0.023 C 
HETATM   26  C   UNL     1     -27.375  10.985  -5.241  1.00  0.00     0.009 C 
HETATM   27  C   UNL     1     -26.590  10.688  -7.592  1.00  0.00     0.009 C 
ENDBRANCH  24  25
ENDBRANCH  23  24
ENDBRANCH  22  23
ENDBRANCH  20  22
ENDBRANCH   1  20
BRANCH  16  28
HETATM   28  O   UNL     1     -26.432   9.955   3.248  1.00  0.00    -0.395 OA
HETATM   29  H   UNL     1     -26.611  10.617   3.943  1.00  0.00     0.210 HD
ENDBRANCH  16  28
TORSDOF 6
BEGIN_RES ARG D 557
REMARK  4 active torsions:
REMARK  status: ('A' for Active; 'I' for Inactive)
REMARK    1  A    between atoms: CA   and  CB  
REMARK    2  A    between atoms: CB   and  CG  
REMARK    3  A    between atoms: CG   and  CD  
REMARK    4  A    between atoms: CD   and  NE  
REMARK       I    between atoms: NE   and  CZ  
REMARK       I    between atoms: CZ   and  NH1 
REMARK       I    between atoms: CZ   and  NH2 
ROOT
ATOM      1  CA  ARG D 557     -26.217   2.705 -17.014  1.00 35.49     0.159 C 
ENDROOT
BRANCH   1   2
ATOM      2  CB  ARG D 557     -26.789   1.319 -17.183  1.00 35.49     0.034 C 
BRANCH   2   3
ATOM      3  CG  ARG D 557     -25.838   0.202 -17.141  1.00 35.49     0.027 C 
BRANCH   3   4
ATOM      4  CD  ARG D 557     -24.761   0.415 -16.147  1.00 35.49     0.116 C 
BRANCH   4   5
ATOM      5  NE  ARG D 557     -24.911  -0.435 -14.995  1.00 35.49    -0.212 N 
ATOM      6  CZ  ARG D 557     -24.119  -1.432 -14.668  1.00 35.49     0.666 C 
ATOM      7  NH1 ARG D 557     -23.075  -1.778 -15.399  1.00 35.49    -0.235 N 
ATOM      8  NH2 ARG D 557     -24.394  -2.084 -13.576  1.00 35.49    -0.235 N 
ATOM      9  HH  ARG D 557     -22.874  -1.362 -16.121  1.00 35.49     0.174 HD
ATOM     10  HH  ARG D 557     -22.593  -2.435 -15.135  1.00 35.49     0.174 HD
ATOM     11  HH  ARG D 557     -25.070  -1.834 -13.120  1.00 35.49     0.174 HD
ATOM     12  HH  ARG D 557     -23.904  -2.731 -13.330  1.00 35.49     0.174 HD
ATOM     13  HE  ARG D 557     -25.599  -0.330 -14.507  1.00 35.49     0.178 HD
ENDBRANCH   4   5
ENDBRANCH   3   4
ENDBRANCH   2   3
ENDBRANCH   1   2
END_RES ARG D 557
BEGIN_RES GLU D 570
REMARK  3 active torsions:
REMARK  status: ('A' for Active; 'I' for Inactive)
REMARK    5  A    between atoms: CA   and  CB  
REMARK    6  A    between atoms: CB   and  CG  
REMARK    7  A    between atoms: CG   and  CD  
ROOT
ATOM     14  CA  GLU D 570     -18.033  -6.348 -13.375  1.00 32.92     0.160 C 
ENDROOT
BRANCH  14  15
ATOM     15  CB  GLU D 570     -19.500  -6.345 -13.794  1.00 32.92     0.043 C 
BRANCH  15  16
ATOM     16  CG  GLU D 570     -20.448  -5.558 -12.963  1.00 32.92     0.100 C 
BRANCH  16  17
ATOM     17  CD  GLU D 570     -21.718  -5.199 -13.698  1.00 32.92     0.185 C 
ATOM     18  OE1 GLU D 570     -22.302  -4.136 -13.413  1.00 32.92    -0.647 OA
ATOM     19  OE2 GLU D 570     -22.143  -5.998 -14.556  1.00 32.92    -0.647 OA
ENDBRANCH  16  17
ENDBRANCH  15  16
ENDBRANCH  14  15
END_RES GLU D 570
ENDMDL
