MODEL 1
REMARK VINA RESULT:      -1.1      0.000      0.000
REMARK  14 active torsions:
REMARK  status: ('A' for Active; 'I' for Inactive)
REMARK    1  A    between atoms: C_2  and  C_3 
REMARK    2  A    between atoms: C_3  and  C_4 
REMARK    3  A    between atoms: C_4  and  C_5 
REMARK    4  A    between atoms: C_5  and  C_6 
REMARK    5  A    between atoms: C_6  and  C_7 
REMARK    6  A    between atoms: C_7  and  C_8 
REMARK    7  A    between atoms: C_8  and  C_9 
REMARK    8  A    between atoms: C_9  and  C_10 
REMARK    9  A    between atoms: C_10  and  C_11 
REMARK   10  A    between atoms: C_11  and  C_12 
REMARK   11  A    between atoms: C_12  and  C_18 
REMARK   12  A    between atoms: N_16  and  C_18 
REMARK   13  A    between atoms: N_16  and  C_21 
REMARK   14  A    between atoms: C_21  and  C_22 
ROOT
HETATM    1  C   UNL     1     -33.139  -3.323 -11.312  1.00  0.00     0.000 C 
ENDROOT
TORSDOF 14
BEGIN_RES ARG D 557
REMARK  4 active torsions:
REMARK  status: ('A' for Active; 'I' for Inactive)
REMARK    1  A    between atoms: CA   and  CB  
REMARK    2  A    between atoms: CB   and  CG  
REMARK    3  A    between atoms: CG   and  CD  
REMARK    4  A    between atoms: CD   and  NE  
REMARK       I    between atoms: NE   and  CZ  
REMARK       I    between atoms: CZ   and  NH1 
REMARK       I    between atoms: CZ   and  NH2 
ROOT
ATOM      1  CA  ARG D 557     -26.217   2.705 -17.014  1.00 35.49     0.159 C 
ENDROOT
BRANCH   1   2
ATOM      2  CB  ARG D 557     -26.789   1.319 -17.183  1.00 35.49     0.034 C 
BRANCH   2   3
ATOM      3  CG  ARG D 557     -25.834   0.204 -17.175  1.00 35.49     0.027 C 
BRANCH   3   4
ATOM      4  CD  ARG D 557     -24.744   0.402 -16.191  1.00 35.49     0.116 C 
BRANCH   4   5
ATOM      5  NE  ARG D 557     -24.900  -0.438 -15.033  1.00 35.49    -0.212 N 
ATOM      6  CZ  ARG D 557     -24.088  -1.407 -14.673  1.00 35.49     0.666 C 
ATOM      7  NH1 ARG D 557     -23.014  -1.728 -15.370  1.00 35.49    -0.235 N 
ATOM      8  NH2 ARG D 557     -24.372  -2.053 -13.580  1.00 35.49    -0.235 N 
ATOM      9  HH  ARG D 557     -22.806  -1.315 -16.091  1.00 35.49     0.174 HD
ATOM     10  HH  ARG D 557     -22.520  -2.367 -15.085  1.00 35.49     0.174 HD
ATOM     11  HH  ARG D 557     -25.068  -1.819 -13.146  1.00 35.49     0.174 HD
ATOM     12  HH  ARG D 557     -23.870  -2.682 -13.313  1.00 35.49     0.174 HD
ATOM     13  HE  ARG D 557     -25.605  -0.348 -14.566  1.00 35.49     0.178 HD
ENDBRANCH   4   5
ENDBRANCH   3   4
ENDBRANCH   2   3
ENDBRANCH   1   2
END_RES ARG D 557
BEGIN_RES GLU D 570
REMARK  3 active torsions:
REMARK  status: ('A' for Active; 'I' for Inactive)
REMARK    5  A    between atoms: CA   and  CB  
REMARK    6  A    between atoms: CB   and  CG  
REMARK    7  A    between atoms: CG   and  CD  
ROOT
ATOM     14  CA  GLU D 570     -18.033  -6.348 -13.375  1.00 32.92     0.160 C 
ENDROOT
BRANCH  14  15
ATOM     15  CB  GLU D 570     -19.500  -6.345 -13.794  1.00 32.92     0.043 C 
BRANCH  15  16
ATOM     16  CG  GLU D 570     -20.440  -5.524 -12.988  1.00 32.92     0.100 C 
BRANCH  16  17
ATOM     17  CD  GLU D 570     -21.746  -5.256 -13.699  1.00 32.92     0.185 C 
ATOM     18  OE1 GLU D 570     -22.321  -4.165 -13.519  1.00 32.92    -0.647 OA
ATOM     19  OE2 GLU D 570     -22.209  -6.153 -14.431  1.00 32.92    -0.647 OA
ENDBRANCH  16  17
ENDBRANCH  15  16
ENDBRANCH  14  15
END_RES GLU D 570
ENDMDL
MODEL 2
REMARK VINA RESULT:      -0.9      2.964      3.827
REMARK  14 active torsions:
REMARK  status: ('A' for Active; 'I' for Inactive)
REMARK    1  A    between atoms: C_2  and  C_3 
REMARK    2  A    between atoms: C_3  and  C_4 
REMARK    3  A    between atoms: C_4  and  C_5 
REMARK    4  A    between atoms: C_5  and  C_6 
REMARK    5  A    between atoms: C_6  and  C_7 
REMARK    6  A    between atoms: C_7  and  C_8 
REMARK    7  A    between atoms: C_8  and  C_9 
REMARK    8  A    between atoms: C_9  and  C_10 
REMARK    9  A    between atoms: C_10  and  C_11 
REMARK   10  A    between atoms: C_11  and  C_12 
REMARK   11  A    between atoms: C_12  and  C_18 
REMARK   12  A    between atoms: N_16  and  C_18 
REMARK   13  A    between atoms: N_16  and  C_21 
REMARK   14  A    between atoms: C_21  and  C_22 
ROOT
HETATM    1  C   UNL     1     -26.290   6.894 -10.833  1.00  0.00     0.000 C 
ENDROOT
TORSDOF 14
BEGIN_RES ARG D 557
REMARK  4 active torsions:
REMARK  status: ('A' for Active; 'I' for Inactive)
REMARK    1  A    between atoms: CA   and  CB  
REMARK    2  A    between atoms: CB   and  CG  
REMARK    3  A    between atoms: CG   and  CD  
REMARK    4  A    between atoms: CD   and  NE  
REMARK       I    between atoms: NE   and  CZ  
REMARK       I    between atoms: CZ   and  NH1 
REMARK       I    between atoms: CZ   and  NH2 
ROOT
ATOM      1  CA  ARG D 557     -26.217   2.705 -17.014  1.00 35.49     0.159 C 
ENDROOT
BRANCH   1   2
ATOM      2  CB  ARG D 557     -26.789   1.319 -17.183  1.00 35.49     0.034 C 
BRANCH   2   3
ATOM      3  CG  ARG D 557     -25.835   0.204 -17.164  1.00 35.49     0.027 C 
BRANCH   3   4
ATOM      4  CD  ARG D 557     -24.753   0.404 -16.173  1.00 35.49     0.116 C 
BRANCH   4   5
ATOM      5  NE  ARG D 557     -24.908  -0.445 -15.022  1.00 35.49    -0.212 N 
ATOM      6  CZ  ARG D 557     -24.097  -1.418 -14.669  1.00 35.49     0.666 C 
ATOM      7  NH1 ARG D 557     -23.025  -1.736 -15.370  1.00 35.49    -0.235 N 
ATOM      8  NH2 ARG D 557     -24.382  -2.072 -13.581  1.00 35.49    -0.235 N 
ATOM      9  HH  ARG D 557     -22.817  -1.318 -16.089  1.00 35.49     0.174 HD
ATOM     10  HH  ARG D 557     -22.531  -2.378 -15.091  1.00 35.49     0.174 HD
ATOM     11  HH  ARG D 557     -25.076  -1.840 -13.144  1.00 35.49     0.174 HD
ATOM     12  HH  ARG D 557     -23.880  -2.704 -13.319  1.00 35.49     0.174 HD
ATOM     13  HE  ARG D 557     -25.612  -0.358 -14.553  1.00 35.49     0.178 HD
ENDBRANCH   4   5
ENDBRANCH   3   4
ENDBRANCH   2   3
ENDBRANCH   1   2
END_RES ARG D 557
BEGIN_RES GLU D 570
REMARK  3 active torsions:
REMARK  status: ('A' for Active; 'I' for Inactive)
REMARK    5  A    between atoms: CA   and  CB  
REMARK    6  A    between atoms: CB   and  CG  
REMARK    7  A    between atoms: CG   and  CD  
ROOT
ATOM     14  CA  GLU D 570     -18.033  -6.348 -13.375  1.00 32.92     0.160 C 
ENDROOT
BRANCH  14  15
ATOM     15  CB  GLU D 570     -19.500  -6.345 -13.794  1.00 32.92     0.043 C 
BRANCH  15  16
ATOM     16  CG  GLU D 570     -20.441  -5.528 -12.985  1.00 32.92     0.100 C 
BRANCH  16  17
ATOM     17  CD  GLU D 570     -21.746  -5.254 -13.697  1.00 32.92     0.185 C 
ATOM     18  OE1 GLU D 570     -22.210  -6.120 -14.464  1.00 32.92    -0.647 OA
ATOM     19  OE2 GLU D 570     -22.300  -4.155 -13.499  1.00 32.92    -0.647 OA
ENDBRANCH  16  17
ENDBRANCH  15  16
ENDBRANCH  14  15
END_RES GLU D 570
ENDMDL
MODEL 3
REMARK VINA RESULT:      -0.9      3.413      4.458
REMARK  14 active torsions:
REMARK  status: ('A' for Active; 'I' for Inactive)
REMARK    1  A    between atoms: C_2  and  C_3 
REMARK    2  A    between atoms: C_3  and  C_4 
REMARK    3  A    between atoms: C_4  and  C_5 
REMARK    4  A    between atoms: C_5  and  C_6 
REMARK    5  A    between atoms: C_6  and  C_7 
REMARK    6  A    between atoms: C_7  and  C_8 
REMARK    7  A    between atoms: C_8  and  C_9 
REMARK    8  A    between atoms: C_9  and  C_10 
REMARK    9  A    between atoms: C_10  and  C_11 
REMARK   10  A    between atoms: C_11  and  C_12 
REMARK   11  A    between atoms: C_12  and  C_18 
REMARK   12  A    between atoms: N_16  and  C_18 
REMARK   13  A    between atoms: N_16  and  C_21 
REMARK   14  A    between atoms: C_21  and  C_22 
ROOT
HETATM    1  C   UNL     1     -22.185  -6.256  -1.854  1.00  0.00     0.000 C 
ENDROOT
TORSDOF 14
BEGIN_RES ARG D 557
REMARK  4 active torsions:
REMARK  status: ('A' for Active; 'I' for Inactive)
REMARK    1  A    between atoms: CA   and  CB  
REMARK    2  A    between atoms: CB   and  CG  
REMARK    3  A    between atoms: CG   and  CD  
REMARK    4  A    between atoms: CD   and  NE  
REMARK       I    between atoms: NE   and  CZ  
REMARK       I    between atoms: CZ   and  NH1 
REMARK       I    between atoms: CZ   and  NH2 
ROOT
ATOM      1  CA  ARG D 557     -26.217   2.705 -17.014  1.00 35.49     0.159 C 
ENDROOT
BRANCH   1   2
ATOM      2  CB  ARG D 557     -26.789   1.319 -17.183  1.00 35.49     0.034 C 
BRANCH   2   3
ATOM      3  CG  ARG D 557     -25.835   0.204 -17.167  1.00 35.49     0.027 C 
BRANCH   3   4
ATOM      4  CD  ARG D 557     -24.771   0.386 -16.153  1.00 35.49     0.116 C 
BRANCH   4   5
ATOM      5  NE  ARG D 557     -24.952  -0.477 -15.015  1.00 35.49    -0.212 N 
ATOM      6  CZ  ARG D 557     -24.147  -1.450 -14.653  1.00 35.49     0.666 C 
ATOM      7  NH1 ARG D 557     -23.055  -1.755 -15.330  1.00 35.49    -0.235 N 
ATOM      8  NH2 ARG D 557     -24.456  -2.118 -13.580  1.00 35.49    -0.235 N 
ATOM      9  HH  ARG D 557     -22.831  -1.328 -16.038  1.00 35.49     0.174 HD
ATOM     10  HH  ARG D 557     -22.566  -2.399 -15.045  1.00 35.49     0.174 HD
ATOM     11  HH  ARG D 557     -25.163  -1.893 -13.159  1.00 35.49     0.174 HD
ATOM     12  HH  ARG D 557     -23.959  -2.750 -13.313  1.00 35.49     0.174 HD
ATOM     13  HE  ARG D 557     -25.669  -0.398 -14.564  1.00 35.49     0.178 HD
ENDBRANCH   4   5
ENDBRANCH   3   4
ENDBRANCH   2   3
ENDBRANCH   1   2
END_RES ARG D 557
BEGIN_RES GLU D 570
REMARK  3 active torsions:
REMARK  status: ('A' for Active; 'I' for Inactive)
REMARK    5  A    between atoms: CA   and  CB  
REMARK    6  A    between atoms: CB   and  CG  
REMARK    7  A    between atoms: CG   and  CD  
ROOT
ATOM     14  CA  GLU D 570     -18.033  -6.348 -13.375  1.00 32.92     0.160 C 
ENDROOT
BRANCH  14  15
ATOM     15  CB  GLU D 570     -19.500  -6.345 -13.794  1.00 32.92     0.043 C 
BRANCH  15  16
ATOM     16  CG  GLU D 570     -20.441  -5.526 -12.986  1.00 32.92     0.100 C 
BRANCH  16  17
ATOM     17  CD  GLU D 570     -21.654  -5.079 -13.769  1.00 32.92     0.185 C 
ATOM     18  OE1 GLU D 570     -22.347  -4.143 -13.327  1.00 32.92    -0.647 OA
ATOM     19  OE2 GLU D 570     -21.923  -5.683 -14.826  1.00 32.92    -0.647 OA
ENDBRANCH  16  17
ENDBRANCH  15  16
ENDBRANCH  14  15
END_RES GLU D 570
ENDMDL
MODEL 4
REMARK VINA RESULT:      -0.9      4.568      4.963
REMARK  14 active torsions:
REMARK  status: ('A' for Active; 'I' for Inactive)
REMARK    1  A    between atoms: C_2  and  C_3 
REMARK    2  A    between atoms: C_3  and  C_4 
REMARK    3  A    between atoms: C_4  and  C_5 
REMARK    4  A    between atoms: C_5  and  C_6 
REMARK    5  A    between atoms: C_6  and  C_7 
REMARK    6  A    between atoms: C_7  and  C_8 
REMARK    7  A    between atoms: C_8  and  C_9 
REMARK    8  A    between atoms: C_9  and  C_10 
REMARK    9  A    between atoms: C_10  and  C_11 
REMARK   10  A    between atoms: C_11  and  C_12 
REMARK   11  A    between atoms: C_12  and  C_18 
REMARK   12  A    between atoms: N_16  and  C_18 
REMARK   13  A    between atoms: N_16  and  C_21 
REMARK   14  A    between atoms: C_21  and  C_22 
ROOT
HETATM    1  C   UNL     1     -23.856   6.098  -1.514  1.00  0.00     0.000 C 
ENDROOT
TORSDOF 14
BEGIN_RES ARG D 557
REMARK  4 active torsions:
REMARK  status: ('A' for Active; 'I' for Inactive)
REMARK    1  A    between atoms: CA   and  CB  
REMARK    2  A    between atoms: CB   and  CG  
REMARK    3  A    between atoms: CG   and  CD  
REMARK    4  A    between atoms: CD   and  NE  
REMARK       I    between atoms: NE   and  CZ  
REMARK       I    between atoms: CZ   and  NH1 
REMARK       I    between atoms: CZ   and  NH2 
ROOT
ATOM      1  CA  ARG D 557     -26.217   2.705 -17.014  1.00 35.49     0.159 C 
ENDROOT
BRANCH   1   2
ATOM      2  CB  ARG D 557     -26.789   1.319 -17.183  1.00 35.49     0.034 C 
BRANCH   2   3
ATOM      3  CG  ARG D 557     -25.835   0.204 -17.163  1.00 35.49     0.027 C 
BRANCH   3   4
ATOM      4  CD  ARG D 557     -24.751   0.406 -16.175  1.00 35.49     0.116 C 
BRANCH   4   5
ATOM      5  NE  ARG D 557     -24.904  -0.440 -15.021  1.00 35.49    -0.212 N 
ATOM      6  CZ  ARG D 557     -24.094  -1.413 -14.669  1.00 35.49     0.666 C 
ATOM      7  NH1 ARG D 557     -23.024  -1.735 -15.372  1.00 35.49    -0.235 N 
ATOM      8  NH2 ARG D 557     -24.376  -2.064 -13.578  1.00 35.49    -0.235 N 
ATOM      9  HH  ARG D 557     -22.818  -1.319 -16.092  1.00 35.49     0.174 HD
ATOM     10  HH  ARG D 557     -22.531  -2.377 -15.093  1.00 35.49     0.174 HD
ATOM     11  HH  ARG D 557     -25.069  -1.830 -13.140  1.00 35.49     0.174 HD
ATOM     12  HH  ARG D 557     -23.875  -2.696 -13.316  1.00 35.49     0.174 HD
ATOM     13  HE  ARG D 557     -25.607  -0.350 -14.550  1.00 35.49     0.178 HD
ENDBRANCH   4   5
ENDBRANCH   3   4
ENDBRANCH   2   3
ENDBRANCH   1   2
END_RES ARG D 557
BEGIN_RES GLU D 570
REMARK  3 active torsions:
REMARK  status: ('A' for Active; 'I' for Inactive)
REMARK    5  A    between atoms: CA   and  CB  
REMARK    6  A    between atoms: CB   and  CG  
REMARK    7  A    between atoms: CG   and  CD  
ROOT
ATOM     14  CA  GLU D 570     -18.033  -6.348 -13.375  1.00 32.92     0.160 C 
ENDROOT
BRANCH  14  15
ATOM     15  CB  GLU D 570     -19.500  -6.345 -13.794  1.00 32.92     0.043 C 
BRANCH  15  16
ATOM     16  CG  GLU D 570     -20.439  -5.518 -12.993  1.00 32.92     0.100 C 
BRANCH  16  17
ATOM     17  CD  GLU D 570     -21.742  -5.247 -13.707  1.00 32.92     0.185 C 
ATOM     18  OE1 GLU D 570     -22.312  -4.153 -13.532  1.00 32.92    -0.647 OA
ATOM     19  OE2 GLU D 570     -22.207  -6.144 -14.438  1.00 32.92    -0.647 OA
ENDBRANCH  16  17
ENDBRANCH  15  16
ENDBRANCH  14  15
END_RES GLU D 570
ENDMDL
MODEL 5
REMARK VINA RESULT:      -0.9      7.508      8.765
REMARK  14 active torsions:
REMARK  status: ('A' for Active; 'I' for Inactive)
REMARK    1  A    between atoms: C_2  and  C_3 
REMARK    2  A    between atoms: C_3  and  C_4 
REMARK    3  A    between atoms: C_4  and  C_5 
REMARK    4  A    between atoms: C_5  and  C_6 
REMARK    5  A    between atoms: C_6  and  C_7 
REMARK    6  A    between atoms: C_7  and  C_8 
REMARK    7  A    between atoms: C_8  and  C_9 
REMARK    8  A    between atoms: C_9  and  C_10 
REMARK    9  A    between atoms: C_10  and  C_11 
REMARK   10  A    between atoms: C_11  and  C_12 
REMARK   11  A    between atoms: C_12  and  C_18 
REMARK   12  A    between atoms: N_16  and  C_18 
REMARK   13  A    between atoms: N_16  and  C_21 
REMARK   14  A    between atoms: C_21  and  C_22 
ROOT
HETATM    1  C   UNL     1     -13.220   9.031   5.882  1.00  0.00     0.000 C 
ENDROOT
TORSDOF 14
BEGIN_RES ARG D 557
REMARK  4 active torsions:
REMARK  status: ('A' for Active; 'I' for Inactive)
REMARK    1  A    between atoms: CA   and  CB  
REMARK    2  A    between atoms: CB   and  CG  
REMARK    3  A    between atoms: CG   and  CD  
REMARK    4  A    between atoms: CD   and  NE  
REMARK       I    between atoms: NE   and  CZ  
REMARK       I    between atoms: CZ   and  NH1 
REMARK       I    between atoms: CZ   and  NH2 
ROOT
ATOM      1  CA  ARG D 557     -26.217   2.705 -17.014  1.00 35.49     0.159 C 
ENDROOT
BRANCH   1   2
ATOM      2  CB  ARG D 557     -26.789   1.319 -17.183  1.00 35.49     0.034 C 
BRANCH   2   3
ATOM      3  CG  ARG D 557     -25.834   0.204 -17.174  1.00 35.49     0.027 C 
BRANCH   3   4
ATOM      4  CD  ARG D 557     -24.748   0.400 -16.186  1.00 35.49     0.116 C 
BRANCH   4   5
ATOM      5  NE  ARG D 557     -24.909  -0.441 -15.029  1.00 35.49    -0.212 N 
ATOM      6  CZ  ARG D 557     -24.104  -1.415 -14.669  1.00 35.49     0.666 C 
ATOM      7  NH1 ARG D 557     -23.033  -1.744 -15.367  1.00 35.49    -0.235 N 
ATOM      8  NH2 ARG D 557     -24.394  -2.061 -13.577  1.00 35.49    -0.235 N 
ATOM      9  HH  ARG D 557     -22.822  -1.331 -16.088  1.00 35.49     0.174 HD
ATOM     10  HH  ARG D 557     -22.543  -2.387 -15.082  1.00 35.49     0.174 HD
ATOM     11  HH  ARG D 557     -25.088  -1.822 -13.143  1.00 35.49     0.174 HD
ATOM     12  HH  ARG D 557     -23.896  -2.693 -13.311  1.00 35.49     0.174 HD
ATOM     13  HE  ARG D 557     -25.614  -0.346 -14.562  1.00 35.49     0.178 HD
ENDBRANCH   4   5
ENDBRANCH   3   4
ENDBRANCH   2   3
ENDBRANCH   1   2
END_RES ARG D 557
BEGIN_RES GLU D 570
REMARK  3 active torsions:
REMARK  status: ('A' for Active; 'I' for Inactive)
REMARK    5  A    between atoms: CA   and  CB  
REMARK    6  A    between atoms: CB   and  CG  
REMARK    7  A    between atoms: CG   and  CD  
ROOT
ATOM     14  CA  GLU D 570     -18.033  -6.348 -13.375  1.00 32.92     0.160 C 
ENDROOT
BRANCH  14  15
ATOM     15  CB  GLU D 570     -19.500  -6.345 -13.794  1.00 32.92     0.043 C 
BRANCH  15  16
ATOM     16  CG  GLU D 570     -20.435  -5.500 -13.007  1.00 32.92     0.100 C 
BRANCH  16  17
ATOM     17  CD  GLU D 570     -21.732  -5.223 -13.732  1.00 32.92     0.185 C 
ATOM     18  OE1 GLU D 570     -22.317  -4.142 -13.534  1.00 32.92    -0.647 OA
ATOM     19  OE2 GLU D 570     -22.175  -6.105 -14.494  1.00 32.92    -0.647 OA
ENDBRANCH  16  17
ENDBRANCH  15  16
ENDBRANCH  14  15
END_RES GLU D 570
ENDMDL
MODEL 6
REMARK VINA RESULT:      -0.8      6.280      7.617
REMARK  14 active torsions:
REMARK  status: ('A' for Active; 'I' for Inactive)
REMARK    1  A    between atoms: C_2  and  C_3 
REMARK    2  A    between atoms: C_3  and  C_4 
REMARK    3  A    between atoms: C_4  and  C_5 
REMARK    4  A    between atoms: C_5  and  C_6 
REMARK    5  A    between atoms: C_6  and  C_7 
REMARK    6  A    between atoms: C_7  and  C_8 
REMARK    7  A    between atoms: C_8  and  C_9 
REMARK    8  A    between atoms: C_9  and  C_10 
REMARK    9  A    between atoms: C_10  and  C_11 
REMARK   10  A    between atoms: C_11  and  C_12 
REMARK   11  A    between atoms: C_12  and  C_18 
REMARK   12  A    between atoms: N_16  and  C_18 
REMARK   13  A    between atoms: N_16  and  C_21 
REMARK   14  A    between atoms: C_21  and  C_22 
ROOT
HETATM    1  C   UNL     1     -14.750   7.985   1.808  1.00  0.00     0.000 C 
ENDROOT
TORSDOF 14
BEGIN_RES ARG D 557
REMARK  4 active torsions:
REMARK  status: ('A' for Active; 'I' for Inactive)
REMARK    1  A    between atoms: CA   and  CB  
REMARK    2  A    between atoms: CB   and  CG  
REMARK    3  A    between atoms: CG   and  CD  
REMARK    4  A    between atoms: CD   and  NE  
REMARK       I    between atoms: NE   and  CZ  
REMARK       I    between atoms: CZ   and  NH1 
REMARK       I    between atoms: CZ   and  NH2 
ROOT
ATOM      1  CA  ARG D 557     -26.217   2.705 -17.014  1.00 35.49     0.159 C 
ENDROOT
BRANCH   1   2
ATOM      2  CB  ARG D 557     -26.789   1.319 -17.183  1.00 35.49     0.034 C 
BRANCH   2   3
ATOM      3  CG  ARG D 557     -25.835   0.203 -17.161  1.00 35.49     0.027 C 
BRANCH   3   4
ATOM      4  CD  ARG D 557     -24.750   0.408 -16.174  1.00 35.49     0.116 C 
BRANCH   4   5
ATOM      5  NE  ARG D 557     -24.898  -0.440 -15.021  1.00 35.49    -0.212 N 
ATOM      6  CZ  ARG D 557     -24.082  -1.408 -14.670  1.00 35.49     0.666 C 
ATOM      7  NH1 ARG D 557     -23.011  -1.723 -15.374  1.00 35.49    -0.235 N 
ATOM      8  NH2 ARG D 557     -24.360  -2.062 -13.579  1.00 35.49    -0.235 N 
ATOM      9  HH  ARG D 557     -22.807  -1.305 -16.093  1.00 35.49     0.174 HD
ATOM     10  HH  ARG D 557     -22.514  -2.362 -15.094  1.00 35.49     0.174 HD
ATOM     11  HH  ARG D 557     -25.055  -1.832 -13.141  1.00 35.49     0.174 HD
ATOM     12  HH  ARG D 557     -23.855  -2.691 -13.319  1.00 35.49     0.174 HD
ATOM     13  HE  ARG D 557     -25.601  -0.354 -14.550  1.00 35.49     0.178 HD
ENDBRANCH   4   5
ENDBRANCH   3   4
ENDBRANCH   2   3
ENDBRANCH   1   2
END_RES ARG D 557
BEGIN_RES GLU D 570
REMARK  3 active torsions:
REMARK  status: ('A' for Active; 'I' for Inactive)
REMARK    5  A    between atoms: CA   and  CB  
REMARK    6  A    between atoms: CB   and  CG  
REMARK    7  A    between atoms: CG   and  CD  
ROOT
ATOM     14  CA  GLU D 570     -18.033  -6.348 -13.375  1.00 32.92     0.160 C 
ENDROOT
BRANCH  14  15
ATOM     15  CB  GLU D 570     -19.500  -6.345 -13.794  1.00 32.92     0.043 C 
BRANCH  15  16
ATOM     16  CG  GLU D 570     -20.445  -5.545 -12.972  1.00 32.92     0.100 C 
BRANCH  16  17
ATOM     17  CD  GLU D 570     -21.738  -5.239 -13.692  1.00 32.92     0.185 C 
ATOM     18  OE1 GLU D 570     -22.274  -4.127 -13.525  1.00 32.92    -0.647 OA
ATOM     19  OE2 GLU D 570     -22.228  -6.126 -14.418  1.00 32.92    -0.647 OA
ENDBRANCH  16  17
ENDBRANCH  15  16
ENDBRANCH  14  15
END_RES GLU D 570
ENDMDL
MODEL 7
REMARK VINA RESULT:      -0.8      2.697      2.879
REMARK  14 active torsions:
REMARK  status: ('A' for Active; 'I' for Inactive)
REMARK    1  A    between atoms: C_2  and  C_3 
REMARK    2  A    between atoms: C_3  and  C_4 
REMARK    3  A    between atoms: C_4  and  C_5 
REMARK    4  A    between atoms: C_5  and  C_6 
REMARK    5  A    between atoms: C_6  and  C_7 
REMARK    6  A    between atoms: C_7  and  C_8 
REMARK    7  A    between atoms: C_8  and  C_9 
REMARK    8  A    between atoms: C_9  and  C_10 
REMARK    9  A    between atoms: C_10  and  C_11 
REMARK   10  A    between atoms: C_11  and  C_12 
REMARK   11  A    between atoms: C_12  and  C_18 
REMARK   12  A    between atoms: N_16  and  C_18 
REMARK   13  A    between atoms: N_16  and  C_21 
REMARK   14  A    between atoms: C_21  and  C_22 
ROOT
HETATM    1  C   UNL     1     -37.148   0.665  -5.257  1.00  0.00     0.000 C 
ENDROOT
TORSDOF 14
BEGIN_RES ARG D 557
REMARK  4 active torsions:
REMARK  status: ('A' for Active; 'I' for Inactive)
REMARK    1  A    between atoms: CA   and  CB  
REMARK    2  A    between atoms: CB   and  CG  
REMARK    3  A    between atoms: CG   and  CD  
REMARK    4  A    between atoms: CD   and  NE  
REMARK       I    between atoms: NE   and  CZ  
REMARK       I    between atoms: CZ   and  NH1 
REMARK       I    between atoms: CZ   and  NH2 
ROOT
ATOM      1  CA  ARG D 557     -26.217   2.705 -17.014  1.00 35.49     0.159 C 
ENDROOT
BRANCH   1   2
ATOM      2  CB  ARG D 557     -26.789   1.319 -17.183  1.00 35.49     0.034 C 
BRANCH   2   3
ATOM      3  CG  ARG D 557     -25.864   0.195 -16.993  1.00 35.49     0.027 C 
BRANCH   3   4
ATOM      4  CD  ARG D 557     -26.298  -0.716 -15.909  1.00 35.49     0.116 C 
BRANCH   4   5
ATOM      5  NE  ARG D 557     -25.260  -0.932 -14.935  1.00 35.49    -0.212 N 
ATOM      6  CZ  ARG D 557     -24.983  -2.075 -14.348  1.00 35.49     0.666 C 
ATOM      7  NH1 ARG D 557     -25.664  -3.180 -14.591  1.00 35.49    -0.235 N 
ATOM      8  NH2 ARG D 557     -23.992  -2.092 -13.505  1.00 35.49    -0.235 N 
ATOM      9  HH  ARG D 557     -26.318  -3.192 -15.144  1.00 35.49     0.174 HD
ATOM     10  HH  ARG D 557     -25.436  -3.896 -14.181  1.00 35.49     0.174 HD
ATOM     11  HH  ARG D 557     -23.566  -1.365 -13.373  1.00 35.49     0.174 HD
ATOM     12  HH  ARG D 557     -23.782  -2.812 -13.109  1.00 35.49     0.174 HD
ATOM     13  HE  ARG D 557     -24.819  -0.257 -14.665  1.00 35.49     0.178 HD
ENDBRANCH   4   5
ENDBRANCH   3   4
ENDBRANCH   2   3
ENDBRANCH   1   2
END_RES ARG D 557
BEGIN_RES GLU D 570
REMARK  3 active torsions:
REMARK  status: ('A' for Active; 'I' for Inactive)
REMARK    5  A    between atoms: CA   and  CB  
REMARK    6  A    between atoms: CB   and  CG  
REMARK    7  A    between atoms: CG   and  CD  
ROOT
ATOM     14  CA  GLU D 570     -18.033  -6.348 -13.375  1.00 32.92     0.160 C 
ENDROOT
BRANCH  14  15
ATOM     15  CB  GLU D 570     -19.500  -6.345 -13.794  1.00 32.92     0.043 C 
BRANCH  15  16
ATOM     16  CG  GLU D 570     -20.449  -5.567 -12.957  1.00 32.92     0.100 C 
BRANCH  16  17
ATOM     17  CD  GLU D 570     -21.668  -5.106 -13.722  1.00 32.92     0.185 C 
ATOM     18  OE1 GLU D 570     -21.600  -4.999 -14.961  1.00 32.92    -0.647 OA
ATOM     19  OE2 GLU D 570     -22.697  -4.832 -13.073  1.00 32.92    -0.647 OA
ENDBRANCH  16  17
ENDBRANCH  15  16
ENDBRANCH  14  15
END_RES GLU D 570
ENDMDL
MODEL 8
REMARK VINA RESULT:      -0.8      2.967      3.517
REMARK  14 active torsions:
REMARK  status: ('A' for Active; 'I' for Inactive)
REMARK    1  A    between atoms: C_2  and  C_3 
REMARK    2  A    between atoms: C_3  and  C_4 
REMARK    3  A    between atoms: C_4  and  C_5 
REMARK    4  A    between atoms: C_5  and  C_6 
REMARK    5  A    between atoms: C_6  and  C_7 
REMARK    6  A    between atoms: C_7  and  C_8 
REMARK    7  A    between atoms: C_8  and  C_9 
REMARK    8  A    between atoms: C_9  and  C_10 
REMARK    9  A    between atoms: C_10  and  C_11 
REMARK   10  A    between atoms: C_11  and  C_12 
REMARK   11  A    between atoms: C_12  and  C_18 
REMARK   12  A    between atoms: N_16  and  C_18 
REMARK   13  A    between atoms: N_16  and  C_21 
REMARK   14  A    between atoms: C_21  and  C_22 
ROOT
HETATM    1  C   UNL     1     -22.002  -3.998  -9.906  1.00  0.00     0.000 C 
ENDROOT
TORSDOF 14
BEGIN_RES ARG D 557
REMARK  4 active torsions:
REMARK  status: ('A' for Active; 'I' for Inactive)
REMARK    1  A    between atoms: CA   and  CB  
REMARK    2  A    between atoms: CB   and  CG  
REMARK    3  A    between atoms: CG   and  CD  
REMARK    4  A    between atoms: CD   and  NE  
REMARK       I    between atoms: NE   and  CZ  
REMARK       I    between atoms: CZ   and  NH1 
REMARK       I    between atoms: CZ   and  NH2 
ROOT
ATOM      1  CA  ARG D 557     -26.217   2.705 -17.014  1.00 35.49     0.159 C 
ENDROOT
BRANCH   1   2
ATOM      2  CB  ARG D 557     -26.789   1.319 -17.183  1.00 35.49     0.034 C 
BRANCH   2   3
ATOM      3  CG  ARG D 557     -25.836   0.203 -17.152  1.00 35.49     0.027 C 
BRANCH   3   4
ATOM      4  CD  ARG D 557     -24.755   0.411 -16.162  1.00 35.49     0.116 C 
BRANCH   4   5
ATOM      5  NE  ARG D 557     -24.902  -0.442 -15.012  1.00 35.49    -0.212 N 
ATOM      6  CZ  ARG D 557     -24.086  -1.413 -14.666  1.00 35.49     0.666 C 
ATOM      7  NH1 ARG D 557     -23.015  -1.725 -15.373  1.00 35.49    -0.235 N 
ATOM      8  NH2 ARG D 557     -24.363  -2.071 -13.578  1.00 35.49    -0.235 N 
ATOM      9  HH  ARG D 557     -22.813  -1.303 -16.091  1.00 35.49     0.174 HD
ATOM     10  HH  ARG D 557     -22.518  -2.366 -15.097  1.00 35.49     0.174 HD
ATOM     11  HH  ARG D 557     -25.056  -1.842 -13.138  1.00 35.49     0.174 HD
ATOM     12  HH  ARG D 557     -23.857  -2.701 -13.321  1.00 35.49     0.174 HD
ATOM     13  HE  ARG D 557     -25.604  -0.358 -14.540  1.00 35.49     0.178 HD
ENDBRANCH   4   5
ENDBRANCH   3   4
ENDBRANCH   2   3
ENDBRANCH   1   2
END_RES ARG D 557
BEGIN_RES GLU D 570
REMARK  3 active torsions:
REMARK  status: ('A' for Active; 'I' for Inactive)
REMARK    5  A    between atoms: CA   and  CB  
REMARK    6  A    between atoms: CB   and  CG  
REMARK    7  A    between atoms: CG   and  CD  
ROOT
ATOM     14  CA  GLU D 570     -18.033  -6.348 -13.375  1.00 32.92     0.160 C 
ENDROOT
BRANCH  14  15
ATOM     15  CB  GLU D 570     -19.500  -6.345 -13.794  1.00 32.92     0.043 C 
BRANCH  15  16
ATOM     16  CG  GLU D 570     -20.442  -5.533 -12.982  1.00 32.92     0.100 C 
BRANCH  16  17
ATOM     17  CD  GLU D 570     -21.746  -5.255 -13.693  1.00 32.92     0.185 C 
ATOM     18  OE1 GLU D 570     -22.230  -6.133 -14.434  1.00 32.92    -0.647 OA
ATOM     19  OE2 GLU D 570     -22.280  -4.141 -13.522  1.00 32.92    -0.647 OA
ENDBRANCH  16  17
ENDBRANCH  15  16
ENDBRANCH  14  15
END_RES GLU D 570
ENDMDL
MODEL 9
REMARK VINA RESULT:      -0.7      5.799      8.473
REMARK  14 active torsions:
REMARK  status: ('A' for Active; 'I' for Inactive)
REMARK    1  A    between atoms: C_2  and  C_3 
REMARK    2  A    between atoms: C_3  and  C_4 
REMARK    3  A    between atoms: C_4  and  C_5 
REMARK    4  A    between atoms: C_5  and  C_6 
REMARK    5  A    between atoms: C_6  and  C_7 
REMARK    6  A    between atoms: C_7  and  C_8 
REMARK    7  A    between atoms: C_8  and  C_9 
REMARK    8  A    between atoms: C_9  and  C_10 
REMARK    9  A    between atoms: C_10  and  C_11 
REMARK   10  A    between atoms: C_11  and  C_12 
REMARK   11  A    between atoms: C_12  and  C_18 
REMARK   12  A    between atoms: N_16  and  C_18 
REMARK   13  A    between atoms: N_16  and  C_21 
REMARK   14  A    between atoms: C_21  and  C_22 
ROOT
HETATM    1  C   UNL     1      -9.981 -13.033   1.300  1.00  0.00     0.000 C 
ENDROOT
TORSDOF 14
BEGIN_RES ARG D 557
REMARK  4 active torsions:
REMARK  status: ('A' for Active; 'I' for Inactive)
REMARK    1  A    between atoms: CA   and  CB  
REMARK    2  A    between atoms: CB   and  CG  
REMARK    3  A    between atoms: CG   and  CD  
REMARK    4  A    between atoms: CD   and  NE  
REMARK       I    between atoms: NE   and  CZ  
REMARK       I    between atoms: CZ   and  NH1 
REMARK       I    between atoms: CZ   and  NH2 
ROOT
ATOM      1  CA  ARG D 557     -26.217   2.705 -17.014  1.00 35.49     0.159 C 
ENDROOT
BRANCH   1   2
ATOM      2  CB  ARG D 557     -26.789   1.319 -17.183  1.00 35.49     0.034 C 
BRANCH   2   3
ATOM      3  CG  ARG D 557     -25.834   0.204 -17.172  1.00 35.49     0.027 C 
BRANCH   3   4
ATOM      4  CD  ARG D 557     -24.746   0.403 -16.187  1.00 35.49     0.116 C 
BRANCH   4   5
ATOM      5  NE  ARG D 557     -24.903  -0.436 -15.029  1.00 35.49    -0.212 N 
ATOM      6  CZ  ARG D 557     -24.096  -1.410 -14.670  1.00 35.49     0.666 C 
ATOM      7  NH1 ARG D 557     -23.026  -1.738 -15.371  1.00 35.49    -0.235 N 
ATOM      8  NH2 ARG D 557     -24.382  -2.054 -13.576  1.00 35.49    -0.235 N 
ATOM      9  HH  ARG D 557     -22.818  -1.326 -16.093  1.00 35.49     0.174 HD
ATOM     10  HH  ARG D 557     -22.535  -2.380 -15.087  1.00 35.49     0.174 HD
ATOM     11  HH  ARG D 557     -25.075  -1.815 -13.140  1.00 35.49     0.174 HD
ATOM     12  HH  ARG D 557     -23.882  -2.686 -13.311  1.00 35.49     0.174 HD
ATOM     13  HE  ARG D 557     -25.606  -0.342 -14.560  1.00 35.49     0.178 HD
ENDBRANCH   4   5
ENDBRANCH   3   4
ENDBRANCH   2   3
ENDBRANCH   1   2
END_RES ARG D 557
BEGIN_RES GLU D 570
REMARK  3 active torsions:
REMARK  status: ('A' for Active; 'I' for Inactive)
REMARK    5  A    between atoms: CA   and  CB  
REMARK    6  A    between atoms: CB   and  CG  
REMARK    7  A    between atoms: CG   and  CD  
ROOT
ATOM     14  CA  GLU D 570     -18.033  -6.348 -13.375  1.00 32.92     0.160 C 
ENDROOT
BRANCH  14  15
ATOM     15  CB  GLU D 570     -19.500  -6.345 -13.794  1.00 32.92     0.043 C 
BRANCH  15  16
ATOM     16  CG  GLU D 570     -20.441  -5.527 -12.986  1.00 32.92     0.100 C 
BRANCH  16  17
ATOM     17  CD  GLU D 570     -21.741  -5.244 -13.703  1.00 32.92     0.185 C 
ATOM     18  OE1 GLU D 570     -22.321  -4.160 -13.498  1.00 32.92    -0.647 OA
ATOM     19  OE2 GLU D 570     -22.191  -6.122 -14.465  1.00 32.92    -0.647 OA
ENDBRANCH  16  17
ENDBRANCH  15  16
ENDBRANCH  14  15
END_RES GLU D 570
ENDMDL
