MODEL 1
REMARK VINA RESULT:      -6.8      0.000      0.000
REMARK  14 active torsions:
REMARK  status: ('A' for Active; 'I' for Inactive)
REMARK    1  A    between atoms: C_2  and  C_3 
REMARK    2  A    between atoms: C_3  and  C_4 
REMARK    3  A    between atoms: C_4  and  C_5 
REMARK    4  A    between atoms: C_5  and  C_6 
REMARK    5  A    between atoms: C_6  and  C_7 
REMARK    6  A    between atoms: C_7  and  C_8 
REMARK    7  A    between atoms: C_8  and  C_9 
REMARK    8  A    between atoms: C_9  and  C_10 
REMARK    9  A    between atoms: C_9  and  C_16 
REMARK   10  A    between atoms: C_10  and  C_11 
REMARK   11  A    between atoms: C_11  and  C_12 
REMARK   12  A    between atoms: C_12  and  C_13 
REMARK   13  A    between atoms: C_13  and  C_14 
REMARK   14  A    between atoms: C_16  and  O_17 
ROOT
HETATM    1  C   UNL     1     -34.778  -1.254 -11.656  1.00  0.00     0.009 C 
ENDROOT
BRANCH   1   2
HETATM    2  C   UNL     1     -36.024  -1.400 -10.740  1.00  0.00     0.007 C 
BRANCH   2   3
HETATM    3  C   UNL     1     -37.098  -0.345 -10.997  1.00  0.00     0.000 C 
BRANCH   3   4
HETATM    4  C   UNL     1     -37.613   0.337  -9.726  1.00  0.00     0.000 C 
BRANCH   4   5
HETATM    5  C   UNL     1     -36.876  -0.258  -8.523  1.00  0.00     0.000 C 
BRANCH   5   6
HETATM    6  C   UNL     1     -36.546   0.784  -7.461  1.00  0.00     0.000 C 
BRANCH   6   7
HETATM    7  C   UNL     1     -37.670   0.877  -6.426  1.00  0.00    -0.000 C 
BRANCH   7   8
HETATM    8  C   UNL     1     -37.126   0.681  -5.017  1.00  0.00    -0.005 C 
HETATM    9  C   UNL     1     -37.819  -0.471  -4.306  1.00  0.00     0.005 C 
ENDBRANCH   7   8
ENDBRANCH   6   7
ENDBRANCH   5   6
ENDBRANCH   4   5
ENDBRANCH   3   4
ENDBRANCH   2   3
ENDBRANCH   1   2
BRANCH   1  10
HETATM   10  C   UNL     1     -33.624  -2.216 -11.280  1.00  0.00     0.007 C 
BRANCH  10  11
HETATM   11  C   UNL     1     -34.075  -3.524 -10.595  1.00  0.00     0.000 C 
BRANCH  11  12
HETATM   12  C   UNL     1     -33.445  -4.803 -11.163  1.00  0.00     0.000 C 
BRANCH  12  13
HETATM   13  C   UNL     1     -34.466  -5.936 -11.279  1.00  0.00    -0.000 C 
BRANCH  13  14
HETATM   14  C   UNL     1     -34.788  -6.577  -9.932  1.00  0.00    -0.005 C 
HETATM   15  C   UNL     1     -34.490  -8.069  -9.987  1.00  0.00     0.005 C 
ENDBRANCH  13  14
ENDBRANCH  12  13
ENDBRANCH  11  12
ENDBRANCH  10  11
ENDBRANCH   1  10
BRANCH   1  16
HETATM   16  C   UNL     1     -35.207  -1.439 -13.122  1.00  0.00     0.168 C 
BRANCH  16  17
HETATM   17  O   UNL     1     -34.599  -2.584 -13.711  1.00  0.00    -0.400 OA
HETATM   18  H   UNL     1     -33.779  -2.303 -14.151  1.00  0.00     0.209 HD
ENDBRANCH  16  17
ENDBRANCH   1  16
TORSDOF 14
BEGIN_RES ARG D 557
REMARK  4 active torsions:
REMARK  status: ('A' for Active; 'I' for Inactive)
REMARK    1  A    between atoms: CA   and  CB  
REMARK    2  A    between atoms: CB   and  CG  
REMARK    3  A    between atoms: CG   and  CD  
REMARK    4  A    between atoms: CD   and  NE  
REMARK       I    between atoms: NE   and  CZ  
REMARK       I    between atoms: CZ   and  NH1 
REMARK       I    between atoms: CZ   and  NH2 
ROOT
ATOM      1  CA  ARG D 557     -26.217   2.705 -17.014  1.00 35.49     0.159 C 
ENDROOT
BRANCH   1   2
ATOM      2  CB  ARG D 557     -26.789   1.319 -17.183  1.00 35.49     0.034 C 
BRANCH   2   3
ATOM      3  CG  ARG D 557     -28.230   1.227 -17.450  1.00 35.49     0.027 C 
BRANCH   3   4
ATOM      4  CD  ARG D 557     -28.920   0.312 -16.512  1.00 35.49     0.116 C 
BRANCH   4   5
ATOM      5  NE  ARG D 557     -29.318  -0.917 -17.147  1.00 35.49    -0.212 N 
ATOM      6  CZ  ARG D 557     -28.699  -2.072 -17.041  1.00 35.49     0.666 C 
ATOM      7  NH1 ARG D 557     -27.600  -2.224 -16.325  1.00 35.49    -0.235 N 
ATOM      8  NH2 ARG D 557     -29.214  -3.088 -17.670  1.00 35.49    -0.235 N 
ATOM      9  HH  ARG D 557     -27.245  -1.570 -15.901  1.00 35.49     0.174 HD
ATOM     10  HH  ARG D 557     -27.242  -3.002 -16.290  1.00 35.49     0.174 HD
ATOM     11  HH  ARG D 557     -29.928  -2.961 -18.118  1.00 35.49     0.174 HD
ATOM     12  HH  ARG D 557     -28.845  -3.850 -17.622  1.00 35.49     0.174 HD
ATOM     13  HE  ARG D 557     -29.975  -0.893 -17.686  1.00 35.49     0.178 HD
ENDBRANCH   4   5
ENDBRANCH   3   4
ENDBRANCH   2   3
ENDBRANCH   1   2
END_RES ARG D 557
BEGIN_RES GLU D 570
REMARK  3 active torsions:
REMARK  status: ('A' for Active; 'I' for Inactive)
REMARK    5  A    between atoms: CA   and  CB  
REMARK    6  A    between atoms: CB   and  CG  
REMARK    7  A    between atoms: CG   and  CD  
ROOT
ATOM     14  CA  GLU D 570     -18.033  -6.348 -13.375  1.00 32.92     0.160 C 
ENDROOT
BRANCH  14  15
ATOM     15  CB  GLU D 570     -19.500  -6.345 -13.794  1.00 32.92     0.043 C 
BRANCH  15  16
ATOM     16  CG  GLU D 570     -20.101  -7.645 -14.190  1.00 32.92     0.100 C 
BRANCH  16  17
ATOM     17  CD  GLU D 570     -20.612  -7.648 -15.612  1.00 32.92     0.185 C 
ATOM     18  OE1 GLU D 570     -20.981  -8.725 -16.120  1.00 32.92    -0.647 OA
ATOM     19  OE2 GLU D 570     -20.628  -6.566 -16.231  1.00 32.92    -0.647 OA
ENDBRANCH  16  17
ENDBRANCH  15  16
ENDBRANCH  14  15
END_RES GLU D 570
ENDMDL
MODEL 2
REMARK VINA RESULT:      -6.8      2.287      5.844
REMARK  14 active torsions:
REMARK  status: ('A' for Active; 'I' for Inactive)
REMARK    1  A    between atoms: C_2  and  C_3 
REMARK    2  A    between atoms: C_3  and  C_4 
REMARK    3  A    between atoms: C_4  and  C_5 
REMARK    4  A    between atoms: C_5  and  C_6 
REMARK    5  A    between atoms: C_6  and  C_7 
REMARK    6  A    between atoms: C_7  and  C_8 
REMARK    7  A    between atoms: C_8  and  C_9 
REMARK    8  A    between atoms: C_9  and  C_10 
REMARK    9  A    between atoms: C_9  and  C_16 
REMARK   10  A    between atoms: C_10  and  C_11 
REMARK   11  A    between atoms: C_11  and  C_12 
REMARK   12  A    between atoms: C_12  and  C_13 
REMARK   13  A    between atoms: C_13  and  C_14 
REMARK   14  A    between atoms: C_16  and  O_17 
ROOT
HETATM    1  C   UNL     1     -36.092  -0.895 -12.060  1.00  0.00     0.009 C 
ENDROOT
BRANCH   1   2
HETATM    2  C   UNL     1     -34.561  -1.150 -11.998  1.00  0.00     0.007 C 
BRANCH   2   3
HETATM    3  C   UNL     1     -34.140  -2.070 -10.853  1.00  0.00     0.000 C 
BRANCH   3   4
HETATM    4  C   UNL     1     -33.113  -3.132 -11.258  1.00  0.00     0.000 C 
BRANCH   4   5
HETATM    5  C   UNL     1     -33.721  -3.999 -12.363  1.00  0.00     0.000 C 
BRANCH   5   6
HETATM    6  C   UNL     1     -34.630  -5.095 -11.819  1.00  0.00     0.000 C 
BRANCH   6   7
HETATM    7  C   UNL     1     -33.855  -6.023 -10.880  1.00  0.00    -0.000 C 
BRANCH   7   8
HETATM    8  C   UNL     1     -34.806  -6.936 -10.116  1.00  0.00    -0.005 C 
HETATM    9  C   UNL     1     -34.192  -8.306  -9.876  1.00  0.00     0.005 C 
ENDBRANCH   7   8
ENDBRANCH   6   7
ENDBRANCH   5   6
ENDBRANCH   4   5
ENDBRANCH   3   4
ENDBRANCH   2   3
ENDBRANCH   1   2
BRANCH   1  10
HETATM   10  C   UNL     1     -36.584   0.141 -11.018  1.00  0.00     0.007 C 
BRANCH  10  11
HETATM   11  C   UNL     1     -37.186  -0.474  -9.736  1.00  0.00     0.000 C 
BRANCH  11  12
HETATM   12  C   UNL     1     -36.569   0.034  -8.425  1.00  0.00     0.000 C 
BRANCH  12  13
HETATM   13  C   UNL     1     -37.587   0.041  -7.284  1.00  0.00    -0.000 C 
BRANCH  13  14
HETATM   14  C   UNL     1     -37.248   1.059  -6.200  1.00  0.00    -0.005 C 
HETATM   15  C   UNL     1     -37.156   0.362  -4.848  1.00  0.00     0.005 C 
ENDBRANCH  13  14
ENDBRANCH  12  13
ENDBRANCH  11  12
ENDBRANCH  10  11
ENDBRANCH   1  10
BRANCH   1  16
HETATM   16  C   UNL     1     -36.475  -0.478 -13.490  1.00  0.00     0.168 C 
BRANCH  16  17
HETATM   17  O   UNL     1     -37.847  -0.738 -13.768  1.00  0.00    -0.400 OA
HETATM   18  H   UNL     1     -38.234   0.059 -14.169  1.00  0.00     0.209 HD
ENDBRANCH  16  17
ENDBRANCH   1  16
TORSDOF 14
BEGIN_RES ARG D 557
REMARK  4 active torsions:
REMARK  status: ('A' for Active; 'I' for Inactive)
REMARK    1  A    between atoms: CA   and  CB  
REMARK    2  A    between atoms: CB   and  CG  
REMARK    3  A    between atoms: CG   and  CD  
REMARK    4  A    between atoms: CD   and  NE  
REMARK       I    between atoms: NE   and  CZ  
REMARK       I    between atoms: CZ   and  NH1 
REMARK       I    between atoms: CZ   and  NH2 
ROOT
ATOM      1  CA  ARG D 557     -26.217   2.705 -17.014  1.00 35.49     0.159 C 
ENDROOT
BRANCH   1   2
ATOM      2  CB  ARG D 557     -26.789   1.319 -17.183  1.00 35.49     0.034 C 
BRANCH   2   3
ATOM      3  CG  ARG D 557     -25.865   0.195 -16.988  1.00 35.49     0.027 C 
BRANCH   3   4
ATOM      4  CD  ARG D 557     -26.283  -0.692 -15.878  1.00 35.49     0.116 C 
BRANCH   4   5
ATOM      5  NE  ARG D 557     -25.216  -0.928 -14.941  1.00 35.49    -0.212 N 
ATOM      6  CZ  ARG D 557     -24.948  -2.073 -14.354  1.00 35.49     0.666 C 
ATOM      7  NH1 ARG D 557     -25.667  -3.161 -14.561  1.00 35.49    -0.235 N 
ATOM      8  NH2 ARG D 557     -23.927  -2.109 -13.548  1.00 35.49    -0.235 N 
ATOM      9  HH  ARG D 557     -26.341  -3.160 -15.089  1.00 35.49     0.174 HD
ATOM     10  HH  ARG D 557     -25.443  -3.880 -14.152  1.00 35.49     0.174 HD
ATOM     11  HH  ARG D 557     -23.477  -1.393 -13.439  1.00 35.49     0.174 HD
ATOM     12  HH  ARG D 557     -23.721  -2.831 -13.154  1.00 35.49     0.174 HD
ATOM     13  HE  ARG D 557     -24.747  -0.262 -14.694  1.00 35.49     0.178 HD
ENDBRANCH   4   5
ENDBRANCH   3   4
ENDBRANCH   2   3
ENDBRANCH   1   2
END_RES ARG D 557
BEGIN_RES GLU D 570
REMARK  3 active torsions:
REMARK  status: ('A' for Active; 'I' for Inactive)
REMARK    5  A    between atoms: CA   and  CB  
REMARK    6  A    between atoms: CB   and  CG  
REMARK    7  A    between atoms: CG   and  CD  
ROOT
ATOM     14  CA  GLU D 570     -18.033  -6.348 -13.375  1.00 32.92     0.160 C 
ENDROOT
BRANCH  14  15
ATOM     15  CB  GLU D 570     -19.500  -6.345 -13.794  1.00 32.92     0.043 C 
BRANCH  15  16
ATOM     16  CG  GLU D 570     -20.443  -5.535 -12.980  1.00 32.92     0.100 C 
BRANCH  16  17
ATOM     17  CD  GLU D 570     -21.685  -5.136 -13.741  1.00 32.92     0.185 C 
ATOM     18  OE1 GLU D 570     -21.614  -4.973 -14.974  1.00 32.92    -0.647 OA
ATOM     19  OE2 GLU D 570     -22.738  -4.967 -13.094  1.00 32.92    -0.647 OA
ENDBRANCH  16  17
ENDBRANCH  15  16
ENDBRANCH  14  15
END_RES GLU D 570
ENDMDL
MODEL 3
REMARK VINA RESULT:      -6.7      0.949      5.382
REMARK  14 active torsions:
REMARK  status: ('A' for Active; 'I' for Inactive)
REMARK    1  A    between atoms: C_2  and  C_3 
REMARK    2  A    between atoms: C_3  and  C_4 
REMARK    3  A    between atoms: C_4  and  C_5 
REMARK    4  A    between atoms: C_5  and  C_6 
REMARK    5  A    between atoms: C_6  and  C_7 
REMARK    6  A    between atoms: C_7  and  C_8 
REMARK    7  A    between atoms: C_8  and  C_9 
REMARK    8  A    between atoms: C_9  and  C_10 
REMARK    9  A    between atoms: C_9  and  C_16 
REMARK   10  A    between atoms: C_10  and  C_11 
REMARK   11  A    between atoms: C_11  and  C_12 
REMARK   12  A    between atoms: C_12  and  C_13 
REMARK   13  A    between atoms: C_13  and  C_14 
REMARK   14  A    between atoms: C_16  and  O_17 
ROOT
HETATM    1  C   UNL     1     -35.981  -1.162 -11.474  1.00  0.00     0.009 C 
ENDROOT
BRANCH   1   2
HETATM    2  C   UNL     1     -35.231  -2.254 -10.665  1.00  0.00     0.007 C 
BRANCH   2   3
HETATM    3  C   UNL     1     -33.718  -2.239 -10.873  1.00  0.00     0.000 C 
BRANCH   3   4
HETATM    4  C   UNL     1     -33.149  -3.568 -11.378  1.00  0.00     0.000 C 
BRANCH   4   5
HETATM    5  C   UNL     1     -34.242  -4.297 -12.165  1.00  0.00     0.000 C 
BRANCH   5   6
HETATM    6  C   UNL     1     -34.413  -5.747 -11.727  1.00  0.00     0.000 C 
BRANCH   6   7
HETATM    7  C   UNL     1     -34.354  -5.863 -10.202  1.00  0.00    -0.000 C 
BRANCH   7   8
HETATM    8  C   UNL     1     -35.011  -7.155  -9.733  1.00  0.00    -0.005 C 
HETATM    9  C   UNL     1     -34.118  -8.359  -9.985  1.00  0.00     0.005 C 
ENDBRANCH   7   8
ENDBRANCH   6   7
ENDBRANCH   5   6
ENDBRANCH   4   5
ENDBRANCH   3   4
ENDBRANCH   2   3
ENDBRANCH   1   2
BRANCH   1  10
HETATM   10  C   UNL     1     -36.535  -0.015 -10.592  1.00  0.00     0.007 C 
BRANCH  10  11
HETATM   11  C   UNL     1     -37.075  -0.467  -9.217  1.00  0.00     0.000 C 
BRANCH  11  12
HETATM   12  C   UNL     1     -36.619   0.393  -8.029  1.00  0.00     0.000 C 
BRANCH  12  13
HETATM   13  C   UNL     1     -37.667   0.424  -6.916  1.00  0.00    -0.000 C 
BRANCH  13  14
HETATM   14  C   UNL     1     -37.070   0.778  -5.557  1.00  0.00    -0.005 C 
HETATM   15  C   UNL     1     -37.613  -0.167  -4.493  1.00  0.00     0.005 C 
ENDBRANCH  13  14
ENDBRANCH  12  13
ENDBRANCH  11  12
ENDBRANCH  10  11
ENDBRANCH   1  10
BRANCH   1  16
HETATM   16  C   UNL     1     -35.050  -0.622 -12.574  1.00  0.00     0.168 C 
BRANCH  16  17
HETATM   17  O   UNL     1     -35.211  -1.331 -13.799  1.00  0.00    -0.400 OA
HETATM   18  H   UNL     1     -34.452  -1.928 -13.909  1.00  0.00     0.209 HD
ENDBRANCH  16  17
ENDBRANCH   1  16
TORSDOF 14
BEGIN_RES ARG D 557
REMARK  4 active torsions:
REMARK  status: ('A' for Active; 'I' for Inactive)
REMARK    1  A    between atoms: CA   and  CB  
REMARK    2  A    between atoms: CB   and  CG  
REMARK    3  A    between atoms: CG   and  CD  
REMARK    4  A    between atoms: CD   and  NE  
REMARK       I    between atoms: NE   and  CZ  
REMARK       I    between atoms: CZ   and  NH1 
REMARK       I    between atoms: CZ   and  NH2 
ROOT
ATOM      1  CA  ARG D 557     -26.217   2.705 -17.014  1.00 35.49     0.159 C 
ENDROOT
BRANCH   1   2
ATOM      2  CB  ARG D 557     -26.789   1.319 -17.183  1.00 35.49     0.034 C 
BRANCH   2   3
ATOM      3  CG  ARG D 557     -28.228   1.164 -16.937  1.00 35.49     0.027 C 
BRANCH   3   4
ATOM      4  CD  ARG D 557     -28.611  -0.247 -16.699  1.00 35.49     0.116 C 
BRANCH   4   5
ATOM      5  NE  ARG D 557     -27.593  -0.972 -15.985  1.00 35.49    -0.212 N 
ATOM      6  CZ  ARG D 557     -27.379  -2.267 -16.057  1.00 35.49     0.666 C 
ATOM      7  NH1 ARG D 557     -28.113  -3.066 -16.809  1.00 35.49    -0.235 N 
ATOM      8  NH2 ARG D 557     -26.396  -2.753 -15.355  1.00 35.49    -0.235 N 
ATOM      9  HH  ARG D 557     -28.763  -2.768 -17.280  1.00 35.49     0.174 HD
ATOM     10  HH  ARG D 557     -27.925  -3.902 -16.817  1.00 35.49     0.174 HD
ATOM     11  HH  ARG D 557     -25.935  -2.211 -14.884  1.00 35.49     0.174 HD
ATOM     12  HH  ARG D 557     -26.225  -3.583 -15.378  1.00 35.49     0.174 HD
ATOM     13  HE  ARG D 557     -27.120  -0.546 -15.421  1.00 35.49     0.178 HD
ENDBRANCH   4   5
ENDBRANCH   3   4
ENDBRANCH   2   3
ENDBRANCH   1   2
END_RES ARG D 557
BEGIN_RES GLU D 570
REMARK  3 active torsions:
REMARK  status: ('A' for Active; 'I' for Inactive)
REMARK    5  A    between atoms: CA   and  CB  
REMARK    6  A    between atoms: CB   and  CG  
REMARK    7  A    between atoms: CG   and  CD  
ROOT
ATOM     14  CA  GLU D 570     -18.033  -6.348 -13.375  1.00 32.92     0.160 C 
ENDROOT
BRANCH  14  15
ATOM     15  CB  GLU D 570     -19.500  -6.345 -13.794  1.00 32.92     0.043 C 
BRANCH  15  16
ATOM     16  CG  GLU D 570     -20.061  -7.612 -14.331  1.00 32.92     0.100 C 
BRANCH  16  17
ATOM     17  CD  GLU D 570     -20.759  -7.431 -15.659  1.00 32.92     0.185 C 
ATOM     18  OE1 GLU D 570     -21.505  -8.337 -16.078  1.00 32.92    -0.647 OA
ATOM     19  OE2 GLU D 570     -20.544  -6.381 -16.294  1.00 32.92    -0.647 OA
ENDBRANCH  16  17
ENDBRANCH  15  16
ENDBRANCH  14  15
END_RES GLU D 570
ENDMDL
MODEL 4
REMARK VINA RESULT:      -6.4      8.421     11.795
REMARK  14 active torsions:
REMARK  status: ('A' for Active; 'I' for Inactive)
REMARK    1  A    between atoms: C_2  and  C_3 
REMARK    2  A    between atoms: C_3  and  C_4 
REMARK    3  A    between atoms: C_4  and  C_5 
REMARK    4  A    between atoms: C_5  and  C_6 
REMARK    5  A    between atoms: C_6  and  C_7 
REMARK    6  A    between atoms: C_7  and  C_8 
REMARK    7  A    between atoms: C_8  and  C_9 
REMARK    8  A    between atoms: C_9  and  C_10 
REMARK    9  A    between atoms: C_9  and  C_16 
REMARK   10  A    between atoms: C_10  and  C_11 
REMARK   11  A    between atoms: C_11  and  C_12 
REMARK   12  A    between atoms: C_12  and  C_13 
REMARK   13  A    between atoms: C_13  and  C_14 
REMARK   14  A    between atoms: C_16  and  O_17 
ROOT
HETATM    1  C   UNL     1     -22.574  -3.744  -9.026  1.00  0.00     0.009 C 
ENDROOT
BRANCH   1   2
HETATM    2  C   UNL     1     -22.107  -4.024  -7.572  1.00  0.00     0.007 C 
BRANCH   2   3
HETATM    3  C   UNL     1     -20.597  -3.904  -7.380  1.00  0.00     0.000 C 
BRANCH   3   4
HETATM    4  C   UNL     1     -20.061  -4.688  -6.179  1.00  0.00     0.000 C 
BRANCH   4   5
HETATM    5  C   UNL     1     -20.133  -6.183  -6.502  1.00  0.00     0.000 C 
BRANCH   5   6
HETATM    6  C   UNL     1     -20.585  -7.021  -5.312  1.00  0.00     0.000 C 
BRANCH   6   7
HETATM    7  C   UNL     1     -21.831  -6.413  -4.663  1.00  0.00    -0.000 C 
BRANCH   7   8
HETATM    8  C   UNL     1     -21.645  -6.278  -3.157  1.00  0.00    -0.005 C 
HETATM    9  C   UNL     1     -20.915  -7.478  -2.574  1.00  0.00     0.005 C 
ENDBRANCH   7   8
ENDBRANCH   6   7
ENDBRANCH   5   6
ENDBRANCH   4   5
ENDBRANCH   3   4
ENDBRANCH   2   3
ENDBRANCH   1   2
BRANCH   1  10
HETATM   10  C   UNL     1     -21.745  -4.503 -10.093  1.00  0.00     0.007 C 
BRANCH  10  11
HETATM   11  C   UNL     1     -21.247  -3.626 -11.263  1.00  0.00     0.000 C 
BRANCH  11  12
HETATM   12  C   UNL     1     -22.264  -2.599 -11.780  1.00  0.00     0.000 C 
BRANCH  12  13
HETATM   13  C   UNL     1     -23.238  -3.221 -12.781  1.00  0.00    -0.000 C 
BRANCH  13  14
HETATM   14  C   UNL     1     -22.577  -4.271 -13.670  1.00  0.00    -0.005 C 
HETATM   15  C   UNL     1     -23.403  -5.551 -13.657  1.00  0.00     0.005 C 
ENDBRANCH  13  14
ENDBRANCH  12  13
ENDBRANCH  11  12
ENDBRANCH  10  11
ENDBRANCH   1  10
BRANCH   1  16
HETATM   16  C   UNL     1     -24.072  -4.070  -9.145  1.00  0.00     0.168 C 
BRANCH  16  17
HETATM   17  O   UNL     1     -24.866  -2.890  -9.227  1.00  0.00    -0.400 OA
HETATM   18  H   UNL     1     -25.800  -3.153  -9.292  1.00  0.00     0.209 HD
ENDBRANCH  16  17
ENDBRANCH   1  16
TORSDOF 14
BEGIN_RES ARG D 557
REMARK  4 active torsions:
REMARK  status: ('A' for Active; 'I' for Inactive)
REMARK    1  A    between atoms: CA   and  CB  
REMARK    2  A    between atoms: CB   and  CG  
REMARK    3  A    between atoms: CG   and  CD  
REMARK    4  A    between atoms: CD   and  NE  
REMARK       I    between atoms: NE   and  CZ  
REMARK       I    between atoms: CZ   and  NH1 
REMARK       I    between atoms: CZ   and  NH2 
ROOT
ATOM      1  CA  ARG D 557     -26.217   2.705 -17.014  1.00 35.49     0.159 C 
ENDROOT
BRANCH   1   2
ATOM      2  CB  ARG D 557     -26.789   1.319 -17.183  1.00 35.49     0.034 C 
BRANCH   2   3
ATOM      3  CG  ARG D 557     -28.233   1.226 -17.431  1.00 35.49     0.027 C 
BRANCH   3   4
ATOM      4  CD  ARG D 557     -28.908   0.299 -16.493  1.00 35.49     0.116 C 
BRANCH   4   5
ATOM      5  NE  ARG D 557     -29.286  -0.935 -17.129  1.00 35.49    -0.212 N 
ATOM      6  CZ  ARG D 557     -28.647  -2.079 -17.028  1.00 35.49     0.666 C 
ATOM      7  NH1 ARG D 557     -27.543  -2.214 -16.316  1.00 35.49    -0.235 N 
ATOM      8  NH2 ARG D 557     -29.146  -3.103 -17.657  1.00 35.49    -0.235 N 
ATOM      9  HH  ARG D 557     -27.199  -1.554 -15.892  1.00 35.49     0.174 HD
ATOM     10  HH  ARG D 557     -27.172  -2.986 -16.284  1.00 35.49     0.174 HD
ATOM     11  HH  ARG D 557     -29.864  -2.988 -18.103  1.00 35.49     0.174 HD
ATOM     12  HH  ARG D 557     -28.764  -3.859 -17.612  1.00 35.49     0.174 HD
ATOM     13  HE  ARG D 557     -29.946  -0.922 -17.666  1.00 35.49     0.178 HD
ENDBRANCH   4   5
ENDBRANCH   3   4
ENDBRANCH   2   3
ENDBRANCH   1   2
END_RES ARG D 557
BEGIN_RES GLU D 570
REMARK  3 active torsions:
REMARK  status: ('A' for Active; 'I' for Inactive)
REMARK    5  A    between atoms: CA   and  CB  
REMARK    6  A    between atoms: CB   and  CG  
REMARK    7  A    between atoms: CG   and  CD  
ROOT
ATOM     14  CA  GLU D 570     -18.033  -6.348 -13.375  1.00 32.92     0.160 C 
ENDROOT
BRANCH  14  15
ATOM     15  CB  GLU D 570     -19.500  -6.345 -13.794  1.00 32.92     0.043 C 
BRANCH  15  16
ATOM     16  CG  GLU D 570     -19.800  -6.132 -15.233  1.00 32.92     0.100 C 
BRANCH  16  17
ATOM     17  CD  GLU D 570     -20.735  -7.175 -15.801  1.00 32.92     0.185 C 
ATOM     18  OE1 GLU D 570     -21.548  -6.843 -16.685  1.00 32.92    -0.647 OA
ATOM     19  OE2 GLU D 570     -20.666  -8.333 -15.344  1.00 32.92    -0.647 OA
ENDBRANCH  16  17
ENDBRANCH  15  16
ENDBRANCH  14  15
END_RES GLU D 570
ENDMDL
MODEL 5
REMARK VINA RESULT:      -6.4      2.021      2.508
REMARK  14 active torsions:
REMARK  status: ('A' for Active; 'I' for Inactive)
REMARK    1  A    between atoms: C_2  and  C_3 
REMARK    2  A    between atoms: C_3  and  C_4 
REMARK    3  A    between atoms: C_4  and  C_5 
REMARK    4  A    between atoms: C_5  and  C_6 
REMARK    5  A    between atoms: C_6  and  C_7 
REMARK    6  A    between atoms: C_7  and  C_8 
REMARK    7  A    between atoms: C_8  and  C_9 
REMARK    8  A    between atoms: C_9  and  C_10 
REMARK    9  A    between atoms: C_9  and  C_16 
REMARK   10  A    between atoms: C_10  and  C_11 
REMARK   11  A    between atoms: C_11  and  C_12 
REMARK   12  A    between atoms: C_12  and  C_13 
REMARK   13  A    between atoms: C_13  and  C_14 
REMARK   14  A    between atoms: C_16  and  O_17 
ROOT
HETATM    1  C   UNL     1     -34.081  -2.158 -11.521  1.00  0.00     0.009 C 
ENDROOT
BRANCH   1   2
HETATM    2  C   UNL     1     -34.945  -1.275 -10.579  1.00  0.00     0.007 C 
BRANCH   2   3
HETATM    3  C   UNL     1     -36.384  -1.765 -10.433  1.00  0.00     0.000 C 
BRANCH   3   4
HETATM    4  C   UNL     1     -37.436  -0.694 -10.734  1.00  0.00     0.000 C 
BRANCH   4   5
HETATM    5  C   UNL     1     -37.270   0.447  -9.726  1.00  0.00     0.000 C 
BRANCH   5   6
HETATM    6  C   UNL     1     -37.665   0.044  -8.311  1.00  0.00     0.000 C 
BRANCH   6   7
HETATM    7  C   UNL     1     -36.695   0.641  -7.288  1.00  0.00    -0.000 C 
BRANCH   7   8
HETATM    8  C   UNL     1     -37.447   1.158  -6.068  1.00  0.00    -0.005 C 
HETATM    9  C   UNL     1     -37.118   0.347  -4.824  1.00  0.00     0.005 C 
ENDBRANCH   7   8
ENDBRANCH   6   7
ENDBRANCH   5   6
ENDBRANCH   4   5
ENDBRANCH   3   4
ENDBRANCH   2   3
ENDBRANCH   1   2
BRANCH   1  10
HETATM   10  C   UNL     1     -33.365  -3.320 -10.787  1.00  0.00     0.007 C 
BRANCH  10  11
HETATM   11  C   UNL     1     -32.947  -4.495 -11.698  1.00  0.00     0.000 C 
BRANCH  11  12
HETATM   12  C   UNL     1     -33.447  -5.874 -11.246  1.00  0.00     0.000 C 
BRANCH  12  13
HETATM   13  C   UNL     1     -34.550  -5.760 -10.192  1.00  0.00    -0.000 C 
BRANCH  13  14
HETATM   14  C   UNL     1     -35.053  -7.121  -9.720  1.00  0.00    -0.005 C 
HETATM   15  C   UNL     1     -34.009  -8.189 -10.017  1.00  0.00     0.005 C 
ENDBRANCH  13  14
ENDBRANCH  12  13
ENDBRANCH  11  12
ENDBRANCH  10  11
ENDBRANCH   1  10
BRANCH   1  16
HETATM   16  C   UNL     1     -34.960  -2.678 -12.670  1.00  0.00     0.168 C 
BRANCH  16  17
HETATM   17  O   UNL     1     -34.919  -1.814 -13.802  1.00  0.00    -0.400 OA
HETATM   18  H   UNL     1     -34.871  -0.896 -13.484  1.00  0.00     0.209 HD
ENDBRANCH  16  17
ENDBRANCH   1  16
TORSDOF 14
BEGIN_RES ARG D 557
REMARK  4 active torsions:
REMARK  status: ('A' for Active; 'I' for Inactive)
REMARK    1  A    between atoms: CA   and  CB  
REMARK    2  A    between atoms: CB   and  CG  
REMARK    3  A    between atoms: CG   and  CD  
REMARK    4  A    between atoms: CD   and  NE  
REMARK       I    between atoms: NE   and  CZ  
REMARK       I    between atoms: CZ   and  NH1 
REMARK       I    between atoms: CZ   and  NH2 
ROOT
ATOM      1  CA  ARG D 557     -26.217   2.705 -17.014  1.00 35.49     0.159 C 
ENDROOT
BRANCH   1   2
ATOM      2  CB  ARG D 557     -26.789   1.319 -17.183  1.00 35.49     0.034 C 
BRANCH   2   3
ATOM      3  CG  ARG D 557     -25.853   0.197 -17.047  1.00 35.49     0.027 C 
BRANCH   3   4
ATOM      4  CD  ARG D 557     -26.228  -0.722 -15.948  1.00 35.49     0.116 C 
BRANCH   4   5
ATOM      5  NE  ARG D 557     -25.176  -0.865 -14.977  1.00 35.49    -0.212 N 
ATOM      6  CZ  ARG D 557     -24.862  -1.971 -14.342  1.00 35.49     0.666 C 
ATOM      7  NH1 ARG D 557     -25.513  -3.105 -14.527  1.00 35.49    -0.235 N 
ATOM      8  NH2 ARG D 557     -23.862  -1.923 -13.509  1.00 35.49    -0.235 N 
ATOM      9  HH  ARG D 557     -26.173  -3.160 -15.071  1.00 35.49     0.174 HD
ATOM     10  HH  ARG D 557     -25.262  -3.795 -14.086  1.00 35.49     0.174 HD
ATOM     11  HH  ARG D 557     -23.455  -1.179 -13.416  1.00 35.49     0.174 HD
ATOM     12  HH  ARG D 557     -23.628  -2.618 -13.084  1.00 35.49     0.174 HD
ATOM     13  HE  ARG D 557     -24.751  -0.166 -14.743  1.00 35.49     0.178 HD
ENDBRANCH   4   5
ENDBRANCH   3   4
ENDBRANCH   2   3
ENDBRANCH   1   2
END_RES ARG D 557
BEGIN_RES GLU D 570
REMARK  3 active torsions:
REMARK  status: ('A' for Active; 'I' for Inactive)
REMARK    5  A    between atoms: CA   and  CB  
REMARK    6  A    between atoms: CB   and  CG  
REMARK    7  A    between atoms: CG   and  CD  
ROOT
ATOM     14  CA  GLU D 570     -18.033  -6.348 -13.375  1.00 32.92     0.160 C 
ENDROOT
BRANCH  14  15
ATOM     15  CB  GLU D 570     -19.500  -6.345 -13.794  1.00 32.92     0.043 C 
BRANCH  15  16
ATOM     16  CG  GLU D 570     -19.807  -6.015 -15.210  1.00 32.92     0.100 C 
BRANCH  16  17
ATOM     17  CD  GLU D 570     -21.209  -5.485 -15.401  1.00 32.92     0.185 C 
ATOM     18  OE1 GLU D 570     -21.670  -5.397 -16.555  1.00 32.92    -0.647 OA
ATOM     19  OE2 GLU D 570     -21.845  -5.137 -14.387  1.00 32.92    -0.647 OA
ENDBRANCH  16  17
ENDBRANCH  15  16
ENDBRANCH  14  15
END_RES GLU D 570
ENDMDL
MODEL 6
REMARK VINA RESULT:      -6.3      8.495     11.095
REMARK  14 active torsions:
REMARK  status: ('A' for Active; 'I' for Inactive)
REMARK    1  A    between atoms: C_2  and  C_3 
REMARK    2  A    between atoms: C_3  and  C_4 
REMARK    3  A    between atoms: C_4  and  C_5 
REMARK    4  A    between atoms: C_5  and  C_6 
REMARK    5  A    between atoms: C_6  and  C_7 
REMARK    6  A    between atoms: C_7  and  C_8 
REMARK    7  A    between atoms: C_8  and  C_9 
REMARK    8  A    between atoms: C_9  and  C_10 
REMARK    9  A    between atoms: C_9  and  C_16 
REMARK   10  A    between atoms: C_10  and  C_11 
REMARK   11  A    between atoms: C_11  and  C_12 
REMARK   12  A    between atoms: C_12  and  C_13 
REMARK   13  A    between atoms: C_13  and  C_14 
REMARK   14  A    between atoms: C_16  and  O_17 
ROOT
HETATM    1  C   UNL     1     -22.553  -3.654 -13.213  1.00  0.00     0.009 C 
ENDROOT
BRANCH   1   2
HETATM    2  C   UNL     1     -22.631  -2.858 -11.882  1.00  0.00     0.007 C 
BRANCH   2   3
HETATM    3  C   UNL     1     -23.466  -3.548 -10.805  1.00  0.00     0.000 C 
BRANCH   3   4
HETATM    4  C   UNL     1     -22.833  -3.508  -9.411  1.00  0.00     0.000 C 
BRANCH   4   5
HETATM    5  C   UNL     1     -21.886  -4.703  -9.273  1.00  0.00     0.000 C 
BRANCH   5   6
HETATM    6  C   UNL     1     -20.425  -4.323  -9.482  1.00  0.00     0.000 C 
BRANCH   6   7
HETATM    7  C   UNL     1     -19.764  -3.963  -8.150  1.00  0.00    -0.000 C 
BRANCH   7   8
HETATM    8  C   UNL     1     -19.757  -5.161  -7.208  1.00  0.00    -0.005 C 
HETATM    9  C   UNL     1     -20.141  -4.760  -5.792  1.00  0.00     0.005 C 
ENDBRANCH   7   8
ENDBRANCH   6   7
ENDBRANCH   5   6
ENDBRANCH   4   5
ENDBRANCH   3   4
ENDBRANCH   2   3
ENDBRANCH   1   2
BRANCH   1  10
HETATM   10  C   UNL     1     -23.255  -5.034 -13.145  1.00  0.00     0.007 C 
BRANCH  10  11
HETATM   11  C   UNL     1     -24.234  -5.314 -14.307  1.00  0.00     0.000 C 
BRANCH  11  12
HETATM   12  C   UNL     1     -24.070  -6.688 -14.973  1.00  0.00     0.000 C 
BRANCH  12  13
HETATM   13  C   UNL     1     -25.030  -6.865 -16.150  1.00  0.00    -0.000 C 
BRANCH  13  14
HETATM   14  C   UNL     1     -26.366  -6.162 -15.930  1.00  0.00    -0.005 C 
HETATM   15  C   UNL     1     -27.079  -5.983 -17.264  1.00  0.00     0.005 C 
ENDBRANCH  13  14
ENDBRANCH  12  13
ENDBRANCH  11  12
ENDBRANCH  10  11
ENDBRANCH   1  10
BRANCH   1  16
HETATM   16  C   UNL     1     -23.123  -2.790 -14.351  1.00  0.00     0.168 C 
BRANCH  16  17
HETATM   17  O   UNL     1     -22.226  -2.707 -15.454  1.00  0.00    -0.400 OA
HETATM   18  H   UNL     1     -22.741  -2.497 -16.252  1.00  0.00     0.209 HD
ENDBRANCH  16  17
ENDBRANCH   1  16
TORSDOF 14
BEGIN_RES ARG D 557
REMARK  4 active torsions:
REMARK  status: ('A' for Active; 'I' for Inactive)
REMARK    1  A    between atoms: CA   and  CB  
REMARK    2  A    between atoms: CB   and  CG  
REMARK    3  A    between atoms: CG   and  CD  
REMARK    4  A    between atoms: CD   and  NE  
REMARK       I    between atoms: NE   and  CZ  
REMARK       I    between atoms: CZ   and  NH1 
REMARK       I    between atoms: CZ   and  NH2 
ROOT
ATOM      1  CA  ARG D 557     -26.217   2.705 -17.014  1.00 35.49     0.159 C 
ENDROOT
BRANCH   1   2
ATOM      2  CB  ARG D 557     -26.789   1.319 -17.183  1.00 35.49     0.034 C 
BRANCH   2   3
ATOM      3  CG  ARG D 557     -28.233   1.226 -17.432  1.00 35.49     0.027 C 
BRANCH   3   4
ATOM      4  CD  ARG D 557     -28.908   0.297 -16.498  1.00 35.49     0.116 C 
BRANCH   4   5
ATOM      5  NE  ARG D 557     -29.317  -0.921 -17.146  1.00 35.49    -0.212 N 
ATOM      6  CZ  ARG D 557     -28.707  -2.082 -17.056  1.00 35.49     0.666 C 
ATOM      7  NH1 ARG D 557     -27.605  -2.251 -16.348  1.00 35.49    -0.235 N 
ATOM      8  NH2 ARG D 557     -29.231  -3.087 -17.695  1.00 35.49    -0.235 N 
ATOM      9  HH  ARG D 557     -27.244  -1.604 -15.918  1.00 35.49     0.174 HD
ATOM     10  HH  ARG D 557     -27.252  -3.031 -16.324  1.00 35.49     0.174 HD
ATOM     11  HH  ARG D 557     -29.947  -2.950 -18.139  1.00 35.49     0.174 HD
ATOM     12  HH  ARG D 557     -28.868  -3.852 -17.658  1.00 35.49     0.174 HD
ATOM     13  HE  ARG D 557     -29.977  -0.887 -17.681  1.00 35.49     0.178 HD
ENDBRANCH   4   5
ENDBRANCH   3   4
ENDBRANCH   2   3
ENDBRANCH   1   2
END_RES ARG D 557
BEGIN_RES GLU D 570
REMARK  3 active torsions:
REMARK  status: ('A' for Active; 'I' for Inactive)
REMARK    5  A    between atoms: CA   and  CB  
REMARK    6  A    between atoms: CB   and  CG  
REMARK    7  A    between atoms: CG   and  CD  
ROOT
ATOM     14  CA  GLU D 570     -18.033  -6.348 -13.375  1.00 32.92     0.160 C 
ENDROOT
BRANCH  14  15
ATOM     15  CB  GLU D 570     -19.500  -6.345 -13.794  1.00 32.92     0.043 C 
BRANCH  15  16
ATOM     16  CG  GLU D 570     -19.906  -5.390 -14.857  1.00 32.92     0.100 C 
BRANCH  16  17
ATOM     17  CD  GLU D 570     -20.717  -6.040 -15.954  1.00 32.92     0.185 C 
ATOM     18  OE1 GLU D 570     -21.378  -5.319 -16.726  1.00 32.92    -0.647 OA
ATOM     19  OE2 GLU D 570     -20.705  -7.284 -16.032  1.00 32.92    -0.647 OA
ENDBRANCH  16  17
ENDBRANCH  15  16
ENDBRANCH  14  15
END_RES GLU D 570
ENDMDL
MODEL 7
REMARK VINA RESULT:      -6.2      9.736     13.355
REMARK  14 active torsions:
REMARK  status: ('A' for Active; 'I' for Inactive)
REMARK    1  A    between atoms: C_2  and  C_3 
REMARK    2  A    between atoms: C_3  and  C_4 
REMARK    3  A    between atoms: C_4  and  C_5 
REMARK    4  A    between atoms: C_5  and  C_6 
REMARK    5  A    between atoms: C_6  and  C_7 
REMARK    6  A    between atoms: C_7  and  C_8 
REMARK    7  A    between atoms: C_8  and  C_9 
REMARK    8  A    between atoms: C_9  and  C_10 
REMARK    9  A    between atoms: C_9  and  C_16 
REMARK   10  A    between atoms: C_10  and  C_11 
REMARK   11  A    between atoms: C_11  and  C_12 
REMARK   12  A    between atoms: C_12  and  C_13 
REMARK   13  A    between atoms: C_13  and  C_14 
REMARK   14  A    between atoms: C_16  and  O_17 
ROOT
HETATM    1  C   UNL     1     -20.787  -6.561  -4.550  1.00  0.00     0.009 C 
ENDROOT
BRANCH   1   2
HETATM    2  C   UNL     1     -21.061  -5.744  -5.842  1.00  0.00     0.007 C 
BRANCH   2   3
HETATM    3  C   UNL     1     -19.993  -5.928  -6.919  1.00  0.00     0.000 C 
BRANCH   3   4
HETATM    4  C   UNL     1     -19.495  -4.614  -7.528  1.00  0.00     0.000 C 
BRANCH   4   5
HETATM    5  C   UNL     1     -20.702  -3.837  -8.060  1.00  0.00     0.000 C 
BRANCH   5   6
HETATM    6  C   UNL     1     -20.956  -4.086  -9.542  1.00  0.00     0.000 C 
BRANCH   6   7
HETATM    7  C   UNL     1     -22.341  -4.701  -9.758  1.00  0.00    -0.000 C 
BRANCH   7   8
HETATM    8  C   UNL     1     -23.365  -4.068  -8.823  1.00  0.00    -0.005 C 
HETATM    9  C   UNL     1     -24.464  -3.357  -9.597  1.00  0.00     0.005 C 
ENDBRANCH   7   8
ENDBRANCH   6   7
ENDBRANCH   5   6
ENDBRANCH   4   5
ENDBRANCH   3   4
ENDBRANCH   2   3
ENDBRANCH   1   2
BRANCH   1  10
HETATM   10  C   UNL     1     -22.033  -6.708  -3.641  1.00  0.00     0.007 C 
BRANCH  10  11
HETATM   11  C   UNL     1     -21.905  -6.029  -2.260  1.00  0.00     0.000 C 
BRANCH  11  12
HETATM   12  C   UNL     1     -22.343  -6.895  -1.071  1.00  0.00     0.000 C 
BRANCH  12  13
HETATM   13  C   UNL     1     -21.322  -7.991  -0.760  1.00  0.00    -0.000 C 
BRANCH  13  14
HETATM   14  C   UNL     1     -21.871  -9.392  -1.010  1.00  0.00    -0.005 C 
HETATM   15  C   UNL     1     -23.111  -9.621  -0.156  1.00  0.00     0.005 C 
ENDBRANCH  13  14
ENDBRANCH  12  13
ENDBRANCH  11  12
ENDBRANCH  10  11
ENDBRANCH   1  10
BRANCH   1  16
HETATM   16  C   UNL     1     -20.209  -7.933  -4.935  1.00  0.00     0.168 C 
BRANCH  16  17
HETATM   17  O   UNL     1     -19.631  -8.598  -3.816  1.00  0.00    -0.400 OA
HETATM   18  H   UNL     1     -20.114  -8.327  -3.016  1.00  0.00     0.209 HD
ENDBRANCH  16  17
ENDBRANCH   1  16
TORSDOF 14
BEGIN_RES ARG D 557
REMARK  4 active torsions:
REMARK  status: ('A' for Active; 'I' for Inactive)
REMARK    1  A    between atoms: CA   and  CB  
REMARK    2  A    between atoms: CB   and  CG  
REMARK    3  A    between atoms: CG   and  CD  
REMARK    4  A    between atoms: CD   and  NE  
REMARK       I    between atoms: NE   and  CZ  
REMARK       I    between atoms: CZ   and  NH1 
REMARK       I    between atoms: CZ   and  NH2 
ROOT
ATOM      1  CA  ARG D 557     -26.217   2.705 -17.014  1.00 35.49     0.159 C 
ENDROOT
BRANCH   1   2
ATOM      2  CB  ARG D 557     -26.789   1.319 -17.183  1.00 35.49     0.034 C 
BRANCH   2   3
ATOM      3  CG  ARG D 557     -25.835   0.203 -17.159  1.00 35.49     0.027 C 
BRANCH   3   4
ATOM      4  CD  ARG D 557     -24.758   0.403 -16.163  1.00 35.49     0.116 C 
BRANCH   4   5
ATOM      5  NE  ARG D 557     -24.917  -0.449 -15.014  1.00 35.49    -0.212 N 
ATOM      6  CZ  ARG D 557     -24.106  -1.423 -14.662  1.00 35.49     0.666 C 
ATOM      7  NH1 ARG D 557     -23.031  -1.738 -15.361  1.00 35.49    -0.235 N 
ATOM      8  NH2 ARG D 557     -24.394  -2.080 -13.576  1.00 35.49    -0.235 N 
ATOM      9  HH  ARG D 557     -22.822  -1.317 -16.077  1.00 35.49     0.174 HD
ATOM     10  HH  ARG D 557     -22.539  -2.381 -15.081  1.00 35.49     0.174 HD
ATOM     11  HH  ARG D 557     -25.091  -1.849 -13.142  1.00 35.49     0.174 HD
ATOM     12  HH  ARG D 557     -23.893  -2.712 -13.315  1.00 35.49     0.174 HD
ATOM     13  HE  ARG D 557     -25.622  -0.364 -14.548  1.00 35.49     0.178 HD
ENDBRANCH   4   5
ENDBRANCH   3   4
ENDBRANCH   2   3
ENDBRANCH   1   2
END_RES ARG D 557
BEGIN_RES GLU D 570
REMARK  3 active torsions:
REMARK  status: ('A' for Active; 'I' for Inactive)
REMARK    5  A    between atoms: CA   and  CB  
REMARK    6  A    between atoms: CB   and  CG  
REMARK    7  A    between atoms: CG   and  CD  
ROOT
ATOM     14  CA  GLU D 570     -18.033  -6.348 -13.375  1.00 32.92     0.160 C 
ENDROOT
BRANCH  14  15
ATOM     15  CB  GLU D 570     -19.500  -6.345 -13.794  1.00 32.92     0.043 C 
BRANCH  15  16
ATOM     16  CG  GLU D 570     -20.446  -5.549 -12.970  1.00 32.92     0.100 C 
BRANCH  16  17
ATOM     17  CD  GLU D 570     -21.730  -5.222 -13.696  1.00 32.92     0.185 C 
ATOM     18  OE1 GLU D 570     -22.174  -6.030 -14.534  1.00 32.92    -0.647 OA
ATOM     19  OE2 GLU D 570     -22.288  -4.138 -13.436  1.00 32.92    -0.647 OA
ENDBRANCH  16  17
ENDBRANCH  15  16
ENDBRANCH  14  15
END_RES GLU D 570
ENDMDL
MODEL 8
REMARK VINA RESULT:      -6.2      9.812     13.902
REMARK  14 active torsions:
REMARK  status: ('A' for Active; 'I' for Inactive)
REMARK    1  A    between atoms: C_2  and  C_3 
REMARK    2  A    between atoms: C_3  and  C_4 
REMARK    3  A    between atoms: C_4  and  C_5 
REMARK    4  A    between atoms: C_5  and  C_6 
REMARK    5  A    between atoms: C_6  and  C_7 
REMARK    6  A    between atoms: C_7  and  C_8 
REMARK    7  A    between atoms: C_8  and  C_9 
REMARK    8  A    between atoms: C_9  and  C_10 
REMARK    9  A    between atoms: C_9  and  C_16 
REMARK   10  A    between atoms: C_10  and  C_11 
REMARK   11  A    between atoms: C_11  and  C_12 
REMARK   12  A    between atoms: C_12  and  C_13 
REMARK   13  A    between atoms: C_13  and  C_14 
REMARK   14  A    between atoms: C_16  and  O_17 
ROOT
HETATM    1  C   UNL     1     -21.678  -7.823  -4.066  1.00  0.00     0.009 C 
ENDROOT
BRANCH   1   2
HETATM    2  C   UNL     1     -21.062  -7.156  -2.807  1.00  0.00     0.007 C 
BRANCH   2   3
HETATM    3  C   UNL     1     -22.075  -6.374  -1.972  1.00  0.00     0.000 C 
BRANCH   3   4
HETATM    4  C   UNL     1     -22.462  -7.065  -0.661  1.00  0.00     0.000 C 
BRANCH   4   5
HETATM    5  C   UNL     1     -21.349  -8.045  -0.281  1.00  0.00     0.000 C 
BRANCH   5   6
HETATM    6  C   UNL     1     -21.885  -9.400   0.166  1.00  0.00     0.000 C 
BRANCH   6   7
HETATM    7  C   UNL     1     -23.412  -9.437   0.064  1.00  0.00    -0.000 C 
BRANCH   7   8
HETATM    8  C   UNL     1     -23.906 -10.865  -0.130  1.00  0.00    -0.005 C 
HETATM    9  C   UNL     1     -23.706 -11.336  -1.562  1.00  0.00     0.005 C 
ENDBRANCH   7   8
ENDBRANCH   6   7
ENDBRANCH   5   6
ENDBRANCH   4   5
ENDBRANCH   3   4
ENDBRANCH   2   3
ENDBRANCH   1   2
BRANCH   1  10
HETATM   10  C   UNL     1     -21.055  -7.321  -5.393  1.00  0.00     0.007 C 
BRANCH  10  11
HETATM   11  C   UNL     1     -21.431  -5.871  -5.771  1.00  0.00     0.000 C 
BRANCH  11  12
HETATM   12  C   UNL     1     -20.277  -4.862  -5.693  1.00  0.00     0.000 C 
BRANCH  12  13
HETATM   13  C   UNL     1     -19.418  -4.884  -6.958  1.00  0.00    -0.000 C 
BRANCH  13  14
HETATM   14  C   UNL     1     -19.920  -3.915  -8.025  1.00  0.00    -0.005 C 
HETATM   15  C   UNL     1     -20.227  -4.676  -9.309  1.00  0.00     0.005 C 
ENDBRANCH  13  14
ENDBRANCH  12  13
ENDBRANCH  11  12
ENDBRANCH  10  11
ENDBRANCH   1  10
BRANCH   1  16
HETATM   16  C   UNL     1     -21.559  -9.351  -3.935  1.00  0.00     0.168 C 
BRANCH  16  17
HETATM   17  O   UNL     1     -20.379  -9.733  -3.234  1.00  0.00    -0.400 OA
HETATM   18  H   UNL     1     -19.682  -9.919  -3.886  1.00  0.00     0.209 HD
ENDBRANCH  16  17
ENDBRANCH   1  16
TORSDOF 14
BEGIN_RES ARG D 557
REMARK  4 active torsions:
REMARK  status: ('A' for Active; 'I' for Inactive)
REMARK    1  A    between atoms: CA   and  CB  
REMARK    2  A    between atoms: CB   and  CG  
REMARK    3  A    between atoms: CG   and  CD  
REMARK    4  A    between atoms: CD   and  NE  
REMARK       I    between atoms: NE   and  CZ  
REMARK       I    between atoms: CZ   and  NH1 
REMARK       I    between atoms: CZ   and  NH2 
ROOT
ATOM      1  CA  ARG D 557     -26.217   2.705 -17.014  1.00 35.49     0.159 C 
ENDROOT
BRANCH   1   2
ATOM      2  CB  ARG D 557     -26.789   1.319 -17.183  1.00 35.49     0.034 C 
BRANCH   2   3
ATOM      3  CG  ARG D 557     -25.863   0.195 -16.998  1.00 35.49     0.027 C 
BRANCH   3   4
ATOM      4  CD  ARG D 557     -26.284  -0.708 -15.902  1.00 35.49     0.116 C 
BRANCH   4   5
ATOM      5  NE  ARG D 557     -25.227  -0.936 -14.952  1.00 35.49    -0.212 N 
ATOM      6  CZ  ARG D 557     -24.990  -2.066 -14.324  1.00 35.49     0.666 C 
ATOM      7  NH1 ARG D 557     -25.733  -3.144 -14.497  1.00 35.49    -0.235 N 
ATOM      8  NH2 ARG D 557     -23.973  -2.100 -13.512  1.00 35.49    -0.235 N 
ATOM      9  HH  ARG D 557     -26.406  -3.145 -15.029  1.00 35.49     0.174 HD
ATOM     10  HH  ARG D 557     -25.529  -3.853 -14.063  1.00 35.49     0.174 HD
ATOM     11  HH  ARG D 557     -23.507  -1.392 -13.426  1.00 35.49     0.174 HD
ATOM     12  HH  ARG D 557     -23.787  -2.813 -13.092  1.00 35.49     0.174 HD
ATOM     13  HE  ARG D 557     -24.743  -0.275 -14.725  1.00 35.49     0.178 HD
ENDBRANCH   4   5
ENDBRANCH   3   4
ENDBRANCH   2   3
ENDBRANCH   1   2
END_RES ARG D 557
BEGIN_RES GLU D 570
REMARK  3 active torsions:
REMARK  status: ('A' for Active; 'I' for Inactive)
REMARK    5  A    between atoms: CA   and  CB  
REMARK    6  A    between atoms: CB   and  CG  
REMARK    7  A    between atoms: CG   and  CD  
ROOT
ATOM     14  CA  GLU D 570     -18.033  -6.348 -13.375  1.00 32.92     0.160 C 
ENDROOT
BRANCH  14  15
ATOM     15  CB  GLU D 570     -19.500  -6.345 -13.794  1.00 32.92     0.043 C 
BRANCH  15  16
ATOM     16  CG  GLU D 570     -20.449  -5.564 -12.959  1.00 32.92     0.100 C 
BRANCH  16  17
ATOM     17  CD  GLU D 570     -21.689  -5.143 -13.713  1.00 32.92     0.185 C 
ATOM     18  OE1 GLU D 570     -21.662  -5.123 -14.959  1.00 32.92    -0.647 OA
ATOM     19  OE2 GLU D 570     -22.692  -4.813 -13.051  1.00 32.92    -0.647 OA
ENDBRANCH  16  17
ENDBRANCH  15  16
ENDBRANCH  14  15
END_RES GLU D 570
ENDMDL
MODEL 9
REMARK VINA RESULT:      -6.2      8.801     12.535
REMARK  14 active torsions:
REMARK  status: ('A' for Active; 'I' for Inactive)
REMARK    1  A    between atoms: C_2  and  C_3 
REMARK    2  A    between atoms: C_3  and  C_4 
REMARK    3  A    between atoms: C_4  and  C_5 
REMARK    4  A    between atoms: C_5  and  C_6 
REMARK    5  A    between atoms: C_6  and  C_7 
REMARK    6  A    between atoms: C_7  and  C_8 
REMARK    7  A    between atoms: C_8  and  C_9 
REMARK    8  A    between atoms: C_9  and  C_10 
REMARK    9  A    between atoms: C_9  and  C_16 
REMARK   10  A    between atoms: C_10  and  C_11 
REMARK   11  A    between atoms: C_11  and  C_12 
REMARK   12  A    between atoms: C_12  and  C_13 
REMARK   13  A    between atoms: C_13  and  C_14 
REMARK   14  A    between atoms: C_16  and  O_17 
ROOT
HETATM    1  C   UNL     1     -21.512  -4.843  -6.770  1.00  0.00     0.009 C 
ENDROOT
BRANCH   1   2
HETATM    2  C   UNL     1     -21.921  -6.015  -5.837  1.00  0.00     0.007 C 
BRANCH   2   3
HETATM    3  C   UNL     1     -21.239  -5.975  -4.470  1.00  0.00     0.000 C 
BRANCH   3   4
HETATM    4  C   UNL     1     -21.674  -7.101  -3.528  1.00  0.00     0.000 C 
BRANCH   4   5
HETATM    5  C   UNL     1     -21.919  -6.505  -2.139  1.00  0.00     0.000 C 
BRANCH   5   6
HETATM    6  C   UNL     1     -21.654  -7.501  -1.016  1.00  0.00     0.000 C 
BRANCH   6   7
HETATM    7  C   UNL     1     -22.770  -7.447   0.030  1.00  0.00    -0.000 C 
BRANCH   7   8
HETATM    8  C   UNL     1     -23.260  -8.849   0.370  1.00  0.00    -0.005 C 
HETATM    9  C   UNL     1     -22.795  -9.868  -0.658  1.00  0.00     0.005 C 
ENDBRANCH   7   8
ENDBRANCH   6   7
ENDBRANCH   5   6
ENDBRANCH   4   5
ENDBRANCH   3   4
ENDBRANCH   2   3
ENDBRANCH   1   2
BRANCH   1  10
HETATM   10  C   UNL     1     -20.417  -5.228  -7.796  1.00  0.00     0.007 C 
BRANCH  10  11
HETATM   11  C   UNL     1     -20.102  -4.135  -8.840  1.00  0.00     0.000 C 
BRANCH  11  12
HETATM   12  C   UNL     1     -20.465  -4.499 -10.287  1.00  0.00     0.000 C 
BRANCH  12  13
HETATM   13  C   UNL     1     -20.605  -3.256 -11.166  1.00  0.00    -0.000 C 
BRANCH  13  14
HETATM   14  C   UNL     1     -21.918  -3.230 -11.944  1.00  0.00    -0.005 C 
HETATM   15  C   UNL     1     -23.087  -3.429 -10.988  1.00  0.00     0.005 C 
ENDBRANCH  13  14
ENDBRANCH  12  13
ENDBRANCH  11  12
ENDBRANCH  10  11
ENDBRANCH   1  10
BRANCH   1  16
HETATM   16  C   UNL     1     -22.768  -4.296  -7.469  1.00  0.00     0.168 C 
BRANCH  16  17
HETATM   17  O   UNL     1     -23.935  -4.463  -6.670  1.00  0.00    -0.400 OA
HETATM   18  H   UNL     1     -24.402  -3.611  -6.627  1.00  0.00     0.209 HD
ENDBRANCH  16  17
ENDBRANCH   1  16
TORSDOF 14
BEGIN_RES ARG D 557
REMARK  4 active torsions:
REMARK  status: ('A' for Active; 'I' for Inactive)
REMARK    1  A    between atoms: CA   and  CB  
REMARK    2  A    between atoms: CB   and  CG  
REMARK    3  A    between atoms: CG   and  CD  
REMARK    4  A    between atoms: CD   and  NE  
REMARK       I    between atoms: NE   and  CZ  
REMARK       I    between atoms: CZ   and  NH1 
REMARK       I    between atoms: CZ   and  NH2 
ROOT
ATOM      1  CA  ARG D 557     -26.217   2.705 -17.014  1.00 35.49     0.159 C 
ENDROOT
BRANCH   1   2
ATOM      2  CB  ARG D 557     -26.789   1.319 -17.183  1.00 35.49     0.034 C 
BRANCH   2   3
ATOM      3  CG  ARG D 557     -28.234   1.170 -16.971  1.00 35.49     0.027 C 
BRANCH   3   4
ATOM      4  CD  ARG D 557     -28.626  -0.236 -16.723  1.00 35.49     0.116 C 
BRANCH   4   5
ATOM      5  NE  ARG D 557     -27.603  -0.969 -16.026  1.00 35.49    -0.212 N 
ATOM      6  CZ  ARG D 557     -27.411  -2.268 -16.087  1.00 35.49     0.666 C 
ATOM      7  NH1 ARG D 557     -28.177  -3.064 -16.811  1.00 35.49    -0.235 N 
ATOM      8  NH2 ARG D 557     -26.419  -2.762 -15.404  1.00 35.49    -0.235 N 
ATOM      9  HH  ARG D 557     -28.834  -2.761 -17.270  1.00 35.49     0.174 HD
ATOM     10  HH  ARG D 557     -28.003  -3.903 -16.814  1.00 35.49     0.174 HD
ATOM     11  HH  ARG D 557     -25.937  -2.223 -14.952  1.00 35.49     0.174 HD
ATOM     12  HH  ARG D 557     -26.262  -3.595 -15.422  1.00 35.49     0.174 HD
ATOM     13  HE  ARG D 557     -27.109  -0.544 -15.479  1.00 35.49     0.178 HD
ENDBRANCH   4   5
ENDBRANCH   3   4
ENDBRANCH   2   3
ENDBRANCH   1   2
END_RES ARG D 557
BEGIN_RES GLU D 570
REMARK  3 active torsions:
REMARK  status: ('A' for Active; 'I' for Inactive)
REMARK    5  A    between atoms: CA   and  CB  
REMARK    6  A    between atoms: CB   and  CG  
REMARK    7  A    between atoms: CG   and  CD  
ROOT
ATOM     14  CA  GLU D 570     -18.033  -6.348 -13.375  1.00 32.92     0.160 C 
ENDROOT
BRANCH  14  15
ATOM     15  CB  GLU D 570     -19.500  -6.345 -13.794  1.00 32.92     0.043 C 
BRANCH  15  16
ATOM     16  CG  GLU D 570     -19.798  -6.207 -15.243  1.00 32.92     0.100 C 
BRANCH  16  17
ATOM     17  CD  GLU D 570     -21.143  -5.573 -15.511  1.00 32.92     0.185 C 
ATOM     18  OE1 GLU D 570     -21.985  -5.529 -14.593  1.00 32.92    -0.647 OA
ATOM     19  OE2 GLU D 570     -21.363  -5.130 -16.655  1.00 32.92    -0.647 OA
ENDBRANCH  16  17
ENDBRANCH  15  16
ENDBRANCH  14  15
END_RES GLU D 570
ENDMDL
