MODEL 1
REMARK VINA RESULT:      -3.6      0.000      0.000
REMARK  13 active torsions:
REMARK  status: ('A' for Active; 'I' for Inactive)
REMARK    1  A    between atoms: C_2  and  O_4 
REMARK    2  A    between atoms: C_7  and  O_9 
REMARK    3  A    between atoms: C_13  and  C_21 
REMARK       I    between atoms: N_14  and  C_16 
REMARK    4  A    between atoms: C_16  and  C_18 
REMARK    5  A    between atoms: C_18  and  C_19 
REMARK    6  A    between atoms: C_19  and  N_20 
REMARK       I    between atoms: C_21  and  N_23 
REMARK    7  A    between atoms: N_23  and  C_24 
REMARK    8  A    between atoms: C_24  and  C_25 
REMARK    9  A    between atoms: C_24  and  C_28 
REMARK   10  A    between atoms: C_25  and  C_26 
REMARK   11  A    between atoms: C_26  and  N_27 
REMARK       I    between atoms: C_28  and  N_30 
REMARK   12  A    between atoms: N_30  and  C_31 
REMARK   13  A    between atoms: C_31  and  C_32 
ROOT
HETATM    1  C   UNL     1     -23.304  -4.281  -9.938  1.00  0.00     0.125 C 
HETATM    2  C   UNL     1     -24.509  -3.425 -10.203  1.00  0.00     0.135 C 
HETATM    3  O   UNL     1     -24.978  -3.233 -11.316  1.00  0.00    -0.650 OA
ENDROOT
BRANCH   2   4
HETATM    4  O   UNL     1     -25.045  -2.846  -9.108  1.00  0.00    -0.777 OA
HETATM    5  H   UNL     1     -25.681  -3.407  -8.616  1.00  0.00     0.167 HD
ENDBRANCH   2   4
TORSDOF 13
BEGIN_RES ARG D 557
REMARK  4 active torsions:
REMARK  status: ('A' for Active; 'I' for Inactive)
REMARK    1  A    between atoms: CA   and  CB  
REMARK    2  A    between atoms: CB   and  CG  
REMARK    3  A    between atoms: CG   and  CD  
REMARK    4  A    between atoms: CD   and  NE  
REMARK       I    between atoms: NE   and  CZ  
REMARK       I    between atoms: CZ   and  NH1 
REMARK       I    between atoms: CZ   and  NH2 
ROOT
ATOM      1  CA  ARG D 557     -26.217   2.705 -17.014  1.00 35.49     0.159 C 
ENDROOT
BRANCH   1   2
ATOM      2  CB  ARG D 557     -26.789   1.319 -17.183  1.00 35.49     0.034 C 
BRANCH   2   3
ATOM      3  CG  ARG D 557     -25.852   0.197 -17.047  1.00 35.49     0.027 C 
BRANCH   3   4
ATOM      4  CD  ARG D 557     -26.192  -0.687 -15.909  1.00 35.49     0.116 C 
BRANCH   4   5
ATOM      5  NE  ARG D 557     -25.111  -0.793 -14.964  1.00 35.49    -0.212 N 
ATOM      6  CZ  ARG D 557     -24.730  -1.892 -14.353  1.00 35.49     0.666 C 
ATOM      7  NH1 ARG D 557     -25.331  -3.053 -14.541  1.00 35.49    -0.235 N 
ATOM      8  NH2 ARG D 557     -23.715  -1.808 -13.543  1.00 35.49    -0.235 N 
ATOM      9  HH  ARG D 557     -25.999  -3.132 -15.071  1.00 35.49     0.174 HD
ATOM     10  HH  ARG D 557     -25.036  -3.737 -14.117  1.00 35.49     0.174 HD
ATOM     11  HH  ARG D 557     -23.342  -1.047 -13.447  1.00 35.49     0.174 HD
ATOM     12  HH  ARG D 557     -23.437  -2.496 -13.134  1.00 35.49     0.174 HD
ATOM     13  HE  ARG D 557     -24.715  -0.078 -14.728  1.00 35.49     0.178 HD
ENDBRANCH   4   5
ENDBRANCH   3   4
ENDBRANCH   2   3
ENDBRANCH   1   2
END_RES ARG D 557
BEGIN_RES GLU D 570
REMARK  3 active torsions:
REMARK  status: ('A' for Active; 'I' for Inactive)
REMARK    5  A    between atoms: CA   and  CB  
REMARK    6  A    between atoms: CB   and  CG  
REMARK    7  A    between atoms: CG   and  CD  
ROOT
ATOM     14  CA  GLU D 570     -18.033  -6.348 -13.375  1.00 32.92     0.160 C 
ENDROOT
BRANCH  14  15
ATOM     15  CB  GLU D 570     -19.500  -6.345 -13.794  1.00 32.92     0.043 C 
BRANCH  15  16
ATOM     16  CG  GLU D 570     -20.437  -5.508 -13.000  1.00 32.92     0.100 C 
BRANCH  16  17
ATOM     17  CD  GLU D 570     -21.779  -5.328 -13.671  1.00 32.92     0.185 C 
ATOM     18  OE1 GLU D 570     -22.471  -4.334 -13.381  1.00 32.92    -0.647 OA
ATOM     19  OE2 GLU D 570     -22.149  -6.200 -14.482  1.00 32.92    -0.647 OA
ENDBRANCH  16  17
ENDBRANCH  15  16
ENDBRANCH  14  15
END_RES GLU D 570
ENDMDL
MODEL 2
REMARK VINA RESULT:      -3.4      6.968      8.264
REMARK  13 active torsions:
REMARK  status: ('A' for Active; 'I' for Inactive)
REMARK    1  A    between atoms: C_2  and  O_4 
REMARK    2  A    between atoms: C_7  and  O_9 
REMARK    3  A    between atoms: C_13  and  C_21 
REMARK       I    between atoms: N_14  and  C_16 
REMARK    4  A    between atoms: C_16  and  C_18 
REMARK    5  A    between atoms: C_18  and  C_19 
REMARK    6  A    between atoms: C_19  and  N_20 
REMARK       I    between atoms: C_21  and  N_23 
REMARK    7  A    between atoms: N_23  and  C_24 
REMARK    8  A    between atoms: C_24  and  C_25 
REMARK    9  A    between atoms: C_24  and  C_28 
REMARK   10  A    between atoms: C_25  and  C_26 
REMARK   11  A    between atoms: C_26  and  N_27 
REMARK       I    between atoms: C_28  and  N_30 
REMARK   12  A    between atoms: N_30  and  C_31 
REMARK   13  A    between atoms: C_31  and  C_32 
ROOT
HETATM    1  C   UNL     1     -28.876 -14.971 -18.081  1.00  0.00     0.125 C 
HETATM    2  C   UNL     1     -29.992 -14.579 -19.007  1.00  0.00     0.135 C 
HETATM    3  O   UNL     1     -30.429 -13.441 -19.103  1.00  0.00    -0.650 OA
ENDROOT
BRANCH   2   4
HETATM    4  O   UNL     1     -30.512 -15.593 -19.729  1.00  0.00    -0.777 OA
HETATM    5  H   UNL     1     -29.963 -16.405 -19.753  1.00  0.00     0.167 HD
ENDBRANCH   2   4
TORSDOF 13
BEGIN_RES ARG D 557
REMARK  4 active torsions:
REMARK  status: ('A' for Active; 'I' for Inactive)
REMARK    1  A    between atoms: CA   and  CB  
REMARK    2  A    between atoms: CB   and  CG  
REMARK    3  A    between atoms: CG   and  CD  
REMARK    4  A    between atoms: CD   and  NE  
REMARK       I    between atoms: NE   and  CZ  
REMARK       I    between atoms: CZ   and  NH1 
REMARK       I    between atoms: CZ   and  NH2 
ROOT
ATOM      1  CA  ARG D 557     -26.217   2.705 -17.014  1.00 35.49     0.159 C 
ENDROOT
BRANCH   1   2
ATOM      2  CB  ARG D 557     -26.789   1.319 -17.183  1.00 35.49     0.034 C 
BRANCH   2   3
ATOM      3  CG  ARG D 557     -25.835   0.204 -17.163  1.00 35.49     0.027 C 
BRANCH   3   4
ATOM      4  CD  ARG D 557     -24.749   0.407 -16.176  1.00 35.49     0.116 C 
BRANCH   4   5
ATOM      5  NE  ARG D 557     -24.899  -0.439 -15.022  1.00 35.49    -0.212 N 
ATOM      6  CZ  ARG D 557     -24.086  -1.409 -14.669  1.00 35.49     0.666 C 
ATOM      7  NH1 ARG D 557     -23.015  -1.726 -15.373  1.00 35.49    -0.235 N 
ATOM      8  NH2 ARG D 557     -24.365  -2.060 -13.578  1.00 35.49    -0.235 N 
ATOM      9  HH  ARG D 557     -22.810  -1.309 -16.093  1.00 35.49     0.174 HD
ATOM     10  HH  ARG D 557     -22.519  -2.367 -15.093  1.00 35.49     0.174 HD
ATOM     11  HH  ARG D 557     -25.059  -1.828 -13.140  1.00 35.49     0.174 HD
ATOM     12  HH  ARG D 557     -23.861  -2.690 -13.317  1.00 35.49     0.174 HD
ATOM     13  HE  ARG D 557     -25.602  -0.351 -14.551  1.00 35.49     0.178 HD
ENDBRANCH   4   5
ENDBRANCH   3   4
ENDBRANCH   2   3
ENDBRANCH   1   2
END_RES ARG D 557
BEGIN_RES GLU D 570
REMARK  3 active torsions:
REMARK  status: ('A' for Active; 'I' for Inactive)
REMARK    5  A    between atoms: CA   and  CB  
REMARK    6  A    between atoms: CB   and  CG  
REMARK    7  A    between atoms: CG   and  CD  
ROOT
ATOM     14  CA  GLU D 570     -18.033  -6.348 -13.375  1.00 32.92     0.160 C 
ENDROOT
BRANCH  14  15
ATOM     15  CB  GLU D 570     -19.500  -6.345 -13.794  1.00 32.92     0.043 C 
BRANCH  15  16
ATOM     16  CG  GLU D 570     -20.442  -5.529 -12.984  1.00 32.92     0.100 C 
BRANCH  16  17
ATOM     17  CD  GLU D 570     -21.744  -5.251 -13.698  1.00 32.92     0.185 C 
ATOM     18  OE1 GLU D 570     -22.306  -4.153 -13.524  1.00 32.92    -0.647 OA
ATOM     19  OE2 GLU D 570     -22.215  -6.147 -14.425  1.00 32.92    -0.647 OA
ENDBRANCH  16  17
ENDBRANCH  15  16
ENDBRANCH  14  15
END_RES GLU D 570
ENDMDL
MODEL 3
REMARK VINA RESULT:      -3.1      3.069      3.865
REMARK  13 active torsions:
REMARK  status: ('A' for Active; 'I' for Inactive)
REMARK    1  A    between atoms: C_2  and  O_4 
REMARK    2  A    between atoms: C_7  and  O_9 
REMARK    3  A    between atoms: C_13  and  C_21 
REMARK       I    between atoms: N_14  and  C_16 
REMARK    4  A    between atoms: C_16  and  C_18 
REMARK    5  A    between atoms: C_18  and  C_19 
REMARK    6  A    between atoms: C_19  and  N_20 
REMARK       I    between atoms: C_21  and  N_23 
REMARK    7  A    between atoms: N_23  and  C_24 
REMARK    8  A    between atoms: C_24  and  C_25 
REMARK    9  A    between atoms: C_24  and  C_28 
REMARK   10  A    between atoms: C_25  and  C_26 
REMARK   11  A    between atoms: C_26  and  N_27 
REMARK       I    between atoms: C_28  and  N_30 
REMARK   12  A    between atoms: N_30  and  C_31 
REMARK   13  A    between atoms: C_31  and  C_32 
ROOT
HETATM    1  C   UNL     1     -24.071  -7.438 -16.898  1.00  0.00     0.125 C 
HETATM    2  C   UNL     1     -24.894  -6.869 -15.779  1.00  0.00     0.135 C 
HETATM    3  O   UNL     1     -25.909  -7.395 -15.344  1.00  0.00    -0.650 OA
ENDROOT
BRANCH   2   4
HETATM    4  O   UNL     1     -24.446  -5.696 -15.284  1.00  0.00    -0.777 OA
HETATM    5  H   UNL     1     -23.931  -5.771 -14.453  1.00  0.00     0.167 HD
ENDBRANCH   2   4
TORSDOF 13
BEGIN_RES ARG D 557
REMARK  4 active torsions:
REMARK  status: ('A' for Active; 'I' for Inactive)
REMARK    1  A    between atoms: CA   and  CB  
REMARK    2  A    between atoms: CB   and  CG  
REMARK    3  A    between atoms: CG   and  CD  
REMARK    4  A    between atoms: CD   and  NE  
REMARK       I    between atoms: NE   and  CZ  
REMARK       I    between atoms: CZ   and  NH1 
REMARK       I    between atoms: CZ   and  NH2 
ROOT
ATOM      1  CA  ARG D 557     -26.217   2.705 -17.014  1.00 35.49     0.159 C 
ENDROOT
BRANCH   1   2
ATOM      2  CB  ARG D 557     -26.789   1.319 -17.183  1.00 35.49     0.034 C 
BRANCH   2   3
ATOM      3  CG  ARG D 557     -25.895   0.194 -16.882  1.00 35.49     0.027 C 
BRANCH   3   4
ATOM      4  CD  ARG D 557     -26.465  -0.724 -15.869  1.00 35.49     0.116 C 
BRANCH   4   5
ATOM      5  NE  ARG D 557     -25.446  -1.334 -15.056  1.00 35.49    -0.212 N 
ATOM      6  CZ  ARG D 557     -25.430  -2.586 -14.656  1.00 35.49     0.666 C 
ATOM      7  NH1 ARG D 557     -26.390  -3.440 -14.960  1.00 35.49    -0.235 N 
ATOM      8  NH2 ARG D 557     -24.414  -2.974 -13.941  1.00 35.49    -0.235 N 
ATOM      9  HH  ARG D 557     -27.066  -3.206 -15.431  1.00 35.49     0.174 HD
ATOM     10  HH  ARG D 557     -26.324  -4.245 -14.673  1.00 35.49     0.174 HD
ATOM     11  HH  ARG D 557     -23.805  -2.403 -13.767  1.00 35.49     0.174 HD
ATOM     12  HH  ARG D 557     -24.367  -3.776 -13.668  1.00 35.49     0.174 HD
ATOM     13  HE  ARG D 557     -24.825  -0.837 -14.754  1.00 35.49     0.178 HD
ENDBRANCH   4   5
ENDBRANCH   3   4
ENDBRANCH   2   3
ENDBRANCH   1   2
END_RES ARG D 557
BEGIN_RES GLU D 570
REMARK  3 active torsions:
REMARK  status: ('A' for Active; 'I' for Inactive)
REMARK    5  A    between atoms: CA   and  CB  
REMARK    6  A    between atoms: CB   and  CG  
REMARK    7  A    between atoms: CG   and  CD  
ROOT
ATOM     14  CA  GLU D 570     -18.033  -6.348 -13.375  1.00 32.92     0.160 C 
ENDROOT
BRANCH  14  15
ATOM     15  CB  GLU D 570     -19.500  -6.345 -13.794  1.00 32.92     0.043 C 
BRANCH  15  16
ATOM     16  CG  GLU D 570     -19.812  -5.950 -15.192  1.00 32.92     0.100 C 
BRANCH  16  17
ATOM     17  CD  GLU D 570     -21.152  -5.264 -15.325  1.00 32.92     0.185 C 
ATOM     18  OE1 GLU D 570     -21.587  -5.004 -16.463  1.00 32.92    -0.647 OA
ATOM     19  OE2 GLU D 570     -21.765  -4.970 -14.280  1.00 32.92    -0.647 OA
ENDBRANCH  16  17
ENDBRANCH  15  16
ENDBRANCH  14  15
END_RES GLU D 570
ENDMDL
MODEL 4
REMARK VINA RESULT:      -3.1      1.447      1.561
REMARK  13 active torsions:
REMARK  status: ('A' for Active; 'I' for Inactive)
REMARK    1  A    between atoms: C_2  and  O_4 
REMARK    2  A    between atoms: C_7  and  O_9 
REMARK    3  A    between atoms: C_13  and  C_21 
REMARK       I    between atoms: N_14  and  C_16 
REMARK    4  A    between atoms: C_16  and  C_18 
REMARK    5  A    between atoms: C_18  and  C_19 
REMARK    6  A    between atoms: C_19  and  N_20 
REMARK       I    between atoms: C_21  and  N_23 
REMARK    7  A    between atoms: N_23  and  C_24 
REMARK    8  A    between atoms: C_24  and  C_25 
REMARK    9  A    between atoms: C_24  and  C_28 
REMARK   10  A    between atoms: C_25  and  C_26 
REMARK   11  A    between atoms: C_26  and  N_27 
REMARK       I    between atoms: C_28  and  N_30 
REMARK   12  A    between atoms: N_30  and  C_31 
REMARK   13  A    between atoms: C_31  and  C_32 
ROOT
HETATM    1  C   UNL     1     -23.745  -3.957  -9.047  1.00  0.00     0.125 C 
HETATM    2  C   UNL     1     -24.674  -3.354 -10.061  1.00  0.00     0.135 C 
HETATM    3  O   UNL     1     -24.313  -2.937 -11.153  1.00  0.00    -0.650 OA
ENDROOT
BRANCH   2   4
HETATM    4  O   UNL     1     -25.964  -3.276  -9.673  1.00  0.00    -0.777 OA
HETATM    5  H   UNL     1     -26.112  -3.394  -8.711  1.00  0.00     0.167 HD
ENDBRANCH   2   4
TORSDOF 13
BEGIN_RES ARG D 557
REMARK  4 active torsions:
REMARK  status: ('A' for Active; 'I' for Inactive)
REMARK    1  A    between atoms: CA   and  CB  
REMARK    2  A    between atoms: CB   and  CG  
REMARK    3  A    between atoms: CG   and  CD  
REMARK    4  A    between atoms: CD   and  NE  
REMARK       I    between atoms: NE   and  CZ  
REMARK       I    between atoms: CZ   and  NH1 
REMARK       I    between atoms: CZ   and  NH2 
ROOT
ATOM      1  CA  ARG D 557     -26.217   2.705 -17.014  1.00 35.49     0.159 C 
ENDROOT
BRANCH   1   2
ATOM      2  CB  ARG D 557     -26.789   1.319 -17.183  1.00 35.49     0.034 C 
BRANCH   2   3
ATOM      3  CG  ARG D 557     -25.934   0.197 -16.775  1.00 35.49     0.027 C 
BRANCH   3   4
ATOM      4  CD  ARG D 557     -26.695  -0.869 -16.084  1.00 35.49     0.116 C 
BRANCH   4   5
ATOM      5  NE  ARG D 557     -25.891  -1.567 -15.115  1.00 35.49    -0.212 N 
ATOM      6  CZ  ARG D 557     -25.959  -2.851 -14.843  1.00 35.49     0.666 C 
ATOM      7  NH1 ARG D 557     -26.813  -3.659 -15.444  1.00 35.49    -0.235 N 
ATOM      8  NH2 ARG D 557     -25.138  -3.319 -13.949  1.00 35.49    -0.235 N 
ATOM      9  HH  ARG D 557     -27.362  -3.373 -16.037  1.00 35.49     0.174 HD
ATOM     10  HH  ARG D 557     -26.810  -4.488 -15.227  1.00 35.49     0.174 HD
ATOM     11  HH  ARG D 557     -24.592  -2.776 -13.583  1.00 35.49     0.174 HD
ATOM     12  HH  ARG D 557     -25.149  -4.144 -13.749  1.00 35.49     0.174 HD
ATOM     13  HE  ARG D 557     -25.364  -1.110 -14.630  1.00 35.49     0.178 HD
ENDBRANCH   4   5
ENDBRANCH   3   4
ENDBRANCH   2   3
ENDBRANCH   1   2
END_RES ARG D 557
BEGIN_RES GLU D 570
REMARK  3 active torsions:
REMARK  status: ('A' for Active; 'I' for Inactive)
REMARK    5  A    between atoms: CA   and  CB  
REMARK    6  A    between atoms: CB   and  CG  
REMARK    7  A    between atoms: CG   and  CD  
ROOT
ATOM     14  CA  GLU D 570     -18.033  -6.348 -13.375  1.00 32.92     0.160 C 
ENDROOT
BRANCH  14  15
ATOM     15  CB  GLU D 570     -19.500  -6.345 -13.794  1.00 32.92     0.043 C 
BRANCH  15  16
ATOM     16  CG  GLU D 570     -19.797  -6.221 -15.244  1.00 32.92     0.100 C 
BRANCH  16  17
ATOM     17  CD  GLU D 570     -21.045  -5.415 -15.523  1.00 32.92     0.185 C 
ATOM     18  OE1 GLU D 570     -21.723  -4.998 -14.565  1.00 32.92    -0.647 OA
ATOM     19  OE2 GLU D 570     -21.356  -5.213 -16.714  1.00 32.92    -0.647 OA
ENDBRANCH  16  17
ENDBRANCH  15  16
ENDBRANCH  14  15
END_RES GLU D 570
ENDMDL
MODEL 5
REMARK VINA RESULT:      -3.0      2.464      2.955
REMARK  13 active torsions:
REMARK  status: ('A' for Active; 'I' for Inactive)
REMARK    1  A    between atoms: C_2  and  O_4 
REMARK    2  A    between atoms: C_7  and  O_9 
REMARK    3  A    between atoms: C_13  and  C_21 
REMARK       I    between atoms: N_14  and  C_16 
REMARK    4  A    between atoms: C_16  and  C_18 
REMARK    5  A    between atoms: C_18  and  C_19 
REMARK    6  A    between atoms: C_19  and  N_20 
REMARK       I    between atoms: C_21  and  N_23 
REMARK    7  A    between atoms: N_23  and  C_24 
REMARK    8  A    between atoms: C_24  and  C_25 
REMARK    9  A    between atoms: C_24  and  C_28 
REMARK   10  A    between atoms: C_25  and  C_26 
REMARK   11  A    between atoms: C_26  and  N_27 
REMARK       I    between atoms: C_28  and  N_30 
REMARK   12  A    between atoms: N_30  and  C_31 
REMARK   13  A    between atoms: C_31  and  C_32 
ROOT
HETATM    1  C   UNL     1     -23.409  -4.066  -9.810  1.00  0.00     0.125 C 
HETATM    2  C   UNL     1     -24.576  -3.383 -10.464  1.00  0.00     0.135 C 
HETATM    3  O   UNL     1     -24.548  -2.923 -11.597  1.00  0.00    -0.650 OA
ENDROOT
BRANCH   2   4
HETATM    4  O   UNL     1     -25.680  -3.284  -9.695  1.00  0.00    -0.777 OA
HETATM    5  H   UNL     1     -26.217  -2.479  -9.850  1.00  0.00     0.167 HD
ENDBRANCH   2   4
TORSDOF 13
BEGIN_RES ARG D 557
REMARK  4 active torsions:
REMARK  status: ('A' for Active; 'I' for Inactive)
REMARK    1  A    between atoms: CA   and  CB  
REMARK    2  A    between atoms: CB   and  CG  
REMARK    3  A    between atoms: CG   and  CD  
REMARK    4  A    between atoms: CD   and  NE  
REMARK       I    between atoms: NE   and  CZ  
REMARK       I    between atoms: CZ   and  NH1 
REMARK       I    between atoms: CZ   and  NH2 
ROOT
ATOM      1  CA  ARG D 557     -26.217   2.705 -17.014  1.00 35.49     0.159 C 
ENDROOT
BRANCH   1   2
ATOM      2  CB  ARG D 557     -26.789   1.319 -17.183  1.00 35.49     0.034 C 
BRANCH   2   3
ATOM      3  CG  ARG D 557     -28.232   1.226 -17.435  1.00 35.49     0.027 C 
BRANCH   3   4
ATOM      4  CD  ARG D 557     -28.911   0.304 -16.495  1.00 35.49     0.116 C 
BRANCH   4   5
ATOM      5  NE  ARG D 557     -29.296  -0.929 -17.129  1.00 35.49    -0.212 N 
ATOM      6  CZ  ARG D 557     -28.660  -2.075 -17.029  1.00 35.49     0.666 C 
ATOM      7  NH1 ARG D 557     -27.553  -2.213 -16.323  1.00 35.49    -0.235 N 
ATOM      8  NH2 ARG D 557     -29.165  -3.098 -17.655  1.00 35.49    -0.235 N 
ATOM      9  HH  ARG D 557     -27.205  -1.553 -15.901  1.00 35.49     0.174 HD
ATOM     10  HH  ARG D 557     -27.183  -2.985 -16.292  1.00 35.49     0.174 HD
ATOM     11  HH  ARG D 557     -29.885  -2.981 -18.098  1.00 35.49     0.174 HD
ATOM     12  HH  ARG D 557     -28.785  -3.855 -17.612  1.00 35.49     0.174 HD
ATOM     13  HE  ARG D 557     -29.958  -0.914 -17.662  1.00 35.49     0.178 HD
ENDBRANCH   4   5
ENDBRANCH   3   4
ENDBRANCH   2   3
ENDBRANCH   1   2
END_RES ARG D 557
BEGIN_RES GLU D 570
REMARK  3 active torsions:
REMARK  status: ('A' for Active; 'I' for Inactive)
REMARK    5  A    between atoms: CA   and  CB  
REMARK    6  A    between atoms: CB   and  CG  
REMARK    7  A    between atoms: CG   and  CD  
ROOT
ATOM     14  CA  GLU D 570     -18.033  -6.348 -13.375  1.00 32.92     0.160 C 
ENDROOT
BRANCH  14  15
ATOM     15  CB  GLU D 570     -19.500  -6.345 -13.794  1.00 32.92     0.043 C 
BRANCH  15  16
ATOM     16  CG  GLU D 570     -20.437  -5.508 -13.001  1.00 32.92     0.100 C 
BRANCH  16  17
ATOM     17  CD  GLU D 570     -21.712  -5.184 -13.744  1.00 32.92     0.185 C 
ATOM     18  OE1 GLU D 570     -22.798  -5.242 -13.136  1.00 32.92    -0.647 OA
ATOM     19  OE2 GLU D 570     -21.625  -4.886 -14.951  1.00 32.92    -0.647 OA
ENDBRANCH  16  17
ENDBRANCH  15  16
ENDBRANCH  14  15
END_RES GLU D 570
ENDMDL
MODEL 6
REMARK VINA RESULT:      -3.0      4.948      5.422
REMARK  13 active torsions:
REMARK  status: ('A' for Active; 'I' for Inactive)
REMARK    1  A    between atoms: C_2  and  O_4 
REMARK    2  A    between atoms: C_7  and  O_9 
REMARK    3  A    between atoms: C_13  and  C_21 
REMARK       I    between atoms: N_14  and  C_16 
REMARK    4  A    between atoms: C_16  and  C_18 
REMARK    5  A    between atoms: C_18  and  C_19 
REMARK    6  A    between atoms: C_19  and  N_20 
REMARK       I    between atoms: C_21  and  N_23 
REMARK    7  A    between atoms: N_23  and  C_24 
REMARK    8  A    between atoms: C_24  and  C_25 
REMARK    9  A    between atoms: C_24  and  C_28 
REMARK   10  A    between atoms: C_25  and  C_26 
REMARK   11  A    between atoms: C_26  and  N_27 
REMARK       I    between atoms: C_28  and  N_30 
REMARK   12  A    between atoms: N_30  and  C_31 
REMARK   13  A    between atoms: C_31  and  C_32 
ROOT
HETATM    1  C   UNL     1     -21.087  -7.665  -1.666  1.00  0.00     0.125 C 
HETATM    2  C   UNL     1     -22.278  -6.865  -1.222  1.00  0.00     0.135 C 
HETATM    3  O   UNL     1     -22.997  -7.178  -0.284  1.00  0.00    -0.650 OA
ENDROOT
BRANCH   2   4
HETATM    4  O   UNL     1     -22.526  -5.761  -1.957  1.00  0.00    -0.777 OA
HETATM    5  H   UNL     1     -21.803  -5.504  -2.568  1.00  0.00     0.167 HD
ENDBRANCH   2   4
TORSDOF 13
BEGIN_RES ARG D 557
REMARK  4 active torsions:
REMARK  status: ('A' for Active; 'I' for Inactive)
REMARK    1  A    between atoms: CA   and  CB  
REMARK    2  A    between atoms: CB   and  CG  
REMARK    3  A    between atoms: CG   and  CD  
REMARK    4  A    between atoms: CD   and  NE  
REMARK       I    between atoms: NE   and  CZ  
REMARK       I    between atoms: CZ   and  NH1 
REMARK       I    between atoms: CZ   and  NH2 
ROOT
ATOM      1  CA  ARG D 557     -26.217   2.705 -17.014  1.00 35.49     0.159 C 
ENDROOT
BRANCH   1   2
ATOM      2  CB  ARG D 557     -26.789   1.319 -17.183  1.00 35.49     0.034 C 
BRANCH   2   3
ATOM      3  CG  ARG D 557     -25.836   0.203 -17.153  1.00 35.49     0.027 C 
BRANCH   3   4
ATOM      4  CD  ARG D 557     -24.752   0.413 -16.166  1.00 35.49     0.116 C 
BRANCH   4   5
ATOM      5  NE  ARG D 557     -24.896  -0.436 -15.014  1.00 35.49    -0.212 N 
ATOM      6  CZ  ARG D 557     -24.080  -1.408 -14.669  1.00 35.49     0.666 C 
ATOM      7  NH1 ARG D 557     -23.014  -1.724 -15.380  1.00 35.49    -0.235 N 
ATOM      8  NH2 ARG D 557     -24.354  -2.062 -13.578  1.00 35.49    -0.235 N 
ATOM      9  HH  ARG D 557     -22.813  -1.306 -16.100  1.00 35.49     0.174 HD
ATOM     10  HH  ARG D 557     -22.517  -2.366 -15.104  1.00 35.49     0.174 HD
ATOM     11  HH  ARG D 557     -25.045  -1.831 -13.135  1.00 35.49     0.174 HD
ATOM     12  HH  ARG D 557     -23.849  -2.693 -13.321  1.00 35.49     0.174 HD
ATOM     13  HE  ARG D 557     -25.595  -0.350 -14.538  1.00 35.49     0.178 HD
ENDBRANCH   4   5
ENDBRANCH   3   4
ENDBRANCH   2   3
ENDBRANCH   1   2
END_RES ARG D 557
BEGIN_RES GLU D 570
REMARK  3 active torsions:
REMARK  status: ('A' for Active; 'I' for Inactive)
REMARK    5  A    between atoms: CA   and  CB  
REMARK    6  A    between atoms: CB   and  CG  
REMARK    7  A    between atoms: CG   and  CD  
ROOT
ATOM     14  CA  GLU D 570     -18.033  -6.348 -13.375  1.00 32.92     0.160 C 
ENDROOT
BRANCH  14  15
ATOM     15  CB  GLU D 570     -19.500  -6.345 -13.794  1.00 32.92     0.043 C 
BRANCH  15  16
ATOM     16  CG  GLU D 570     -20.444  -5.539 -12.977  1.00 32.92     0.100 C 
BRANCH  16  17
ATOM     17  CD  GLU D 570     -21.744  -5.251 -13.691  1.00 32.92     0.185 C 
ATOM     18  OE1 GLU D 570     -22.242  -6.131 -14.419  1.00 32.92    -0.647 OA
ATOM     19  OE2 GLU D 570     -22.261  -4.128 -13.534  1.00 32.92    -0.647 OA
ENDBRANCH  16  17
ENDBRANCH  15  16
ENDBRANCH  14  15
END_RES GLU D 570
ENDMDL
MODEL 7
REMARK VINA RESULT:      -2.9      5.007      5.642
REMARK  13 active torsions:
REMARK  status: ('A' for Active; 'I' for Inactive)
REMARK    1  A    between atoms: C_2  and  O_4 
REMARK    2  A    between atoms: C_7  and  O_9 
REMARK    3  A    between atoms: C_13  and  C_21 
REMARK       I    between atoms: N_14  and  C_16 
REMARK    4  A    between atoms: C_16  and  C_18 
REMARK    5  A    between atoms: C_18  and  C_19 
REMARK    6  A    between atoms: C_19  and  N_20 
REMARK       I    between atoms: C_21  and  N_23 
REMARK    7  A    between atoms: N_23  and  C_24 
REMARK    8  A    between atoms: C_24  and  C_25 
REMARK    9  A    between atoms: C_24  and  C_28 
REMARK   10  A    between atoms: C_25  and  C_26 
REMARK   11  A    between atoms: C_26  and  N_27 
REMARK       I    between atoms: C_28  and  N_30 
REMARK   12  A    between atoms: N_30  and  C_31 
REMARK   13  A    between atoms: C_31  and  C_32 
ROOT
HETATM    1  C   UNL     1     -24.794   7.565 -11.440  1.00  0.00     0.125 C 
HETATM    2  C   UNL     1     -25.864   6.622 -10.970  1.00  0.00     0.135 C 
HETATM    3  O   UNL     1     -25.638   5.576 -10.378  1.00  0.00    -0.650 OA
ENDROOT
BRANCH   2   4
HETATM    4  O   UNL     1     -27.125   6.999 -11.270  1.00  0.00    -0.777 OA
HETATM    5  H   UNL     1     -27.379   6.871 -12.208  1.00  0.00     0.167 HD
ENDBRANCH   2   4
TORSDOF 13
BEGIN_RES ARG D 557
REMARK  4 active torsions:
REMARK  status: ('A' for Active; 'I' for Inactive)
REMARK    1  A    between atoms: CA   and  CB  
REMARK    2  A    between atoms: CB   and  CG  
REMARK    3  A    between atoms: CG   and  CD  
REMARK    4  A    between atoms: CD   and  NE  
REMARK       I    between atoms: NE   and  CZ  
REMARK       I    between atoms: CZ   and  NH1 
REMARK       I    between atoms: CZ   and  NH2 
ROOT
ATOM      1  CA  ARG D 557     -26.217   2.705 -17.014  1.00 35.49     0.159 C 
ENDROOT
BRANCH   1   2
ATOM      2  CB  ARG D 557     -26.789   1.319 -17.183  1.00 35.49     0.034 C 
BRANCH   2   3
ATOM      3  CG  ARG D 557     -25.836   0.203 -17.157  1.00 35.49     0.027 C 
BRANCH   3   4
ATOM      4  CD  ARG D 557     -24.749   0.412 -16.173  1.00 35.49     0.116 C 
BRANCH   4   5
ATOM      5  NE  ARG D 557     -24.895  -0.433 -15.017  1.00 35.49    -0.212 N 
ATOM      6  CZ  ARG D 557     -24.081  -1.405 -14.669  1.00 35.49     0.666 C 
ATOM      7  NH1 ARG D 557     -23.015  -1.726 -15.378  1.00 35.49    -0.235 N 
ATOM      8  NH2 ARG D 557     -24.356  -2.055 -13.575  1.00 35.49    -0.235 N 
ATOM      9  HH  ARG D 557     -22.814  -1.310 -16.100  1.00 35.49     0.174 HD
ATOM     10  HH  ARG D 557     -22.520  -2.367 -15.101  1.00 35.49     0.174 HD
ATOM     11  HH  ARG D 557     -25.047  -1.821 -13.133  1.00 35.49     0.174 HD
ATOM     12  HH  ARG D 557     -23.852  -2.686 -13.316  1.00 35.49     0.174 HD
ATOM     13  HE  ARG D 557     -25.594  -0.343 -14.542  1.00 35.49     0.178 HD
ENDBRANCH   4   5
ENDBRANCH   3   4
ENDBRANCH   2   3
ENDBRANCH   1   2
END_RES ARG D 557
BEGIN_RES GLU D 570
REMARK  3 active torsions:
REMARK  status: ('A' for Active; 'I' for Inactive)
REMARK    5  A    between atoms: CA   and  CB  
REMARK    6  A    between atoms: CB   and  CG  
REMARK    7  A    between atoms: CG   and  CD  
ROOT
ATOM     14  CA  GLU D 570     -18.033  -6.348 -13.375  1.00 32.92     0.160 C 
ENDROOT
BRANCH  14  15
ATOM     15  CB  GLU D 570     -19.500  -6.345 -13.794  1.00 32.92     0.043 C 
BRANCH  15  16
ATOM     16  CG  GLU D 570     -20.442  -5.533 -12.981  1.00 32.92     0.100 C 
BRANCH  16  17
ATOM     17  CD  GLU D 570     -21.741  -5.244 -13.698  1.00 32.92     0.185 C 
ATOM     18  OE1 GLU D 570     -22.295  -4.142 -13.525  1.00 32.92    -0.647 OA
ATOM     19  OE2 GLU D 570     -22.218  -6.137 -14.426  1.00 32.92    -0.647 OA
ENDBRANCH  16  17
ENDBRANCH  15  16
ENDBRANCH  14  15
END_RES GLU D 570
ENDMDL
MODEL 8
REMARK VINA RESULT:      -2.7      6.755      7.346
REMARK  13 active torsions:
REMARK  status: ('A' for Active; 'I' for Inactive)
REMARK    1  A    between atoms: C_2  and  O_4 
REMARK    2  A    between atoms: C_7  and  O_9 
REMARK    3  A    between atoms: C_13  and  C_21 
REMARK       I    between atoms: N_14  and  C_16 
REMARK    4  A    between atoms: C_16  and  C_18 
REMARK    5  A    between atoms: C_18  and  C_19 
REMARK    6  A    between atoms: C_19  and  N_20 
REMARK       I    between atoms: C_21  and  N_23 
REMARK    7  A    between atoms: N_23  and  C_24 
REMARK    8  A    between atoms: C_24  and  C_25 
REMARK    9  A    between atoms: C_24  and  C_28 
REMARK   10  A    between atoms: C_25  and  C_26 
REMARK   11  A    between atoms: C_26  and  N_27 
REMARK       I    between atoms: C_28  and  N_30 
REMARK   12  A    between atoms: N_30  and  C_31 
REMARK   13  A    between atoms: C_31  and  C_32 
ROOT
HETATM    1  C   UNL     1     -37.367  -8.499 -15.613  1.00  0.00     0.125 C 
HETATM    2  C   UNL     1     -36.157  -7.671 -15.286  1.00  0.00     0.135 C 
HETATM    3  O   UNL     1     -35.458  -7.125 -16.128  1.00  0.00    -0.650 OA
ENDROOT
BRANCH   2   4
HETATM    4  O   UNL     1     -35.868  -7.583 -13.971  1.00  0.00    -0.777 OA
HETATM    5  H   UNL     1     -36.620  -7.774 -13.372  1.00  0.00     0.167 HD
ENDBRANCH   2   4
TORSDOF 13
BEGIN_RES ARG D 557
REMARK  4 active torsions:
REMARK  status: ('A' for Active; 'I' for Inactive)
REMARK    1  A    between atoms: CA   and  CB  
REMARK    2  A    between atoms: CB   and  CG  
REMARK    3  A    between atoms: CG   and  CD  
REMARK    4  A    between atoms: CD   and  NE  
REMARK       I    between atoms: NE   and  CZ  
REMARK       I    between atoms: CZ   and  NH1 
REMARK       I    between atoms: CZ   and  NH2 
ROOT
ATOM      1  CA  ARG D 557     -26.217   2.705 -17.014  1.00 35.49     0.159 C 
ENDROOT
BRANCH   1   2
ATOM      2  CB  ARG D 557     -26.789   1.319 -17.183  1.00 35.49     0.034 C 
BRANCH   2   3
ATOM      3  CG  ARG D 557     -25.838   0.202 -17.138  1.00 35.49     0.027 C 
BRANCH   3   4
ATOM      4  CD  ARG D 557     -24.762   0.417 -16.144  1.00 35.49     0.116 C 
BRANCH   4   5
ATOM      5  NE  ARG D 557     -24.888  -0.459 -15.009  1.00 35.49    -0.212 N 
ATOM      6  CZ  ARG D 557     -24.060  -1.428 -14.690  1.00 35.49     0.666 C 
ATOM      7  NH1 ARG D 557     -22.995  -1.718 -15.415  1.00 35.49    -0.235 N 
ATOM      8  NH2 ARG D 557     -24.320  -2.110 -13.612  1.00 35.49    -0.235 N 
ATOM      9  HH  ARG D 557     -22.804  -1.281 -16.127  1.00 35.49     0.174 HD
ATOM     10  HH  ARG D 557     -22.490  -2.360 -15.157  1.00 35.49     0.174 HD
ATOM     11  HH  ARG D 557     -25.010  -1.895 -13.160  1.00 35.49     0.174 HD
ATOM     12  HH  ARG D 557     -23.806  -2.740 -13.372  1.00 35.49     0.174 HD
ATOM     13  HE  ARG D 557     -25.586  -0.390 -14.527  1.00 35.49     0.178 HD
ENDBRANCH   4   5
ENDBRANCH   3   4
ENDBRANCH   2   3
ENDBRANCH   1   2
END_RES ARG D 557
BEGIN_RES GLU D 570
REMARK  3 active torsions:
REMARK  status: ('A' for Active; 'I' for Inactive)
REMARK    5  A    between atoms: CA   and  CB  
REMARK    6  A    between atoms: CB   and  CG  
REMARK    7  A    between atoms: CG   and  CD  
ROOT
ATOM     14  CA  GLU D 570     -18.033  -6.348 -13.375  1.00 32.92     0.160 C 
ENDROOT
BRANCH  14  15
ATOM     15  CB  GLU D 570     -19.500  -6.345 -13.794  1.00 32.92     0.043 C 
BRANCH  15  16
ATOM     16  CG  GLU D 570     -20.432  -5.489 -13.016  1.00 32.92     0.100 C 
BRANCH  16  17
ATOM     17  CD  GLU D 570     -21.697  -5.155 -13.773  1.00 32.92     0.185 C 
ATOM     18  OE1 GLU D 570     -22.799  -5.383 -13.239  1.00 32.92    -0.647 OA
ATOM     19  OE2 GLU D 570     -21.584  -4.677 -14.919  1.00 32.92    -0.647 OA
ENDBRANCH  16  17
ENDBRANCH  15  16
ENDBRANCH  14  15
END_RES GLU D 570
ENDMDL
MODEL 9
REMARK VINA RESULT:      -2.6      7.292      8.057
REMARK  13 active torsions:
REMARK  status: ('A' for Active; 'I' for Inactive)
REMARK    1  A    between atoms: C_2  and  O_4 
REMARK    2  A    between atoms: C_7  and  O_9 
REMARK    3  A    between atoms: C_13  and  C_21 
REMARK       I    between atoms: N_14  and  C_16 
REMARK    4  A    between atoms: C_16  and  C_18 
REMARK    5  A    between atoms: C_18  and  C_19 
REMARK    6  A    between atoms: C_19  and  N_20 
REMARK       I    between atoms: C_21  and  N_23 
REMARK    7  A    between atoms: N_23  and  C_24 
REMARK    8  A    between atoms: C_24  and  C_25 
REMARK    9  A    between atoms: C_24  and  C_28 
REMARK   10  A    between atoms: C_25  and  C_26 
REMARK   11  A    between atoms: C_26  and  N_27 
REMARK       I    between atoms: C_28  and  N_30 
REMARK   12  A    between atoms: N_30  and  C_31 
REMARK   13  A    between atoms: C_31  and  C_32 
ROOT
HETATM    1  C   UNL     1     -37.294  -8.527 -15.821  1.00  0.00     0.125 C 
HETATM    2  C   UNL     1     -36.406  -7.465 -15.239  1.00  0.00     0.135 C 
HETATM    3  O   UNL     1     -36.181  -6.392 -15.782  1.00  0.00    -0.650 OA
ENDROOT
BRANCH   2   4
HETATM    4  O   UNL     1     -35.836  -7.785 -14.058  1.00  0.00    -0.777 OA
HETATM    5  H   UNL     1     -36.390  -8.344 -13.474  1.00  0.00     0.167 HD
ENDBRANCH   2   4
TORSDOF 13
BEGIN_RES ARG D 557
REMARK  4 active torsions:
REMARK  status: ('A' for Active; 'I' for Inactive)
REMARK    1  A    between atoms: CA   and  CB  
REMARK    2  A    between atoms: CB   and  CG  
REMARK    3  A    between atoms: CG   and  CD  
REMARK    4  A    between atoms: CD   and  NE  
REMARK       I    between atoms: NE   and  CZ  
REMARK       I    between atoms: CZ   and  NH1 
REMARK       I    between atoms: CZ   and  NH2 
ROOT
ATOM      1  CA  ARG D 557     -26.217   2.705 -17.014  1.00 35.49     0.159 C 
ENDROOT
BRANCH   1   2
ATOM      2  CB  ARG D 557     -26.789   1.319 -17.183  1.00 35.49     0.034 C 
BRANCH   2   3
ATOM      3  CG  ARG D 557     -28.234   1.226 -17.427  1.00 35.49     0.027 C 
BRANCH   3   4
ATOM      4  CD  ARG D 557     -28.905   0.294 -16.492  1.00 35.49     0.116 C 
BRANCH   4   5
ATOM      5  NE  ARG D 557     -29.283  -0.938 -17.133  1.00 35.49    -0.212 N 
ATOM      6  CZ  ARG D 557     -28.649  -2.085 -17.028  1.00 35.49     0.666 C 
ATOM      7  NH1 ARG D 557     -27.551  -2.225 -16.308  1.00 35.49    -0.235 N 
ATOM      8  NH2 ARG D 557     -29.148  -3.106 -17.662  1.00 35.49    -0.235 N 
ATOM      9  HH  ARG D 557     -27.207  -1.567 -15.881  1.00 35.49     0.174 HD
ATOM     10  HH  ARG D 557     -27.183  -2.998 -16.275  1.00 35.49     0.174 HD
ATOM     11  HH  ARG D 557     -29.862  -2.988 -18.113  1.00 35.49     0.174 HD
ATOM     12  HH  ARG D 557     -28.769  -3.863 -17.616  1.00 35.49     0.174 HD
ATOM     13  HE  ARG D 557     -29.939  -0.922 -17.674  1.00 35.49     0.178 HD
ENDBRANCH   4   5
ENDBRANCH   3   4
ENDBRANCH   2   3
ENDBRANCH   1   2
END_RES ARG D 557
BEGIN_RES GLU D 570
REMARK  3 active torsions:
REMARK  status: ('A' for Active; 'I' for Inactive)
REMARK    5  A    between atoms: CA   and  CB  
REMARK    6  A    between atoms: CB   and  CG  
REMARK    7  A    between atoms: CG   and  CD  
ROOT
ATOM     14  CA  GLU D 570     -18.033  -6.348 -13.375  1.00 32.92     0.160 C 
ENDROOT
BRANCH  14  15
ATOM     15  CB  GLU D 570     -19.500  -6.345 -13.794  1.00 32.92     0.043 C 
BRANCH  15  16
ATOM     16  CG  GLU D 570     -19.796  -6.284 -15.249  1.00 32.92     0.100 C 
BRANCH  16  17
ATOM     17  CD  GLU D 570     -20.813  -7.313 -15.686  1.00 32.92     0.185 C 
ATOM     18  OE1 GLU D 570     -21.835  -6.934 -16.291  1.00 32.92    -0.647 OA
ATOM     19  OE2 GLU D 570     -20.593  -8.508 -15.407  1.00 32.92    -0.647 OA
ENDBRANCH  16  17
ENDBRANCH  15  16
ENDBRANCH  14  15
END_RES GLU D 570
ENDMDL
