MODEL 1
REMARK VINA RESULT:      -6.4      0.000      0.000
REMARK  3 active torsions:
REMARK  status: ('A' for Active; 'I' for Inactive)
REMARK    1  A    between atoms: O_2  and  C_3 
REMARK    2  A    between atoms: C_3  and  C_5 
REMARK    3  A    between atoms: C_8  and  O_11 
ROOT
HETATM    1  C   UNL     1     -28.505  -5.489 -16.380  1.00  0.00     0.039 A 
HETATM    2  C   UNL     1     -29.838  -5.915 -16.467  1.00  0.00     0.020 A 
HETATM    3  C   UNL     1     -30.804  -5.087 -17.046  1.00  0.00     0.037 A 
HETATM    4  C   UNL     1     -30.431  -3.837 -17.532  1.00  0.00     0.065 A 
HETATM    5  C   UNL     1     -29.111  -3.406 -17.459  1.00  0.00     0.037 A 
HETATM    6  C   UNL     1     -28.144  -4.233 -16.888  1.00  0.00     0.020 A 
ENDROOT
BRANCH   1   7
HETATM    7  C   UNL     1     -27.444  -6.332 -15.771  1.00  0.00     0.292 C 
HETATM    8  O   UNL     1     -27.668  -7.363 -15.157  1.00  0.00    -0.259 OA
BRANCH   7   9
HETATM    9  O   UNL     1     -26.221  -5.814 -16.046  1.00  0.00    -0.323 OA
HETATM   10  C   UNL     1     -25.136  -6.669 -15.679  1.00  0.00     0.213 C 
ENDBRANCH   7   9
ENDBRANCH   1   7
BRANCH   4  11
HETATM   11  O   UNL     1     -31.342  -2.995 -18.097  1.00  0.00    -0.361 OA
HETATM   12  H   UNL     1     -30.958  -2.104 -18.146  1.00  0.00     0.217 HD
ENDBRANCH   4  11
TORSDOF 3
BEGIN_RES ARG D 557
REMARK  4 active torsions:
REMARK  status: ('A' for Active; 'I' for Inactive)
REMARK    1  A    between atoms: CA   and  CB  
REMARK    2  A    between atoms: CB   and  CG  
REMARK    3  A    between atoms: CG   and  CD  
REMARK    4  A    between atoms: CD   and  NE  
REMARK       I    between atoms: NE   and  CZ  
REMARK       I    between atoms: CZ   and  NH1 
REMARK       I    between atoms: CZ   and  NH2 
ROOT
ATOM      1  CA  ARG D 557     -26.217   2.705 -17.014  1.00 35.49     0.159 C 
ENDROOT
BRANCH   1   2
ATOM      2  CB  ARG D 557     -26.789   1.319 -17.183  1.00 35.49     0.034 C 
BRANCH   2   3
ATOM      3  CG  ARG D 557     -25.864   0.195 -16.996  1.00 35.49     0.027 C 
BRANCH   3   4
ATOM      4  CD  ARG D 557     -26.287  -0.708 -15.902  1.00 35.49     0.116 C 
BRANCH   4   5
ATOM      5  NE  ARG D 557     -25.243  -0.913 -14.933  1.00 35.49    -0.212 N 
ATOM      6  CZ  ARG D 557     -24.944  -2.055 -14.355  1.00 35.49     0.666 C 
ATOM      7  NH1 ARG D 557     -25.605  -3.170 -14.604  1.00 35.49    -0.235 N 
ATOM      8  NH2 ARG D 557     -23.950  -2.061 -13.515  1.00 35.49    -0.235 N 
ATOM      9  HH  ARG D 557     -26.261  -3.190 -15.155  1.00 35.49     0.174 HD
ATOM     10  HH  ARG D 557     -25.363  -3.886 -14.200  1.00 35.49     0.174 HD
ATOM     11  HH  ARG D 557     -23.536  -1.328 -13.379  1.00 35.49     0.174 HD
ATOM     12  HH  ARG D 557     -23.725  -2.780 -13.126  1.00 35.49     0.174 HD
ATOM     13  HE  ARG D 557     -24.813  -0.232 -14.659  1.00 35.49     0.178 HD
ENDBRANCH   4   5
ENDBRANCH   3   4
ENDBRANCH   2   3
ENDBRANCH   1   2
END_RES ARG D 557
BEGIN_RES GLU D 570
REMARK  3 active torsions:
REMARK  status: ('A' for Active; 'I' for Inactive)
REMARK    5  A    between atoms: CA   and  CB  
REMARK    6  A    between atoms: CB   and  CG  
REMARK    7  A    between atoms: CG   and  CD  
ROOT
ATOM     14  CA  GLU D 570     -18.033  -6.348 -13.375  1.00 32.92     0.160 C 
ENDROOT
BRANCH  14  15
ATOM     15  CB  GLU D 570     -19.500  -6.345 -13.794  1.00 32.92     0.043 C 
BRANCH  15  16
ATOM     16  CG  GLU D 570     -20.446  -5.550 -12.969  1.00 32.92     0.100 C 
BRANCH  16  17
ATOM     17  CD  GLU D 570     -21.695  -5.154 -13.722  1.00 32.92     0.185 C 
ATOM     18  OE1 GLU D 570     -21.676  -5.151 -14.967  1.00 32.92    -0.647 OA
ATOM     19  OE2 GLU D 570     -22.698  -4.827 -13.058  1.00 32.92    -0.647 OA
ENDBRANCH  16  17
ENDBRANCH  15  16
ENDBRANCH  14  15
END_RES GLU D 570
ENDMDL
MODEL 2
REMARK VINA RESULT:      -6.1      3.906      6.239
REMARK  3 active torsions:
REMARK  status: ('A' for Active; 'I' for Inactive)
REMARK    1  A    between atoms: O_2  and  C_3 
REMARK    2  A    between atoms: C_3  and  C_5 
REMARK    3  A    between atoms: C_8  and  O_11 
ROOT
HETATM    1  C   UNL     1     -23.790  -3.810 -11.754  1.00  0.00     0.039 A 
HETATM    2  C   UNL     1     -23.551  -2.635 -12.483  1.00  0.00     0.020 A 
HETATM    3  C   UNL     1     -22.949  -2.700 -13.743  1.00  0.00     0.037 A 
HETATM    4  C   UNL     1     -22.587  -3.939 -14.264  1.00  0.00     0.065 A 
HETATM    5  C   UNL     1     -22.825  -5.111 -13.556  1.00  0.00     0.037 A 
HETATM    6  C   UNL     1     -23.432  -5.050 -12.301  1.00  0.00     0.020 A 
ENDROOT
BRANCH   1   7
HETATM    7  C   UNL     1     -24.424  -3.791 -10.411  1.00  0.00     0.292 C 
HETATM    8  O   UNL     1     -25.424  -3.144 -10.144  1.00  0.00    -0.259 OA
BRANCH   7   9
HETATM    9  O   UNL     1     -23.762  -4.624  -9.571  1.00  0.00    -0.323 OA
HETATM   10  C   UNL     1     -22.822  -3.962  -8.722  1.00  0.00     0.213 C 
ENDBRANCH   7   9
ENDBRANCH   1   7
BRANCH   4  11
HETATM   11  O   UNL     1     -21.990  -4.047 -15.486  1.00  0.00    -0.361 OA
HETATM   12  H   UNL     1     -21.073  -4.342 -15.363  1.00  0.00     0.217 HD
ENDBRANCH   4  11
TORSDOF 3
BEGIN_RES ARG D 557
REMARK  4 active torsions:
REMARK  status: ('A' for Active; 'I' for Inactive)
REMARK    1  A    between atoms: CA   and  CB  
REMARK    2  A    between atoms: CB   and  CG  
REMARK    3  A    between atoms: CG   and  CD  
REMARK    4  A    between atoms: CD   and  NE  
REMARK       I    between atoms: NE   and  CZ  
REMARK       I    between atoms: CZ   and  NH1 
REMARK       I    between atoms: CZ   and  NH2 
ROOT
ATOM      1  CA  ARG D 557     -26.217   2.705 -17.014  1.00 35.49     0.159 C 
ENDROOT
BRANCH   1   2
ATOM      2  CB  ARG D 557     -26.789   1.319 -17.183  1.00 35.49     0.034 C 
BRANCH   2   3
ATOM      3  CG  ARG D 557     -28.230   1.227 -17.449  1.00 35.49     0.027 C 
BRANCH   3   4
ATOM      4  CD  ARG D 557     -28.920   0.315 -16.509  1.00 35.49     0.116 C 
BRANCH   4   5
ATOM      5  NE  ARG D 557     -29.295  -0.926 -17.134  1.00 35.49    -0.212 N 
ATOM      6  CZ  ARG D 557     -28.651  -2.067 -17.024  1.00 35.49     0.666 C 
ATOM      7  NH1 ARG D 557     -27.545  -2.191 -16.314  1.00 35.49    -0.235 N 
ATOM      8  NH2 ARG D 557     -29.147  -3.098 -17.644  1.00 35.49    -0.235 N 
ATOM      9  HH  ARG D 557     -27.202  -1.526 -15.896  1.00 35.49     0.174 HD
ATOM     10  HH  ARG D 557     -27.170  -2.961 -16.276  1.00 35.49     0.174 HD
ATOM     11  HH  ARG D 557     -29.866  -2.990 -18.089  1.00 35.49     0.174 HD
ATOM     12  HH  ARG D 557     -28.762  -3.852 -17.593  1.00 35.49     0.174 HD
ATOM     13  HE  ARG D 557     -29.955  -0.920 -17.670  1.00 35.49     0.178 HD
ENDBRANCH   4   5
ENDBRANCH   3   4
ENDBRANCH   2   3
ENDBRANCH   1   2
END_RES ARG D 557
BEGIN_RES GLU D 570
REMARK  3 active torsions:
REMARK  status: ('A' for Active; 'I' for Inactive)
REMARK    5  A    between atoms: CA   and  CB  
REMARK    6  A    between atoms: CB   and  CG  
REMARK    7  A    between atoms: CG   and  CD  
ROOT
ATOM     14  CA  GLU D 570     -18.033  -6.348 -13.375  1.00 32.92     0.160 C 
ENDROOT
BRANCH  14  15
ATOM     15  CB  GLU D 570     -19.500  -6.345 -13.794  1.00 32.92     0.043 C 
BRANCH  15  16
ATOM     16  CG  GLU D 570     -20.074  -7.624 -14.285  1.00 32.92     0.100 C 
BRANCH  16  17
ATOM     17  CD  GLU D 570     -20.728  -7.495 -15.641  1.00 32.92     0.185 C 
ATOM     18  OE1 GLU D 570     -20.552  -6.452 -16.301  1.00 32.92    -0.647 OA
ATOM     19  OE2 GLU D 570     -21.438  -8.439 -16.041  1.00 32.92    -0.647 OA
ENDBRANCH  16  17
ENDBRANCH  15  16
ENDBRANCH  14  15
END_RES GLU D 570
ENDMDL
MODEL 3
REMARK VINA RESULT:      -6.1      5.409      6.761
REMARK  3 active torsions:
REMARK  status: ('A' for Active; 'I' for Inactive)
REMARK    1  A    between atoms: O_2  and  C_3 
REMARK    2  A    between atoms: C_3  and  C_5 
REMARK    3  A    between atoms: C_8  and  O_11 
ROOT
HETATM    1  C   UNL     1     -34.898  -2.904 -11.251  1.00  0.00     0.039 A 
HETATM    2  C   UNL     1     -35.508  -4.096 -10.836  1.00  0.00     0.020 A 
HETATM    3  C   UNL     1     -34.784  -5.292 -10.832  1.00  0.00     0.037 A 
HETATM    4  C   UNL     1     -33.456  -5.288 -11.248  1.00  0.00     0.065 A 
HETATM    5  C   UNL     1     -32.837  -4.111 -11.655  1.00  0.00     0.037 A 
HETATM    6  C   UNL     1     -33.555  -2.915 -11.652  1.00  0.00     0.020 A 
ENDROOT
BRANCH   1   7
HETATM    7  C   UNL     1     -35.628  -1.610 -11.275  1.00  0.00     0.292 C 
HETATM    8  O   UNL     1     -36.811  -1.496 -11.001  1.00  0.00    -0.259 OA
BRANCH   7   9
HETATM    9  O   UNL     1     -34.777  -0.601 -11.587  1.00  0.00    -0.323 OA
HETATM   10  C   UNL     1     -35.252   0.251 -12.632  1.00  0.00     0.213 C 
ENDBRANCH   7   9
ENDBRANCH   1   7
BRANCH   4  11
HETATM   11  O   UNL     1     -32.715  -6.433 -11.268  1.00  0.00    -0.361 OA
HETATM   12  H   UNL     1     -32.947  -6.971 -10.493  1.00  0.00     0.217 HD
ENDBRANCH   4  11
TORSDOF 3
BEGIN_RES ARG D 557
REMARK  4 active torsions:
REMARK  status: ('A' for Active; 'I' for Inactive)
REMARK    1  A    between atoms: CA   and  CB  
REMARK    2  A    between atoms: CB   and  CG  
REMARK    3  A    between atoms: CG   and  CD  
REMARK    4  A    between atoms: CD   and  NE  
REMARK       I    between atoms: NE   and  CZ  
REMARK       I    between atoms: CZ   and  NH1 
REMARK       I    between atoms: CZ   and  NH2 
ROOT
ATOM      1  CA  ARG D 557     -26.217   2.705 -17.014  1.00 35.49     0.159 C 
ENDROOT
BRANCH   1   2
ATOM      2  CB  ARG D 557     -26.789   1.319 -17.183  1.00 35.49     0.034 C 
BRANCH   2   3
ATOM      3  CG  ARG D 557     -25.835   0.203 -17.159  1.00 35.49     0.027 C 
BRANCH   3   4
ATOM      4  CD  ARG D 557     -24.748   0.412 -16.176  1.00 35.49     0.116 C 
BRANCH   4   5
ATOM      5  NE  ARG D 557     -24.894  -0.430 -15.018  1.00 35.49    -0.212 N 
ATOM      6  CZ  ARG D 557     -24.084  -1.404 -14.669  1.00 35.49     0.666 C 
ATOM      7  NH1 ARG D 557     -23.021  -1.731 -15.379  1.00 35.49    -0.235 N 
ATOM      8  NH2 ARG D 557     -24.360  -2.050 -13.573  1.00 35.49    -0.235 N 
ATOM      9  HH  ARG D 557     -22.819  -1.318 -16.102  1.00 35.49     0.174 HD
ATOM     10  HH  ARG D 557     -22.527  -2.374 -15.101  1.00 35.49     0.174 HD
ATOM     11  HH  ARG D 557     -25.049  -1.812 -13.131  1.00 35.49     0.174 HD
ATOM     12  HH  ARG D 557     -23.858  -2.683 -13.314  1.00 35.49     0.174 HD
ATOM     13  HE  ARG D 557     -25.593  -0.336 -14.542  1.00 35.49     0.178 HD
ENDBRANCH   4   5
ENDBRANCH   3   4
ENDBRANCH   2   3
ENDBRANCH   1   2
END_RES ARG D 557
BEGIN_RES GLU D 570
REMARK  3 active torsions:
REMARK  status: ('A' for Active; 'I' for Inactive)
REMARK    5  A    between atoms: CA   and  CB  
REMARK    6  A    between atoms: CB   and  CG  
REMARK    7  A    between atoms: CG   and  CD  
ROOT
ATOM     14  CA  GLU D 570     -18.033  -6.348 -13.375  1.00 32.92     0.160 C 
ENDROOT
BRANCH  14  15
ATOM     15  CB  GLU D 570     -19.500  -6.345 -13.794  1.00 32.92     0.043 C 
BRANCH  15  16
ATOM     16  CG  GLU D 570     -20.440  -5.522 -12.990  1.00 32.92     0.100 C 
BRANCH  16  17
ATOM     17  CD  GLU D 570     -21.730  -5.221 -13.716  1.00 32.92     0.185 C 
ATOM     18  OE1 GLU D 570     -22.304  -4.136 -13.506  1.00 32.92    -0.647 OA
ATOM     19  OE2 GLU D 570     -22.180  -6.088 -14.492  1.00 32.92    -0.647 OA
ENDBRANCH  16  17
ENDBRANCH  15  16
ENDBRANCH  14  15
END_RES GLU D 570
ENDMDL
MODEL 4
REMARK VINA RESULT:      -6.1      4.659      7.768
REMARK  3 active torsions:
REMARK  status: ('A' for Active; 'I' for Inactive)
REMARK    1  A    between atoms: O_2  and  C_3 
REMARK    2  A    between atoms: C_3  and  C_5 
REMARK    3  A    between atoms: C_8  and  O_11 
ROOT
HETATM    1  C   UNL     1     -21.285  -4.512  -8.899  1.00  0.00     0.039 A 
HETATM    2  C   UNL     1     -22.577  -4.216  -9.360  1.00  0.00     0.020 A 
HETATM    3  C   UNL     1     -22.780  -3.847 -10.693  1.00  0.00     0.037 A 
HETATM    4  C   UNL     1     -21.690  -3.774 -11.555  1.00  0.00     0.065 A 
HETATM    5  C   UNL     1     -20.406  -4.073 -11.113  1.00  0.00     0.037 A 
HETATM    6  C   UNL     1     -20.201  -4.448  -9.786  1.00  0.00     0.020 A 
ENDROOT
BRANCH   1   7
HETATM    7  C   UNL     1     -21.020  -4.906  -7.492  1.00  0.00     0.292 C 
HETATM    8  O   UNL     1     -20.922  -4.109  -6.573  1.00  0.00    -0.259 OA
BRANCH   7   9
HETATM    9  O   UNL     1     -20.959  -6.257  -7.389  1.00  0.00    -0.323 OA
HETATM   10  C   UNL     1     -21.133  -6.743  -6.056  1.00  0.00     0.213 C 
ENDBRANCH   7   9
ENDBRANCH   1   7
BRANCH   4  11
HETATM   11  O   UNL     1     -21.842  -3.411 -12.861  1.00  0.00    -0.361 OA
HETATM   12  H   UNL     1     -22.048  -4.202 -13.385  1.00  0.00     0.217 HD
ENDBRANCH   4  11
TORSDOF 3
BEGIN_RES ARG D 557
REMARK  4 active torsions:
REMARK  status: ('A' for Active; 'I' for Inactive)
REMARK    1  A    between atoms: CA   and  CB  
REMARK    2  A    between atoms: CB   and  CG  
REMARK    3  A    between atoms: CG   and  CD  
REMARK    4  A    between atoms: CD   and  NE  
REMARK       I    between atoms: NE   and  CZ  
REMARK       I    between atoms: CZ   and  NH1 
REMARK       I    between atoms: CZ   and  NH2 
ROOT
ATOM      1  CA  ARG D 557     -26.217   2.705 -17.014  1.00 35.49     0.159 C 
ENDROOT
BRANCH   1   2
ATOM      2  CB  ARG D 557     -26.789   1.319 -17.183  1.00 35.49     0.034 C 
BRANCH   2   3
ATOM      3  CG  ARG D 557     -25.836   0.203 -17.157  1.00 35.49     0.027 C 
BRANCH   3   4
ATOM      4  CD  ARG D 557     -24.764   0.400 -16.154  1.00 35.49     0.116 C 
BRANCH   4   5
ATOM      5  NE  ARG D 557     -24.924  -0.463 -15.013  1.00 35.49    -0.212 N 
ATOM      6  CZ  ARG D 557     -24.109  -1.432 -14.662  1.00 35.49     0.666 C 
ATOM      7  NH1 ARG D 557     -23.026  -1.733 -15.355  1.00 35.49    -0.235 N 
ATOM      8  NH2 ARG D 557     -24.399  -2.100 -13.584  1.00 35.49    -0.235 N 
ATOM      9  HH  ARG D 557     -22.814  -1.305 -16.067  1.00 35.49     0.174 HD
ATOM     10  HH  ARG D 557     -22.530  -2.374 -15.076  1.00 35.49     0.174 HD
ATOM     11  HH  ARG D 557     -25.101  -1.878 -13.153  1.00 35.49     0.174 HD
ATOM     12  HH  ARG D 557     -23.895  -2.730 -13.324  1.00 35.49     0.174 HD
ATOM     13  HE  ARG D 557     -25.634  -0.386 -14.552  1.00 35.49     0.178 HD
ENDBRANCH   4   5
ENDBRANCH   3   4
ENDBRANCH   2   3
ENDBRANCH   1   2
END_RES ARG D 557
BEGIN_RES GLU D 570
REMARK  3 active torsions:
REMARK  status: ('A' for Active; 'I' for Inactive)
REMARK    5  A    between atoms: CA   and  CB  
REMARK    6  A    between atoms: CB   and  CG  
REMARK    7  A    between atoms: CG   and  CD  
ROOT
ATOM     14  CA  GLU D 570     -18.033  -6.348 -13.375  1.00 32.92     0.160 C 
ENDROOT
BRANCH  14  15
ATOM     15  CB  GLU D 570     -19.500  -6.345 -13.794  1.00 32.92     0.043 C 
BRANCH  15  16
ATOM     16  CG  GLU D 570     -19.820  -5.867 -15.164  1.00 32.92     0.100 C 
BRANCH  16  17
ATOM     17  CD  GLU D 570     -21.300  -5.663 -15.387  1.00 32.92     0.185 C 
ATOM     18  OE1 GLU D 570     -21.718  -4.525 -15.673  1.00 32.92    -0.647 OA
ATOM     19  OE2 GLU D 570     -22.052  -6.649 -15.257  1.00 32.92    -0.647 OA
ENDBRANCH  16  17
ENDBRANCH  15  16
ENDBRANCH  14  15
END_RES GLU D 570
ENDMDL
MODEL 5
REMARK VINA RESULT:      -5.9      3.756      7.379
REMARK  3 active torsions:
REMARK  status: ('A' for Active; 'I' for Inactive)
REMARK    1  A    between atoms: O_2  and  C_3 
REMARK    2  A    between atoms: C_3  and  C_5 
REMARK    3  A    between atoms: C_8  and  O_11 
ROOT
HETATM    1  C   UNL     1     -22.773  -3.446 -11.046  1.00  0.00     0.039 A 
HETATM    2  C   UNL     1     -23.053  -3.710  -9.697  1.00  0.00     0.020 A 
HETATM    3  C   UNL     1     -22.033  -4.130  -8.837  1.00  0.00     0.037 A 
HETATM    4  C   UNL     1     -20.742  -4.285  -9.333  1.00  0.00     0.065 A 
HETATM    5  C   UNL     1     -20.450  -4.018 -10.666  1.00  0.00     0.037 A 
HETATM    6  C   UNL     1     -21.464  -3.593 -11.524  1.00  0.00     0.020 A 
ENDROOT
BRANCH   1   7
HETATM    7  C   UNL     1     -23.823  -3.001 -11.998  1.00  0.00     0.292 C 
HETATM    8  O   UNL     1     -25.019  -3.055 -11.759  1.00  0.00    -0.259 OA
BRANCH   7   9
HETATM    9  O   UNL     1     -23.252  -2.493 -13.117  1.00  0.00    -0.323 OA
HETATM   10  C   UNL     1     -24.178  -2.255 -14.180  1.00  0.00     0.213 C 
ENDBRANCH   7   9
ENDBRANCH   1   7
BRANCH   4  11
HETATM   11  O   UNL     1     -19.719  -4.699  -8.531  1.00  0.00    -0.361 OA
HETATM   12  H   UNL     1     -19.136  -3.944  -8.351  1.00  0.00     0.217 HD
ENDBRANCH   4  11
TORSDOF 3
BEGIN_RES ARG D 557
REMARK  4 active torsions:
REMARK  status: ('A' for Active; 'I' for Inactive)
REMARK    1  A    between atoms: CA   and  CB  
REMARK    2  A    between atoms: CB   and  CG  
REMARK    3  A    between atoms: CG   and  CD  
REMARK    4  A    between atoms: CD   and  NE  
REMARK       I    between atoms: NE   and  CZ  
REMARK       I    between atoms: CZ   and  NH1 
REMARK       I    between atoms: CZ   and  NH2 
ROOT
ATOM      1  CA  ARG D 557     -26.217   2.705 -17.014  1.00 35.49     0.159 C 
ENDROOT
BRANCH   1   2
ATOM      2  CB  ARG D 557     -26.789   1.319 -17.183  1.00 35.49     0.034 C 
BRANCH   2   3
ATOM      3  CG  ARG D 557     -28.232   1.226 -17.434  1.00 35.49     0.027 C 
BRANCH   3   4
ATOM      4  CD  ARG D 557     -28.910   0.301 -16.497  1.00 35.49     0.116 C 
BRANCH   4   5
ATOM      5  NE  ARG D 557     -29.278  -0.938 -17.130  1.00 35.49    -0.212 N 
ATOM      6  CZ  ARG D 557     -28.634  -2.078 -17.020  1.00 35.49     0.666 C 
ATOM      7  NH1 ARG D 557     -27.533  -2.205 -16.302  1.00 35.49    -0.235 N 
ATOM      8  NH2 ARG D 557     -29.124  -3.108 -17.648  1.00 35.49    -0.235 N 
ATOM      9  HH  ARG D 557     -27.194  -1.541 -15.879  1.00 35.49     0.174 HD
ATOM     10  HH  ARG D 557     -27.158  -2.974 -16.265  1.00 35.49     0.174 HD
ATOM     11  HH  ARG D 557     -29.840  -2.998 -18.098  1.00 35.49     0.174 HD
ATOM     12  HH  ARG D 557     -28.739  -3.861 -17.598  1.00 35.49     0.174 HD
ATOM     13  HE  ARG D 557     -29.935  -0.931 -17.671  1.00 35.49     0.178 HD
ENDBRANCH   4   5
ENDBRANCH   3   4
ENDBRANCH   2   3
ENDBRANCH   1   2
END_RES ARG D 557
BEGIN_RES GLU D 570
REMARK  3 active torsions:
REMARK  status: ('A' for Active; 'I' for Inactive)
REMARK    5  A    between atoms: CA   and  CB  
REMARK    6  A    between atoms: CB   and  CG  
REMARK    7  A    between atoms: CG   and  CD  
ROOT
ATOM     14  CA  GLU D 570     -18.033  -6.348 -13.375  1.00 32.92     0.160 C 
ENDROOT
BRANCH  14  15
ATOM     15  CB  GLU D 570     -19.500  -6.345 -13.794  1.00 32.92     0.043 C 
BRANCH  15  16
ATOM     16  CG  GLU D 570     -19.809  -5.988 -15.203  1.00 32.92     0.100 C 
BRANCH  16  17
ATOM     17  CD  GLU D 570     -21.203  -5.433 -15.378  1.00 32.92     0.185 C 
ATOM     18  OE1 GLU D 570     -21.525  -4.943 -16.478  1.00 32.92    -0.647 OA
ATOM     19  OE2 GLU D 570     -21.975  -5.473 -14.400  1.00 32.92    -0.647 OA
ENDBRANCH  16  17
ENDBRANCH  15  16
ENDBRANCH  14  15
END_RES GLU D 570
ENDMDL
MODEL 6
REMARK VINA RESULT:      -5.9      4.169      6.684
REMARK  3 active torsions:
REMARK  status: ('A' for Active; 'I' for Inactive)
REMARK    1  A    between atoms: O_2  and  C_3 
REMARK    2  A    between atoms: C_3  and  C_5 
REMARK    3  A    between atoms: C_8  and  O_11 
ROOT
HETATM    1  C   UNL     1     -22.642  -4.548 -11.626  1.00  0.00     0.039 A 
HETATM    2  C   UNL     1     -21.378  -4.360 -11.049  1.00  0.00     0.020 A 
HETATM    3  C   UNL     1     -21.265  -4.061  -9.688  1.00  0.00     0.037 A 
HETATM    4  C   UNL     1     -22.417  -3.951  -8.914  1.00  0.00     0.065 A 
HETATM    5  C   UNL     1     -23.676  -4.143  -9.473  1.00  0.00     0.037 A 
HETATM    6  C   UNL     1     -23.791  -4.448 -10.829  1.00  0.00     0.020 A 
ENDROOT
BRANCH   1   7
HETATM    7  C   UNL     1     -22.813  -4.864 -13.068  1.00  0.00     0.292 C 
HETATM    8  O   UNL     1     -22.213  -4.289 -13.962  1.00  0.00    -0.259 OA
BRANCH   7   9
HETATM    9  O   UNL     1     -23.676  -5.899 -13.220  1.00  0.00    -0.323 OA
HETATM   10  C   UNL     1     -23.977  -6.204 -14.583  1.00  0.00     0.213 C 
ENDBRANCH   7   9
ENDBRANCH   1   7
BRANCH   4  11
HETATM   11  O   UNL     1     -22.353  -3.654  -7.585  1.00  0.00    -0.361 OA
HETATM   12  H   UNL     1     -22.355  -4.482  -7.077  1.00  0.00     0.217 HD
ENDBRANCH   4  11
TORSDOF 3
BEGIN_RES ARG D 557
REMARK  4 active torsions:
REMARK  status: ('A' for Active; 'I' for Inactive)
REMARK    1  A    between atoms: CA   and  CB  
REMARK    2  A    between atoms: CB   and  CG  
REMARK    3  A    between atoms: CG   and  CD  
REMARK    4  A    between atoms: CD   and  NE  
REMARK       I    between atoms: NE   and  CZ  
REMARK       I    between atoms: CZ   and  NH1 
REMARK       I    between atoms: CZ   and  NH2 
ROOT
ATOM      1  CA  ARG D 557     -26.217   2.705 -17.014  1.00 35.49     0.159 C 
ENDROOT
BRANCH   1   2
ATOM      2  CB  ARG D 557     -26.789   1.319 -17.183  1.00 35.49     0.034 C 
BRANCH   2   3
ATOM      3  CG  ARG D 557     -25.834   0.204 -17.169  1.00 35.49     0.027 C 
BRANCH   3   4
ATOM      4  CD  ARG D 557     -24.725   0.423 -16.213  1.00 35.49     0.116 C 
BRANCH   4   5
ATOM      5  NE  ARG D 557     -24.853  -0.396 -15.036  1.00 35.49    -0.212 N 
ATOM      6  CZ  ARG D 557     -24.034  -1.360 -14.679  1.00 35.49     0.666 C 
ATOM      7  NH1 ARG D 557     -22.978  -1.696 -15.397  1.00 35.49    -0.235 N 
ATOM      8  NH2 ARG D 557     -24.293  -1.986 -13.567  1.00 35.49    -0.235 N 
ATOM      9  HH  ARG D 557     -22.788  -1.296 -16.130  1.00 35.49     0.174 HD
ATOM     10  HH  ARG D 557     -22.478  -2.331 -15.112  1.00 35.49     0.174 HD
ATOM     11  HH  ARG D 557     -24.977  -1.742 -13.121  1.00 35.49     0.174 HD
ATOM     12  HH  ARG D 557     -23.785  -2.611 -13.302  1.00 35.49     0.174 HD
ATOM     13  HE  ARG D 557     -25.546  -0.296 -14.554  1.00 35.49     0.178 HD
ENDBRANCH   4   5
ENDBRANCH   3   4
ENDBRANCH   2   3
ENDBRANCH   1   2
END_RES ARG D 557
BEGIN_RES GLU D 570
REMARK  3 active torsions:
REMARK  status: ('A' for Active; 'I' for Inactive)
REMARK    5  A    between atoms: CA   and  CB  
REMARK    6  A    between atoms: CB   and  CG  
REMARK    7  A    between atoms: CG   and  CD  
ROOT
ATOM     14  CA  GLU D 570     -18.033  -6.348 -13.375  1.00 32.92     0.160 C 
ENDROOT
BRANCH  14  15
ATOM     15  CB  GLU D 570     -19.500  -6.345 -13.794  1.00 32.92     0.043 C 
BRANCH  15  16
ATOM     16  CG  GLU D 570     -20.086  -7.634 -14.246  1.00 32.92     0.100 C 
BRANCH  16  17
ATOM     17  CD  GLU D 570     -20.710  -7.548 -15.619  1.00 32.92     0.185 C 
ATOM     18  OE1 GLU D 570     -21.295  -8.546 -16.081  1.00 32.92    -0.647 OA
ATOM     19  OE2 GLU D 570     -20.598  -6.476 -16.246  1.00 32.92    -0.647 OA
ENDBRANCH  16  17
ENDBRANCH  15  16
ENDBRANCH  14  15
END_RES GLU D 570
ENDMDL
MODEL 7
REMARK VINA RESULT:      -5.7      4.243      8.379
REMARK  3 active torsions:
REMARK  status: ('A' for Active; 'I' for Inactive)
REMARK    1  A    between atoms: O_2  and  C_3 
REMARK    2  A    between atoms: C_3  and  C_5 
REMARK    3  A    between atoms: C_8  and  O_11 
ROOT
HETATM    1  C   UNL     1     -20.995  -4.782  -7.554  1.00  0.00     0.039 A 
HETATM    2  C   UNL     1     -20.233  -4.588  -8.715  1.00  0.00     0.020 A 
HETATM    3  C   UNL     1     -20.824  -4.050  -9.862  1.00  0.00     0.037 A 
HETATM    4  C   UNL     1     -22.174  -3.712  -9.840  1.00  0.00     0.065 A 
HETATM    5  C   UNL     1     -22.939  -3.892  -8.693  1.00  0.00     0.037 A 
HETATM    6  C   UNL     1     -22.350  -4.423  -7.545  1.00  0.00     0.020 A 
ENDROOT
BRANCH   1   7
HETATM    7  C   UNL     1     -20.412  -5.354  -6.313  1.00  0.00     0.292 C 
HETATM    8  O   UNL     1     -20.135  -4.689  -5.327  1.00  0.00    -0.259 OA
BRANCH   7   9
HETATM    9  O   UNL     1     -20.292  -6.699  -6.430  1.00  0.00    -0.323 OA
HETATM   10  C   UNL     1     -21.234  -7.434  -5.646  1.00  0.00     0.213 C 
ENDBRANCH   7   9
ENDBRANCH   1   7
BRANCH   4  11
HETATM   11  O   UNL     1     -22.792  -3.191 -10.939  1.00  0.00    -0.361 OA
HETATM   12  H   UNL     1     -22.118  -2.834 -11.539  1.00  0.00     0.217 HD
ENDBRANCH   4  11
TORSDOF 3
BEGIN_RES ARG D 557
REMARK  4 active torsions:
REMARK  status: ('A' for Active; 'I' for Inactive)
REMARK    1  A    between atoms: CA   and  CB  
REMARK    2  A    between atoms: CB   and  CG  
REMARK    3  A    between atoms: CG   and  CD  
REMARK    4  A    between atoms: CD   and  NE  
REMARK       I    between atoms: NE   and  CZ  
REMARK       I    between atoms: CZ   and  NH1 
REMARK       I    between atoms: CZ   and  NH2 
ROOT
ATOM      1  CA  ARG D 557     -26.217   2.705 -17.014  1.00 35.49     0.159 C 
ENDROOT
BRANCH   1   2
ATOM      2  CB  ARG D 557     -26.789   1.319 -17.183  1.00 35.49     0.034 C 
BRANCH   2   3
ATOM      3  CG  ARG D 557     -25.869   0.194 -16.973  1.00 35.49     0.027 C 
BRANCH   3   4
ATOM      4  CD  ARG D 557     -26.292  -0.680 -15.856  1.00 35.49     0.116 C 
BRANCH   4   5
ATOM      5  NE  ARG D 557     -25.227  -0.912 -14.916  1.00 35.49    -0.212 N 
ATOM      6  CZ  ARG D 557     -24.931  -2.065 -14.359  1.00 35.49     0.666 C 
ATOM      7  NH1 ARG D 557     -25.616  -3.167 -14.604  1.00 35.49    -0.235 N 
ATOM      8  NH2 ARG D 557     -23.917  -2.096 -13.544  1.00 35.49    -0.235 N 
ATOM      9  HH  ARG D 557     -26.286  -3.170 -15.138  1.00 35.49     0.174 HD
ATOM     10  HH  ARG D 557     -25.376  -3.891 -14.214  1.00 35.49     0.174 HD
ATOM     11  HH  ARG D 557     -23.489  -1.370 -13.411  1.00 35.49     0.174 HD
ATOM     12  HH  ARG D 557     -23.693  -2.822 -13.169  1.00 35.49     0.174 HD
ATOM     13  HE  ARG D 557     -24.780  -0.241 -14.645  1.00 35.49     0.178 HD
ENDBRANCH   4   5
ENDBRANCH   3   4
ENDBRANCH   2   3
ENDBRANCH   1   2
END_RES ARG D 557
BEGIN_RES GLU D 570
REMARK  3 active torsions:
REMARK  status: ('A' for Active; 'I' for Inactive)
REMARK    5  A    between atoms: CA   and  CB  
REMARK    6  A    between atoms: CB   and  CG  
REMARK    7  A    between atoms: CG   and  CD  
ROOT
ATOM     14  CA  GLU D 570     -18.033  -6.348 -13.375  1.00 32.92     0.160 C 
ENDROOT
BRANCH  14  15
ATOM     15  CB  GLU D 570     -19.500  -6.345 -13.794  1.00 32.92     0.043 C 
BRANCH  15  16
ATOM     16  CG  GLU D 570     -20.443  -5.534 -12.981  1.00 32.92     0.100 C 
BRANCH  16  17
ATOM     17  CD  GLU D 570     -21.685  -5.135 -13.742  1.00 32.92     0.185 C 
ATOM     18  OE1 GLU D 570     -21.610  -4.960 -14.973  1.00 32.92    -0.647 OA
ATOM     19  OE2 GLU D 570     -22.741  -4.979 -13.098  1.00 32.92    -0.647 OA
ENDBRANCH  16  17
ENDBRANCH  15  16
ENDBRANCH  14  15
END_RES GLU D 570
ENDMDL
MODEL 8
REMARK VINA RESULT:      -5.5      4.288      7.561
REMARK  3 active torsions:
REMARK  status: ('A' for Active; 'I' for Inactive)
REMARK    1  A    between atoms: O_2  and  C_3 
REMARK    2  A    between atoms: C_3  and  C_5 
REMARK    3  A    between atoms: C_8  and  O_11 
ROOT
HETATM    1  C   UNL     1     -22.539  -4.205 -10.035  1.00  0.00     0.039 A 
HETATM    2  C   UNL     1     -23.085  -4.150  -8.744  1.00  0.00     0.020 A 
HETATM    3  C   UNL     1     -22.248  -4.202  -7.625  1.00  0.00     0.037 A 
HETATM    4  C   UNL     1     -20.872  -4.311  -7.805  1.00  0.00     0.065 A 
HETATM    5  C   UNL     1     -20.319  -4.357  -9.079  1.00  0.00     0.037 A 
HETATM    6  C   UNL     1     -21.150  -4.299 -10.198  1.00  0.00     0.020 A 
ENDROOT
BRANCH   1   7
HETATM    7  C   UNL     1     -23.388  -4.156 -11.253  1.00  0.00     0.292 C 
HETATM    8  O   UNL     1     -24.555  -3.801 -11.251  1.00  0.00    -0.259 OA
BRANCH   7   9
HETATM    9  O   UNL     1     -22.661  -4.508 -12.342  1.00  0.00    -0.323 OA
HETATM   10  C   UNL     1     -23.309  -5.462 -13.186  1.00  0.00     0.213 C 
ENDBRANCH   7   9
ENDBRANCH   1   7
BRANCH   4  11
HETATM   11  O   UNL     1     -20.021  -4.372  -6.741  1.00  0.00    -0.361 OA
HETATM   12  H   UNL     1     -19.272  -3.775  -6.904  1.00  0.00     0.217 HD
ENDBRANCH   4  11
TORSDOF 3
BEGIN_RES ARG D 557
REMARK  4 active torsions:
REMARK  status: ('A' for Active; 'I' for Inactive)
REMARK    1  A    between atoms: CA   and  CB  
REMARK    2  A    between atoms: CB   and  CG  
REMARK    3  A    between atoms: CG   and  CD  
REMARK    4  A    between atoms: CD   and  NE  
REMARK       I    between atoms: NE   and  CZ  
REMARK       I    between atoms: CZ   and  NH1 
REMARK       I    between atoms: CZ   and  NH2 
ROOT
ATOM      1  CA  ARG D 557     -26.217   2.705 -17.014  1.00 35.49     0.159 C 
ENDROOT
BRANCH   1   2
ATOM      2  CB  ARG D 557     -26.789   1.319 -17.183  1.00 35.49     0.034 C 
BRANCH   2   3
ATOM      3  CG  ARG D 557     -25.855   0.196 -17.037  1.00 35.49     0.027 C 
BRANCH   3   4
ATOM      4  CD  ARG D 557     -26.179  -0.660 -15.874  1.00 35.49     0.116 C 
BRANCH   4   5
ATOM      5  NE  ARG D 557     -25.050  -0.837 -14.999  1.00 35.49    -0.212 N 
ATOM      6  CZ  ARG D 557     -24.819  -1.888 -14.245  1.00 35.49     0.666 C 
ATOM      7  NH1 ARG D 557     -25.638  -2.923 -14.201  1.00 35.49    -0.235 N 
ATOM      8  NH2 ARG D 557     -23.732  -1.887 -13.529  1.00 35.49    -0.235 N 
ATOM      9  HH  ARG D 557     -26.358  -2.946 -14.665  1.00 35.49     0.174 HD
ATOM     10  HH  ARG D 557     -25.435  -3.582 -13.693  1.00 35.49     0.174 HD
ATOM     11  HH  ARG D 557     -23.218  -1.209 -13.583  1.00 35.49     0.174 HD
ATOM     12  HH  ARG D 557     -23.548  -2.550 -13.033  1.00 35.49     0.174 HD
ATOM     13  HE  ARG D 557     -24.508  -0.187 -14.910  1.00 35.49     0.178 HD
ENDBRANCH   4   5
ENDBRANCH   3   4
ENDBRANCH   2   3
ENDBRANCH   1   2
END_RES ARG D 557
BEGIN_RES GLU D 570
REMARK  3 active torsions:
REMARK  status: ('A' for Active; 'I' for Inactive)
REMARK    5  A    between atoms: CA   and  CB  
REMARK    6  A    between atoms: CB   and  CG  
REMARK    7  A    between atoms: CG   and  CD  
ROOT
ATOM     14  CA  GLU D 570     -18.033  -6.348 -13.375  1.00 32.92     0.160 C 
ENDROOT
BRANCH  14  15
ATOM     15  CB  GLU D 570     -19.500  -6.345 -13.794  1.00 32.92     0.043 C 
BRANCH  15  16
ATOM     16  CG  GLU D 570     -20.097  -7.642 -14.204  1.00 32.92     0.100 C 
BRANCH  16  17
ATOM     17  CD  GLU D 570     -20.797  -7.572 -15.542  1.00 32.92     0.185 C 
ATOM     18  OE1 GLU D 570     -21.135  -6.460 -15.990  1.00 32.92    -0.647 OA
ATOM     19  OE2 GLU D 570     -21.025  -8.642 -16.139  1.00 32.92    -0.647 OA
ENDBRANCH  16  17
ENDBRANCH  15  16
ENDBRANCH  14  15
END_RES GLU D 570
ENDMDL
MODEL 9
REMARK VINA RESULT:      -5.4      5.465      6.867
REMARK  3 active torsions:
REMARK  status: ('A' for Active; 'I' for Inactive)
REMARK    1  A    between atoms: O_2  and  C_3 
REMARK    2  A    between atoms: C_3  and  C_5 
REMARK    3  A    between atoms: C_8  and  O_11 
ROOT
HETATM    1  C   UNL     1     -34.475  -2.941 -11.595  1.00  0.00     0.039 A 
HETATM    2  C   UNL     1     -35.393  -3.814 -10.995  1.00  0.00     0.020 A 
HETATM    3  C   UNL     1     -35.030  -5.137 -10.722  1.00  0.00     0.037 A 
HETATM    4  C   UNL     1     -33.752  -5.576 -11.054  1.00  0.00     0.065 A 
HETATM    5  C   UNL     1     -32.830  -4.718 -11.643  1.00  0.00     0.037 A 
HETATM    6  C   UNL     1     -33.188  -3.396 -11.910  1.00  0.00     0.020 A 
ENDROOT
BRANCH   1   7
HETATM    7  C   UNL     1     -34.817  -1.529 -11.907  1.00  0.00     0.292 C 
HETATM    8  O   UNL     1     -34.662  -1.022 -13.006  1.00  0.00    -0.259 OA
BRANCH   7   9
HETATM    9  O   UNL     1     -35.362  -0.930 -10.819  1.00  0.00    -0.323 OA
HETATM   10  C   UNL     1     -36.548  -0.186 -11.103  1.00  0.00     0.213 C 
ENDBRANCH   7   9
ENDBRANCH   1   7
BRANCH   4  11
HETATM   11  O   UNL     1     -33.358  -6.859 -10.813  1.00  0.00    -0.361 OA
HETATM   12  H   UNL     1     -33.814  -7.184 -10.020  1.00  0.00     0.217 HD
ENDBRANCH   4  11
TORSDOF 3
BEGIN_RES ARG D 557
REMARK  4 active torsions:
REMARK  status: ('A' for Active; 'I' for Inactive)
REMARK    1  A    between atoms: CA   and  CB  
REMARK    2  A    between atoms: CB   and  CG  
REMARK    3  A    between atoms: CG   and  CD  
REMARK    4  A    between atoms: CD   and  NE  
REMARK       I    between atoms: NE   and  CZ  
REMARK       I    between atoms: CZ   and  NH1 
REMARK       I    between atoms: CZ   and  NH2 
ROOT
ATOM      1  CA  ARG D 557     -26.217   2.705 -17.014  1.00 35.49     0.159 C 
ENDROOT
BRANCH   1   2
ATOM      2  CB  ARG D 557     -26.789   1.319 -17.183  1.00 35.49     0.034 C 
BRANCH   2   3
ATOM      3  CG  ARG D 557     -28.216   1.152 -16.884  1.00 35.49     0.027 C 
BRANCH   3   4
ATOM      4  CD  ARG D 557     -28.595  -0.269 -16.714  1.00 35.49     0.116 C 
BRANCH   4   5
ATOM      5  NE  ARG D 557     -27.588  -1.018 -16.011  1.00 35.49    -0.212 N 
ATOM      6  CZ  ARG D 557     -27.410  -2.319 -16.079  1.00 35.49     0.666 C 
ATOM      7  NH1 ARG D 557     -28.176  -3.101 -16.817  1.00 35.49    -0.235 N 
ATOM      8  NH2 ARG D 557     -26.431  -2.828 -15.389  1.00 35.49    -0.235 N 
ATOM      9  HH  ARG D 557     -28.824  -2.787 -17.281  1.00 35.49     0.174 HD
ATOM     10  HH  ARG D 557     -28.011  -3.942 -16.824  1.00 35.49     0.174 HD
ATOM     11  HH  ARG D 557     -25.949  -2.297 -14.927  1.00 35.49     0.174 HD
ATOM     12  HH  ARG D 557     -26.283  -3.663 -15.410  1.00 35.49     0.174 HD
ATOM     13  HE  ARG D 557     -27.096  -0.603 -15.455  1.00 35.49     0.178 HD
ENDBRANCH   4   5
ENDBRANCH   3   4
ENDBRANCH   2   3
ENDBRANCH   1   2
END_RES ARG D 557
BEGIN_RES GLU D 570
REMARK  3 active torsions:
REMARK  status: ('A' for Active; 'I' for Inactive)
REMARK    5  A    between atoms: CA   and  CB  
REMARK    6  A    between atoms: CB   and  CG  
REMARK    7  A    between atoms: CG   and  CD  
ROOT
ATOM     14  CA  GLU D 570     -18.033  -6.348 -13.375  1.00 32.92     0.160 C 
ENDROOT
BRANCH  14  15
ATOM     15  CB  GLU D 570     -19.500  -6.345 -13.794  1.00 32.92     0.043 C 
BRANCH  15  16
ATOM     16  CG  GLU D 570     -20.449  -5.563 -12.960  1.00 32.92     0.100 C 
BRANCH  16  17
ATOM     17  CD  GLU D 570     -21.697  -5.158 -13.709  1.00 32.92     0.185 C 
ATOM     18  OE1 GLU D 570     -22.758  -4.999 -13.076  1.00 32.92    -0.647 OA
ATOM     19  OE2 GLU D 570     -21.616  -5.015 -14.945  1.00 32.92    -0.647 OA
ENDBRANCH  16  17
ENDBRANCH  15  16
ENDBRANCH  14  15
END_RES GLU D 570
ENDMDL
