MODEL 1
REMARK VINA RESULT:      -6.4      0.000      0.000
REMARK WARNING: 32 MAX_TORS EXCEEDED!!!
REMARK  53 active torsions:
REMARK  status: ('A' for Active; 'I' for Inactive)
REMARK    1  A    between atoms: C_2  and  C_3 
REMARK    2  A    between atoms: C_3  and  C_4 
REMARK    3  A    between atoms: C_4  and  C_5 
REMARK    4  A    between atoms: C_5  and  C_6 
REMARK    5  A    between atoms: C_6  and  C_7 
REMARK    6  A    between atoms: C_7  and  C_8 
REMARK    7  A    between atoms: C_8  and  C_9 
REMARK    8  A    between atoms: C_10  and  C_11 
REMARK    9  A    between atoms: C_11  and  C_12 
REMARK   10  A    between atoms: C_12  and  C_13 
REMARK   11  A    between atoms: C_13  and  C_14 
REMARK   12  A    between atoms: C_14  and  C_15 
REMARK   13  A    between atoms: C_15  and  C_16 
REMARK   14  A    between atoms: C_16  and  C_17 
REMARK   15  A    between atoms: C_17  and  C_18 
REMARK   16  A    between atoms: C_18  and  O_20 
REMARK   17  A    between atoms: O_20  and  C_21 
REMARK   18  A    between atoms: C_21  and  C_22 
REMARK   19  A    between atoms: C_22  and  C_23 
REMARK   20  A    between atoms: C_22  and  O_44 
REMARK   21  A    between atoms: C_23  and  O_24 
REMARK   22  A    between atoms: O_24  and  C_25 
REMARK   23  A    between atoms: C_25  and  C_27 
REMARK   24  A    between atoms: C_27  and  C_28 
REMARK   25  A    between atoms: C_28  and  C_29 
REMARK   26  A    between atoms: C_29  and  C_30 
REMARK   27  A    between atoms: C_30  and  C_31 
REMARK   28  A    between atoms: C_31  and  C_32 
REMARK   29  A    between atoms: C_32  and  C_33 
REMARK   30  A    between atoms: C_33  and  C_34 
REMARK   31  A    between atoms: C_35  and  C_36 
REMARK   32  A    between atoms: C_36  and  C_37 
REMARK   33  A    between atoms: C_37  and  C_38 
REMARK   34  A    between atoms: C_38  and  C_39 
REMARK   35  A    between atoms: C_39  and  C_40 
REMARK   36  A    between atoms: C_40  and  C_41 
REMARK   37  A    between atoms: C_41  and  C_42 
REMARK   38  A    between atoms: O_44  and  C_45 
REMARK   39  A    between atoms: C_45  and  C_47 
REMARK   40  A    between atoms: C_47  and  C_48 
REMARK   41  A    between atoms: C_48  and  C_49 
REMARK   42  A    between atoms: C_49  and  C_50 
REMARK   43  A    between atoms: C_50  and  C_51 
REMARK   44  A    between atoms: C_51  and  C_52 
REMARK   45  A    between atoms: C_52  and  C_53 
REMARK   46  A    between atoms: C_53  and  C_54 
REMARK   47  A    between atoms: C_55  and  C_56 
REMARK   48  A    between atoms: C_56  and  C_57 
REMARK   49  A    between atoms: C_57  and  C_58 
REMARK   50  A    between atoms: C_58  and  C_59 
REMARK   51  A    between atoms: C_59  and  C_60 
REMARK   52  A    between atoms: C_60  and  C_61 
REMARK   53  A    between atoms: C_61  and  C_62 
ROOT
HETATM    1  C   UNL     1     -21.079  -6.604  -4.724  1.00  0.00     0.180 C 
ENDROOT
BRANCH   1   2
HETATM    2  C   UNL     1     -22.084  -6.672  -3.566  1.00  0.00     0.213 C 
BRANCH   2   3
HETATM    3  O   UNL     1     -21.438  -6.382  -2.308  1.00  0.00    -0.319 OA
BRANCH   3   4
HETATM    4  C   UNL     1     -21.937  -7.084  -1.245  1.00  0.00     0.258 C 
HETATM    5  O   UNL     1     -22.993  -6.832  -0.698  1.00  0.00    -0.265 OA
BRANCH   4   6
HETATM    6  C   UNL     1     -21.002  -8.210  -0.831  1.00  0.00     0.111 C 
BRANCH   6   7
HETATM    7  C   UNL     1     -21.291  -8.626   0.614  1.00  0.00     0.010 C 
BRANCH   7   8
HETATM    8  C   UNL     1     -20.853 -10.056   0.918  1.00  0.00     0.000 C 
BRANCH   8   9
HETATM    9  C   UNL     1     -20.163 -10.675  -0.297  1.00  0.00     0.000 C 
BRANCH   9  10
HETATM   10  C   UNL     1     -19.648 -12.071   0.029  1.00  0.00     0.000 C 
BRANCH  10  11
HETATM   11  C   UNL     1     -20.051 -13.058  -1.060  1.00  0.00     0.004 C 
BRANCH  11  12
HETATM   12  C   UNL     1     -19.869 -14.488  -0.572  1.00  0.00     0.027 C 
BRANCH  12  13
HETATM   13  C   UNL     1     -19.085 -14.512   0.697  1.00  0.00    -0.031 C 
HETATM   14  C   UNL     1     -17.917 -15.159   0.800  1.00  0.00    -0.031 C 
BRANCH  14  15
HETATM   15  C   UNL     1     -17.132 -15.182   2.068  1.00  0.00     0.027 C 
BRANCH  15  16
HETATM   16  C   UNL     1     -16.259 -13.941   2.175  1.00  0.00     0.004 C 
BRANCH  16  17
HETATM   17  C   UNL     1     -15.799 -13.501   0.792  1.00  0.00     0.000 C 
BRANCH  17  18
HETATM   18  C   UNL     1     -16.024 -12.008   0.616  1.00  0.00     0.000 C 
BRANCH  18  19
HETATM   19  C   UNL     1     -16.090 -11.658  -0.862  1.00  0.00     0.000 C 
BRANCH  19  20
HETATM   20  C   UNL     1     -16.037 -12.923  -1.705  1.00  0.00    -0.000 C 
BRANCH  20  21
HETATM   21  C   UNL     1     -14.673 -13.068  -2.367  1.00  0.00    -0.005 C 
HETATM   22  C   UNL     1     -14.725 -12.576  -3.800  1.00  0.00     0.005 C 
ENDBRANCH  20  21
ENDBRANCH  19  20
ENDBRANCH  18  19
ENDBRANCH  17  18
ENDBRANCH  16  17
ENDBRANCH  15  16
ENDBRANCH  14  15
ENDBRANCH  12  13
ENDBRANCH  11  12
ENDBRANCH  10  11
ENDBRANCH   9  10
ENDBRANCH   8   9
ENDBRANCH   7   8
ENDBRANCH   6   7
ENDBRANCH   4   6
ENDBRANCH   3   4
ENDBRANCH   2   3
ENDBRANCH   1   2
BRANCH   1  23
HETATM   23  C   UNL     1     -20.739  -8.029  -5.190  1.00  0.00     0.213 C 
BRANCH  23  24
HETATM   24  O   UNL     1     -19.827  -8.686  -4.285  1.00  0.00    -0.319 OA
BRANCH  24  25
HETATM   25  C   UNL     1     -18.776  -9.315  -4.893  1.00  0.00     0.258 C 
HETATM   26  O   UNL     1     -18.440  -9.164  -6.052  1.00  0.00    -0.265 OA
BRANCH  25  27
HETATM   27  C   UNL     1     -18.056 -10.218  -3.920  1.00  0.00     0.111 C 
BRANCH  27  28
HETATM   28  C   UNL     1     -18.657 -11.614  -3.991  1.00  0.00     0.010 C 
BRANCH  28  29
HETATM   29  C   UNL     1     -18.165 -12.393  -5.203  1.00  0.00     0.000 C 
BRANCH  29  30
HETATM   30  C   UNL     1     -19.324 -13.153  -5.842  1.00  0.00     0.000 C 
BRANCH  30  31
HETATM   31  C   UNL     1     -19.937 -12.342  -6.973  1.00  0.00     0.000 C 
BRANCH  31  32
HETATM   32  C   UNL     1     -21.182 -11.610  -6.489  1.00  0.00     0.004 C 
BRANCH  32  33
HETATM   33  C   UNL     1     -22.220 -12.606  -5.994  1.00  0.00     0.027 C 
BRANCH  33  34
HETATM   34  C   UNL     1     -22.519 -12.383  -4.550  1.00  0.00    -0.031 C 
HETATM   35  C   UNL     1     -22.437 -11.169  -3.991  1.00  0.00    -0.031 C 
BRANCH  35  36
HETATM   36  C   UNL     1     -22.741 -10.934  -2.550  1.00  0.00     0.027 C 
BRANCH  36  37
HETATM   37  C   UNL     1     -23.512 -12.105  -1.965  1.00  0.00     0.004 C 
BRANCH  37  38
HETATM   38  C   UNL     1     -23.683 -11.924  -0.464  1.00  0.00     0.000 C 
BRANCH  38  39
HETATM   39  C   UNL     1     -23.620 -13.272   0.237  1.00  0.00     0.000 C 
BRANCH  39  40
HETATM   40  C   UNL     1     -22.842 -13.153   1.539  1.00  0.00     0.000 C 
BRANCH  40  41
HETATM   41  C   UNL     1     -23.165 -14.326   2.453  1.00  0.00    -0.000 C 
BRANCH  41  42
HETATM   42  C   UNL     1     -21.900 -14.846   3.122  1.00  0.00    -0.005 C 
HETATM   43  C   UNL     1     -21.727 -16.327   2.848  1.00  0.00     0.005 C 
ENDBRANCH  41  42
ENDBRANCH  40  41
ENDBRANCH  39  40
ENDBRANCH  38  39
ENDBRANCH  37  38
ENDBRANCH  36  37
ENDBRANCH  35  36
ENDBRANCH  33  34
ENDBRANCH  32  33
ENDBRANCH  31  32
ENDBRANCH  30  31
ENDBRANCH  29  30
ENDBRANCH  28  29
ENDBRANCH  27  28
ENDBRANCH  25  27
ENDBRANCH  24  25
ENDBRANCH  23  24
ENDBRANCH   1  23
BRANCH   1  44
HETATM   44  O   UNL     1     -21.636  -5.846  -5.834  1.00  0.00    -0.312 OA
BRANCH  44  45
HETATM   45  C   UNL     1     -20.797  -4.914  -6.391  1.00  0.00     0.259 C 
HETATM   46  O   UNL     1     -19.802  -4.449  -5.866  1.00  0.00    -0.265 OA
BRANCH  45  47
HETATM   47  C   UNL     1     -21.194  -4.556  -7.814  1.00  0.00     0.111 C 
BRANCH  47  48
HETATM   48  C   UNL     1     -20.039  -4.820  -8.784  1.00  0.00     0.010 C 
BRANCH  48  49
HETATM   49  C   UNL     1     -20.400  -4.475 -10.226  1.00  0.00     0.000 C 
BRANCH  49  50
HETATM   50  C   UNL     1     -21.802  -3.878 -10.300  1.00  0.00     0.000 C 
BRANCH  50  51
HETATM   51  C   UNL     1     -21.908  -2.899 -11.461  1.00  0.00     0.000 C 
BRANCH  51  52
HETATM   52  C   UNL     1     -23.188  -3.135 -12.248  1.00  0.00     0.004 C 
BRANCH  52  53
HETATM   53  C   UNL     1     -22.887  -3.207 -13.739  1.00  0.00     0.027 C 
BRANCH  53  54
HETATM   54  C   UNL     1     -22.897  -4.623 -14.210  1.00  0.00    -0.031 C 
HETATM   55  C   UNL     1     -24.017  -5.224 -14.628  1.00  0.00    -0.031 C 
BRANCH  55  56
HETATM   56  C   UNL     1     -24.025  -6.639 -15.100  1.00  0.00     0.027 C 
BRANCH  56  57
HETATM   57  C   UNL     1     -25.397  -7.016 -15.634  1.00  0.00     0.004 C 
BRANCH  57  58
HETATM   58  C   UNL     1     -25.558  -6.529 -17.066  1.00  0.00     0.000 C 
BRANCH  58  59
HETATM   59  C   UNL     1     -27.004  -6.144 -17.330  1.00  0.00     0.000 C 
BRANCH  59  60
HETATM   60  C   UNL     1     -27.864  -6.466 -16.116  1.00  0.00     0.000 C 
BRANCH  60  61
HETATM   61  C   UNL     1     -29.337  -6.445 -16.495  1.00  0.00    -0.000 C 
BRANCH  61  62
HETATM   62  C   UNL     1     -29.500  -6.443 -18.008  1.00  0.00    -0.005 C 
HETATM   63  C   UNL     1     -30.212  -7.700 -18.467  1.00  0.00     0.005 C 
ENDBRANCH  61  62
ENDBRANCH  60  61
ENDBRANCH  59  60
ENDBRANCH  58  59
ENDBRANCH  57  58
ENDBRANCH  56  57
ENDBRANCH  55  56
ENDBRANCH  53  54
ENDBRANCH  52  53
ENDBRANCH  51  52
ENDBRANCH  50  51
ENDBRANCH  49  50
ENDBRANCH  48  49
ENDBRANCH  47  48
ENDBRANCH  45  47
ENDBRANCH  44  45
ENDBRANCH   1  44
TORSDOF 53
BEGIN_RES ARG D 557
REMARK  4 active torsions:
REMARK  status: ('A' for Active; 'I' for Inactive)
REMARK    1  A    between atoms: CA   and  CB  
REMARK    2  A    between atoms: CB   and  CG  
REMARK    3  A    between atoms: CG   and  CD  
REMARK    4  A    between atoms: CD   and  NE  
REMARK       I    between atoms: NE   and  CZ  
REMARK       I    between atoms: CZ   and  NH1 
REMARK       I    between atoms: CZ   and  NH2 
ROOT
ATOM      1  CA  ARG D 557     -26.217   2.705 -17.014  1.00 35.49     0.159 C 
ENDROOT
BRANCH   1   2
ATOM      2  CB  ARG D 557     -26.789   1.319 -17.183  1.00 35.49     0.034 C 
BRANCH   2   3
ATOM      3  CG  ARG D 557     -28.238   1.175 -16.999  1.00 35.49     0.027 C 
BRANCH   3   4
ATOM      4  CD  ARG D 557     -28.654  -0.241 -16.878  1.00 35.49     0.116 C 
BRANCH   4   5
ATOM      5  NE  ARG D 557     -27.678  -1.035 -16.180  1.00 35.49    -0.212 N 
ATOM      6  CZ  ARG D 557     -27.560  -2.342 -16.248  1.00 35.49     0.666 C 
ATOM      7  NH1 ARG D 557     -28.364  -3.089 -16.981  1.00 35.49    -0.235 N 
ATOM      8  NH2 ARG D 557     -26.602  -2.895 -15.563  1.00 35.49    -0.235 N 
ATOM      9  HH  ARG D 557     -29.000  -2.746 -17.442  1.00 35.49     0.174 HD
ATOM     10  HH  ARG D 557     -28.238  -3.936 -16.990  1.00 35.49     0.174 HD
ATOM     11  HH  ARG D 557     -26.093  -2.387 -15.104  1.00 35.49     0.174 HD
ATOM     12  HH  ARG D 557     -26.492  -3.735 -15.585  1.00 35.49     0.174 HD
ATOM     13  HE  ARG D 557     -27.165  -0.642 -15.627  1.00 35.49     0.178 HD
ENDBRANCH   4   5
ENDBRANCH   3   4
ENDBRANCH   2   3
ENDBRANCH   1   2
END_RES ARG D 557
BEGIN_RES GLU D 570
REMARK  3 active torsions:
REMARK  status: ('A' for Active; 'I' for Inactive)
REMARK    5  A    between atoms: CA   and  CB  
REMARK    6  A    between atoms: CB   and  CG  
REMARK    7  A    between atoms: CG   and  CD  
ROOT
ATOM     14  CA  GLU D 570     -18.033  -6.348 -13.375  1.00 32.92     0.160 C 
ENDROOT
BRANCH  14  15
ATOM     15  CB  GLU D 570     -19.500  -6.345 -13.794  1.00 32.92     0.043 C 
BRANCH  15  16
ATOM     16  CG  GLU D 570     -20.078  -7.627 -14.273  1.00 32.92     0.100 C 
BRANCH  16  17
ATOM     17  CD  GLU D 570     -20.640  -7.534 -15.672  1.00 32.92     0.185 C 
ATOM     18  OE1 GLU D 570     -21.190  -8.535 -16.171  1.00 32.92    -0.647 OA
ATOM     19  OE2 GLU D 570     -20.515  -6.454 -16.282  1.00 32.92    -0.647 OA
ENDBRANCH  16  17
ENDBRANCH  15  16
ENDBRANCH  14  15
END_RES GLU D 570
ENDMDL
MODEL 2
REMARK VINA RESULT:      -6.3      1.583      4.048
REMARK WARNING: 32 MAX_TORS EXCEEDED!!!
REMARK  53 active torsions:
REMARK  status: ('A' for Active; 'I' for Inactive)
REMARK    1  A    between atoms: C_2  and  C_3 
REMARK    2  A    between atoms: C_3  and  C_4 
REMARK    3  A    between atoms: C_4  and  C_5 
REMARK    4  A    between atoms: C_5  and  C_6 
REMARK    5  A    between atoms: C_6  and  C_7 
REMARK    6  A    between atoms: C_7  and  C_8 
REMARK    7  A    between atoms: C_8  and  C_9 
REMARK    8  A    between atoms: C_10  and  C_11 
REMARK    9  A    between atoms: C_11  and  C_12 
REMARK   10  A    between atoms: C_12  and  C_13 
REMARK   11  A    between atoms: C_13  and  C_14 
REMARK   12  A    between atoms: C_14  and  C_15 
REMARK   13  A    between atoms: C_15  and  C_16 
REMARK   14  A    between atoms: C_16  and  C_17 
REMARK   15  A    between atoms: C_17  and  C_18 
REMARK   16  A    between atoms: C_18  and  O_20 
REMARK   17  A    between atoms: O_20  and  C_21 
REMARK   18  A    between atoms: C_21  and  C_22 
REMARK   19  A    between atoms: C_22  and  C_23 
REMARK   20  A    between atoms: C_22  and  O_44 
REMARK   21  A    between atoms: C_23  and  O_24 
REMARK   22  A    between atoms: O_24  and  C_25 
REMARK   23  A    between atoms: C_25  and  C_27 
REMARK   24  A    between atoms: C_27  and  C_28 
REMARK   25  A    between atoms: C_28  and  C_29 
REMARK   26  A    between atoms: C_29  and  C_30 
REMARK   27  A    between atoms: C_30  and  C_31 
REMARK   28  A    between atoms: C_31  and  C_32 
REMARK   29  A    between atoms: C_32  and  C_33 
REMARK   30  A    between atoms: C_33  and  C_34 
REMARK   31  A    between atoms: C_35  and  C_36 
REMARK   32  A    between atoms: C_36  and  C_37 
REMARK   33  A    between atoms: C_37  and  C_38 
REMARK   34  A    between atoms: C_38  and  C_39 
REMARK   35  A    between atoms: C_39  and  C_40 
REMARK   36  A    between atoms: C_40  and  C_41 
REMARK   37  A    between atoms: C_41  and  C_42 
REMARK   38  A    between atoms: O_44  and  C_45 
REMARK   39  A    between atoms: C_45  and  C_47 
REMARK   40  A    between atoms: C_47  and  C_48 
REMARK   41  A    between atoms: C_48  and  C_49 
REMARK   42  A    between atoms: C_49  and  C_50 
REMARK   43  A    between atoms: C_50  and  C_51 
REMARK   44  A    between atoms: C_51  and  C_52 
REMARK   45  A    between atoms: C_52  and  C_53 
REMARK   46  A    between atoms: C_53  and  C_54 
REMARK   47  A    between atoms: C_55  and  C_56 
REMARK   48  A    between atoms: C_56  and  C_57 
REMARK   49  A    between atoms: C_57  and  C_58 
REMARK   50  A    between atoms: C_58  and  C_59 
REMARK   51  A    between atoms: C_59  and  C_60 
REMARK   52  A    between atoms: C_60  and  C_61 
REMARK   53  A    between atoms: C_61  and  C_62 
ROOT
HETATM    1  C   UNL     1     -21.026  -6.542  -5.059  1.00  0.00     0.180 C 
ENDROOT
BRANCH   1   2
HETATM    2  C   UNL     1     -21.188  -6.042  -3.618  1.00  0.00     0.213 C 
BRANCH   2   3
HETATM    3  O   UNL     1     -21.437  -7.143  -2.717  1.00  0.00    -0.319 OA
BRANCH   3   4
HETATM    4  C   UNL     1     -22.076  -6.790  -1.561  1.00  0.00     0.258 C 
HETATM    5  O   UNL     1     -22.391  -5.651  -1.277  1.00  0.00    -0.265 OA
BRANCH   4   6
HETATM    6  C   UNL     1     -22.332  -7.998  -0.672  1.00  0.00     0.111 C 
BRANCH   6   7
HETATM    7  C   UNL     1     -21.005  -8.649  -0.276  1.00  0.00     0.010 C 
BRANCH   7   8
HETATM    8  C   UNL     1     -21.050  -9.291   1.109  1.00  0.00     0.000 C 
BRANCH   8   9
HETATM    9  C   UNL     1     -20.447 -10.694   1.069  1.00  0.00     0.000 C 
BRANCH   9  10
HETATM   10  C   UNL     1     -19.894 -11.005  -0.316  1.00  0.00     0.000 C 
BRANCH  10  11
HETATM   11  C   UNL     1     -19.754 -12.509  -0.512  1.00  0.00     0.004 C 
BRANCH  11  12
HETATM   12  C   UNL     1     -18.517 -12.822  -1.343  1.00  0.00     0.027 C 
BRANCH  12  13
HETATM   13  C   UNL     1     -17.725 -11.582  -1.588  1.00  0.00    -0.031 C 
HETATM   14  C   UNL     1     -16.412 -11.617  -1.851  1.00  0.00    -0.031 C 
BRANCH  14  15
HETATM   15  C   UNL     1     -15.620 -10.376  -2.097  1.00  0.00     0.027 C 
BRANCH  15  16
HETATM   16  C   UNL     1     -16.101  -9.680  -3.361  1.00  0.00     0.004 C 
BRANCH  16  17
HETATM   17  C   UNL     1     -15.665 -10.464  -4.591  1.00  0.00     0.000 C 
BRANCH  17  18
HETATM   18  C   UNL     1     -16.208  -9.808  -5.850  1.00  0.00     0.000 C 
BRANCH  18  19
HETATM   19  C   UNL     1     -17.477 -10.513  -6.305  1.00  0.00     0.000 C 
BRANCH  19  20
HETATM   20  C   UNL     1     -17.527 -11.922  -5.734  1.00  0.00    -0.000 C 
BRANCH  20  21
HETATM   21  C   UNL     1     -17.389 -12.954  -6.845  1.00  0.00    -0.005 C 
HETATM   22  C   UNL     1     -18.741 -13.251  -7.464  1.00  0.00     0.005 C 
ENDBRANCH  20  21
ENDBRANCH  19  20
ENDBRANCH  18  19
ENDBRANCH  17  18
ENDBRANCH  16  17
ENDBRANCH  15  16
ENDBRANCH  14  15
ENDBRANCH  12  13
ENDBRANCH  11  12
ENDBRANCH  10  11
ENDBRANCH   9  10
ENDBRANCH   8   9
ENDBRANCH   7   8
ENDBRANCH   6   7
ENDBRANCH   4   6
ENDBRANCH   3   4
ENDBRANCH   2   3
ENDBRANCH   1   2
BRANCH   1  23
HETATM   23  C   UNL     1     -21.597  -7.965  -5.174  1.00  0.00     0.213 C 
BRANCH  23  24
HETATM   24  O   UNL     1     -20.626  -8.893  -5.700  1.00  0.00    -0.319 OA
BRANCH  24  25
HETATM   25  C   UNL     1     -20.907 -10.209  -5.460  1.00  0.00     0.258 C 
HETATM   26  O   UNL     1     -21.223 -11.027  -6.303  1.00  0.00    -0.265 OA
BRANCH  25  27
HETATM   27  C   UNL     1     -20.745 -10.532  -3.994  1.00  0.00     0.111 C 
BRANCH  27  28
HETATM   28  C   UNL     1     -21.391 -11.879  -3.702  1.00  0.00     0.010 C 
BRANCH  28  29
HETATM   29  C   UNL     1     -22.889 -11.761  -3.456  1.00  0.00     0.000 C 
BRANCH  29  30
HETATM   30  C   UNL     1     -23.147 -11.197  -2.062  1.00  0.00     0.000 C 
BRANCH  30  31
HETATM   31  C   UNL     1     -23.791 -12.247  -1.170  1.00  0.00     0.000 C 
BRANCH  31  32
HETATM   32  C   UNL     1     -23.427 -12.002   0.289  1.00  0.00     0.004 C 
BRANCH  32  33
HETATM   33  C   UNL     1     -23.813 -13.204   1.137  1.00  0.00     0.027 C 
BRANCH  33  34
HETATM   34  C   UNL     1     -22.632 -14.081   1.381  1.00  0.00    -0.031 C 
HETATM   35  C   UNL     1     -22.346 -14.558   2.599  1.00  0.00    -0.031 C 
BRANCH  35  36
HETATM   36  C   UNL     1     -21.171 -15.442   2.851  1.00  0.00     0.027 C 
BRANCH  36  37
HETATM   37  C   UNL     1     -20.335 -15.599   1.591  1.00  0.00     0.004 C 
BRANCH  37  38
HETATM   38  C   UNL     1     -18.896 -15.935   1.955  1.00  0.00     0.000 C 
BRANCH  38  39
HETATM   39  C   UNL     1     -17.986 -14.759   1.637  1.00  0.00     0.000 C 
BRANCH  39  40
HETATM   40  C   UNL     1     -16.542 -15.107   1.961  1.00  0.00     0.000 C 
BRANCH  40  41
HETATM   41  C   UNL     1     -15.864 -13.940   2.663  1.00  0.00    -0.000 C 
BRANCH  41  42
HETATM   42  C   UNL     1     -15.426 -12.890   1.651  1.00  0.00    -0.005 C 
HETATM   43  C   UNL     1     -14.565 -13.520   0.573  1.00  0.00     0.005 C 
ENDBRANCH  41  42
ENDBRANCH  40  41
ENDBRANCH  39  40
ENDBRANCH  38  39
ENDBRANCH  37  38
ENDBRANCH  36  37
ENDBRANCH  35  36
ENDBRANCH  33  34
ENDBRANCH  32  33
ENDBRANCH  31  32
ENDBRANCH  30  31
ENDBRANCH  29  30
ENDBRANCH  28  29
ENDBRANCH  27  28
ENDBRANCH  25  27
ENDBRANCH  24  25
ENDBRANCH  23  24
ENDBRANCH   1  23
BRANCH   1  44
HETATM   44  O   UNL     1     -21.723  -5.660  -5.983  1.00  0.00    -0.312 OA
BRANCH  44  45
HETATM   45  C   UNL     1     -20.997  -5.261  -7.076  1.00  0.00     0.259 C 
HETATM   46  O   UNL     1     -20.246  -5.965  -7.728  1.00  0.00    -0.265 OA
BRANCH  45  47
HETATM   47  C   UNL     1     -21.285  -3.820  -7.467  1.00  0.00     0.111 C 
BRANCH  47  48
HETATM   48  C   UNL     1     -22.182  -3.761  -8.706  1.00  0.00     0.010 C 
BRANCH  48  49
HETATM   49  C   UNL     1     -23.635  -4.102  -8.389  1.00  0.00     0.000 C 
BRANCH  49  50
HETATM   50  C   UNL     1     -24.553  -3.641  -9.517  1.00  0.00     0.000 C 
BRANCH  50  51
HETATM   51  C   UNL     1     -23.765  -3.450 -10.805  1.00  0.00     0.000 C 
BRANCH  51  52
HETATM   52  C   UNL     1     -23.701  -4.750 -11.594  1.00  0.00     0.004 C 
BRANCH  52  53
HETATM   53  C   UNL     1     -22.450  -4.782 -12.460  1.00  0.00     0.027 C 
BRANCH  53  54
HETATM   54  C   UNL     1     -22.784  -5.200 -13.853  1.00  0.00    -0.031 C 
HETATM   55  C   UNL     1     -23.746  -6.092 -14.115  1.00  0.00    -0.031 C 
BRANCH  55  56
HETATM   56  C   UNL     1     -24.080  -6.508 -15.509  1.00  0.00     0.027 C 
BRANCH  56  57
HETATM   57  C   UNL     1     -25.575  -6.746 -15.651  1.00  0.00     0.004 C 
BRANCH  57  58
HETATM   58  C   UNL     1     -26.276  -5.461 -16.063  1.00  0.00     0.000 C 
BRANCH  58  59
HETATM   59  C   UNL     1     -27.350  -5.758 -17.096  1.00  0.00     0.000 C 
BRANCH  59  60
HETATM   60  C   UNL     1     -28.366  -4.626 -17.140  1.00  0.00     0.000 C 
BRANCH  60  61
HETATM   61  C   UNL     1     -29.568  -5.030 -17.980  1.00  0.00    -0.000 C 
BRANCH  61  62
HETATM   62  C   UNL     1     -30.706  -5.507 -17.090  1.00  0.00    -0.005 C 
HETATM   63  C   UNL     1     -31.135  -6.908 -17.483  1.00  0.00     0.005 C 
ENDBRANCH  61  62
ENDBRANCH  60  61
ENDBRANCH  59  60
ENDBRANCH  58  59
ENDBRANCH  57  58
ENDBRANCH  56  57
ENDBRANCH  55  56
ENDBRANCH  53  54
ENDBRANCH  52  53
ENDBRANCH  51  52
ENDBRANCH  50  51
ENDBRANCH  49  50
ENDBRANCH  48  49
ENDBRANCH  47  48
ENDBRANCH  45  47
ENDBRANCH  44  45
ENDBRANCH   1  44
TORSDOF 53
BEGIN_RES ARG D 557
REMARK  4 active torsions:
REMARK  status: ('A' for Active; 'I' for Inactive)
REMARK    1  A    between atoms: CA   and  CB  
REMARK    2  A    between atoms: CB   and  CG  
REMARK    3  A    between atoms: CG   and  CD  
REMARK    4  A    between atoms: CD   and  NE  
REMARK       I    between atoms: NE   and  CZ  
REMARK       I    between atoms: CZ   and  NH1 
REMARK       I    between atoms: CZ   and  NH2 
ROOT
ATOM      1  CA  ARG D 557     -26.217   2.705 -17.014  1.00 35.49     0.159 C 
ENDROOT
BRANCH   1   2
ATOM      2  CB  ARG D 557     -26.789   1.319 -17.183  1.00 35.49     0.034 C 
BRANCH   2   3
ATOM      3  CG  ARG D 557     -25.850   0.197 -17.059  1.00 35.49     0.027 C 
BRANCH   3   4
ATOM      4  CD  ARG D 557     -26.055  -0.575 -15.812  1.00 35.49     0.116 C 
BRANCH   4   5
ATOM      5  NE  ARG D 557     -24.851  -0.670 -15.030  1.00 35.49    -0.212 N 
ATOM      6  CZ  ARG D 557     -24.519  -1.674 -14.250  1.00 35.49     0.666 C 
ATOM      7  NH1 ARG D 557     -25.292  -2.732 -14.087  1.00 35.49    -0.235 N 
ATOM      8  NH2 ARG D 557     -23.377  -1.601 -13.630  1.00 35.49    -0.235 N 
ATOM      9  HH  ARG D 557     -26.047  -2.802 -14.487  1.00 35.49     0.174 HD
ATOM     10  HH  ARG D 557     -25.023  -3.357 -13.568  1.00 35.49     0.174 HD
ATOM     11  HH  ARG D 557     -22.895  -0.910 -13.760  1.00 35.49     0.174 HD
ATOM     12  HH  ARG D 557     -23.127  -2.231 -13.121  1.00 35.49     0.174 HD
ATOM     13  HE  ARG D 557     -24.328   0.001 -15.018  1.00 35.49     0.178 HD
ENDBRANCH   4   5
ENDBRANCH   3   4
ENDBRANCH   2   3
ENDBRANCH   1   2
END_RES ARG D 557
BEGIN_RES GLU D 570
REMARK  3 active torsions:
REMARK  status: ('A' for Active; 'I' for Inactive)
REMARK    5  A    between atoms: CA   and  CB  
REMARK    6  A    between atoms: CB   and  CG  
REMARK    7  A    between atoms: CG   and  CD  
ROOT
ATOM     14  CA  GLU D 570     -18.033  -6.348 -13.375  1.00 32.92     0.160 C 
ENDROOT
BRANCH  14  15
ATOM     15  CB  GLU D 570     -19.500  -6.345 -13.794  1.00 32.92     0.043 C 
BRANCH  15  16
ATOM     16  CG  GLU D 570     -20.097  -7.642 -14.204  1.00 32.92     0.100 C 
BRANCH  16  17
ATOM     17  CD  GLU D 570     -20.625  -7.626 -15.620  1.00 32.92     0.185 C 
ATOM     18  OE1 GLU D 570     -21.110  -8.670 -16.097  1.00 32.92    -0.647 OA
ATOM     19  OE2 GLU D 570     -20.537  -6.563 -16.265  1.00 32.92    -0.647 OA
ENDBRANCH  16  17
ENDBRANCH  15  16
ENDBRANCH  14  15
END_RES GLU D 570
ENDMDL
MODEL 3
REMARK VINA RESULT:      -6.3      3.320     10.204
REMARK WARNING: 32 MAX_TORS EXCEEDED!!!
REMARK  53 active torsions:
REMARK  status: ('A' for Active; 'I' for Inactive)
REMARK    1  A    between atoms: C_2  and  C_3 
REMARK    2  A    between atoms: C_3  and  C_4 
REMARK    3  A    between atoms: C_4  and  C_5 
REMARK    4  A    between atoms: C_5  and  C_6 
REMARK    5  A    between atoms: C_6  and  C_7 
REMARK    6  A    between atoms: C_7  and  C_8 
REMARK    7  A    between atoms: C_8  and  C_9 
REMARK    8  A    between atoms: C_10  and  C_11 
REMARK    9  A    between atoms: C_11  and  C_12 
REMARK   10  A    between atoms: C_12  and  C_13 
REMARK   11  A    between atoms: C_13  and  C_14 
REMARK   12  A    between atoms: C_14  and  C_15 
REMARK   13  A    between atoms: C_15  and  C_16 
REMARK   14  A    between atoms: C_16  and  C_17 
REMARK   15  A    between atoms: C_17  and  C_18 
REMARK   16  A    between atoms: C_18  and  O_20 
REMARK   17  A    between atoms: O_20  and  C_21 
REMARK   18  A    between atoms: C_21  and  C_22 
REMARK   19  A    between atoms: C_22  and  C_23 
REMARK   20  A    between atoms: C_22  and  O_44 
REMARK   21  A    between atoms: C_23  and  O_24 
REMARK   22  A    between atoms: O_24  and  C_25 
REMARK   23  A    between atoms: C_25  and  C_27 
REMARK   24  A    between atoms: C_27  and  C_28 
REMARK   25  A    between atoms: C_28  and  C_29 
REMARK   26  A    between atoms: C_29  and  C_30 
REMARK   27  A    between atoms: C_30  and  C_31 
REMARK   28  A    between atoms: C_31  and  C_32 
REMARK   29  A    between atoms: C_32  and  C_33 
REMARK   30  A    between atoms: C_33  and  C_34 
REMARK   31  A    between atoms: C_35  and  C_36 
REMARK   32  A    between atoms: C_36  and  C_37 
REMARK   33  A    between atoms: C_37  and  C_38 
REMARK   34  A    between atoms: C_38  and  C_39 
REMARK   35  A    between atoms: C_39  and  C_40 
REMARK   36  A    between atoms: C_40  and  C_41 
REMARK   37  A    between atoms: C_41  and  C_42 
REMARK   38  A    between atoms: O_44  and  C_45 
REMARK   39  A    between atoms: C_45  and  C_47 
REMARK   40  A    between atoms: C_47  and  C_48 
REMARK   41  A    between atoms: C_48  and  C_49 
REMARK   42  A    between atoms: C_49  and  C_50 
REMARK   43  A    between atoms: C_50  and  C_51 
REMARK   44  A    between atoms: C_51  and  C_52 
REMARK   45  A    between atoms: C_52  and  C_53 
REMARK   46  A    between atoms: C_53  and  C_54 
REMARK   47  A    between atoms: C_55  and  C_56 
REMARK   48  A    between atoms: C_56  and  C_57 
REMARK   49  A    between atoms: C_57  and  C_58 
REMARK   50  A    between atoms: C_58  and  C_59 
REMARK   51  A    between atoms: C_59  and  C_60 
REMARK   52  A    between atoms: C_60  and  C_61 
REMARK   53  A    between atoms: C_61  and  C_62 
ROOT
HETATM    1  C   UNL     1     -20.231 -12.292  -0.650  1.00  0.00     0.180 C 
ENDROOT
BRANCH   1   2
HETATM    2  C   UNL     1     -19.320 -13.357  -0.026  1.00  0.00     0.213 C 
BRANCH   2   3
HETATM    3  O   UNL     1     -18.041 -12.792   0.335  1.00  0.00    -0.319 OA
BRANCH   3   4
HETATM    4  C   UNL     1     -16.984 -13.644   0.171  1.00  0.00     0.258 C 
HETATM    5  O   UNL     1     -17.027 -14.666  -0.488  1.00  0.00    -0.265 OA
BRANCH   4   6
HETATM    6  C   UNL     1     -15.752 -13.159   0.921  1.00  0.00     0.111 C 
BRANCH   6   7
HETATM    7  C   UNL     1     -15.919 -13.413   2.421  1.00  0.00     0.010 C 
BRANCH   7   8
HETATM    8  C   UNL     1     -15.692 -14.873   2.804  1.00  0.00     0.000 C 
BRANCH   8   9
HETATM    9  C   UNL     1     -14.219 -15.247   2.642  1.00  0.00     0.000 C 
BRANCH   9  10
HETATM   10  C   UNL     1     -13.668 -15.840   3.932  1.00  0.00     0.000 C 
BRANCH  10  11
HETATM   11  C   UNL     1     -14.441 -15.317   5.135  1.00  0.00     0.004 C 
BRANCH  11  12
HETATM   12  C   UNL     1     -13.686 -15.618   6.422  1.00  0.00     0.027 C 
BRANCH  12  13
HETATM   13  C   UNL     1     -12.216 -15.650   6.170  1.00  0.00    -0.031 C 
HETATM   14  C   UNL     1     -11.362 -14.860   6.835  1.00  0.00    -0.031 C 
BRANCH  14  15
HETATM   15  C   UNL     1      -9.892 -14.894   6.583  1.00  0.00     0.027 C 
BRANCH  15  16
HETATM   16  C   UNL     1      -9.387 -13.510   6.203  1.00  0.00     0.004 C 
BRANCH  16  17
HETATM   17  C   UNL     1      -9.168 -13.424   4.700  1.00  0.00     0.000 C 
BRANCH  17  18
HETATM   18  C   UNL     1      -8.168 -14.479   4.255  1.00  0.00     0.000 C 
BRANCH  18  19
HETATM   19  C   UNL     1      -8.704 -15.237   3.051  1.00  0.00     0.000 C 
BRANCH  19  20
HETATM   20  C   UNL     1     -10.146 -14.838   2.778  1.00  0.00    -0.000 C 
BRANCH  20  21
HETATM   21  C   UNL     1     -10.311 -14.377   1.337  1.00  0.00    -0.005 C 
HETATM   22  C   UNL     1     -10.123 -12.876   1.236  1.00  0.00     0.005 C 
ENDBRANCH  20  21
ENDBRANCH  19  20
ENDBRANCH  18  19
ENDBRANCH  17  18
ENDBRANCH  16  17
ENDBRANCH  15  16
ENDBRANCH  14  15
ENDBRANCH  12  13
ENDBRANCH  11  12
ENDBRANCH  10  11
ENDBRANCH   9  10
ENDBRANCH   8   9
ENDBRANCH   7   8
ENDBRANCH   6   7
ENDBRANCH   4   6
ENDBRANCH   3   4
ENDBRANCH   2   3
ENDBRANCH   1   2
BRANCH   1  23
HETATM   23  C   UNL     1     -20.024 -10.953   0.077  1.00  0.00     0.213 C 
BRANCH  23  24
HETATM   24  O   UNL     1     -21.146 -10.623   0.923  1.00  0.00    -0.319 OA
BRANCH  24  25
HETATM   25  C   UNL     1     -22.053  -9.770   0.358  1.00  0.00     0.258 C 
HETATM   26  O   UNL     1     -23.127 -10.094  -0.109  1.00  0.00    -0.265 OA
BRANCH  25  27
HETATM   27  C   UNL     1     -21.555  -8.346   0.413  1.00  0.00     0.111 C 
BRANCH  27  28
HETATM   28  C   UNL     1     -22.603  -7.423  -0.191  1.00  0.00     0.010 C 
BRANCH  28  29
HETATM   29  C   UNL     1     -22.066  -6.640  -1.382  1.00  0.00     0.000 C 
BRANCH  29  30
HETATM   30  C   UNL     1     -20.976  -7.442  -2.087  1.00  0.00     0.000 C 
BRANCH  30  31
HETATM   31  C   UNL     1     -21.563  -8.254  -3.230  1.00  0.00     0.000 C 
BRANCH  31  32
HETATM   32  C   UNL     1     -21.934  -7.344  -4.395  1.00  0.00     0.004 C 
BRANCH  32  33
HETATM   33  C   UNL     1     -21.254  -7.817  -5.671  1.00  0.00     0.027 C 
BRANCH  33  34
HETATM   34  C   UNL     1     -20.221  -6.838  -6.113  1.00  0.00    -0.031 C 
HETATM   35  C   UNL     1     -20.468  -5.522  -6.157  1.00  0.00    -0.031 C 
BRANCH  35  36
HETATM   36  C   UNL     1     -19.439  -4.534  -6.591  1.00  0.00     0.027 C 
BRANCH  36  37
HETATM   37  C   UNL     1     -19.727  -4.038  -7.998  1.00  0.00     0.004 C 
BRANCH  37  38
HETATM   38  C   UNL     1     -21.228  -3.959  -8.230  1.00  0.00     0.000 C 
BRANCH  38  39
HETATM   39  C   UNL     1     -21.591  -4.628  -9.546  1.00  0.00     0.000 C 
BRANCH  39  40
HETATM   40  C   UNL     1     -22.437  -3.694 -10.397  1.00  0.00     0.000 C 
BRANCH  40  41
HETATM   41  C   UNL     1     -21.663  -3.263 -11.633  1.00  0.00    -0.000 C 
BRANCH  41  42
HETATM   42  C   UNL     1     -22.493  -3.489 -12.889  1.00  0.00    -0.005 C 
HETATM   43  C   UNL     1     -23.155  -4.852 -12.848  1.00  0.00     0.005 C 
ENDBRANCH  41  42
ENDBRANCH  40  41
ENDBRANCH  39  40
ENDBRANCH  38  39
ENDBRANCH  37  38
ENDBRANCH  36  37
ENDBRANCH  35  36
ENDBRANCH  33  34
ENDBRANCH  32  33
ENDBRANCH  31  32
ENDBRANCH  30  31
ENDBRANCH  29  30
ENDBRANCH  28  29
ENDBRANCH  27  28
ENDBRANCH  25  27
ENDBRANCH  24  25
ENDBRANCH  23  24
ENDBRANCH   1  23
BRANCH   1  44
HETATM   44  O   UNL     1     -19.928 -12.132  -2.064  1.00  0.00    -0.312 OA
BRANCH  44  45
HETATM   45  C   UNL     1     -21.013 -12.141  -2.903  1.00  0.00     0.259 C 
HETATM   46  O   UNL     1     -22.172 -11.973  -2.570  1.00  0.00    -0.265 OA
BRANCH  45  47
HETATM   47  C   UNL     1     -20.615 -12.309  -4.361  1.00  0.00     0.111 C 
BRANCH  47  48
HETATM   48  C   UNL     1     -21.467 -11.414  -5.265  1.00  0.00     0.010 C 
BRANCH  48  49
HETATM   49  C   UNL     1     -21.450 -11.872  -6.720  1.00  0.00     0.000 C 
BRANCH  49  50
HETATM   50  C   UNL     1     -21.172 -13.369  -6.808  1.00  0.00     0.000 C 
BRANCH  50  51
HETATM   51  C   UNL     1     -20.192 -13.668  -7.934  1.00  0.00     0.000 C 
BRANCH  51  52
HETATM   52  C   UNL     1     -19.239 -12.499  -8.142  1.00  0.00     0.004 C 
BRANCH  52  53
HETATM   53  C   UNL     1     -17.825 -12.891  -7.739  1.00  0.00     0.027 C 
BRANCH  53  54
HETATM   54  C   UNL     1     -17.224 -11.853  -6.852  1.00  0.00    -0.031 C 
HETATM   55  C   UNL     1     -17.950 -10.861  -6.326  1.00  0.00    -0.031 C 
BRANCH  55  56
HETATM   56  C   UNL     1     -17.348  -9.824  -5.438  1.00  0.00     0.027 C 
BRANCH  56  57
HETATM   57  C   UNL     1     -18.292  -9.483  -4.297  1.00  0.00     0.004 C 
BRANCH  57  58
HETATM   58  C   UNL     1     -17.529  -9.416  -2.983  1.00  0.00     0.000 C 
BRANCH  58  59
HETATM   59  C   UNL     1     -16.138 -10.004  -3.154  1.00  0.00     0.000 C 
BRANCH  59  60
HETATM   60  C   UNL     1     -15.819 -10.945  -2.001  1.00  0.00     0.000 C 
BRANCH  60  61
HETATM   61  C   UNL     1     -14.881 -12.048  -2.467  1.00  0.00    -0.000 C 
BRANCH  61  62
HETATM   62  C   UNL     1     -15.142 -12.390  -3.927  1.00  0.00    -0.005 C 
HETATM   63  C   UNL     1     -15.900 -13.699  -4.038  1.00  0.00     0.005 C 
ENDBRANCH  61  62
ENDBRANCH  60  61
ENDBRANCH  59  60
ENDBRANCH  58  59
ENDBRANCH  57  58
ENDBRANCH  56  57
ENDBRANCH  55  56
ENDBRANCH  53  54
ENDBRANCH  52  53
ENDBRANCH  51  52
ENDBRANCH  50  51
ENDBRANCH  49  50
ENDBRANCH  48  49
ENDBRANCH  47  48
ENDBRANCH  45  47
ENDBRANCH  44  45
ENDBRANCH   1  44
TORSDOF 53
BEGIN_RES ARG D 557
REMARK  4 active torsions:
REMARK  status: ('A' for Active; 'I' for Inactive)
REMARK    1  A    between atoms: CA   and  CB  
REMARK    2  A    between atoms: CB   and  CG  
REMARK    3  A    between atoms: CG   and  CD  
REMARK    4  A    between atoms: CD   and  NE  
REMARK       I    between atoms: NE   and  CZ  
REMARK       I    between atoms: CZ   and  NH1 
REMARK       I    between atoms: CZ   and  NH2 
ROOT
ATOM      1  CA  ARG D 557     -26.217   2.705 -17.014  1.00 35.49     0.159 C 
ENDROOT
BRANCH   1   2
ATOM      2  CB  ARG D 557     -26.789   1.319 -17.183  1.00 35.49     0.034 C 
BRANCH   2   3
ATOM      3  CG  ARG D 557     -28.229   1.165 -16.942  1.00 35.49     0.027 C 
BRANCH   3   4
ATOM      4  CD  ARG D 557     -28.628  -0.254 -16.801  1.00 35.49     0.116 C 
BRANCH   4   5
ATOM      5  NE  ARG D 557     -27.647  -1.025 -16.085  1.00 35.49    -0.212 N 
ATOM      6  CZ  ARG D 557     -27.510  -2.332 -16.134  1.00 35.49     0.666 C 
ATOM      7  NH1 ARG D 557     -28.299  -3.100 -16.862  1.00 35.49    -0.235 N 
ATOM      8  NH2 ARG D 557     -26.550  -2.862 -15.434  1.00 35.49    -0.235 N 
ATOM      9  HH  ARG D 557     -28.936  -2.772 -17.332  1.00 35.49     0.174 HD
ATOM     10  HH  ARG D 557     -28.161  -3.945 -16.858  1.00 35.49     0.174 HD
ATOM     11  HH  ARG D 557     -26.051  -2.340 -14.979  1.00 35.49     0.174 HD
ATOM     12  HH  ARG D 557     -26.428  -3.701 -15.444  1.00 35.49     0.174 HD
ATOM     13  HE  ARG D 557     -27.143  -0.618 -15.534  1.00 35.49     0.178 HD
ENDBRANCH   4   5
ENDBRANCH   3   4
ENDBRANCH   2   3
ENDBRANCH   1   2
END_RES ARG D 557
BEGIN_RES GLU D 570
REMARK  3 active torsions:
REMARK  status: ('A' for Active; 'I' for Inactive)
REMARK    5  A    between atoms: CA   and  CB  
REMARK    6  A    between atoms: CB   and  CG  
REMARK    7  A    between atoms: CG   and  CD  
ROOT
ATOM     14  CA  GLU D 570     -18.033  -6.348 -13.375  1.00 32.92     0.160 C 
ENDROOT
BRANCH  14  15
ATOM     15  CB  GLU D 570     -19.500  -6.345 -13.794  1.00 32.92     0.043 C 
BRANCH  15  16
ATOM     16  CG  GLU D 570     -19.840  -5.705 -15.091  1.00 32.92     0.100 C 
BRANCH  16  17
ATOM     17  CD  GLU D 570     -21.030  -6.344 -15.769  1.00 32.92     0.185 C 
ATOM     18  OE1 GLU D 570     -21.029  -7.575 -15.960  1.00 32.92    -0.647 OA
ATOM     19  OE2 GLU D 570     -21.966  -5.602 -16.128  1.00 32.92    -0.647 OA
ENDBRANCH  16  17
ENDBRANCH  15  16
ENDBRANCH  14  15
END_RES GLU D 570
ENDMDL
MODEL 4
REMARK VINA RESULT:      -6.3      1.508     12.134
REMARK WARNING: 32 MAX_TORS EXCEEDED!!!
REMARK  53 active torsions:
REMARK  status: ('A' for Active; 'I' for Inactive)
REMARK    1  A    between atoms: C_2  and  C_3 
REMARK    2  A    between atoms: C_3  and  C_4 
REMARK    3  A    between atoms: C_4  and  C_5 
REMARK    4  A    between atoms: C_5  and  C_6 
REMARK    5  A    between atoms: C_6  and  C_7 
REMARK    6  A    between atoms: C_7  and  C_8 
REMARK    7  A    between atoms: C_8  and  C_9 
REMARK    8  A    between atoms: C_10  and  C_11 
REMARK    9  A    between atoms: C_11  and  C_12 
REMARK   10  A    between atoms: C_12  and  C_13 
REMARK   11  A    between atoms: C_13  and  C_14 
REMARK   12  A    between atoms: C_14  and  C_15 
REMARK   13  A    between atoms: C_15  and  C_16 
REMARK   14  A    between atoms: C_16  and  C_17 
REMARK   15  A    between atoms: C_17  and  C_18 
REMARK   16  A    between atoms: C_18  and  O_20 
REMARK   17  A    between atoms: O_20  and  C_21 
REMARK   18  A    between atoms: C_21  and  C_22 
REMARK   19  A    between atoms: C_22  and  C_23 
REMARK   20  A    between atoms: C_22  and  O_44 
REMARK   21  A    between atoms: C_23  and  O_24 
REMARK   22  A    between atoms: O_24  and  C_25 
REMARK   23  A    between atoms: C_25  and  C_27 
REMARK   24  A    between atoms: C_27  and  C_28 
REMARK   25  A    between atoms: C_28  and  C_29 
REMARK   26  A    between atoms: C_29  and  C_30 
REMARK   27  A    between atoms: C_30  and  C_31 
REMARK   28  A    between atoms: C_31  and  C_32 
REMARK   29  A    between atoms: C_32  and  C_33 
REMARK   30  A    between atoms: C_33  and  C_34 
REMARK   31  A    between atoms: C_35  and  C_36 
REMARK   32  A    between atoms: C_36  and  C_37 
REMARK   33  A    between atoms: C_37  and  C_38 
REMARK   34  A    between atoms: C_38  and  C_39 
REMARK   35  A    between atoms: C_39  and  C_40 
REMARK   36  A    between atoms: C_40  and  C_41 
REMARK   37  A    between atoms: C_41  and  C_42 
REMARK   38  A    between atoms: O_44  and  C_45 
REMARK   39  A    between atoms: C_45  and  C_47 
REMARK   40  A    between atoms: C_47  and  C_48 
REMARK   41  A    between atoms: C_48  and  C_49 
REMARK   42  A    between atoms: C_49  and  C_50 
REMARK   43  A    between atoms: C_50  and  C_51 
REMARK   44  A    between atoms: C_51  and  C_52 
REMARK   45  A    between atoms: C_52  and  C_53 
REMARK   46  A    between atoms: C_53  and  C_54 
REMARK   47  A    between atoms: C_55  and  C_56 
REMARK   48  A    between atoms: C_56  and  C_57 
REMARK   49  A    between atoms: C_57  and  C_58 
REMARK   50  A    between atoms: C_58  and  C_59 
REMARK   51  A    between atoms: C_59  and  C_60 
REMARK   52  A    between atoms: C_60  and  C_61 
REMARK   53  A    between atoms: C_61  and  C_62 
ROOT
HETATM    1  C   UNL     1     -21.276  -6.519  -4.632  1.00  0.00     0.180 C 
ENDROOT
BRANCH   1   2
HETATM    2  C   UNL     1     -21.937  -7.843  -5.040  1.00  0.00     0.213 C 
BRANCH   2   3
HETATM    3  O   UNL     1     -21.028  -8.651  -5.818  1.00  0.00    -0.319 OA
BRANCH   3   4
HETATM    4  C   UNL     1     -20.954  -9.957  -5.418  1.00  0.00     0.258 C 
HETATM    5  O   UNL     1     -20.466 -10.848  -6.086  1.00  0.00    -0.265 OA
BRANCH   4   6
HETATM    6  C   UNL     1     -21.567 -10.155  -4.039  1.00  0.00     0.111 C 
BRANCH   6   7
HETATM    7  C   UNL     1     -20.671 -11.063  -3.193  1.00  0.00     0.010 C 
BRANCH   7   8
HETATM    8  C   UNL     1     -21.326 -12.403  -2.866  1.00  0.00     0.000 C 
BRANCH   8   9
HETATM    9  C   UNL     1     -20.310 -13.538  -2.981  1.00  0.00     0.000 C 
BRANCH   9  10
HETATM   10  C   UNL     1     -18.914 -12.989  -3.242  1.00  0.00     0.000 C 
BRANCH  10  11
HETATM   11  C   UNL     1     -18.031 -13.165  -2.013  1.00  0.00     0.004 C 
BRANCH  11  12
HETATM   12  C   UNL     1     -16.850 -14.071  -2.335  1.00  0.00     0.027 C 
BRANCH  12  13
HETATM   13  C   UNL     1     -15.695 -13.267  -2.830  1.00  0.00    -0.031 C 
HETATM   14  C   UNL     1     -15.218 -13.398  -4.074  1.00  0.00    -0.031 C 
BRANCH  14  15
HETATM   15  C   UNL     1     -14.064 -12.593  -4.569  1.00  0.00     0.027 C 
BRANCH  15  16
HETATM   16  C   UNL     1     -13.980 -12.660  -6.087  1.00  0.00     0.004 C 
BRANCH  16  17
HETATM   17  C   UNL     1     -15.268 -12.137  -6.707  1.00  0.00     0.000 C 
BRANCH  17  18
HETATM   18  C   UNL     1     -15.514 -10.701  -6.272  1.00  0.00     0.000 C 
BRANCH  18  19
HETATM   19  C   UNL     1     -17.002 -10.461  -6.072  1.00  0.00     0.000 C 
BRANCH  19  20
HETATM   20  C   UNL     1     -17.290 -10.129  -4.616  1.00  0.00    -0.000 C 
BRANCH  20  21
HETATM   21  C   UNL     1     -16.024  -9.658  -3.915  1.00  0.00    -0.005 C 
HETATM   22  C   UNL     1     -16.212  -9.679  -2.410  1.00  0.00     0.005 C 
ENDBRANCH  20  21
ENDBRANCH  19  20
ENDBRANCH  18  19
ENDBRANCH  17  18
ENDBRANCH  16  17
ENDBRANCH  15  16
ENDBRANCH  14  15
ENDBRANCH  12  13
ENDBRANCH  11  12
ENDBRANCH  10  11
ENDBRANCH   9  10
ENDBRANCH   8   9
ENDBRANCH   7   8
ENDBRANCH   6   7
ENDBRANCH   4   6
ENDBRANCH   3   4
ENDBRANCH   2   3
ENDBRANCH   1   2
BRANCH   1  23
HETATM   23  C   UNL     1     -21.541  -5.461  -5.716  1.00  0.00     0.213 C 
BRANCH  23  24
HETATM   24  O   UNL     1     -20.391  -4.617  -5.934  1.00  0.00    -0.319 OA
BRANCH  24  25
HETATM   25  C   UNL     1     -19.849  -4.705  -7.187  1.00  0.00     0.258 C 
HETATM   26  O   UNL     1     -18.696  -4.450  -7.474  1.00  0.00    -0.265 OA
BRANCH  25  27
HETATM   27  C   UNL     1     -20.875  -5.193  -8.181  1.00  0.00     0.111 C 
BRANCH  27  28
HETATM   28  C   UNL     1     -21.202  -4.073  -9.157  1.00  0.00     0.010 C 
BRANCH  28  29
HETATM   29  C   UNL     1     -20.383  -4.163 -10.437  1.00  0.00     0.000 C 
BRANCH  29  30
HETATM   30  C   UNL     1     -21.261  -3.850 -11.644  1.00  0.00     0.000 C 
BRANCH  30  31
HETATM   31  C   UNL     1     -22.712  -3.682 -11.222  1.00  0.00     0.000 C 
BRANCH  31  32
HETATM   32  C   UNL     1     -23.644  -4.267 -12.275  1.00  0.00     0.004 C 
BRANCH  32  33
HETATM   33  C   UNL     1     -22.880  -5.211 -13.191  1.00  0.00     0.027 C 
BRANCH  33  34
HETATM   34  C   UNL     1     -23.622  -5.428 -14.465  1.00  0.00    -0.031 C 
HETATM   35  C   UNL     1     -24.045  -6.643 -14.838  1.00  0.00    -0.031 C 
BRANCH  35  36
HETATM   36  C   UNL     1     -24.795  -6.869 -16.107  1.00  0.00     0.027 C 
BRANCH  36  37
HETATM   37  C   UNL     1     -26.293  -6.893 -15.851  1.00  0.00     0.004 C 
BRANCH  37  38
HETATM   38  C   UNL     1     -26.885  -5.509 -16.067  1.00  0.00     0.000 C 
BRANCH  38  39
HETATM   39  C   UNL     1     -28.294  -5.447 -15.497  1.00  0.00     0.000 C 
BRANCH  39  40
HETATM   40  C   UNL     1     -29.087  -6.673 -15.920  1.00  0.00     0.000 C 
BRANCH  40  41
HETATM   41  C   UNL     1     -30.287  -6.260 -16.759  1.00  0.00    -0.000 C 
BRANCH  41  42
HETATM   42  C   UNL     1     -30.535  -7.270 -17.870  1.00  0.00    -0.005 C 
HETATM   43  C   UNL     1     -29.304  -7.410 -18.745  1.00  0.00     0.005 C 
ENDBRANCH  41  42
ENDBRANCH  40  41
ENDBRANCH  39  40
ENDBRANCH  38  39
ENDBRANCH  37  38
ENDBRANCH  36  37
ENDBRANCH  35  36
ENDBRANCH  33  34
ENDBRANCH  32  33
ENDBRANCH  31  32
ENDBRANCH  30  31
ENDBRANCH  29  30
ENDBRANCH  28  29
ENDBRANCH  27  28
ENDBRANCH  25  27
ENDBRANCH  24  25
ENDBRANCH  23  24
ENDBRANCH   1  23
BRANCH   1  44
HETATM   44  O   UNL     1     -21.808  -6.058  -3.359  1.00  0.00    -0.312 OA
BRANCH  44  45
HETATM   45  C   UNL     1     -21.449  -6.805  -2.266  1.00  0.00     0.259 C 
HETATM   46  O   UNL     1     -20.436  -7.474  -2.162  1.00  0.00    -0.265 OA
BRANCH  45  47
HETATM   47  C   UNL     1     -22.431  -6.654  -1.115  1.00  0.00     0.111 C 
BRANCH  47  48
HETATM   48  C   UNL     1     -22.094  -7.627   0.018  1.00  0.00     0.010 C 
BRANCH  48  49
HETATM   49  C   UNL     1     -23.208  -8.641   0.264  1.00  0.00     0.000 C 
BRANCH  49  50
HETATM   50  C   UNL     1     -22.921  -9.943  -0.477  1.00  0.00     0.000 C 
BRANCH  50  51
HETATM   51  C   UNL     1     -24.020 -10.963  -0.216  1.00  0.00     0.000 C 
BRANCH  51  52
HETATM   52  C   UNL     1     -23.442 -12.235   0.387  1.00  0.00     0.004 C 
BRANCH  52  53
HETATM   53  C   UNL     1     -21.950 -12.070   0.638  1.00  0.00     0.027 C 
BRANCH  53  54
HETATM   54  C   UNL     1     -21.334 -13.374   1.022  1.00  0.00    -0.031 C 
HETATM   55  C   UNL     1     -21.913 -14.203   1.897  1.00  0.00    -0.031 C 
BRANCH  55  56
HETATM   56  C   UNL     1     -21.296 -15.508   2.278  1.00  0.00     0.027 C 
BRANCH  56  57
HETATM   57  C   UNL     1     -20.019 -15.745   1.489  1.00  0.00     0.004 C 
BRANCH  57  58
HETATM   58  C   UNL     1     -18.981 -16.434   2.362  1.00  0.00     0.000 C 
BRANCH  58  59
HETATM   59  C   UNL     1     -17.592 -16.238   1.778  1.00  0.00     0.000 C 
BRANCH  59  60
HETATM   60  C   UNL     1     -16.919 -15.031   2.414  1.00  0.00     0.000 C 
BRANCH  60  61
HETATM   61  C   UNL     1     -16.877 -13.872   1.429  1.00  0.00    -0.000 C 
BRANCH  61  62
HETATM   62  C   UNL     1     -15.607 -13.055   1.620  1.00  0.00    -0.005 C 
HETATM   63  C   UNL     1     -15.540 -11.934   0.600  1.00  0.00     0.005 C 
ENDBRANCH  61  62
ENDBRANCH  60  61
ENDBRANCH  59  60
ENDBRANCH  58  59
ENDBRANCH  57  58
ENDBRANCH  56  57
ENDBRANCH  55  56
ENDBRANCH  53  54
ENDBRANCH  52  53
ENDBRANCH  51  52
ENDBRANCH  50  51
ENDBRANCH  49  50
ENDBRANCH  48  49
ENDBRANCH  47  48
ENDBRANCH  45  47
ENDBRANCH  44  45
ENDBRANCH   1  44
TORSDOF 53
BEGIN_RES ARG D 557
REMARK  4 active torsions:
REMARK  status: ('A' for Active; 'I' for Inactive)
REMARK    1  A    between atoms: CA   and  CB  
REMARK    2  A    between atoms: CB   and  CG  
REMARK    3  A    between atoms: CG   and  CD  
REMARK    4  A    between atoms: CD   and  NE  
REMARK       I    between atoms: NE   and  CZ  
REMARK       I    between atoms: CZ   and  NH1 
REMARK       I    between atoms: CZ   and  NH2 
ROOT
ATOM      1  CA  ARG D 557     -26.217   2.705 -17.014  1.00 35.49     0.159 C 
ENDROOT
BRANCH   1   2
ATOM      2  CB  ARG D 557     -26.789   1.319 -17.183  1.00 35.49     0.034 C 
BRANCH   2   3
ATOM      3  CG  ARG D 557     -28.213   1.230 -17.529  1.00 35.49     0.027 C 
BRANCH   3   4
ATOM      4  CD  ARG D 557     -28.971   0.382 -16.581  1.00 35.49     0.116 C 
BRANCH   4   5
ATOM      5  NE  ARG D 557     -29.344  -0.881 -17.161  1.00 35.49    -0.212 N 
ATOM      6  CZ  ARG D 557     -28.676  -2.007 -17.045  1.00 35.49     0.666 C 
ATOM      7  NH1 ARG D 557     -27.545  -2.094 -16.369  1.00 35.49    -0.235 N 
ATOM      8  NH2 ARG D 557     -29.173  -3.063 -17.621  1.00 35.49    -0.235 N 
ATOM      9  HH  ARG D 557     -27.201  -1.413 -15.980  1.00 35.49     0.174 HD
ATOM     10  HH  ARG D 557     -27.155  -2.856 -16.325  1.00 35.49     0.174 HD
ATOM     11  HH  ARG D 557     -29.909  -2.978 -18.044  1.00 35.49     0.174 HD
ATOM     12  HH  ARG D 557     -28.773  -3.808 -17.565  1.00 35.49     0.174 HD
ATOM     13  HE  ARG D 557     -30.022  -0.901 -17.674  1.00 35.49     0.178 HD
ENDBRANCH   4   5
ENDBRANCH   3   4
ENDBRANCH   2   3
ENDBRANCH   1   2
END_RES ARG D 557
BEGIN_RES GLU D 570
REMARK  3 active torsions:
REMARK  status: ('A' for Active; 'I' for Inactive)
REMARK    5  A    between atoms: CA   and  CB  
REMARK    6  A    between atoms: CB   and  CG  
REMARK    7  A    between atoms: CG   and  CD  
ROOT
ATOM     14  CA  GLU D 570     -18.033  -6.348 -13.375  1.00 32.92     0.160 C 
ENDROOT
BRANCH  14  15
ATOM     15  CB  GLU D 570     -19.500  -6.345 -13.794  1.00 32.92     0.043 C 
BRANCH  15  16
ATOM     16  CG  GLU D 570     -20.078  -7.627 -14.273  1.00 32.92     0.100 C 
BRANCH  16  17
ATOM     17  CD  GLU D 570     -20.674  -7.524 -15.658  1.00 32.92     0.185 C 
ATOM     18  OE1 GLU D 570     -20.694  -6.416 -16.227  1.00 32.92    -0.647 OA
ATOM     19  OE2 GLU D 570     -21.142  -8.559 -16.172  1.00 32.92    -0.647 OA
ENDBRANCH  16  17
ENDBRANCH  15  16
ENDBRANCH  14  15
END_RES GLU D 570
ENDMDL
MODEL 5
REMARK VINA RESULT:      -6.3      3.395      9.827
REMARK WARNING: 32 MAX_TORS EXCEEDED!!!
REMARK  53 active torsions:
REMARK  status: ('A' for Active; 'I' for Inactive)
REMARK    1  A    between atoms: C_2  and  C_3 
REMARK    2  A    between atoms: C_3  and  C_4 
REMARK    3  A    between atoms: C_4  and  C_5 
REMARK    4  A    between atoms: C_5  and  C_6 
REMARK    5  A    between atoms: C_6  and  C_7 
REMARK    6  A    between atoms: C_7  and  C_8 
REMARK    7  A    between atoms: C_8  and  C_9 
REMARK    8  A    between atoms: C_10  and  C_11 
REMARK    9  A    between atoms: C_11  and  C_12 
REMARK   10  A    between atoms: C_12  and  C_13 
REMARK   11  A    between atoms: C_13  and  C_14 
REMARK   12  A    between atoms: C_14  and  C_15 
REMARK   13  A    between atoms: C_15  and  C_16 
REMARK   14  A    between atoms: C_16  and  C_17 
REMARK   15  A    between atoms: C_17  and  C_18 
REMARK   16  A    between atoms: C_18  and  O_20 
REMARK   17  A    between atoms: O_20  and  C_21 
REMARK   18  A    between atoms: C_21  and  C_22 
REMARK   19  A    between atoms: C_22  and  C_23 
REMARK   20  A    between atoms: C_22  and  O_44 
REMARK   21  A    between atoms: C_23  and  O_24 
REMARK   22  A    between atoms: O_24  and  C_25 
REMARK   23  A    between atoms: C_25  and  C_27 
REMARK   24  A    between atoms: C_27  and  C_28 
REMARK   25  A    between atoms: C_28  and  C_29 
REMARK   26  A    between atoms: C_29  and  C_30 
REMARK   27  A    between atoms: C_30  and  C_31 
REMARK   28  A    between atoms: C_31  and  C_32 
REMARK   29  A    between atoms: C_32  and  C_33 
REMARK   30  A    between atoms: C_33  and  C_34 
REMARK   31  A    between atoms: C_35  and  C_36 
REMARK   32  A    between atoms: C_36  and  C_37 
REMARK   33  A    between atoms: C_37  and  C_38 
REMARK   34  A    between atoms: C_38  and  C_39 
REMARK   35  A    between atoms: C_39  and  C_40 
REMARK   36  A    between atoms: C_40  and  C_41 
REMARK   37  A    between atoms: C_41  and  C_42 
REMARK   38  A    between atoms: O_44  and  C_45 
REMARK   39  A    between atoms: C_45  and  C_47 
REMARK   40  A    between atoms: C_47  and  C_48 
REMARK   41  A    between atoms: C_48  and  C_49 
REMARK   42  A    between atoms: C_49  and  C_50 
REMARK   43  A    between atoms: C_50  and  C_51 
REMARK   44  A    between atoms: C_51  and  C_52 
REMARK   45  A    between atoms: C_52  and  C_53 
REMARK   46  A    between atoms: C_53  and  C_54 
REMARK   47  A    between atoms: C_55  and  C_56 
REMARK   48  A    between atoms: C_56  and  C_57 
REMARK   49  A    between atoms: C_57  and  C_58 
REMARK   50  A    between atoms: C_58  and  C_59 
REMARK   51  A    between atoms: C_59  and  C_60 
REMARK   52  A    between atoms: C_60  and  C_61 
REMARK   53  A    between atoms: C_61  and  C_62 
ROOT
HETATM    1  C   UNL     1     -16.083 -11.325  -3.829  1.00  0.00     0.180 C 
ENDROOT
BRANCH   1   2
HETATM    2  C   UNL     1     -15.578 -11.423  -2.383  1.00  0.00     0.213 C 
BRANCH   2   3
HETATM    3  O   UNL     1     -16.654 -11.197  -1.447  1.00  0.00    -0.319 OA
BRANCH   3   4
HETATM    4  C   UNL     1     -17.131 -12.333  -0.854  1.00  0.00     0.258 C 
HETATM    5  O   UNL     1     -17.365 -13.366  -1.451  1.00  0.00    -0.265 OA
BRANCH   4   6
HETATM    6  C   UNL     1     -17.341 -12.139   0.640  1.00  0.00     0.111 C 
BRANCH   6   7
HETATM    7  C   UNL     1     -16.103 -12.609   1.408  1.00  0.00     0.010 C 
BRANCH   7   8
HETATM    8  C   UNL     1     -16.195 -14.069   1.845  1.00  0.00     0.000 C 
BRANCH   8   9
HETATM    9  C   UNL     1     -15.513 -14.268   3.198  1.00  0.00     0.000 C 
BRANCH   9  10
HETATM   10  C   UNL     1     -15.377 -15.750   3.520  1.00  0.00     0.000 C 
BRANCH  10  11
HETATM   11  C   UNL     1     -13.920 -16.111   3.780  1.00  0.00     0.004 C 
BRANCH  11  12
HETATM   12  C   UNL     1     -13.659 -16.218   5.276  1.00  0.00     0.027 C 
BRANCH  12  13
HETATM   13  C   UNL     1     -12.227 -15.934   5.579  1.00  0.00    -0.031 C 
HETATM   14  C   UNL     1     -11.838 -15.390   6.739  1.00  0.00    -0.031 C 
BRANCH  14  15
HETATM   15  C   UNL     1     -10.405 -15.107   7.041  1.00  0.00     0.027 C 
BRANCH  15  16
HETATM   16  C   UNL     1     -10.042 -13.692   6.616  1.00  0.00     0.004 C 
BRANCH  16  17
HETATM   17  C   UNL     1      -8.623 -13.656   6.067  1.00  0.00     0.000 C 
BRANCH  17  18
HETATM   18  C   UNL     1      -8.517 -14.536   4.832  1.00  0.00     0.000 C 
BRANCH  18  19
HETATM   19  C   UNL     1      -8.951 -13.761   3.597  1.00  0.00     0.000 C 
BRANCH  19  20
HETATM   20  C   UNL     1      -8.500 -14.485   2.338  1.00  0.00    -0.000 C 
BRANCH  20  21
HETATM   21  C   UNL     1      -9.670 -14.679   1.383  1.00  0.00    -0.005 C 
HETATM   22  C   UNL     1     -10.375 -13.360   1.134  1.00  0.00     0.005 C 
ENDBRANCH  20  21
ENDBRANCH  19  20
ENDBRANCH  18  19
ENDBRANCH  17  18
ENDBRANCH  16  17
ENDBRANCH  15  16
ENDBRANCH  14  15
ENDBRANCH  12  13
ENDBRANCH  11  12
ENDBRANCH  10  11
ENDBRANCH   9  10
ENDBRANCH   8   9
ENDBRANCH   7   8
ENDBRANCH   6   7
ENDBRANCH   4   6
ENDBRANCH   3   4
ENDBRANCH   2   3
ENDBRANCH   1   2
BRANCH   1  23
HETATM   23  C   UNL     1     -16.193  -9.846  -4.233  1.00  0.00     0.213 C 
BRANCH  23  24
HETATM   24  O   UNL     1     -17.503  -9.309  -3.953  1.00  0.00    -0.319 OA
BRANCH  24  25
HETATM   25  C   UNL     1     -18.437  -9.552  -4.922  1.00  0.00     0.258 C 
HETATM   26  O   UNL     1     -18.206  -9.657  -6.112  1.00  0.00    -0.265 OA
BRANCH  25  27
HETATM   27  C   UNL     1     -19.811  -9.703  -4.316  1.00  0.00     0.111 C 
BRANCH  27  28
HETATM   28  C   UNL     1     -19.712 -10.538  -3.048  1.00  0.00     0.010 C 
BRANCH  28  29
HETATM   29  C   UNL     1     -19.798  -9.688  -1.788  1.00  0.00     0.000 C 
BRANCH  29  30
HETATM   30  C   UNL     1     -20.448 -10.486  -0.661  1.00  0.00     0.000 C 
BRANCH  30  31
HETATM   31  C   UNL     1     -21.324  -9.587   0.196  1.00  0.00     0.000 C 
BRANCH  31  32
HETATM   32  C   UNL     1     -22.419  -8.948  -0.649  1.00  0.00     0.004 C 
BRANCH  32  33
HETATM   33  C   UNL     1     -22.663  -7.515  -0.200  1.00  0.00     0.027 C 
BRANCH  33  34
HETATM   34  C   UNL     1     -22.266  -6.553  -1.267  1.00  0.00    -0.031 C 
HETATM   35  C   UNL     1     -21.686  -6.959  -2.404  1.00  0.00    -0.031 C 
BRANCH  35  36
HETATM   36  C   UNL     1     -21.291  -6.005  -3.480  1.00  0.00     0.027 C 
BRANCH  36  37
HETATM   37  C   UNL     1     -21.740  -6.512  -4.841  1.00  0.00     0.004 C 
BRANCH  37  38
HETATM   38  C   UNL     1     -20.606  -6.386  -5.848  1.00  0.00     0.000 C 
BRANCH  38  39
HETATM   39  C   UNL     1     -20.022  -4.982  -5.807  1.00  0.00     0.000 C 
BRANCH  39  40
HETATM   40  C   UNL     1     -19.891  -4.426  -7.216  1.00  0.00     0.000 C 
BRANCH  40  41
HETATM   41  C   UNL     1     -21.255  -4.367  -7.887  1.00  0.00    -0.000 C 
BRANCH  41  42
HETATM   42  C   UNL     1     -21.107  -4.400  -9.402  1.00  0.00    -0.005 C 
HETATM   43  C   UNL     1     -22.421  -4.044 -10.070  1.00  0.00     0.005 C 
ENDBRANCH  41  42
ENDBRANCH  40  41
ENDBRANCH  39  40
ENDBRANCH  38  39
ENDBRANCH  37  38
ENDBRANCH  36  37
ENDBRANCH  35  36
ENDBRANCH  33  34
ENDBRANCH  32  33
ENDBRANCH  31  32
ENDBRANCH  30  31
ENDBRANCH  29  30
ENDBRANCH  28  29
ENDBRANCH  27  28
ENDBRANCH  25  27
ENDBRANCH  24  25
ENDBRANCH  23  24
ENDBRANCH   1  23
BRANCH   1  44
HETATM   44  O   UNL     1     -15.172 -12.012  -4.731  1.00  0.00    -0.312 OA
BRANCH  44  45
HETATM   45  C   UNL     1     -15.641 -12.203  -6.006  1.00  0.00     0.259 C 
HETATM   46  O   UNL     1     -15.085 -11.847  -7.030  1.00  0.00    -0.265 OA
BRANCH  45  47
HETATM   47  C   UNL     1     -16.933 -13.003  -6.033  1.00  0.00     0.111 C 
BRANCH  47  48
HETATM   48  C   UNL     1     -16.718 -14.363  -6.702  1.00  0.00     0.010 C 
BRANCH  48  49
HETATM   49  C   UNL     1     -17.724 -14.629  -7.818  1.00  0.00     0.000 C 
BRANCH  49  50
HETATM   50  C   UNL     1     -17.863 -13.405  -8.718  1.00  0.00     0.000 C 
BRANCH  50  51
HETATM   51  C   UNL     1     -19.328 -13.121  -9.017  1.00  0.00     0.000 C 
BRANCH  51  52
HETATM   52  C   UNL     1     -20.195 -13.439  -7.807  1.00  0.00     0.004 C 
BRANCH  52  53
HETATM   53  C   UNL     1     -20.580 -12.157  -7.081  1.00  0.00     0.027 C 
BRANCH  53  54
HETATM   54  C   UNL     1     -21.640 -12.425  -6.066  1.00  0.00    -0.031 C 
HETATM   55  C   UNL     1     -21.550 -13.439  -5.197  1.00  0.00    -0.031 C 
BRANCH  55  56
HETATM   56  C   UNL     1     -22.610 -13.704  -4.180  1.00  0.00     0.027 C 
BRANCH  56  57
HETATM   57  C   UNL     1     -22.119 -13.341  -2.789  1.00  0.00     0.004 C 
BRANCH  57  58
HETATM   58  C   UNL     1     -23.089 -12.377  -2.122  1.00  0.00     0.000 C 
BRANCH  58  59
HETATM   59  C   UNL     1     -23.823 -13.072  -0.988  1.00  0.00     0.000 C 
BRANCH  59  60
HETATM   60  C   UNL     1     -23.679 -12.273   0.299  1.00  0.00     0.000 C 
BRANCH  60  61
HETATM   61  C   UNL     1     -22.839 -13.044   1.306  1.00  0.00    -0.000 C 
BRANCH  61  62
HETATM   62  C   UNL     1     -23.429 -14.426   1.547  1.00  0.00    -0.005 C 
HETATM   63  C   UNL     1     -23.904 -14.558   2.981  1.00  0.00     0.005 C 
ENDBRANCH  61  62
ENDBRANCH  60  61
ENDBRANCH  59  60
ENDBRANCH  58  59
ENDBRANCH  57  58
ENDBRANCH  56  57
ENDBRANCH  55  56
ENDBRANCH  53  54
ENDBRANCH  52  53
ENDBRANCH  51  52
ENDBRANCH  50  51
ENDBRANCH  49  50
ENDBRANCH  48  49
ENDBRANCH  47  48
ENDBRANCH  45  47
ENDBRANCH  44  45
ENDBRANCH   1  44
TORSDOF 53
BEGIN_RES ARG D 557
REMARK  4 active torsions:
REMARK  status: ('A' for Active; 'I' for Inactive)
REMARK    1  A    between atoms: CA   and  CB  
REMARK    2  A    between atoms: CB   and  CG  
REMARK    3  A    between atoms: CG   and  CD  
REMARK    4  A    between atoms: CD   and  NE  
REMARK       I    between atoms: NE   and  CZ  
REMARK       I    between atoms: CZ   and  NH1 
REMARK       I    between atoms: CZ   and  NH2 
ROOT
ATOM      1  CA  ARG D 557     -26.217   2.705 -17.014  1.00 35.49     0.159 C 
ENDROOT
BRANCH   1   2
ATOM      2  CB  ARG D 557     -26.789   1.319 -17.183  1.00 35.49     0.034 C 
BRANCH   2   3
ATOM      3  CG  ARG D 557     -25.839   0.201 -17.133  1.00 35.49     0.027 C 
BRANCH   3   4
ATOM      4  CD  ARG D 557     -24.761   0.421 -16.141  1.00 35.49     0.116 C 
BRANCH   4   5
ATOM      5  NE  ARG D 557     -24.905  -0.428 -14.988  1.00 35.49    -0.212 N 
ATOM      6  CZ  ARG D 557     -24.105  -1.417 -14.658  1.00 35.49     0.666 C 
ATOM      7  NH1 ARG D 557     -23.057  -1.755 -15.385  1.00 35.49    -0.235 N 
ATOM      8  NH2 ARG D 557     -24.376  -2.069 -13.564  1.00 35.49    -0.235 N 
ATOM      9  HH  ARG D 557     -22.859  -1.339 -16.108  1.00 35.49     0.174 HD
ATOM     10  HH  ARG D 557     -22.569  -2.407 -15.119  1.00 35.49     0.174 HD
ATOM     11  HH  ARG D 557     -25.055  -1.824 -13.110  1.00 35.49     0.174 HD
ATOM     12  HH  ARG D 557     -23.880  -2.711 -13.316  1.00 35.49     0.174 HD
ATOM     13  HE  ARG D 557     -25.596  -0.328 -14.502  1.00 35.49     0.178 HD
ENDBRANCH   4   5
ENDBRANCH   3   4
ENDBRANCH   2   3
ENDBRANCH   1   2
END_RES ARG D 557
BEGIN_RES GLU D 570
REMARK  3 active torsions:
REMARK  status: ('A' for Active; 'I' for Inactive)
REMARK    5  A    between atoms: CA   and  CB  
REMARK    6  A    between atoms: CB   and  CG  
REMARK    7  A    between atoms: CG   and  CD  
ROOT
ATOM     14  CA  GLU D 570     -18.033  -6.348 -13.375  1.00 32.92     0.160 C 
ENDROOT
BRANCH  14  15
ATOM     15  CB  GLU D 570     -19.500  -6.345 -13.794  1.00 32.92     0.043 C 
BRANCH  15  16
ATOM     16  CG  GLU D 570     -20.449  -5.562 -12.960  1.00 32.92     0.100 C 
BRANCH  16  17
ATOM     17  CD  GLU D 570     -21.723  -5.209 -13.691  1.00 32.92     0.185 C 
ATOM     18  OE1 GLU D 570     -22.243  -4.094 -13.497  1.00 32.92    -0.647 OA
ATOM     19  OE2 GLU D 570     -22.216  -6.064 -14.453  1.00 32.92    -0.647 OA
ENDBRANCH  16  17
ENDBRANCH  15  16
ENDBRANCH  14  15
END_RES GLU D 570
ENDMDL
MODEL 6
REMARK VINA RESULT:      -6.3      2.313      9.941
REMARK WARNING: 32 MAX_TORS EXCEEDED!!!
REMARK  53 active torsions:
REMARK  status: ('A' for Active; 'I' for Inactive)
REMARK    1  A    between atoms: C_2  and  C_3 
REMARK    2  A    between atoms: C_3  and  C_4 
REMARK    3  A    between atoms: C_4  and  C_5 
REMARK    4  A    between atoms: C_5  and  C_6 
REMARK    5  A    between atoms: C_6  and  C_7 
REMARK    6  A    between atoms: C_7  and  C_8 
REMARK    7  A    between atoms: C_8  and  C_9 
REMARK    8  A    between atoms: C_10  and  C_11 
REMARK    9  A    between atoms: C_11  and  C_12 
REMARK   10  A    between atoms: C_12  and  C_13 
REMARK   11  A    between atoms: C_13  and  C_14 
REMARK   12  A    between atoms: C_14  and  C_15 
REMARK   13  A    between atoms: C_15  and  C_16 
REMARK   14  A    between atoms: C_16  and  C_17 
REMARK   15  A    between atoms: C_17  and  C_18 
REMARK   16  A    between atoms: C_18  and  O_20 
REMARK   17  A    between atoms: O_20  and  C_21 
REMARK   18  A    between atoms: C_21  and  C_22 
REMARK   19  A    between atoms: C_22  and  C_23 
REMARK   20  A    between atoms: C_22  and  O_44 
REMARK   21  A    between atoms: C_23  and  O_24 
REMARK   22  A    between atoms: O_24  and  C_25 
REMARK   23  A    between atoms: C_25  and  C_27 
REMARK   24  A    between atoms: C_27  and  C_28 
REMARK   25  A    between atoms: C_28  and  C_29 
REMARK   26  A    between atoms: C_29  and  C_30 
REMARK   27  A    between atoms: C_30  and  C_31 
REMARK   28  A    between atoms: C_31  and  C_32 
REMARK   29  A    between atoms: C_32  and  C_33 
REMARK   30  A    between atoms: C_33  and  C_34 
REMARK   31  A    between atoms: C_35  and  C_36 
REMARK   32  A    between atoms: C_36  and  C_37 
REMARK   33  A    between atoms: C_37  and  C_38 
REMARK   34  A    between atoms: C_38  and  C_39 
REMARK   35  A    between atoms: C_39  and  C_40 
REMARK   36  A    between atoms: C_40  and  C_41 
REMARK   37  A    between atoms: C_41  and  C_42 
REMARK   38  A    between atoms: O_44  and  C_45 
REMARK   39  A    between atoms: C_45  and  C_47 
REMARK   40  A    between atoms: C_47  and  C_48 
REMARK   41  A    between atoms: C_48  and  C_49 
REMARK   42  A    between atoms: C_49  and  C_50 
REMARK   43  A    between atoms: C_50  and  C_51 
REMARK   44  A    between atoms: C_51  and  C_52 
REMARK   45  A    between atoms: C_52  and  C_53 
REMARK   46  A    between atoms: C_53  and  C_54 
REMARK   47  A    between atoms: C_55  and  C_56 
REMARK   48  A    between atoms: C_56  and  C_57 
REMARK   49  A    between atoms: C_57  and  C_58 
REMARK   50  A    between atoms: C_58  and  C_59 
REMARK   51  A    between atoms: C_59  and  C_60 
REMARK   52  A    between atoms: C_60  and  C_61 
REMARK   53  A    between atoms: C_61  and  C_62 
ROOT
HETATM    1  C   UNL     1     -21.537 -10.359   0.723  1.00  0.00     0.180 C 
ENDROOT
BRANCH   1   2
HETATM    2  C   UNL     1     -20.267 -11.160   0.404  1.00  0.00     0.213 C 
BRANCH   2   3
HETATM    3  O   UNL     1     -19.790 -10.859  -0.925  1.00  0.00    -0.319 OA
BRANCH   3   4
HETATM    4  C   UNL     1     -19.473 -11.961  -1.671  1.00  0.00     0.258 C 
HETATM    5  O   UNL     1     -19.918 -13.074  -1.466  1.00  0.00    -0.265 OA
BRANCH   4   6
HETATM    6  C   UNL     1     -18.490 -11.621  -2.781  1.00  0.00     0.111 C 
BRANCH   6   7
HETATM    7  C   UNL     1     -17.999 -10.179  -2.623  1.00  0.00     0.010 C 
BRANCH   7   8
HETATM    8  C   UNL     1     -17.247  -9.672  -3.851  1.00  0.00     0.000 C 
BRANCH   8   9
HETATM    9  C   UNL     1     -18.199  -9.519  -5.037  1.00  0.00     0.000 C 
BRANCH   9  10
HETATM   10  C   UNL     1     -17.654 -10.241  -6.262  1.00  0.00     0.000 C 
BRANCH  10  11
HETATM   11  C   UNL     1     -17.743 -11.750  -6.079  1.00  0.00     0.004 C 
BRANCH  11  12
HETATM   12  C   UNL     1     -16.758 -12.455  -7.002  1.00  0.00     0.027 C 
BRANCH  12  13
HETATM   13  C   UNL     1     -15.363 -12.287  -6.503  1.00  0.00    -0.031 C 
HETATM   14  C   UNL     1     -15.023 -12.549  -5.235  1.00  0.00    -0.031 C 
BRANCH  14  15
HETATM   15  C   UNL     1     -13.627 -12.381  -4.737  1.00  0.00     0.027 C 
BRANCH  15  16
HETATM   16  C   UNL     1     -13.476 -13.003  -3.357  1.00  0.00     0.004 C 
BRANCH  16  17
HETATM   17  C   UNL     1     -14.753 -13.733  -2.967  1.00  0.00     0.000 C 
BRANCH  17  18
HETATM   18  C   UNL     1     -14.995 -13.602  -1.472  1.00  0.00     0.000 C 
BRANCH  18  19
HETATM   19  C   UNL     1     -15.544 -12.221  -1.147  1.00  0.00     0.000 C 
BRANCH  19  20
HETATM   20  C   UNL     1     -15.493 -11.975   0.353  1.00  0.00    -0.000 C 
BRANCH  20  21
HETATM   21  C   UNL     1     -16.618 -12.720   1.056  1.00  0.00    -0.005 C 
HETATM   22  C   UNL     1     -16.064 -13.599   2.160  1.00  0.00     0.005 C 
ENDBRANCH  20  21
ENDBRANCH  19  20
ENDBRANCH  18  19
ENDBRANCH  17  18
ENDBRANCH  16  17
ENDBRANCH  15  16
ENDBRANCH  14  15
ENDBRANCH  12  13
ENDBRANCH  11  12
ENDBRANCH  10  11
ENDBRANCH   9  10
ENDBRANCH   8   9
ENDBRANCH   7   8
ENDBRANCH   6   7
ENDBRANCH   4   6
ENDBRANCH   3   4
ENDBRANCH   2   3
ENDBRANCH   1   2
BRANCH   1  23
HETATM   23  C   UNL     1     -21.195  -8.861   0.782  1.00  0.00     0.213 C 
BRANCH  23  24
HETATM   24  O   UNL     1     -22.294  -8.041   0.333  1.00  0.00    -0.319 OA
BRANCH  24  25
HETATM   25  C   UNL     1     -22.019  -7.272  -0.764  1.00  0.00     0.258 C 
HETATM   26  O   UNL     1     -22.675  -6.319  -1.137  1.00  0.00    -0.265 OA
BRANCH  25  27
HETATM   27  C   UNL     1     -20.760  -7.747  -1.449  1.00  0.00     0.111 C 
BRANCH  27  28
HETATM   28  C   UNL     1     -21.099  -8.208  -2.859  1.00  0.00     0.010 C 
BRANCH  28  29
HETATM   29  C   UNL     1     -20.778  -7.149  -3.906  1.00  0.00     0.000 C 
BRANCH  29  30
HETATM   30  C   UNL     1     -21.860  -7.133  -4.982  1.00  0.00     0.000 C 
BRANCH  30  31
HETATM   31  C   UNL     1     -21.256  -6.831  -6.344  1.00  0.00     0.000 C 
BRANCH  31  32
HETATM   32  C   UNL     1     -20.003  -5.977  -6.193  1.00  0.00     0.004 C 
BRANCH  32  33
HETATM   33  C   UNL     1     -20.334  -4.510  -6.418  1.00  0.00     0.027 C 
BRANCH  33  34
HETATM   34  C   UNL     1     -20.971  -4.310  -7.751  1.00  0.00    -0.031 C 
HETATM   35  C   UNL     1     -20.265  -4.370  -8.887  1.00  0.00    -0.031 C 
BRANCH  35  36
HETATM   36  C   UNL     1     -20.895  -4.180 -10.226  1.00  0.00     0.027 C 
BRANCH  36  37
HETATM   37  C   UNL     1     -22.379  -4.499 -10.173  1.00  0.00     0.004 C 
BRANCH  37  38
HETATM   38  C   UNL     1     -23.175  -3.416 -10.887  1.00  0.00     0.000 C 
BRANCH  38  39
HETATM   39  C   UNL     1     -22.302  -2.719 -11.918  1.00  0.00     0.000 C 
BRANCH  39  40
HETATM   40  C   UNL     1     -23.025  -2.641 -13.254  1.00  0.00     0.000 C 
BRANCH  40  41
HETATM   41  C   UNL     1     -22.750  -3.893 -14.073  1.00  0.00    -0.000 C 
BRANCH  41  42
HETATM   42  C   UNL     1     -24.025  -4.706 -14.252  1.00  0.00    -0.005 C 
HETATM   43  C   UNL     1     -23.699  -6.182 -14.374  1.00  0.00     0.005 C 
ENDBRANCH  41  42
ENDBRANCH  40  41
ENDBRANCH  39  40
ENDBRANCH  38  39
ENDBRANCH  37  38
ENDBRANCH  36  37
ENDBRANCH  35  36
ENDBRANCH  33  34
ENDBRANCH  32  33
ENDBRANCH  31  32
ENDBRANCH  30  31
ENDBRANCH  29  30
ENDBRANCH  28  29
ENDBRANCH  27  28
ENDBRANCH  25  27
ENDBRANCH  24  25
ENDBRANCH  23  24
ENDBRANCH   1  23
BRANCH   1  44
HETATM   44  O   UNL     1     -22.550 -10.589  -0.296  1.00  0.00    -0.312 OA
BRANCH  44  45
HETATM   45  C   UNL     1     -23.119 -11.837  -0.289  1.00  0.00     0.259 C 
HETATM   46  O   UNL     1     -23.438 -12.469   0.703  1.00  0.00    -0.265 OA
BRANCH  45  47
HETATM   47  C   UNL     1     -23.399 -12.353  -1.691  1.00  0.00     0.111 C 
BRANCH  47  48
HETATM   48  C   UNL     1     -22.994 -11.317  -2.743  1.00  0.00     0.010 C 
BRANCH  48  49
HETATM   49  C   UNL     1     -22.382 -11.958  -3.985  1.00  0.00     0.000 C 
BRANCH  49  50
HETATM   50  C   UNL     1     -21.520 -10.950  -4.740  1.00  0.00     0.000 C 
BRANCH  50  51
HETATM   51  C   UNL     1     -21.459 -11.299  -6.220  1.00  0.00     0.000 C 
BRANCH  51  52
HETATM   52  C   UNL     1     -21.945 -12.721  -6.459  1.00  0.00     0.004 C 
BRANCH  52  53
HETATM   53  C   UNL     1     -20.887 -13.525  -7.201  1.00  0.00     0.027 C 
BRANCH  53  54
HETATM   54  C   UNL     1     -20.314 -14.582  -6.318  1.00  0.00    -0.031 C 
HETATM   55  C   UNL     1     -19.779 -14.299  -5.126  1.00  0.00    -0.031 C 
BRANCH  55  56
HETATM   56  C   UNL     1     -19.208 -15.358  -4.243  1.00  0.00     0.027 C 
BRANCH  56  57
HETATM   57  C   UNL     1     -17.691 -15.371  -4.337  1.00  0.00     0.004 C 
BRANCH  57  58
HETATM   58  C   UNL     1     -17.230 -16.488  -5.262  1.00  0.00     0.000 C 
BRANCH  58  59
HETATM   59  C   UNL     1     -16.065 -16.014  -6.115  1.00  0.00     0.000 C 
BRANCH  59  60
HETATM   60  C   UNL     1     -16.419 -16.115  -7.591  1.00  0.00     0.000 C 
BRANCH  60  61
HETATM   61  C   UNL     1     -17.811 -16.703  -7.759  1.00  0.00    -0.000 C 
BRANCH  61  62
HETATM   62  C   UNL     1     -18.365 -16.380  -9.140  1.00  0.00    -0.005 C 
HETATM   63  C   UNL     1     -18.235 -14.897  -9.430  1.00  0.00     0.005 C 
ENDBRANCH  61  62
ENDBRANCH  60  61
ENDBRANCH  59  60
ENDBRANCH  58  59
ENDBRANCH  57  58
ENDBRANCH  56  57
ENDBRANCH  55  56
ENDBRANCH  53  54
ENDBRANCH  52  53
ENDBRANCH  51  52
ENDBRANCH  50  51
ENDBRANCH  49  50
ENDBRANCH  48  49
ENDBRANCH  47  48
ENDBRANCH  45  47
ENDBRANCH  44  45
ENDBRANCH   1  44
TORSDOF 53
BEGIN_RES ARG D 557
REMARK  4 active torsions:
REMARK  status: ('A' for Active; 'I' for Inactive)
REMARK    1  A    between atoms: CA   and  CB  
REMARK    2  A    between atoms: CB   and  CG  
REMARK    3  A    between atoms: CG   and  CD  
REMARK    4  A    between atoms: CD   and  NE  
REMARK       I    between atoms: NE   and  CZ  
REMARK       I    between atoms: CZ   and  NH1 
REMARK       I    between atoms: CZ   and  NH2 
ROOT
ATOM      1  CA  ARG D 557     -26.217   2.705 -17.014  1.00 35.49     0.159 C 
ENDROOT
BRANCH   1   2
ATOM      2  CB  ARG D 557     -26.789   1.319 -17.183  1.00 35.49     0.034 C 
BRANCH   2   3
ATOM      3  CG  ARG D 557     -25.953   0.200 -16.732  1.00 35.49     0.027 C 
BRANCH   3   4
ATOM      4  CD  ARG D 557     -26.743  -0.861 -16.066  1.00 35.49     0.116 C 
BRANCH   4   5
ATOM      5  NE  ARG D 557     -27.988  -1.115 -16.741  1.00 35.49    -0.212 N 
ATOM      6  CZ  ARG D 557     -28.516  -2.299 -16.960  1.00 35.49     0.666 C 
ATOM      7  NH1 ARG D 557     -27.928  -3.419 -16.581  1.00 35.49    -0.235 N 
ATOM      8  NH2 ARG D 557     -29.664  -2.341 -17.570  1.00 35.49    -0.235 N 
ATOM      9  HH  ARG D 557     -27.173  -3.415 -16.176  1.00 35.49     0.174 HD
ATOM     10  HH  ARG D 557     -28.321  -4.162 -16.748  1.00 35.49     0.174 HD
ATOM     11  HH  ARG D 557     -30.024  -1.601 -17.797  1.00 35.49     0.174 HD
ATOM     12  HH  ARG D 557     -30.038  -3.086 -17.725  1.00 35.49     0.174 HD
ATOM     13  HE  ARG D 557     -28.399  -0.454 -17.084  1.00 35.49     0.178 HD
ENDBRANCH   4   5
ENDBRANCH   3   4
ENDBRANCH   2   3
ENDBRANCH   1   2
END_RES ARG D 557
BEGIN_RES GLU D 570
REMARK  3 active torsions:
REMARK  status: ('A' for Active; 'I' for Inactive)
REMARK    5  A    between atoms: CA   and  CB  
REMARK    6  A    between atoms: CB   and  CG  
REMARK    7  A    between atoms: CG   and  CD  
ROOT
ATOM     14  CA  GLU D 570     -18.033  -6.348 -13.375  1.00 32.92     0.160 C 
ENDROOT
BRANCH  14  15
ATOM     15  CB  GLU D 570     -19.500  -6.345 -13.794  1.00 32.92     0.043 C 
BRANCH  15  16
ATOM     16  CG  GLU D 570     -19.800  -6.143 -15.235  1.00 32.92     0.100 C 
BRANCH  16  17
ATOM     17  CD  GLU D 570     -20.605  -7.273 -15.833  1.00 32.92     0.185 C 
ATOM     18  OE1 GLU D 570     -20.595  -8.386 -15.273  1.00 32.92    -0.647 OA
ATOM     19  OE2 GLU D 570     -21.239  -7.048 -16.883  1.00 32.92    -0.647 OA
ENDBRANCH  16  17
ENDBRANCH  15  16
ENDBRANCH  14  15
END_RES GLU D 570
ENDMDL
MODEL 7
REMARK VINA RESULT:      -6.2      1.886     10.568
REMARK WARNING: 32 MAX_TORS EXCEEDED!!!
REMARK  53 active torsions:
REMARK  status: ('A' for Active; 'I' for Inactive)
REMARK    1  A    between atoms: C_2  and  C_3 
REMARK    2  A    between atoms: C_3  and  C_4 
REMARK    3  A    between atoms: C_4  and  C_5 
REMARK    4  A    between atoms: C_5  and  C_6 
REMARK    5  A    between atoms: C_6  and  C_7 
REMARK    6  A    between atoms: C_7  and  C_8 
REMARK    7  A    between atoms: C_8  and  C_9 
REMARK    8  A    between atoms: C_10  and  C_11 
REMARK    9  A    between atoms: C_11  and  C_12 
REMARK   10  A    between atoms: C_12  and  C_13 
REMARK   11  A    between atoms: C_13  and  C_14 
REMARK   12  A    between atoms: C_14  and  C_15 
REMARK   13  A    between atoms: C_15  and  C_16 
REMARK   14  A    between atoms: C_16  and  C_17 
REMARK   15  A    between atoms: C_17  and  C_18 
REMARK   16  A    between atoms: C_18  and  O_20 
REMARK   17  A    between atoms: O_20  and  C_21 
REMARK   18  A    between atoms: C_21  and  C_22 
REMARK   19  A    between atoms: C_22  and  C_23 
REMARK   20  A    between atoms: C_22  and  O_44 
REMARK   21  A    between atoms: C_23  and  O_24 
REMARK   22  A    between atoms: O_24  and  C_25 
REMARK   23  A    between atoms: C_25  and  C_27 
REMARK   24  A    between atoms: C_27  and  C_28 
REMARK   25  A    between atoms: C_28  and  C_29 
REMARK   26  A    between atoms: C_29  and  C_30 
REMARK   27  A    between atoms: C_30  and  C_31 
REMARK   28  A    between atoms: C_31  and  C_32 
REMARK   29  A    between atoms: C_32  and  C_33 
REMARK   30  A    between atoms: C_33  and  C_34 
REMARK   31  A    between atoms: C_35  and  C_36 
REMARK   32  A    between atoms: C_36  and  C_37 
REMARK   33  A    between atoms: C_37  and  C_38 
REMARK   34  A    between atoms: C_38  and  C_39 
REMARK   35  A    between atoms: C_39  and  C_40 
REMARK   36  A    between atoms: C_40  and  C_41 
REMARK   37  A    between atoms: C_41  and  C_42 
REMARK   38  A    between atoms: O_44  and  C_45 
REMARK   39  A    between atoms: C_45  and  C_47 
REMARK   40  A    between atoms: C_47  and  C_48 
REMARK   41  A    between atoms: C_48  and  C_49 
REMARK   42  A    between atoms: C_49  and  C_50 
REMARK   43  A    between atoms: C_50  and  C_51 
REMARK   44  A    between atoms: C_51  and  C_52 
REMARK   45  A    between atoms: C_52  and  C_53 
REMARK   46  A    between atoms: C_53  and  C_54 
REMARK   47  A    between atoms: C_55  and  C_56 
REMARK   48  A    between atoms: C_56  and  C_57 
REMARK   49  A    between atoms: C_57  and  C_58 
REMARK   50  A    between atoms: C_58  and  C_59 
REMARK   51  A    between atoms: C_59  and  C_60 
REMARK   52  A    between atoms: C_60  and  C_61 
REMARK   53  A    between atoms: C_61  and  C_62 
ROOT
HETATM    1  C   UNL     1     -21.066  -6.723  -4.706  1.00  0.00     0.180 C 
ENDROOT
BRANCH   1   2
HETATM    2  C   UNL     1     -21.431  -7.921  -5.593  1.00  0.00     0.213 C 
BRANCH   2   3
HETATM    3  O   UNL     1     -21.062  -9.163  -4.956  1.00  0.00    -0.319 OA
BRANCH   3   4
HETATM    4  C   UNL     1     -19.756  -9.523  -5.142  1.00  0.00     0.258 C 
HETATM    5  O   UNL     1     -18.987  -8.942  -5.883  1.00  0.00    -0.265 OA
BRANCH   4   6
HETATM    6  C   UNL     1     -19.389 -10.745  -4.313  1.00  0.00     0.111 C 
BRANCH   6   7
HETATM    7  C   UNL     1     -20.173 -10.741  -2.998  1.00  0.00     0.010 C 
BRANCH   7   8
HETATM    8  C   UNL     1     -20.928 -12.045  -2.755  1.00  0.00     0.000 C 
BRANCH   8   9
HETATM    9  C   UNL     1     -20.381 -12.759  -1.519  1.00  0.00     0.000 C 
BRANCH   9  10
HETATM   10  C   UNL     1     -19.899 -14.160  -1.875  1.00  0.00     0.000 C 
BRANCH  10  11
HETATM   11  C   UNL     1     -19.911 -14.363  -3.384  1.00  0.00     0.004 C 
BRANCH  11  12
HETATM   12  C   UNL     1     -18.545 -14.833  -3.866  1.00  0.00     0.027 C 
BRANCH  12  13
HETATM   13  C   UNL     1     -17.995 -13.886  -4.878  1.00  0.00    -0.031 C 
HETATM   14  C   UNL     1     -16.698 -13.875  -5.212  1.00  0.00    -0.031 C 
BRANCH  14  15
HETATM   15  C   UNL     1     -16.148 -12.928  -6.226  1.00  0.00     0.027 C 
BRANCH  15  16
HETATM   16  C   UNL     1     -14.677 -12.652  -5.952  1.00  0.00     0.004 C 
BRANCH  16  17
HETATM   17  C   UNL     1     -14.529 -11.430  -5.057  1.00  0.00     0.000 C 
BRANCH  17  18
HETATM   18  C   UNL     1     -15.783 -10.573  -5.130  1.00  0.00     0.000 C 
BRANCH  18  19
HETATM   19  C   UNL     1     -15.994  -9.838  -3.815  1.00  0.00     0.000 C 
BRANCH  19  20
HETATM   20  C   UNL     1     -15.559 -10.713  -2.649  1.00  0.00    -0.000 C 
BRANCH  20  21
HETATM   21  C   UNL     1     -16.712 -11.590  -2.180  1.00  0.00    -0.005 C 
HETATM   22  C   UNL     1     -16.190 -12.908  -1.643  1.00  0.00     0.005 C 
ENDBRANCH  20  21
ENDBRANCH  19  20
ENDBRANCH  18  19
ENDBRANCH  17  18
ENDBRANCH  16  17
ENDBRANCH  15  16
ENDBRANCH  14  15
ENDBRANCH  12  13
ENDBRANCH  11  12
ENDBRANCH  10  11
ENDBRANCH   9  10
ENDBRANCH   8   9
ENDBRANCH   7   8
ENDBRANCH   6   7
ENDBRANCH   4   6
ENDBRANCH   3   4
ENDBRANCH   2   3
ENDBRANCH   1   2
BRANCH   1  23
HETATM   23  C   UNL     1     -21.119  -5.434  -5.543  1.00  0.00     0.213 C 
BRANCH  23  24
HETATM   24  O   UNL     1     -19.800  -4.914  -5.810  1.00  0.00    -0.319 OA
BRANCH  24  25
HETATM   25  C   UNL     1     -19.520  -4.725  -7.135  1.00  0.00     0.258 C 
HETATM   26  O   UNL     1     -18.481  -4.275  -7.578  1.00  0.00    -0.265 OA
BRANCH  25  27
HETATM   27  C   UNL     1     -20.673  -5.180  -7.996  1.00  0.00     0.111 C 
BRANCH  27  28
HETATM   28  C   UNL     1     -20.956  -4.126  -9.056  1.00  0.00     0.010 C 
BRANCH  28  29
HETATM   29  C   UNL     1     -20.409  -4.517 -10.422  1.00  0.00     0.000 C 
BRANCH  29  30
HETATM   30  C   UNL     1     -21.421  -4.172 -11.510  1.00  0.00     0.000 C 
BRANCH  30  31
HETATM   31  C   UNL     1     -22.838  -4.435 -11.026  1.00  0.00     0.000 C 
BRANCH  31  32
HETATM   32  C   UNL     1     -23.689  -5.003 -12.154  1.00  0.00     0.004 C 
BRANCH  32  33
HETATM   33  C   UNL     1     -22.837  -5.236 -13.392  1.00  0.00     0.027 C 
BRANCH  33  34
HETATM   34  C   UNL     1     -23.695  -5.451 -14.592  1.00  0.00    -0.031 C 
HETATM   35  C   UNL     1     -24.017  -6.679 -15.019  1.00  0.00    -0.031 C 
BRANCH  35  36
HETATM   36  C   UNL     1     -24.881  -6.904 -16.213  1.00  0.00     0.027 C 
BRANCH  36  37
HETATM   37  C   UNL     1     -26.213  -6.188 -16.058  1.00  0.00     0.004 C 
BRANCH  37  38
HETATM   38  C   UNL     1     -27.276  -7.158 -15.562  1.00  0.00     0.000 C 
BRANCH  38  39
HETATM   39  C   UNL     1     -28.660  -6.553 -15.738  1.00  0.00     0.000 C 
BRANCH  39  40
HETATM   40  C   UNL     1     -29.310  -7.086 -17.005  1.00  0.00     0.000 C 
BRANCH  40  41
HETATM   41  C   UNL     1     -30.618  -6.356 -17.272  1.00  0.00    -0.000 C 
BRANCH  41  42
HETATM   42  C   UNL     1     -30.398  -4.850 -17.276  1.00  0.00    -0.005 C 
HETATM   43  C   UNL     1     -29.438  -4.458 -18.382  1.00  0.00     0.005 C 
ENDBRANCH  41  42
ENDBRANCH  40  41
ENDBRANCH  39  40
ENDBRANCH  38  39
ENDBRANCH  37  38
ENDBRANCH  36  37
ENDBRANCH  35  36
ENDBRANCH  33  34
ENDBRANCH  32  33
ENDBRANCH  31  32
ENDBRANCH  30  31
ENDBRANCH  29  30
ENDBRANCH  28  29
ENDBRANCH  27  28
ENDBRANCH  25  27
ENDBRANCH  24  25
ENDBRANCH  23  24
ENDBRANCH   1  23
BRANCH   1  44
HETATM   44  O   UNL     1     -21.992  -6.619  -3.589  1.00  0.00    -0.312 OA
BRANCH  44  45
HETATM   45  C   UNL     1     -21.480  -6.972  -2.366  1.00  0.00     0.259 C 
HETATM   46  O   UNL     1     -20.384  -7.465  -2.168  1.00  0.00    -0.265 OA
BRANCH  45  47
HETATM   47  C   UNL     1     -22.412  -6.606  -1.222  1.00  0.00     0.111 C 
BRANCH  47  48
HETATM   48  C   UNL     1     -22.099  -7.438   0.024  1.00  0.00     0.010 C 
BRANCH  48  49
HETATM   49  C   UNL     1     -23.197  -8.449   0.340  1.00  0.00     0.000 C 
BRANCH  49  50
HETATM   50  C   UNL     1     -22.974  -9.744  -0.434  1.00  0.00     0.000 C 
BRANCH  50  51
HETATM   51  C   UNL     1     -23.984 -10.802  -0.013  1.00  0.00     0.000 C 
BRANCH  51  52
HETATM   52  C   UNL     1     -24.032 -11.934  -1.029  1.00  0.00     0.004 C 
BRANCH  52  53
HETATM   53  C   UNL     1     -23.870 -13.278  -0.332  1.00  0.00     0.027 C 
BRANCH  53  54
HETATM   54  C   UNL     1     -24.464 -14.372  -1.154  1.00  0.00    -0.031 C 
HETATM   55  C   UNL     1     -23.850 -14.861  -2.237  1.00  0.00    -0.031 C 
BRANCH  55  56
HETATM   56  C   UNL     1     -24.445 -15.956  -3.056  1.00  0.00     0.027 C 
BRANCH  56  57
HETATM   57  C   UNL     1     -24.221 -15.699  -4.537  1.00  0.00     0.004 C 
BRANCH  57  58
HETATM   58  C   UNL     1     -22.849 -15.079  -4.762  1.00  0.00     0.000 C 
BRANCH  58  59
HETATM   59  C   UNL     1     -22.818 -14.345  -6.092  1.00  0.00     0.000 C 
BRANCH  59  60
HETATM   60  C   UNL     1     -22.763 -12.842  -5.862  1.00  0.00     0.000 C 
BRANCH  60  61
HETATM   61  C   UNL     1     -21.692 -12.214  -6.741  1.00  0.00    -0.000 C 
BRANCH  61  62
HETATM   62  C   UNL     1     -20.835 -13.292  -7.390  1.00  0.00    -0.005 C 
HETATM   63  C   UNL     1     -19.537 -12.699  -7.905  1.00  0.00     0.005 C 
ENDBRANCH  61  62
ENDBRANCH  60  61
ENDBRANCH  59  60
ENDBRANCH  58  59
ENDBRANCH  57  58
ENDBRANCH  56  57
ENDBRANCH  55  56
ENDBRANCH  53  54
ENDBRANCH  52  53
ENDBRANCH  51  52
ENDBRANCH  50  51
ENDBRANCH  49  50
ENDBRANCH  48  49
ENDBRANCH  47  48
ENDBRANCH  45  47
ENDBRANCH  44  45
ENDBRANCH   1  44
TORSDOF 53
BEGIN_RES ARG D 557
REMARK  4 active torsions:
REMARK  status: ('A' for Active; 'I' for Inactive)
REMARK    1  A    between atoms: CA   and  CB  
REMARK    2  A    between atoms: CB   and  CG  
REMARK    3  A    between atoms: CG   and  CD  
REMARK    4  A    between atoms: CD   and  NE  
REMARK       I    between atoms: NE   and  CZ  
REMARK       I    between atoms: CZ   and  NH1 
REMARK       I    between atoms: CZ   and  NH2 
ROOT
ATOM      1  CA  ARG D 557     -26.217   2.705 -17.014  1.00 35.49     0.159 C 
ENDROOT
BRANCH   1   2
ATOM      2  CB  ARG D 557     -26.789   1.319 -17.183  1.00 35.49     0.034 C 
BRANCH   2   3
ATOM      3  CG  ARG D 557     -25.922   0.196 -16.806  1.00 35.49     0.027 C 
BRANCH   3   4
ATOM      4  CD  ARG D 557     -26.678  -0.919 -16.190  1.00 35.49     0.116 C 
BRANCH   4   5
ATOM      5  NE  ARG D 557     -25.956  -1.530 -15.106  1.00 35.49    -0.212 N 
ATOM      6  CZ  ARG D 557     -24.739  -1.219 -14.722  1.00 35.49     0.666 C 
ATOM      7  NH1 ARG D 557     -24.021  -0.289 -15.324  1.00 35.49    -0.235 N 
ATOM      8  NH2 ARG D 557     -24.248  -1.864 -13.704  1.00 35.49    -0.235 N 
ATOM      9  HH  ARG D 557     -24.325   0.149 -15.994  1.00 35.49     0.174 HD
ATOM     10  HH  ARG D 557     -23.234  -0.127 -15.027  1.00 35.49     0.174 HD
ATOM     11  HH  ARG D 557     -24.736  -2.454 -13.330  1.00 35.49     0.174 HD
ATOM     12  HH  ARG D 557     -23.466  -1.688 -13.424  1.00 35.49     0.174 HD
ATOM     13  HE  ARG D 557     -26.316  -2.191 -14.709  1.00 35.49     0.178 HD
ENDBRANCH   4   5
ENDBRANCH   3   4
ENDBRANCH   2   3
ENDBRANCH   1   2
END_RES ARG D 557
BEGIN_RES GLU D 570
REMARK  3 active torsions:
REMARK  status: ('A' for Active; 'I' for Inactive)
REMARK    5  A    between atoms: CA   and  CB  
REMARK    6  A    between atoms: CB   and  CG  
REMARK    7  A    between atoms: CG   and  CD  
ROOT
ATOM     14  CA  GLU D 570     -18.033  -6.348 -13.375  1.00 32.92     0.160 C 
ENDROOT
BRANCH  14  15
ATOM     15  CB  GLU D 570     -19.500  -6.345 -13.794  1.00 32.92     0.043 C 
BRANCH  15  16
ATOM     16  CG  GLU D 570     -20.085  -7.633 -14.248  1.00 32.92     0.100 C 
BRANCH  16  17
ATOM     17  CD  GLU D 570     -20.637  -7.568 -15.653  1.00 32.92     0.185 C 
ATOM     18  OE1 GLU D 570     -21.069  -8.609 -16.183  1.00 32.92    -0.647 OA
ATOM     19  OE2 GLU D 570     -20.621  -6.466 -16.236  1.00 32.92    -0.647 OA
ENDBRANCH  16  17
ENDBRANCH  15  16
ENDBRANCH  14  15
END_RES GLU D 570
ENDMDL
MODEL 8
REMARK VINA RESULT:      -6.2      2.784     14.301
REMARK WARNING: 32 MAX_TORS EXCEEDED!!!
REMARK  53 active torsions:
REMARK  status: ('A' for Active; 'I' for Inactive)
REMARK    1  A    between atoms: C_2  and  C_3 
REMARK    2  A    between atoms: C_3  and  C_4 
REMARK    3  A    between atoms: C_4  and  C_5 
REMARK    4  A    between atoms: C_5  and  C_6 
REMARK    5  A    between atoms: C_6  and  C_7 
REMARK    6  A    between atoms: C_7  and  C_8 
REMARK    7  A    between atoms: C_8  and  C_9 
REMARK    8  A    between atoms: C_10  and  C_11 
REMARK    9  A    between atoms: C_11  and  C_12 
REMARK   10  A    between atoms: C_12  and  C_13 
REMARK   11  A    between atoms: C_13  and  C_14 
REMARK   12  A    between atoms: C_14  and  C_15 
REMARK   13  A    between atoms: C_15  and  C_16 
REMARK   14  A    between atoms: C_16  and  C_17 
REMARK   15  A    between atoms: C_17  and  C_18 
REMARK   16  A    between atoms: C_18  and  O_20 
REMARK   17  A    between atoms: O_20  and  C_21 
REMARK   18  A    between atoms: C_21  and  C_22 
REMARK   19  A    between atoms: C_22  and  C_23 
REMARK   20  A    between atoms: C_22  and  O_44 
REMARK   21  A    between atoms: C_23  and  O_24 
REMARK   22  A    between atoms: O_24  and  C_25 
REMARK   23  A    between atoms: C_25  and  C_27 
REMARK   24  A    between atoms: C_27  and  C_28 
REMARK   25  A    between atoms: C_28  and  C_29 
REMARK   26  A    between atoms: C_29  and  C_30 
REMARK   27  A    between atoms: C_30  and  C_31 
REMARK   28  A    between atoms: C_31  and  C_32 
REMARK   29  A    between atoms: C_32  and  C_33 
REMARK   30  A    between atoms: C_33  and  C_34 
REMARK   31  A    between atoms: C_35  and  C_36 
REMARK   32  A    between atoms: C_36  and  C_37 
REMARK   33  A    between atoms: C_37  and  C_38 
REMARK   34  A    between atoms: C_38  and  C_39 
REMARK   35  A    between atoms: C_39  and  C_40 
REMARK   36  A    between atoms: C_40  and  C_41 
REMARK   37  A    between atoms: C_41  and  C_42 
REMARK   38  A    between atoms: O_44  and  C_45 
REMARK   39  A    between atoms: C_45  and  C_47 
REMARK   40  A    between atoms: C_47  and  C_48 
REMARK   41  A    between atoms: C_48  and  C_49 
REMARK   42  A    between atoms: C_49  and  C_50 
REMARK   43  A    between atoms: C_50  and  C_51 
REMARK   44  A    between atoms: C_51  and  C_52 
REMARK   45  A    between atoms: C_52  and  C_53 
REMARK   46  A    between atoms: C_53  and  C_54 
REMARK   47  A    between atoms: C_55  and  C_56 
REMARK   48  A    between atoms: C_56  and  C_57 
REMARK   49  A    between atoms: C_57  and  C_58 
REMARK   50  A    between atoms: C_58  and  C_59 
REMARK   51  A    between atoms: C_59  and  C_60 
REMARK   52  A    between atoms: C_60  and  C_61 
REMARK   53  A    between atoms: C_61  and  C_62 
ROOT
HETATM    1  C   UNL     1     -21.300  -7.130  -2.292  1.00  0.00     0.180 C 
ENDROOT
BRANCH   1   2
HETATM    2  C   UNL     1     -21.187  -5.935  -3.249  1.00  0.00     0.213 C 
BRANCH   2   3
HETATM    3  O   UNL     1     -21.959  -6.162  -4.447  1.00  0.00    -0.319 OA
BRANCH   3   4
HETATM    4  C   UNL     1     -21.222  -6.164  -5.599  1.00  0.00     0.258 C 
HETATM    5  O   UNL     1     -21.204  -7.083  -6.395  1.00  0.00    -0.265 OA
BRANCH   4   6
HETATM    6  C   UNL     1     -20.421  -4.879  -5.753  1.00  0.00     0.111 C 
BRANCH   6   7
HETATM    7  C   UNL     1     -21.011  -4.026  -6.879  1.00  0.00     0.010 C 
BRANCH   7   8
HETATM    8  C   UNL     1     -20.219  -4.133  -8.180  1.00  0.00     0.000 C 
BRANCH   8   9
HETATM    9  C   UNL     1     -21.154  -4.414  -9.355  1.00  0.00     0.000 C 
BRANCH   9  10
HETATM   10  C   UNL     1     -20.497  -4.025 -10.673  1.00  0.00     0.000 C 
BRANCH  10  11
HETATM   11  C   UNL     1     -21.550  -3.649 -11.707  1.00  0.00     0.004 C 
BRANCH  11  12
HETATM   12  C   UNL     1     -22.477  -4.827 -11.972  1.00  0.00     0.027 C 
BRANCH  12  13
HETATM   13  C   UNL     1     -22.908  -4.842 -13.400  1.00  0.00    -0.031 C 
HETATM   14  C   UNL     1     -23.831  -5.698 -13.857  1.00  0.00    -0.031 C 
BRANCH  14  15
HETATM   15  C   UNL     1     -24.263  -5.711 -15.284  1.00  0.00     0.027 C 
BRANCH  15  16
HETATM   16  C   UNL     1     -24.887  -7.053 -15.639  1.00  0.00     0.004 C 
BRANCH  16  17
HETATM   17  C   UNL     1     -26.396  -6.911 -15.774  1.00  0.00     0.000 C 
BRANCH  17  18
HETATM   18  C   UNL     1     -26.732  -5.817 -16.775  1.00  0.00     0.000 C 
BRANCH  18  19
HETATM   19  C   UNL     1     -27.657  -4.791 -16.140  1.00  0.00     0.000 C 
BRANCH  19  20
HETATM   20  C   UNL     1     -28.629  -4.247 -17.177  1.00  0.00    -0.000 C 
BRANCH  20  21
HETATM   21  C   UNL     1     -29.642  -5.313 -17.570  1.00  0.00    -0.005 C 
HETATM   22  C   UNL     1     -30.982  -5.036 -16.918  1.00  0.00     0.005 C 
ENDBRANCH  20  21
ENDBRANCH  19  20
ENDBRANCH  18  19
ENDBRANCH  17  18
ENDBRANCH  16  17
ENDBRANCH  15  16
ENDBRANCH  14  15
ENDBRANCH  12  13
ENDBRANCH  11  12
ENDBRANCH  10  11
ENDBRANCH   9  10
ENDBRANCH   8   9
ENDBRANCH   7   8
ENDBRANCH   6   7
ENDBRANCH   4   6
ENDBRANCH   3   4
ENDBRANCH   2   3
ENDBRANCH   1   2
BRANCH   1  23
HETATM   23  C   UNL     1     -22.428  -6.869  -1.281  1.00  0.00     0.213 C 
BRANCH  23  24
HETATM   24  O   UNL     1     -21.946  -6.895   0.079  1.00  0.00    -0.319 OA
BRANCH  24  25
HETATM   25  C   UNL     1     -22.018  -8.119   0.685  1.00  0.00     0.258 C 
HETATM   26  O   UNL     1     -21.202  -8.565   1.469  1.00  0.00    -0.265 OA
BRANCH  25  27
HETATM   27  C   UNL     1     -23.273  -8.848   0.273  1.00  0.00     0.111 C 
BRANCH  27  28
HETATM   28  C   UNL     1     -22.942 -10.310   0.011  1.00  0.00     0.010 C 
BRANCH  28  29
HETATM   29  C   UNL     1     -24.154 -11.101  -0.462  1.00  0.00     0.000 C 
BRANCH  29  30
HETATM   30  C   UNL     1     -23.724 -12.171  -1.462  1.00  0.00     0.000 C 
BRANCH  30  31
HETATM   31  C   UNL     1     -23.072 -11.534  -2.679  1.00  0.00     0.000 C 
BRANCH  31  32
HETATM   32  C   UNL     1     -22.295 -12.576  -3.473  1.00  0.00     0.004 C 
BRANCH  32  33
HETATM   33  C   UNL     1     -21.691 -13.611  -2.536  1.00  0.00     0.027 C 
BRANCH  33  34
HETATM   34  C   UNL     1     -20.585 -14.351  -3.208  1.00  0.00    -0.031 C 
HETATM   35  C   UNL     1     -19.815 -13.775  -4.140  1.00  0.00    -0.031 C 
BRANCH  35  36
HETATM   36  C   UNL     1     -18.701 -14.504  -4.813  1.00  0.00     0.027 C 
BRANCH  36  37
HETATM   37  C   UNL     1     -17.357 -14.071  -4.252  1.00  0.00     0.004 C 
BRANCH  37  38
HETATM   38  C   UNL     1     -17.345 -12.567  -4.019  1.00  0.00     0.000 C 
BRANCH  38  39
HETATM   39  C   UNL     1     -16.226 -12.195  -3.059  1.00  0.00     0.000 C 
BRANCH  39  40
HETATM   40  C   UNL     1     -15.544 -10.915  -3.517  1.00  0.00     0.000 C 
BRANCH  40  41
HETATM   41  C   UNL     1     -16.558  -9.981  -4.161  1.00  0.00    -0.000 C 
BRANCH  41  42
HETATM   42  C   UNL     1     -16.215  -9.750  -5.627  1.00  0.00    -0.005 C 
HETATM   43  C   UNL     1     -17.450  -9.328  -6.399  1.00  0.00     0.005 C 
ENDBRANCH  41  42
ENDBRANCH  40  41
ENDBRANCH  39  40
ENDBRANCH  38  39
ENDBRANCH  37  38
ENDBRANCH  36  37
ENDBRANCH  35  36
ENDBRANCH  33  34
ENDBRANCH  32  33
ENDBRANCH  31  32
ENDBRANCH  30  31
ENDBRANCH  29  30
ENDBRANCH  28  29
ENDBRANCH  27  28
ENDBRANCH  25  27
ENDBRANCH  24  25
ENDBRANCH  23  24
ENDBRANCH   1  23
BRANCH   1  44
HETATM   44  O   UNL     1     -21.581  -8.348  -3.035  1.00  0.00    -0.312 OA
BRANCH  44  45
HETATM   45  C   UNL     1     -20.508  -9.181  -3.228  1.00  0.00     0.259 C 
HETATM   46  O   UNL     1     -20.154  -9.652  -4.294  1.00  0.00    -0.265 OA
BRANCH  45  47
HETATM   47  C   UNL     1     -19.719  -9.412  -1.948  1.00  0.00     0.111 C 
BRANCH  47  48
HETATM   48  C   UNL     1     -19.435 -10.902  -1.745  1.00  0.00     0.010 C 
BRANCH  48  49
HETATM   49  C   UNL     1     -19.737 -11.363  -0.322  1.00  0.00     0.000 C 
BRANCH  49  50
HETATM   50  C   UNL     1     -19.053 -12.695  -0.033  1.00  0.00     0.000 C 
BRANCH  50  51
HETATM   51  C   UNL     1     -17.545 -12.573  -0.201  1.00  0.00     0.000 C 
BRANCH  51  52
HETATM   52  C   UNL     1     -16.829 -12.940   1.091  1.00  0.00     0.004 C 
BRANCH  52  53
HETATM   53  C   UNL     1     -15.418 -12.370   1.094  1.00  0.00     0.027 C 
BRANCH  53  54
HETATM   54  C   UNL     1     -14.427 -13.421   1.468  1.00  0.00    -0.031 C 
HETATM   55  C   UNL     1     -13.429 -13.779   0.652  1.00  0.00    -0.031 C 
BRANCH  55  56
HETATM   56  C   UNL     1     -12.438 -14.829   1.029  1.00  0.00     0.027 C 
BRANCH  56  57
HETATM   57  C   UNL     1     -11.095 -14.557   0.371  1.00  0.00     0.004 C 
BRANCH  57  58
HETATM   58  C   UNL     1     -10.242 -13.669   1.264  1.00  0.00     0.000 C 
BRANCH  58  59
HETATM   59  C   UNL     1      -8.773 -14.027   1.110  1.00  0.00     0.000 C 
BRANCH  59  60
HETATM   60  C   UNL     1      -8.220 -14.557   2.424  1.00  0.00     0.000 C 
BRANCH  60  61
HETATM   61  C   UNL     1      -9.137 -14.172   3.575  1.00  0.00    -0.000 C 
BRANCH  61  62
HETATM   62  C   UNL     1      -8.453 -14.422   4.911  1.00  0.00    -0.005 C 
HETATM   63  C   UNL     1      -8.990 -13.476   5.967  1.00  0.00     0.005 C 
ENDBRANCH  61  62
ENDBRANCH  60  61
ENDBRANCH  59  60
ENDBRANCH  58  59
ENDBRANCH  57  58
ENDBRANCH  56  57
ENDBRANCH  55  56
ENDBRANCH  53  54
ENDBRANCH  52  53
ENDBRANCH  51  52
ENDBRANCH  50  51
ENDBRANCH  49  50
ENDBRANCH  48  49
ENDBRANCH  47  48
ENDBRANCH  45  47
ENDBRANCH  44  45
ENDBRANCH   1  44
TORSDOF 53
BEGIN_RES ARG D 557
REMARK  4 active torsions:
REMARK  status: ('A' for Active; 'I' for Inactive)
REMARK    1  A    between atoms: CA   and  CB  
REMARK    2  A    between atoms: CB   and  CG  
REMARK    3  A    between atoms: CG   and  CD  
REMARK    4  A    between atoms: CD   and  NE  
REMARK       I    between atoms: NE   and  CZ  
REMARK       I    between atoms: CZ   and  NH1 
REMARK       I    between atoms: CZ   and  NH2 
ROOT
ATOM      1  CA  ARG D 557     -26.217   2.705 -17.014  1.00 35.49     0.159 C 
ENDROOT
BRANCH   1   2
ATOM      2  CB  ARG D 557     -26.789   1.319 -17.183  1.00 35.49     0.034 C 
BRANCH   2   3
ATOM      3  CG  ARG D 557     -25.842   0.200 -17.107  1.00 35.49     0.027 C 
BRANCH   3   4
ATOM      4  CD  ARG D 557     -24.759   0.442 -16.127  1.00 35.49     0.116 C 
BRANCH   4   5
ATOM      5  NE  ARG D 557     -24.886  -0.392 -14.961  1.00 35.49    -0.212 N 
ATOM      6  CZ  ARG D 557     -24.096  -1.393 -14.643  1.00 35.49     0.666 C 
ATOM      7  NH1 ARG D 557     -23.075  -1.758 -15.396  1.00 35.49    -0.235 N 
ATOM      8  NH2 ARG D 557     -24.348  -2.028 -13.535  1.00 35.49    -0.235 N 
ATOM      9  HH  ARG D 557     -22.890  -1.353 -16.128  1.00 35.49     0.174 HD
ATOM     10  HH  ARG D 557     -22.593  -2.417 -15.137  1.00 35.49     0.174 HD
ATOM     11  HH  ARG D 557     -25.009  -1.765 -13.065  1.00 35.49     0.174 HD
ATOM     12  HH  ARG D 557     -23.858  -2.676 -13.294  1.00 35.49     0.174 HD
ATOM     13  HE  ARG D 557     -25.561  -0.273 -14.457  1.00 35.49     0.178 HD
ENDBRANCH   4   5
ENDBRANCH   3   4
ENDBRANCH   2   3
ENDBRANCH   1   2
END_RES ARG D 557
BEGIN_RES GLU D 570
REMARK  3 active torsions:
REMARK  status: ('A' for Active; 'I' for Inactive)
REMARK    5  A    between atoms: CA   and  CB  
REMARK    6  A    between atoms: CB   and  CG  
REMARK    7  A    between atoms: CG   and  CD  
ROOT
ATOM     14  CA  GLU D 570     -18.033  -6.348 -13.375  1.00 32.92     0.160 C 
ENDROOT
BRANCH  14  15
ATOM     15  CB  GLU D 570     -19.500  -6.345 -13.794  1.00 32.92     0.043 C 
BRANCH  15  16
ATOM     16  CG  GLU D 570     -19.813  -5.933 -15.187  1.00 32.92     0.100 C 
BRANCH  16  17
ATOM     17  CD  GLU D 570     -20.788  -6.862 -15.872  1.00 32.92     0.185 C 
ATOM     18  OE1 GLU D 570     -21.195  -7.869 -15.261  1.00 32.92    -0.647 OA
ATOM     19  OE2 GLU D 570     -21.134  -6.590 -17.038  1.00 32.92    -0.647 OA
ENDBRANCH  16  17
ENDBRANCH  15  16
ENDBRANCH  14  15
END_RES GLU D 570
ENDMDL
MODEL 9
REMARK VINA RESULT:      -6.2      2.029      3.830
REMARK WARNING: 32 MAX_TORS EXCEEDED!!!
REMARK  53 active torsions:
REMARK  status: ('A' for Active; 'I' for Inactive)
REMARK    1  A    between atoms: C_2  and  C_3 
REMARK    2  A    between atoms: C_3  and  C_4 
REMARK    3  A    between atoms: C_4  and  C_5 
REMARK    4  A    between atoms: C_5  and  C_6 
REMARK    5  A    between atoms: C_6  and  C_7 
REMARK    6  A    between atoms: C_7  and  C_8 
REMARK    7  A    between atoms: C_8  and  C_9 
REMARK    8  A    between atoms: C_10  and  C_11 
REMARK    9  A    between atoms: C_11  and  C_12 
REMARK   10  A    between atoms: C_12  and  C_13 
REMARK   11  A    between atoms: C_13  and  C_14 
REMARK   12  A    between atoms: C_14  and  C_15 
REMARK   13  A    between atoms: C_15  and  C_16 
REMARK   14  A    between atoms: C_16  and  C_17 
REMARK   15  A    between atoms: C_17  and  C_18 
REMARK   16  A    between atoms: C_18  and  O_20 
REMARK   17  A    between atoms: O_20  and  C_21 
REMARK   18  A    between atoms: C_21  and  C_22 
REMARK   19  A    between atoms: C_22  and  C_23 
REMARK   20  A    between atoms: C_22  and  O_44 
REMARK   21  A    between atoms: C_23  and  O_24 
REMARK   22  A    between atoms: O_24  and  C_25 
REMARK   23  A    between atoms: C_25  and  C_27 
REMARK   24  A    between atoms: C_27  and  C_28 
REMARK   25  A    between atoms: C_28  and  C_29 
REMARK   26  A    between atoms: C_29  and  C_30 
REMARK   27  A    between atoms: C_30  and  C_31 
REMARK   28  A    between atoms: C_31  and  C_32 
REMARK   29  A    between atoms: C_32  and  C_33 
REMARK   30  A    between atoms: C_33  and  C_34 
REMARK   31  A    between atoms: C_35  and  C_36 
REMARK   32  A    between atoms: C_36  and  C_37 
REMARK   33  A    between atoms: C_37  and  C_38 
REMARK   34  A    between atoms: C_38  and  C_39 
REMARK   35  A    between atoms: C_39  and  C_40 
REMARK   36  A    between atoms: C_40  and  C_41 
REMARK   37  A    between atoms: C_41  and  C_42 
REMARK   38  A    between atoms: O_44  and  C_45 
REMARK   39  A    between atoms: C_45  and  C_47 
REMARK   40  A    between atoms: C_47  and  C_48 
REMARK   41  A    between atoms: C_48  and  C_49 
REMARK   42  A    between atoms: C_49  and  C_50 
REMARK   43  A    between atoms: C_50  and  C_51 
REMARK   44  A    between atoms: C_51  and  C_52 
REMARK   45  A    between atoms: C_52  and  C_53 
REMARK   46  A    between atoms: C_53  and  C_54 
REMARK   47  A    between atoms: C_55  and  C_56 
REMARK   48  A    between atoms: C_56  and  C_57 
REMARK   49  A    between atoms: C_57  and  C_58 
REMARK   50  A    between atoms: C_58  and  C_59 
REMARK   51  A    between atoms: C_59  and  C_60 
REMARK   52  A    between atoms: C_60  and  C_61 
REMARK   53  A    between atoms: C_61  and  C_62 
ROOT
HETATM    1  C   UNL     1     -20.619  -7.422  -4.109  1.00  0.00     0.180 C 
ENDROOT
BRANCH   1   2
HETATM    2  C   UNL     1     -21.560  -6.943  -2.996  1.00  0.00     0.213 C 
BRANCH   2   3
HETATM    3  O   UNL     1     -21.625  -7.911  -1.926  1.00  0.00    -0.319 OA
BRANCH   3   4
HETATM    4  C   UNL     1     -22.280  -7.470  -0.809  1.00  0.00     0.258 C 
HETATM    5  O   UNL     1     -22.673  -6.330  -0.654  1.00  0.00    -0.265 OA
BRANCH   4   6
HETATM    6  C   UNL     1     -22.447  -8.582   0.216  1.00  0.00     0.111 C 
BRANCH   6   7
HETATM    7  C   UNL     1     -21.078  -9.147   0.604  1.00  0.00     0.010 C 
BRANCH   7   8
HETATM    8  C   UNL     1     -21.085 -10.666   0.754  1.00  0.00     0.000 C 
BRANCH   8   9
HETATM    9  C   UNL     1     -19.686 -11.234   0.519  1.00  0.00     0.000 C 
BRANCH   9  10
HETATM   10  C   UNL     1     -19.715 -12.312  -0.557  1.00  0.00     0.000 C 
BRANCH  10  11
HETATM   11  C   UNL     1     -19.338 -11.728  -1.912  1.00  0.00     0.004 C 
BRANCH  11  12
HETATM   12  C   UNL     1     -18.362 -12.648  -2.632  1.00  0.00     0.027 C 
BRANCH  12  13
HETATM   13  C   UNL     1     -19.064 -13.862  -3.138  1.00  0.00    -0.031 C 
HETATM   14  C   UNL     1     -18.692 -14.483  -4.264  1.00  0.00    -0.031 C 
BRANCH  14  15
HETATM   15  C   UNL     1     -19.395 -15.698  -4.769  1.00  0.00     0.027 C 
BRANCH  15  16
HETATM   16  C   UNL     1     -20.371 -16.219  -3.725  1.00  0.00     0.004 C 
BRANCH  16  17
HETATM   17  C   UNL     1     -21.781 -16.257  -4.297  1.00  0.00     0.000 C 
BRANCH  17  18
HETATM   18  C   UNL     1     -21.735 -16.569  -5.784  1.00  0.00     0.000 C 
BRANCH  18  19
HETATM   19  C   UNL     1     -23.054 -16.193  -6.441  1.00  0.00     0.000 C 
BRANCH  19  20
HETATM   20  C   UNL     1     -23.948 -15.467  -5.447  1.00  0.00    -0.000 C 
BRANCH  20  21
HETATM   21  C   UNL     1     -25.127 -14.821  -6.160  1.00  0.00    -0.005 C 
HETATM   22  C   UNL     1     -26.211 -15.847  -6.428  1.00  0.00     0.005 C 
ENDBRANCH  20  21
ENDBRANCH  19  20
ENDBRANCH  18  19
ENDBRANCH  17  18
ENDBRANCH  16  17
ENDBRANCH  15  16
ENDBRANCH  14  15
ENDBRANCH  12  13
ENDBRANCH  11  12
ENDBRANCH  10  11
ENDBRANCH   9  10
ENDBRANCH   8   9
ENDBRANCH   7   8
ENDBRANCH   6   7
ENDBRANCH   4   6
ENDBRANCH   3   4
ENDBRANCH   2   3
ENDBRANCH   1   2
BRANCH   1  23
HETATM   23  C   UNL     1     -20.453  -8.948  -4.016  1.00  0.00     0.213 C 
BRANCH  23  24
HETATM   24  O   UNL     1     -19.682  -9.472  -5.118  1.00  0.00    -0.319 OA
BRANCH  24  25
HETATM   25  C   UNL     1     -18.340  -9.571  -4.878  1.00  0.00     0.258 C 
HETATM   26  O   UNL     1     -17.797  -9.348  -3.813  1.00  0.00    -0.265 OA
BRANCH  25  27
HETATM   27  C   UNL     1     -17.607 -10.026  -6.117  1.00  0.00     0.111 C 
BRANCH  27  28
HETATM   28  C   UNL     1     -17.091 -11.441  -5.904  1.00  0.00     0.010 C 
BRANCH  28  29
HETATM   29  C   UNL     1     -17.496 -12.380  -7.033  1.00  0.00     0.000 C 
BRANCH  29  30
HETATM   30  C   UNL     1     -18.851 -11.963  -7.599  1.00  0.00     0.000 C 
BRANCH  30  31
HETATM   31  C   UNL     1     -19.548 -13.149  -8.246  1.00  0.00     0.000 C 
BRANCH  31  32
HETATM   32  C   UNL     1     -20.889 -13.411  -7.571  1.00  0.00     0.004 C 
BRANCH  32  33
HETATM   33  C   UNL     1     -21.279 -12.229  -6.696  1.00  0.00     0.027 C 
BRANCH  33  34
HETATM   34  C   UNL     1     -21.585 -12.679  -5.308  1.00  0.00    -0.031 C 
HETATM   35  C   UNL     1     -22.407 -11.988  -4.508  1.00  0.00    -0.031 C 
BRANCH  35  36
HETATM   36  C   UNL     1     -22.726 -12.433  -3.120  1.00  0.00     0.027 C 
BRANCH  36  37
HETATM   37  C   UNL     1     -23.065 -11.244  -2.237  1.00  0.00     0.004 C 
BRANCH  37  38
HETATM   38  C   UNL     1     -24.030 -11.664  -1.138  1.00  0.00     0.000 C 
BRANCH  38  39
HETATM   39  C   UNL     1     -23.807 -13.124  -0.775  1.00  0.00     0.000 C 
BRANCH  39  40
HETATM   40  C   UNL     1     -23.481 -13.255   0.705  1.00  0.00     0.000 C 
BRANCH  40  41
HETATM   41  C   UNL     1     -22.411 -14.315   0.916  1.00  0.00    -0.000 C 
BRANCH  41  42
HETATM   42  C   UNL     1     -22.078 -15.007  -0.399  1.00  0.00    -0.005 C 
HETATM   43  C   UNL     1     -21.458 -16.366  -0.139  1.00  0.00     0.005 C 
ENDBRANCH  41  42
ENDBRANCH  40  41
ENDBRANCH  39  40
ENDBRANCH  38  39
ENDBRANCH  37  38
ENDBRANCH  36  37
ENDBRANCH  35  36
ENDBRANCH  33  34
ENDBRANCH  32  33
ENDBRANCH  31  32
ENDBRANCH  30  31
ENDBRANCH  29  30
ENDBRANCH  28  29
ENDBRANCH  27  28
ENDBRANCH  25  27
ENDBRANCH  24  25
ENDBRANCH  23  24
ENDBRANCH   1  23
BRANCH   1  44
HETATM   44  O   UNL     1     -21.155  -7.067  -5.414  1.00  0.00    -0.312 OA
BRANCH  44  45
HETATM   45  C   UNL     1     -20.342  -6.280  -6.190  1.00  0.00     0.259 C 
HETATM   46  O   UNL     1     -19.681  -6.658  -7.141  1.00  0.00    -0.265 OA
BRANCH  45  47
HETATM   47  C   UNL     1     -20.401  -4.815  -5.787  1.00  0.00     0.111 C 
BRANCH  47  48
HETATM   48  C   UNL     1     -20.779  -3.937  -6.983  1.00  0.00     0.010 C 
BRANCH  48  49
HETATM   49  C   UNL     1     -22.157  -4.280  -7.543  1.00  0.00     0.000 C 
BRANCH  49  50
HETATM   50  C   UNL     1     -22.081  -4.508  -9.050  1.00  0.00     0.000 C 
BRANCH  50  51
HETATM   51  C   UNL     1     -20.641  -4.418  -9.535  1.00  0.00     0.000 C 
BRANCH  51  52
HETATM   52  C   UNL     1     -20.589  -3.945 -10.980  1.00  0.00     0.004 C 
BRANCH  52  53
HETATM   53  C   UNL     1     -21.997  -3.780 -11.534  1.00  0.00     0.027 C 
BRANCH  53  54
HETATM   54  C   UNL     1     -22.187  -4.627 -12.747  1.00  0.00    -0.031 C 
HETATM   55  C   UNL     1     -23.351  -5.226 -13.021  1.00  0.00    -0.031 C 
BRANCH  55  56
HETATM   56  C   UNL     1     -23.540  -6.070 -14.237  1.00  0.00     0.027 C 
BRANCH  56  57
HETATM   57  C   UNL     1     -24.781  -5.638 -15.001  1.00  0.00     0.004 C 
BRANCH  57  58
HETATM   58  C   UNL     1     -25.305  -6.788 -15.848  1.00  0.00     0.000 C 
BRANCH  58  59
HETATM   59  C   UNL     1     -26.820  -6.861 -15.754  1.00  0.00     0.000 C 
BRANCH  59  60
HETATM   60  C   UNL     1     -27.455  -6.157 -16.944  1.00  0.00     0.000 C 
BRANCH  60  61
HETATM   61  C   UNL     1     -28.596  -5.265 -16.479  1.00  0.00    -0.000 C 
BRANCH  61  62
HETATM   62  C   UNL     1     -29.077  -4.375 -17.617  1.00  0.00    -0.005 C 
HETATM   63  C   UNL     1     -28.880  -2.913 -17.267  1.00  0.00     0.005 C 
ENDBRANCH  61  62
ENDBRANCH  60  61
ENDBRANCH  59  60
ENDBRANCH  58  59
ENDBRANCH  57  58
ENDBRANCH  56  57
ENDBRANCH  55  56
ENDBRANCH  53  54
ENDBRANCH  52  53
ENDBRANCH  51  52
ENDBRANCH  50  51
ENDBRANCH  49  50
ENDBRANCH  48  49
ENDBRANCH  47  48
ENDBRANCH  45  47
ENDBRANCH  44  45
ENDBRANCH   1  44
TORSDOF 53
BEGIN_RES ARG D 557
REMARK  4 active torsions:
REMARK  status: ('A' for Active; 'I' for Inactive)
REMARK    1  A    between atoms: CA   and  CB  
REMARK    2  A    between atoms: CB   and  CG  
REMARK    3  A    between atoms: CG   and  CD  
REMARK    4  A    between atoms: CD   and  NE  
REMARK       I    between atoms: NE   and  CZ  
REMARK       I    between atoms: CZ   and  NH1 
REMARK       I    between atoms: CZ   and  NH2 
ROOT
ATOM      1  CA  ARG D 557     -26.217   2.705 -17.014  1.00 35.49     0.159 C 
ENDROOT
BRANCH   1   2
ATOM      2  CB  ARG D 557     -26.789   1.319 -17.183  1.00 35.49     0.034 C 
BRANCH   2   3
ATOM      3  CG  ARG D 557     -25.836   0.203 -17.152  1.00 35.49     0.027 C 
BRANCH   3   4
ATOM      4  CD  ARG D 557     -24.735   0.427 -16.187  1.00 35.49     0.116 C 
BRANCH   4   5
ATOM      5  NE  ARG D 557     -24.878  -0.380 -15.004  1.00 35.49    -0.212 N 
ATOM      6  CZ  ARG D 557     -24.099  -1.379 -14.657  1.00 35.49     0.666 C 
ATOM      7  NH1 ARG D 557     -23.074  -1.769 -15.394  1.00 35.49    -0.235 N 
ATOM      8  NH2 ARG D 557     -24.364  -1.987 -13.538  1.00 35.49    -0.235 N 
ATOM      9  HH  ARG D 557     -22.880  -1.382 -16.133  1.00 35.49     0.174 HD
ATOM     10  HH  ARG D 557     -22.599  -2.425 -15.116  1.00 35.49     0.174 HD
ATOM     11  HH  ARG D 557     -25.028  -1.710 -13.079  1.00 35.49     0.174 HD
ATOM     12  HH  ARG D 557     -23.881  -2.634 -13.279  1.00 35.49     0.174 HD
ATOM     13  HE  ARG D 557     -25.556  -0.245 -14.509  1.00 35.49     0.178 HD
ENDBRANCH   4   5
ENDBRANCH   3   4
ENDBRANCH   2   3
ENDBRANCH   1   2
END_RES ARG D 557
BEGIN_RES GLU D 570
REMARK  3 active torsions:
REMARK  status: ('A' for Active; 'I' for Inactive)
REMARK    5  A    between atoms: CA   and  CB  
REMARK    6  A    between atoms: CB   and  CG  
REMARK    7  A    between atoms: CG   and  CD  
ROOT
ATOM     14  CA  GLU D 570     -18.033  -6.348 -13.375  1.00 32.92     0.160 C 
ENDROOT
BRANCH  14  15
ATOM     15  CB  GLU D 570     -19.500  -6.345 -13.794  1.00 32.92     0.043 C 
BRANCH  15  16
ATOM     16  CG  GLU D 570     -20.121  -7.654 -14.121  1.00 32.92     0.100 C 
BRANCH  16  17
ATOM     17  CD  GLU D 570     -20.538  -7.764 -15.569  1.00 32.92     0.185 C 
ATOM     18  OE1 GLU D 570     -21.018  -6.765 -16.138  1.00 32.92    -0.647 OA
ATOM     19  OE2 GLU D 570     -20.398  -8.865 -16.136  1.00 32.92    -0.647 OA
ENDBRANCH  16  17
ENDBRANCH  15  16
ENDBRANCH  14  15
END_RES GLU D 570
ENDMDL
