MODEL 1
REMARK VINA RESULT:      -6.6      0.000      0.000
REMARK  16 active torsions:
REMARK  status: ('A' for Active; 'I' for Inactive)
REMARK    1  A    between atoms: C_2  and  C_3 
REMARK    2  A    between atoms: C_3  and  C_4 
REMARK    3  A    between atoms: C_4  and  C_5 
REMARK    4  A    between atoms: C_5  and  C_6 
REMARK    5  A    between atoms: C_6  and  C_7 
REMARK    6  A    between atoms: C_7  and  C_8 
REMARK    7  A    between atoms: C_8  and  O_9 
REMARK    8  A    between atoms: O_9  and  C_10 
REMARK    9  A    between atoms: C_10  and  O_12 
REMARK   10  A    between atoms: O_12  and  C_13 
REMARK   11  A    between atoms: C_13  and  C_14 
REMARK   12  A    between atoms: C_14  and  C_15 
REMARK   13  A    between atoms: C_15  and  C_16 
REMARK   14  A    between atoms: C_16  and  C_17 
REMARK   15  A    between atoms: C_17  and  C_18 
REMARK   16  A    between atoms: C_18  and  C_19 
ROOT
HETATM    1  C   UNL     1     -23.775  -5.806 -14.352  1.00  0.00     0.406 C 
HETATM    2  O   UNL     1     -23.380  -4.828 -14.982  1.00  0.00    -0.230 OA
ENDROOT
BRANCH   1   3
HETATM    3  O   UNL     1     -24.310  -6.941 -14.875  1.00  0.00    -0.298 OA
BRANCH   3   4
HETATM    4  C   UNL     1     -25.028  -6.776 -16.099  1.00  0.00     0.181 C 
BRANCH   4   5
HETATM    5  C   UNL     1     -26.515  -6.519 -15.874  1.00  0.00     0.027 C 
BRANCH   5   6
HETATM    6  C   UNL     1     -26.833  -5.023 -15.952  1.00  0.00     0.002 C 
BRANCH   6   7
HETATM    7  C   UNL     1     -28.336  -4.779 -16.055  1.00  0.00     0.000 C 
BRANCH   7   8
HETATM    8  C   UNL     1     -28.687  -4.069 -17.360  1.00  0.00     0.000 C 
BRANCH   8   9
HETATM    9  C   UNL     1     -29.740  -4.855 -18.132  1.00  0.00    -0.000 C 
BRANCH   9  10
HETATM   10  C   UNL     1     -29.284  -6.293 -18.361  1.00  0.00    -0.005 C 
HETATM   11  C   UNL     1     -30.372  -7.271 -17.955  1.00  0.00     0.005 C 
ENDBRANCH   9  10
ENDBRANCH   8   9
ENDBRANCH   7   8
ENDBRANCH   6   7
ENDBRANCH   5   6
ENDBRANCH   4   5
ENDBRANCH   3   4
ENDBRANCH   1   3
BRANCH   1  12
HETATM   12  O   UNL     1     -23.759  -5.954 -12.999  1.00  0.00    -0.298 OA
BRANCH  12  13
HETATM   13  C   UNL     1     -22.970  -5.000 -12.286  1.00  0.00     0.181 C 
BRANCH  13  14
HETATM   14  C   UNL     1     -23.629  -4.554 -10.985  1.00  0.00     0.027 C 
BRANCH  14  15
HETATM   15  C   UNL     1     -22.586  -4.040  -9.988  1.00  0.00     0.002 C 
BRANCH  15  16
HETATM   16  C   UNL     1     -23.086  -4.157  -8.550  1.00  0.00     0.000 C 
BRANCH  16  17
HETATM   17  C   UNL     1     -21.997  -3.757  -7.558  1.00  0.00     0.000 C 
BRANCH  17  18
HETATM   18  C   UNL     1     -21.453  -4.984  -6.836  1.00  0.00    -0.000 C 
BRANCH  18  19
HETATM   19  C   UNL     1     -20.098  -4.685  -6.200  1.00  0.00    -0.005 C 
HETATM   20  C   UNL     1     -19.014  -4.618  -7.260  1.00  0.00     0.005 C 
ENDBRANCH  18  19
ENDBRANCH  17  18
ENDBRANCH  16  17
ENDBRANCH  15  16
ENDBRANCH  14  15
ENDBRANCH  13  14
ENDBRANCH  12  13
ENDBRANCH   1  12
TORSDOF 16
BEGIN_RES ARG D 557
REMARK  4 active torsions:
REMARK  status: ('A' for Active; 'I' for Inactive)
REMARK    1  A    between atoms: CA   and  CB  
REMARK    2  A    between atoms: CB   and  CG  
REMARK    3  A    between atoms: CG   and  CD  
REMARK    4  A    between atoms: CD   and  NE  
REMARK       I    between atoms: NE   and  CZ  
REMARK       I    between atoms: CZ   and  NH1 
REMARK       I    between atoms: CZ   and  NH2 
ROOT
ATOM      1  CA  ARG D 557     -26.217   2.705 -17.014  1.00 35.49     0.159 C 
ENDROOT
BRANCH   1   2
ATOM      2  CB  ARG D 557     -26.789   1.319 -17.183  1.00 35.49     0.034 C 
BRANCH   2   3
ATOM      3  CG  ARG D 557     -25.835   0.203 -17.162  1.00 35.49     0.027 C 
BRANCH   3   4
ATOM      4  CD  ARG D 557     -24.750   0.407 -16.175  1.00 35.49     0.116 C 
BRANCH   4   5
ATOM      5  NE  ARG D 557     -24.888  -0.457 -15.032  1.00 35.49    -0.212 N 
ATOM      6  CZ  ARG D 557     -24.061  -1.421 -14.694  1.00 35.49     0.666 C 
ATOM      7  NH1 ARG D 557     -22.988  -1.716 -15.404  1.00 35.49    -0.235 N 
ATOM      8  NH2 ARG D 557     -24.331  -2.091 -13.612  1.00 35.49    -0.235 N 
ATOM      9  HH  ARG D 557     -22.790  -1.287 -16.119  1.00 35.49     0.174 HD
ATOM     10  HH  ARG D 557     -22.484  -2.354 -15.134  1.00 35.49     0.174 HD
ATOM     11  HH  ARG D 557     -25.027  -1.874 -13.169  1.00 35.49     0.174 HD
ATOM     12  HH  ARG D 557     -23.819  -2.718 -13.360  1.00 35.49     0.174 HD
ATOM     13  HE  ARG D 557     -25.591  -0.384 -14.559  1.00 35.49     0.178 HD
ENDBRANCH   4   5
ENDBRANCH   3   4
ENDBRANCH   2   3
ENDBRANCH   1   2
END_RES ARG D 557
BEGIN_RES GLU D 570
REMARK  3 active torsions:
REMARK  status: ('A' for Active; 'I' for Inactive)
REMARK    5  A    between atoms: CA   and  CB  
REMARK    6  A    between atoms: CB   and  CG  
REMARK    7  A    between atoms: CG   and  CD  
ROOT
ATOM     14  CA  GLU D 570     -18.033  -6.348 -13.375  1.00 32.92     0.160 C 
ENDROOT
BRANCH  14  15
ATOM     15  CB  GLU D 570     -19.500  -6.345 -13.794  1.00 32.92     0.043 C 
BRANCH  15  16
ATOM     16  CG  GLU D 570     -19.797  -6.228 -15.245  1.00 32.92     0.100 C 
BRANCH  16  17
ATOM     17  CD  GLU D 570     -20.681  -7.341 -15.758  1.00 32.92     0.185 C 
ATOM     18  OE1 GLU D 570     -20.635  -8.455 -15.200  1.00 32.92    -0.647 OA
ATOM     19  OE2 GLU D 570     -21.413  -7.102 -16.738  1.00 32.92    -0.647 OA
ENDBRANCH  16  17
ENDBRANCH  15  16
ENDBRANCH  14  15
END_RES GLU D 570
ENDMDL
MODEL 2
REMARK VINA RESULT:      -6.5      4.686      8.250
REMARK  16 active torsions:
REMARK  status: ('A' for Active; 'I' for Inactive)
REMARK    1  A    between atoms: C_2  and  C_3 
REMARK    2  A    between atoms: C_3  and  C_4 
REMARK    3  A    between atoms: C_4  and  C_5 
REMARK    4  A    between atoms: C_5  and  C_6 
REMARK    5  A    between atoms: C_6  and  C_7 
REMARK    6  A    between atoms: C_7  and  C_8 
REMARK    7  A    between atoms: C_8  and  O_9 
REMARK    8  A    between atoms: O_9  and  C_10 
REMARK    9  A    between atoms: C_10  and  O_12 
REMARK   10  A    between atoms: O_12  and  C_13 
REMARK   11  A    between atoms: C_13  and  C_14 
REMARK   12  A    between atoms: C_14  and  C_15 
REMARK   13  A    between atoms: C_15  and  C_16 
REMARK   14  A    between atoms: C_16  and  C_17 
REMARK   15  A    between atoms: C_17  and  C_18 
REMARK   16  A    between atoms: C_18  and  C_19 
ROOT
HETATM    1  C   UNL     1     -21.796  -6.353  -5.021  1.00  0.00     0.406 C 
HETATM    2  O   UNL     1     -22.778  -5.775  -5.479  1.00  0.00    -0.230 OA
ENDROOT
BRANCH   1   3
HETATM    3  O   UNL     1     -20.493  -6.047  -5.263  1.00  0.00    -0.298 OA
BRANCH   3   4
HETATM    4  C   UNL     1     -20.251  -4.723  -5.743  1.00  0.00     0.181 C 
BRANCH   4   5
HETATM    5  C   UNL     1     -19.322  -4.702  -6.953  1.00  0.00     0.027 C 
BRANCH   5   6
HETATM    6  C   UNL     1     -20.117  -4.789  -8.259  1.00  0.00     0.002 C 
BRANCH   6   7
HETATM    7  C   UNL     1     -21.389  -3.947  -8.193  1.00  0.00     0.000 C 
BRANCH   7   8
HETATM    8  C   UNL     1     -22.497  -4.563  -9.043  1.00  0.00     0.000 C 
BRANCH   8   9
HETATM    9  C   UNL     1     -23.061  -3.534 -10.015  1.00  0.00    -0.000 C 
BRANCH   9  10
HETATM   10  C   UNL     1     -22.023  -3.153 -11.067  1.00  0.00    -0.005 C 
HETATM   11  C   UNL     1     -21.706  -4.338 -11.960  1.00  0.00     0.005 C 
ENDBRANCH   9  10
ENDBRANCH   8   9
ENDBRANCH   7   8
ENDBRANCH   6   7
ENDBRANCH   5   6
ENDBRANCH   4   5
ENDBRANCH   3   4
ENDBRANCH   1   3
BRANCH   1  12
HETATM   12  O   UNL     1     -21.809  -7.418  -4.174  1.00  0.00    -0.298 OA
BRANCH  12  13
HETATM   13  C   UNL     1     -21.228  -7.190  -2.889  1.00  0.00     0.181 C 
BRANCH  13  14
HETATM   14  C   UNL     1     -22.129  -6.361  -1.980  1.00  0.00     0.027 C 
BRANCH  14  15
HETATM   15  C   UNL     1     -22.353  -7.064  -0.638  1.00  0.00     0.002 C 
BRANCH  15  16
HETATM   16  C   UNL     1     -21.304  -8.148  -0.397  1.00  0.00     0.000 C 
BRANCH  16  17
HETATM   17  C   UNL     1     -21.911  -9.342   0.334  1.00  0.00     0.000 C 
BRANCH  17  18
HETATM   18  C   UNL     1     -23.418  -9.398   0.111  1.00  0.00    -0.000 C 
BRANCH  18  19
HETATM   19  C   UNL     1     -23.865 -10.817  -0.231  1.00  0.00    -0.005 C 
HETATM   20  C   UNL     1     -23.480 -11.169  -1.656  1.00  0.00     0.005 C 
ENDBRANCH  18  19
ENDBRANCH  17  18
ENDBRANCH  16  17
ENDBRANCH  15  16
ENDBRANCH  14  15
ENDBRANCH  13  14
ENDBRANCH  12  13
ENDBRANCH   1  12
TORSDOF 16
BEGIN_RES ARG D 557
REMARK  4 active torsions:
REMARK  status: ('A' for Active; 'I' for Inactive)
REMARK    1  A    between atoms: CA   and  CB  
REMARK    2  A    between atoms: CB   and  CG  
REMARK    3  A    between atoms: CG   and  CD  
REMARK    4  A    between atoms: CD   and  NE  
REMARK       I    between atoms: NE   and  CZ  
REMARK       I    between atoms: CZ   and  NH1 
REMARK       I    between atoms: CZ   and  NH2 
ROOT
ATOM      1  CA  ARG D 557     -26.217   2.705 -17.014  1.00 35.49     0.159 C 
ENDROOT
BRANCH   1   2
ATOM      2  CB  ARG D 557     -26.789   1.319 -17.183  1.00 35.49     0.034 C 
BRANCH   2   3
ATOM      3  CG  ARG D 557     -25.840   0.201 -17.122  1.00 35.49     0.027 C 
BRANCH   3   4
ATOM      4  CD  ARG D 557     -24.759   0.432 -16.136  1.00 35.49     0.116 C 
BRANCH   4   5
ATOM      5  NE  ARG D 557     -24.869  -0.440 -14.996  1.00 35.49    -0.212 N 
ATOM      6  CZ  ARG D 557     -24.033  -1.405 -14.684  1.00 35.49     0.666 C 
ATOM      7  NH1 ARG D 557     -22.976  -1.694 -15.420  1.00 35.49    -0.235 N 
ATOM      8  NH2 ARG D 557     -24.277  -2.083 -13.600  1.00 35.49    -0.235 N 
ATOM      9  HH  ARG D 557     -22.795  -1.260 -16.136  1.00 35.49     0.174 HD
ATOM     10  HH  ARG D 557     -22.465  -2.333 -15.165  1.00 35.49     0.174 HD
ATOM     11  HH  ARG D 557     -24.963  -1.869 -13.140  1.00 35.49     0.174 HD
ATOM     12  HH  ARG D 557     -23.759  -2.711 -13.364  1.00 35.49     0.174 HD
ATOM     13  HE  ARG D 557     -25.561  -0.372 -14.507  1.00 35.49     0.178 HD
ENDBRANCH   4   5
ENDBRANCH   3   4
ENDBRANCH   2   3
ENDBRANCH   1   2
END_RES ARG D 557
BEGIN_RES GLU D 570
REMARK  3 active torsions:
REMARK  status: ('A' for Active; 'I' for Inactive)
REMARK    5  A    between atoms: CA   and  CB  
REMARK    6  A    between atoms: CB   and  CG  
REMARK    7  A    between atoms: CG   and  CD  
ROOT
ATOM     14  CA  GLU D 570     -18.033  -6.348 -13.375  1.00 32.92     0.160 C 
ENDROOT
BRANCH  14  15
ATOM     15  CB  GLU D 570     -19.500  -6.345 -13.794  1.00 32.92     0.043 C 
BRANCH  15  16
ATOM     16  CG  GLU D 570     -19.812  -5.952 -15.193  1.00 32.92     0.100 C 
BRANCH  16  17
ATOM     17  CD  GLU D 570     -21.285  -5.710 -15.422  1.00 32.92     0.185 C 
ATOM     18  OE1 GLU D 570     -22.070  -6.677 -15.388  1.00 32.92    -0.647 OA
ATOM     19  OE2 GLU D 570     -21.657  -4.543 -15.656  1.00 32.92    -0.647 OA
ENDBRANCH  16  17
ENDBRANCH  15  16
ENDBRANCH  14  15
END_RES GLU D 570
ENDMDL
MODEL 3
REMARK VINA RESULT:      -6.4      4.850     10.180
REMARK  16 active torsions:
REMARK  status: ('A' for Active; 'I' for Inactive)
REMARK    1  A    between atoms: C_2  and  C_3 
REMARK    2  A    between atoms: C_3  and  C_4 
REMARK    3  A    between atoms: C_4  and  C_5 
REMARK    4  A    between atoms: C_5  and  C_6 
REMARK    5  A    between atoms: C_6  and  C_7 
REMARK    6  A    between atoms: C_7  and  C_8 
REMARK    7  A    between atoms: C_8  and  O_9 
REMARK    8  A    between atoms: O_9  and  C_10 
REMARK    9  A    between atoms: C_10  and  O_12 
REMARK   10  A    between atoms: O_12  and  C_13 
REMARK   11  A    between atoms: C_13  and  C_14 
REMARK   12  A    between atoms: C_14  and  C_15 
REMARK   13  A    between atoms: C_15  and  C_16 
REMARK   14  A    between atoms: C_16  and  C_17 
REMARK   15  A    between atoms: C_17  and  C_18 
REMARK   16  A    between atoms: C_18  and  C_19 
ROOT
HETATM    1  C   UNL     1     -21.669  -5.954  -5.990  1.00  0.00     0.406 C 
HETATM    2  O   UNL     1     -20.925  -6.778  -6.518  1.00  0.00    -0.230 OA
ENDROOT
BRANCH   1   3
HETATM    3  O   UNL     1     -22.098  -5.964  -4.700  1.00  0.00    -0.298 OA
BRANCH   3   4
HETATM    4  C   UNL     1     -21.716  -7.107  -3.933  1.00  0.00     0.181 C 
BRANCH   4   5
HETATM    5  C   UNL     1     -21.203  -6.735  -2.545  1.00  0.00     0.027 C 
BRANCH   5   6
HETATM    6  C   UNL     1     -22.347  -6.703  -1.527  1.00  0.00     0.002 C 
BRANCH   6   7
HETATM    7  C   UNL     1     -21.964  -7.427  -0.239  1.00  0.00     0.000 C 
BRANCH   7   8
HETATM    8  C   UNL     1     -23.085  -8.358   0.218  1.00  0.00     0.000 C 
BRANCH   8   9
HETATM    9  C   UNL     1     -22.903  -9.749  -0.376  1.00  0.00    -0.000 C 
BRANCH   9  10
HETATM   10  C   UNL     1     -24.079 -10.652  -0.018  1.00  0.00    -0.005 C 
HETATM   11  C   UNL     1     -23.652 -12.108  -0.006  1.00  0.00     0.005 C 
ENDBRANCH   9  10
ENDBRANCH   8   9
ENDBRANCH   7   8
ENDBRANCH   6   7
ENDBRANCH   5   6
ENDBRANCH   4   5
ENDBRANCH   3   4
ENDBRANCH   1   3
BRANCH   1  12
HETATM   12  O   UNL     1     -22.216  -4.861  -6.589  1.00  0.00    -0.298 OA
BRANCH  12  13
HETATM   13  C   UNL     1     -21.359  -4.162  -7.492  1.00  0.00     0.181 C 
BRANCH  13  14
HETATM   14  C   UNL     1     -22.039  -3.854  -8.822  1.00  0.00     0.027 C 
BRANCH  14  15
HETATM   15  C   UNL     1     -21.251  -4.447  -9.994  1.00  0.00     0.002 C 
BRANCH  15  16
HETATM   16  C   UNL     1     -20.996  -3.403 -11.078  1.00  0.00     0.000 C 
BRANCH  16  17
HETATM   17  C   UNL     1     -22.227  -3.220 -11.960  1.00  0.00     0.000 C 
BRANCH  17  18
HETATM   18  C   UNL     1     -22.836  -4.571 -12.319  1.00  0.00    -0.000 C 
BRANCH  18  19
HETATM   19  C   UNL     1     -22.791  -4.804 -13.826  1.00  0.00    -0.005 C 
HETATM   20  C   UNL     1     -23.677  -5.974 -14.212  1.00  0.00     0.005 C 
ENDBRANCH  18  19
ENDBRANCH  17  18
ENDBRANCH  16  17
ENDBRANCH  15  16
ENDBRANCH  14  15
ENDBRANCH  13  14
ENDBRANCH  12  13
ENDBRANCH   1  12
TORSDOF 16
BEGIN_RES ARG D 557
REMARK  4 active torsions:
REMARK  status: ('A' for Active; 'I' for Inactive)
REMARK    1  A    between atoms: CA   and  CB  
REMARK    2  A    between atoms: CB   and  CG  
REMARK    3  A    between atoms: CG   and  CD  
REMARK    4  A    between atoms: CD   and  NE  
REMARK       I    between atoms: NE   and  CZ  
REMARK       I    between atoms: CZ   and  NH1 
REMARK       I    between atoms: CZ   and  NH2 
ROOT
ATOM      1  CA  ARG D 557     -26.217   2.705 -17.014  1.00 35.49     0.159 C 
ENDROOT
BRANCH   1   2
ATOM      2  CB  ARG D 557     -26.789   1.319 -17.183  1.00 35.49     0.034 C 
BRANCH   2   3
ATOM      3  CG  ARG D 557     -28.242   1.222 -17.370  1.00 35.49     0.027 C 
BRANCH   3   4
ATOM      4  CD  ARG D 557     -28.867   0.254 -16.441  1.00 35.49     0.116 C 
BRANCH   4   5
ATOM      5  NE  ARG D 557     -29.297  -0.944 -17.113  1.00 35.49    -0.212 N 
ATOM      6  CZ  ARG D 557     -28.704  -2.115 -17.050  1.00 35.49     0.666 C 
ATOM      7  NH1 ARG D 557     -27.605  -2.316 -16.348  1.00 35.49    -0.235 N 
ATOM      8  NH2 ARG D 557     -29.246  -3.098 -17.709  1.00 35.49    -0.235 N 
ATOM      9  HH  ARG D 557     -27.232  -1.684 -15.905  1.00 35.49     0.174 HD
ATOM     10  HH  ARG D 557     -27.264  -3.102 -16.342  1.00 35.49     0.174 HD
ATOM     11  HH  ARG D 557     -29.960  -2.940 -18.148  1.00 35.49     0.174 HD
ATOM     12  HH  ARG D 557     -28.894  -3.869 -17.689  1.00 35.49     0.174 HD
ATOM     13  HE  ARG D 557     -29.957  -0.887 -17.646  1.00 35.49     0.178 HD
ENDBRANCH   4   5
ENDBRANCH   3   4
ENDBRANCH   2   3
ENDBRANCH   1   2
END_RES ARG D 557
BEGIN_RES GLU D 570
REMARK  3 active torsions:
REMARK  status: ('A' for Active; 'I' for Inactive)
REMARK    5  A    between atoms: CA   and  CB  
REMARK    6  A    between atoms: CB   and  CG  
REMARK    7  A    between atoms: CG   and  CD  
ROOT
ATOM     14  CA  GLU D 570     -18.033  -6.348 -13.375  1.00 32.92     0.160 C 
ENDROOT
BRANCH  14  15
ATOM     15  CB  GLU D 570     -19.500  -6.345 -13.794  1.00 32.92     0.043 C 
BRANCH  15  16
ATOM     16  CG  GLU D 570     -20.088  -7.636 -14.236  1.00 32.92     0.100 C 
BRANCH  16  17
ATOM     17  CD  GLU D 570     -20.653  -7.577 -15.636  1.00 32.92     0.185 C 
ATOM     18  OE1 GLU D 570     -20.583  -6.508 -16.273  1.00 32.92    -0.647 OA
ATOM     19  OE2 GLU D 570     -21.186  -8.607 -16.096  1.00 32.92    -0.647 OA
ENDBRANCH  16  17
ENDBRANCH  15  16
ENDBRANCH  14  15
END_RES GLU D 570
ENDMDL
MODEL 4
REMARK VINA RESULT:      -6.4      4.897      8.028
REMARK  16 active torsions:
REMARK  status: ('A' for Active; 'I' for Inactive)
REMARK    1  A    between atoms: C_2  and  C_3 
REMARK    2  A    between atoms: C_3  and  C_4 
REMARK    3  A    between atoms: C_4  and  C_5 
REMARK    4  A    between atoms: C_5  and  C_6 
REMARK    5  A    between atoms: C_6  and  C_7 
REMARK    6  A    between atoms: C_7  and  C_8 
REMARK    7  A    between atoms: C_8  and  O_9 
REMARK    8  A    between atoms: O_9  and  C_10 
REMARK    9  A    between atoms: C_10  and  O_12 
REMARK   10  A    between atoms: O_12  and  C_13 
REMARK   11  A    between atoms: C_13  and  C_14 
REMARK   12  A    between atoms: C_14  and  C_15 
REMARK   13  A    between atoms: C_15  and  C_16 
REMARK   14  A    between atoms: C_16  and  C_17 
REMARK   15  A    between atoms: C_17  and  C_18 
REMARK   16  A    between atoms: C_18  and  C_19 
ROOT
HETATM    1  C   UNL     1     -21.376  -6.505  -6.044  1.00  0.00     0.406 C 
HETATM    2  O   UNL     1     -21.077  -7.685  -6.206  1.00  0.00    -0.230 OA
ENDROOT
BRANCH   1   3
HETATM    3  O   UNL     1     -21.338  -5.526  -6.987  1.00  0.00    -0.298 OA
BRANCH   3   4
HETATM    4  C   UNL     1     -20.034  -5.155  -7.436  1.00  0.00     0.181 C 
BRANCH   4   5
HETATM    5  C   UNL     1     -20.073  -4.080  -8.518  1.00  0.00     0.027 C 
BRANCH   5   6
HETATM    6  C   UNL     1     -20.253  -4.702  -9.906  1.00  0.00     0.002 C 
BRANCH   6   7
HETATM    7  C   UNL     1     -20.445  -3.630 -10.976  1.00  0.00     0.000 C 
BRANCH   7   8
HETATM    8  C   UNL     1     -21.919  -3.266 -11.127  1.00  0.00     0.000 C 
BRANCH   8   9
HETATM    9  C   UNL     1     -22.763  -4.519 -11.327  1.00  0.00    -0.000 C 
BRANCH   9  10
HETATM   10  C   UNL     1     -24.041  -4.452 -10.497  1.00  0.00    -0.005 C 
HETATM   11  C   UNL     1     -23.762  -3.852  -9.131  1.00  0.00     0.005 C 
ENDBRANCH   9  10
ENDBRANCH   8   9
ENDBRANCH   7   8
ENDBRANCH   6   7
ENDBRANCH   5   6
ENDBRANCH   4   5
ENDBRANCH   3   4
ENDBRANCH   1   3
BRANCH   1  12
HETATM   12  O   UNL     1     -21.809  -5.933  -4.888  1.00  0.00    -0.298 OA
BRANCH  12  13
HETATM   13  C   UNL     1     -21.825  -6.792  -3.747  1.00  0.00     0.181 C 
BRANCH  13  14
HETATM   14  C   UNL     1     -21.552  -6.041  -2.447  1.00  0.00     0.027 C 
BRANCH  14  15
HETATM   15  C   UNL     1     -22.381  -6.617  -1.295  1.00  0.00     0.002 C 
BRANCH  15  16
HETATM   16  C   UNL     1     -21.713  -7.852  -0.693  1.00  0.00     0.000 C 
BRANCH  16  17
HETATM   17  C   UNL     1     -22.743  -8.759  -0.025  1.00  0.00     0.000 C 
BRANCH  17  18
HETATM   18  C   UNL     1     -22.860 -10.082  -0.774  1.00  0.00    -0.000 C 
BRANCH  18  19
HETATM   19  C   UNL     1     -24.000 -10.926  -0.213  1.00  0.00    -0.005 C 
HETATM   20  C   UNL     1     -23.463 -12.196   0.421  1.00  0.00     0.005 C 
ENDBRANCH  18  19
ENDBRANCH  17  18
ENDBRANCH  16  17
ENDBRANCH  15  16
ENDBRANCH  14  15
ENDBRANCH  13  14
ENDBRANCH  12  13
ENDBRANCH   1  12
TORSDOF 16
BEGIN_RES ARG D 557
REMARK  4 active torsions:
REMARK  status: ('A' for Active; 'I' for Inactive)
REMARK    1  A    between atoms: CA   and  CB  
REMARK    2  A    between atoms: CB   and  CG  
REMARK    3  A    between atoms: CG   and  CD  
REMARK    4  A    between atoms: CD   and  NE  
REMARK       I    between atoms: NE   and  CZ  
REMARK       I    between atoms: CZ   and  NH1 
REMARK       I    between atoms: CZ   and  NH2 
ROOT
ATOM      1  CA  ARG D 557     -26.217   2.705 -17.014  1.00 35.49     0.159 C 
ENDROOT
BRANCH   1   2
ATOM      2  CB  ARG D 557     -26.789   1.319 -17.183  1.00 35.49     0.034 C 
BRANCH   2   3
ATOM      3  CG  ARG D 557     -28.230   1.227 -17.448  1.00 35.49     0.027 C 
BRANCH   3   4
ATOM      4  CD  ARG D 557     -28.918   0.310 -16.511  1.00 35.49     0.116 C 
BRANCH   4   5
ATOM      5  NE  ARG D 557     -29.309  -0.921 -17.145  1.00 35.49    -0.212 N 
ATOM      6  CZ  ARG D 557     -28.682  -2.072 -17.039  1.00 35.49     0.666 C 
ATOM      7  NH1 ARG D 557     -27.581  -2.217 -16.325  1.00 35.49    -0.235 N 
ATOM      8  NH2 ARG D 557     -29.191  -3.092 -17.667  1.00 35.49    -0.235 N 
ATOM      9  HH  ARG D 557     -27.231  -1.560 -15.901  1.00 35.49     0.174 HD
ATOM     10  HH  ARG D 557     -27.218  -2.992 -16.290  1.00 35.49     0.174 HD
ATOM     11  HH  ARG D 557     -29.906  -2.971 -18.115  1.00 35.49     0.174 HD
ATOM     12  HH  ARG D 557     -28.817  -3.852 -17.619  1.00 35.49     0.174 HD
ATOM     13  HE  ARG D 557     -29.967  -0.902 -17.683  1.00 35.49     0.178 HD
ENDBRANCH   4   5
ENDBRANCH   3   4
ENDBRANCH   2   3
ENDBRANCH   1   2
END_RES ARG D 557
BEGIN_RES GLU D 570
REMARK  3 active torsions:
REMARK  status: ('A' for Active; 'I' for Inactive)
REMARK    5  A    between atoms: CA   and  CB  
REMARK    6  A    between atoms: CB   and  CG  
REMARK    7  A    between atoms: CG   and  CD  
ROOT
ATOM     14  CA  GLU D 570     -18.033  -6.348 -13.375  1.00 32.92     0.160 C 
ENDROOT
BRANCH  14  15
ATOM     15  CB  GLU D 570     -19.500  -6.345 -13.794  1.00 32.92     0.043 C 
BRANCH  15  16
ATOM     16  CG  GLU D 570     -19.809  -5.979 -15.200  1.00 32.92     0.100 C 
BRANCH  16  17
ATOM     17  CD  GLU D 570     -21.265  -5.636 -15.413  1.00 32.92     0.185 C 
ATOM     18  OE1 GLU D 570     -22.113  -6.065 -14.607  1.00 32.92    -0.647 OA
ATOM     19  OE2 GLU D 570     -21.564  -4.944 -16.407  1.00 32.92    -0.647 OA
ENDBRANCH  16  17
ENDBRANCH  15  16
ENDBRANCH  14  15
END_RES GLU D 570
ENDMDL
MODEL 5
REMARK VINA RESULT:      -6.3      4.864     10.136
REMARK  16 active torsions:
REMARK  status: ('A' for Active; 'I' for Inactive)
REMARK    1  A    between atoms: C_2  and  C_3 
REMARK    2  A    between atoms: C_3  and  C_4 
REMARK    3  A    between atoms: C_4  and  C_5 
REMARK    4  A    between atoms: C_5  and  C_6 
REMARK    5  A    between atoms: C_6  and  C_7 
REMARK    6  A    between atoms: C_7  and  C_8 
REMARK    7  A    between atoms: C_8  and  O_9 
REMARK    8  A    between atoms: O_9  and  C_10 
REMARK    9  A    between atoms: C_10  and  O_12 
REMARK   10  A    between atoms: O_12  and  C_13 
REMARK   11  A    between atoms: C_13  and  C_14 
REMARK   12  A    between atoms: C_14  and  C_15 
REMARK   13  A    between atoms: C_15  and  C_16 
REMARK   14  A    between atoms: C_16  and  C_17 
REMARK   15  A    between atoms: C_17  and  C_18 
REMARK   16  A    between atoms: C_18  and  C_19 
ROOT
HETATM    1  C   UNL     1     -21.255  -7.655  -5.178  1.00  0.00     0.406 C 
HETATM    2  O   UNL     1     -21.136  -8.681  -5.844  1.00  0.00    -0.230 OA
ENDROOT
BRANCH   1   3
HETATM    3  O   UNL     1     -21.337  -7.577  -3.823  1.00  0.00    -0.298 OA
BRANCH   3   4
HETATM    4  C   UNL     1     -21.510  -6.262  -3.292  1.00  0.00     0.181 C 
BRANCH   4   5
HETATM    5  C   UNL     1     -22.188  -6.269  -1.925  1.00  0.00     0.027 C 
BRANCH   5   6
HETATM    6  C   UNL     1     -21.720  -7.461  -1.085  1.00  0.00     0.002 C 
BRANCH   6   7
HETATM    7  C   UNL     1     -22.612  -7.664   0.137  1.00  0.00     0.000 C 
BRANCH   7   8
HETATM    8  C   UNL     1     -23.208  -9.069   0.151  1.00  0.00     0.000 C 
BRANCH   8   9
HETATM    9  C   UNL     1     -22.123 -10.115  -0.077  1.00  0.00    -0.000 C 
BRANCH   9  10
HETATM   10  C   UNL     1     -22.600 -11.191  -1.048  1.00  0.00    -0.005 C 
HETATM   11  C   UNL     1     -24.096 -11.408  -0.914  1.00  0.00     0.005 C 
ENDBRANCH   9  10
ENDBRANCH   8   9
ENDBRANCH   7   8
ENDBRANCH   6   7
ENDBRANCH   5   6
ENDBRANCH   4   5
ENDBRANCH   3   4
ENDBRANCH   1   3
BRANCH   1  12
HETATM   12  O   UNL     1     -21.329  -6.384  -5.660  1.00  0.00    -0.298 OA
BRANCH  12  13
HETATM   13  C   UNL     1     -20.334  -6.034  -6.624  1.00  0.00     0.181 C 
BRANCH  13  14
HETATM   14  C   UNL     1     -20.050  -4.535  -6.650  1.00  0.00     0.027 C 
BRANCH  14  15
HETATM   15  C   UNL     1     -19.502  -4.103  -8.014  1.00  0.00     0.002 C 
BRANCH  15  16
HETATM   16  C   UNL     1     -20.198  -4.845  -9.153  1.00  0.00     0.000 C 
BRANCH  16  17
HETATM   17  C   UNL     1     -21.376  -4.038  -9.691  1.00  0.00     0.000 C 
BRANCH  17  18
HETATM   18  C   UNL     1     -22.696  -4.627  -9.205  1.00  0.00    -0.000 C 
BRANCH  18  19
HETATM   19  C   UNL     1     -23.717  -4.683 -10.338  1.00  0.00    -0.005 C 
HETATM   20  C   UNL     1     -24.447  -3.359 -10.465  1.00  0.00     0.005 C 
ENDBRANCH  18  19
ENDBRANCH  17  18
ENDBRANCH  16  17
ENDBRANCH  15  16
ENDBRANCH  14  15
ENDBRANCH  13  14
ENDBRANCH  12  13
ENDBRANCH   1  12
TORSDOF 16
BEGIN_RES ARG D 557
REMARK  4 active torsions:
REMARK  status: ('A' for Active; 'I' for Inactive)
REMARK    1  A    between atoms: CA   and  CB  
REMARK    2  A    between atoms: CB   and  CG  
REMARK    3  A    between atoms: CG   and  CD  
REMARK    4  A    between atoms: CD   and  NE  
REMARK       I    between atoms: NE   and  CZ  
REMARK       I    between atoms: CZ   and  NH1 
REMARK       I    between atoms: CZ   and  NH2 
ROOT
ATOM      1  CA  ARG D 557     -26.217   2.705 -17.014  1.00 35.49     0.159 C 
ENDROOT
BRANCH   1   2
ATOM      2  CB  ARG D 557     -26.789   1.319 -17.183  1.00 35.49     0.034 C 
BRANCH   2   3
ATOM      3  CG  ARG D 557     -25.930   0.197 -16.786  1.00 35.49     0.027 C 
BRANCH   3   4
ATOM      4  CD  ARG D 557     -26.681  -0.867 -16.082  1.00 35.49     0.116 C 
BRANCH   4   5
ATOM      5  NE  ARG D 557     -25.862  -1.567 -15.127  1.00 35.49    -0.212 N 
ATOM      6  CZ  ARG D 557     -25.945  -2.846 -14.836  1.00 35.49     0.666 C 
ATOM      7  NH1 ARG D 557     -26.829  -3.646 -15.401  1.00 35.49    -0.235 N 
ATOM      8  NH2 ARG D 557     -25.106  -3.317 -13.959  1.00 35.49    -0.235 N 
ATOM      9  HH  ARG D 557     -27.389  -3.358 -15.983  1.00 35.49     0.174 HD
ATOM     10  HH  ARG D 557     -26.834  -4.473 -15.174  1.00 35.49     0.174 HD
ATOM     11  HH  ARG D 557     -24.541  -2.778 -13.615  1.00 35.49     0.174 HD
ATOM     12  HH  ARG D 557     -25.126  -4.138 -13.748  1.00 35.49     0.174 HD
ATOM     13  HE  ARG D 557     -25.314  -1.113 -14.662  1.00 35.49     0.178 HD
ENDBRANCH   4   5
ENDBRANCH   3   4
ENDBRANCH   2   3
ENDBRANCH   1   2
END_RES ARG D 557
BEGIN_RES GLU D 570
REMARK  3 active torsions:
REMARK  status: ('A' for Active; 'I' for Inactive)
REMARK    5  A    between atoms: CA   and  CB  
REMARK    6  A    between atoms: CB   and  CG  
REMARK    7  A    between atoms: CG   and  CD  
ROOT
ATOM     14  CA  GLU D 570     -18.033  -6.348 -13.375  1.00 32.92     0.160 C 
ENDROOT
BRANCH  14  15
ATOM     15  CB  GLU D 570     -19.500  -6.345 -13.794  1.00 32.92     0.043 C 
BRANCH  15  16
ATOM     16  CG  GLU D 570     -20.440  -5.524 -12.988  1.00 32.92     0.100 C 
BRANCH  16  17
ATOM     17  CD  GLU D 570     -21.725  -5.211 -13.720  1.00 32.92     0.185 C 
ATOM     18  OE1 GLU D 570     -22.322  -4.147 -13.467  1.00 32.92    -0.647 OA
ATOM     19  OE2 GLU D 570     -22.148  -6.047 -14.543  1.00 32.92    -0.647 OA
ENDBRANCH  16  17
ENDBRANCH  15  16
ENDBRANCH  14  15
END_RES GLU D 570
ENDMDL
MODEL 6
REMARK VINA RESULT:      -6.2      2.608      4.337
REMARK  16 active torsions:
REMARK  status: ('A' for Active; 'I' for Inactive)
REMARK    1  A    between atoms: C_2  and  C_3 
REMARK    2  A    between atoms: C_3  and  C_4 
REMARK    3  A    between atoms: C_4  and  C_5 
REMARK    4  A    between atoms: C_5  and  C_6 
REMARK    5  A    between atoms: C_6  and  C_7 
REMARK    6  A    between atoms: C_7  and  C_8 
REMARK    7  A    between atoms: C_8  and  O_9 
REMARK    8  A    between atoms: O_9  and  C_10 
REMARK    9  A    between atoms: C_10  and  O_12 
REMARK   10  A    between atoms: O_12  and  C_13 
REMARK   11  A    between atoms: C_13  and  C_14 
REMARK   12  A    between atoms: C_14  and  C_15 
REMARK   13  A    between atoms: C_15  and  C_16 
REMARK   14  A    between atoms: C_16  and  C_17 
REMARK   15  A    between atoms: C_17  and  C_18 
REMARK   16  A    between atoms: C_18  and  C_19 
ROOT
HETATM    1  C   UNL     1     -24.740  -3.676 -10.098  1.00  0.00     0.406 C 
HETATM    2  O   UNL     1     -25.689  -2.980  -9.744  1.00  0.00    -0.230 OA
ENDROOT
BRANCH   1   3
HETATM    3  O   UNL     1     -24.434  -4.036 -11.373  1.00  0.00    -0.298 OA
BRANCH   3   4
HETATM    4  C   UNL     1     -24.537  -2.997 -12.347  1.00  0.00     0.181 C 
BRANCH   4   5
HETATM    5  C   UNL     1     -23.203  -2.700 -13.027  1.00  0.00     0.027 C 
BRANCH   5   6
HETATM    6  C   UNL     1     -22.370  -3.975 -13.185  1.00  0.00     0.002 C 
BRANCH   6   7
HETATM    7  C   UNL     1     -22.674  -4.677 -14.506  1.00  0.00     0.000 C 
BRANCH   7   8
HETATM    8  C   UNL     1     -23.455  -5.968 -14.272  1.00  0.00     0.000 C 
BRANCH   8   9
HETATM    9  C   UNL     1     -24.747  -5.967 -15.081  1.00  0.00    -0.000 C 
BRANCH   9  10
HETATM   10  C   UNL     1     -24.901  -7.269 -15.861  1.00  0.00    -0.005 C 
HETATM   11  C   UNL     1     -24.071  -7.233 -17.131  1.00  0.00     0.005 C 
ENDBRANCH   9  10
ENDBRANCH   8   9
ENDBRANCH   7   8
ENDBRANCH   6   7
ENDBRANCH   5   6
ENDBRANCH   4   5
ENDBRANCH   3   4
ENDBRANCH   1   3
BRANCH   1  12
HETATM   12  O   UNL     1     -23.798  -4.229  -9.286  1.00  0.00    -0.298 OA
BRANCH  12  13
HETATM   13  C   UNL     1     -22.491  -3.661  -9.384  1.00  0.00     0.181 C 
BRANCH  13  14
HETATM   14  C   UNL     1     -21.449  -4.457  -8.606  1.00  0.00     0.027 C 
BRANCH  14  15
HETATM   15  C   UNL     1     -21.798  -4.512  -7.115  1.00  0.00     0.002 C 
BRANCH  15  16
HETATM   16  C   UNL     1     -20.542  -4.468  -6.248  1.00  0.00     0.000 C 
BRANCH  16  17
HETATM   17  C   UNL     1     -20.653  -5.440  -5.077  1.00  0.00     0.000 C 
BRANCH  17  18
HETATM   18  C   UNL     1     -21.839  -6.378  -5.268  1.00  0.00    -0.000 C 
BRANCH  18  19
HETATM   19  C   UNL     1     -21.369  -7.816  -5.464  1.00  0.00    -0.005 C 
HETATM   20  C   UNL     1     -21.616  -8.634  -4.209  1.00  0.00     0.005 C 
ENDBRANCH  18  19
ENDBRANCH  17  18
ENDBRANCH  16  17
ENDBRANCH  15  16
ENDBRANCH  14  15
ENDBRANCH  13  14
ENDBRANCH  12  13
ENDBRANCH   1  12
TORSDOF 16
BEGIN_RES ARG D 557
REMARK  4 active torsions:
REMARK  status: ('A' for Active; 'I' for Inactive)
REMARK    1  A    between atoms: CA   and  CB  
REMARK    2  A    between atoms: CB   and  CG  
REMARK    3  A    between atoms: CG   and  CD  
REMARK    4  A    between atoms: CD   and  NE  
REMARK       I    between atoms: NE   and  CZ  
REMARK       I    between atoms: CZ   and  NH1 
REMARK       I    between atoms: CZ   and  NH2 
ROOT
ATOM      1  CA  ARG D 557     -26.217   2.705 -17.014  1.00 35.49     0.159 C 
ENDROOT
BRANCH   1   2
ATOM      2  CB  ARG D 557     -26.789   1.319 -17.183  1.00 35.49     0.034 C 
BRANCH   2   3
ATOM      3  CG  ARG D 557     -28.217   1.153 -16.886  1.00 35.49     0.027 C 
BRANCH   3   4
ATOM      4  CD  ARG D 557     -28.607  -0.271 -16.767  1.00 35.49     0.116 C 
BRANCH   4   5
ATOM      5  NE  ARG D 557     -27.620  -1.045 -16.061  1.00 35.49    -0.212 N 
ATOM      6  CZ  ARG D 557     -27.474  -2.350 -16.130  1.00 35.49     0.666 C 
ATOM      7  NH1 ARG D 557     -28.256  -3.112 -16.872  1.00 35.49    -0.235 N 
ATOM      8  NH2 ARG D 557     -26.511  -2.884 -15.437  1.00 35.49    -0.235 N 
ATOM      9  HH  ARG D 557     -28.895  -2.782 -17.338  1.00 35.49     0.174 HD
ATOM     10  HH  ARG D 557     -28.112  -3.957 -16.880  1.00 35.49     0.174 HD
ATOM     11  HH  ARG D 557     -26.017  -2.366 -14.973  1.00 35.49     0.174 HD
ATOM     12  HH  ARG D 557     -26.383  -3.722 -15.460  1.00 35.49     0.174 HD
ATOM     13  HE  ARG D 557     -27.120  -0.643 -15.503  1.00 35.49     0.178 HD
ENDBRANCH   4   5
ENDBRANCH   3   4
ENDBRANCH   2   3
ENDBRANCH   1   2
END_RES ARG D 557
BEGIN_RES GLU D 570
REMARK  3 active torsions:
REMARK  status: ('A' for Active; 'I' for Inactive)
REMARK    5  A    between atoms: CA   and  CB  
REMARK    6  A    between atoms: CB   and  CG  
REMARK    7  A    between atoms: CG   and  CD  
ROOT
ATOM     14  CA  GLU D 570     -18.033  -6.348 -13.375  1.00 32.92     0.160 C 
ENDROOT
BRANCH  14  15
ATOM     15  CB  GLU D 570     -19.500  -6.345 -13.794  1.00 32.92     0.043 C 
BRANCH  15  16
ATOM     16  CG  GLU D 570     -20.101  -7.644 -14.193  1.00 32.92     0.100 C 
BRANCH  16  17
ATOM     17  CD  GLU D 570     -20.571  -7.660 -15.629  1.00 32.92     0.185 C 
ATOM     18  OE1 GLU D 570     -20.429  -6.635 -16.323  1.00 32.92    -0.647 OA
ATOM     19  OE2 GLU D 570     -21.101  -8.703 -16.059  1.00 32.92    -0.647 OA
ENDBRANCH  16  17
ENDBRANCH  15  16
ENDBRANCH  14  15
END_RES GLU D 570
ENDMDL
MODEL 7
REMARK VINA RESULT:      -6.0      6.412     10.011
REMARK  16 active torsions:
REMARK  status: ('A' for Active; 'I' for Inactive)
REMARK    1  A    between atoms: C_2  and  C_3 
REMARK    2  A    between atoms: C_3  and  C_4 
REMARK    3  A    between atoms: C_4  and  C_5 
REMARK    4  A    between atoms: C_5  and  C_6 
REMARK    5  A    between atoms: C_6  and  C_7 
REMARK    6  A    between atoms: C_7  and  C_8 
REMARK    7  A    between atoms: C_8  and  O_9 
REMARK    8  A    between atoms: O_9  and  C_10 
REMARK    9  A    between atoms: C_10  and  O_12 
REMARK   10  A    between atoms: O_12  and  C_13 
REMARK   11  A    between atoms: C_13  and  C_14 
REMARK   12  A    between atoms: C_14  and  C_15 
REMARK   13  A    between atoms: C_15  and  C_16 
REMARK   14  A    between atoms: C_16  and  C_17 
REMARK   15  A    between atoms: C_17  and  C_18 
REMARK   16  A    between atoms: C_18  and  C_19 
ROOT
HETATM    1  C   UNL     1     -21.764  -6.758  -2.150  1.00  0.00     0.406 C 
HETATM    2  O   UNL     1     -22.608  -5.865  -2.166  1.00  0.00    -0.230 OA
ENDROOT
BRANCH   1   3
HETATM    3  O   UNL     1     -20.992  -7.158  -3.195  1.00  0.00    -0.298 OA
BRANCH   3   4
HETATM    4  C   UNL     1     -21.201  -6.454  -4.420  1.00  0.00     0.181 C 
BRANCH   4   5
HETATM    5  C   UNL     1     -20.422  -7.061  -5.583  1.00  0.00     0.027 C 
BRANCH   5   6
HETATM    6  C   UNL     1     -20.050  -5.991  -6.615  1.00  0.00     0.002 C 
BRANCH   6   7
HETATM    7  C   UNL     1     -20.432  -4.595  -6.130  1.00  0.00     0.000 C 
BRANCH   7   8
HETATM    8  C   UNL     1     -20.955  -3.740  -7.282  1.00  0.00     0.000 C 
BRANCH   8   9
HETATM    9  C   UNL     1     -20.271  -4.124  -8.588  1.00  0.00    -0.000 C 
BRANCH   9  10
HETATM   10  C   UNL     1     -21.267  -4.127  -9.744  1.00  0.00    -0.005 C 
HETATM   11  C   UNL     1     -22.688  -4.250  -9.225  1.00  0.00     0.005 C 
ENDBRANCH   9  10
ENDBRANCH   8   9
ENDBRANCH   7   8
ENDBRANCH   6   7
ENDBRANCH   5   6
ENDBRANCH   4   5
ENDBRANCH   3   4
ENDBRANCH   1   3
BRANCH   1  12
HETATM   12  O   UNL     1     -21.428  -7.531  -1.082  1.00  0.00    -0.298 OA
BRANCH  12  13
HETATM   13  C   UNL     1     -20.978  -8.850  -1.394  1.00  0.00     0.181 C 
BRANCH  13  14
HETATM   14  C   UNL     1     -21.572  -9.904  -0.466  1.00  0.00     0.027 C 
BRANCH  14  15
HETATM   15  C   UNL     1     -23.066  -9.654  -0.235  1.00  0.00     0.002 C 
BRANCH  15  16
HETATM   16  C   UNL     1     -23.893 -10.897  -0.551  1.00  0.00     0.000 C 
BRANCH  16  17
HETATM   17  C   UNL     1     -23.606 -12.013   0.450  1.00  0.00     0.000 C 
BRANCH  17  18
HETATM   18  C   UNL     1     -23.712 -13.377  -0.223  1.00  0.00    -0.000 C 
BRANCH  18  19
HETATM   19  C   UNL     1     -23.417 -14.498   0.770  1.00  0.00    -0.005 C 
HETATM   20  C   UNL     1     -23.404 -13.963   2.190  1.00  0.00     0.005 C 
ENDBRANCH  18  19
ENDBRANCH  17  18
ENDBRANCH  16  17
ENDBRANCH  15  16
ENDBRANCH  14  15
ENDBRANCH  13  14
ENDBRANCH  12  13
ENDBRANCH   1  12
TORSDOF 16
BEGIN_RES ARG D 557
REMARK  4 active torsions:
REMARK  status: ('A' for Active; 'I' for Inactive)
REMARK    1  A    between atoms: CA   and  CB  
REMARK    2  A    between atoms: CB   and  CG  
REMARK    3  A    between atoms: CG   and  CD  
REMARK    4  A    between atoms: CD   and  NE  
REMARK       I    between atoms: NE   and  CZ  
REMARK       I    between atoms: CZ   and  NH1 
REMARK       I    between atoms: CZ   and  NH2 
ROOT
ATOM      1  CA  ARG D 557     -26.217   2.705 -17.014  1.00 35.49     0.159 C 
ENDROOT
BRANCH   1   2
ATOM      2  CB  ARG D 557     -26.789   1.319 -17.183  1.00 35.49     0.034 C 
BRANCH   2   3
ATOM      3  CG  ARG D 557     -25.836   0.203 -17.153  1.00 35.49     0.027 C 
BRANCH   3   4
ATOM      4  CD  ARG D 557     -24.773   0.396 -16.141  1.00 35.49     0.116 C 
BRANCH   4   5
ATOM      5  NE  ARG D 557     -24.943  -0.470 -15.004  1.00 35.49    -0.212 N 
ATOM      6  CZ  ARG D 557     -24.134  -1.443 -14.651  1.00 35.49     0.666 C 
ATOM      7  NH1 ARG D 557     -23.048  -1.746 -15.338  1.00 35.49    -0.235 N 
ATOM      8  NH2 ARG D 557     -24.433  -2.113 -13.576  1.00 35.49    -0.235 N 
ATOM      9  HH  ARG D 557     -22.830  -1.317 -16.047  1.00 35.49     0.174 HD
ATOM     10  HH  ARG D 557     -22.556  -2.390 -15.058  1.00 35.49     0.174 HD
ATOM     11  HH  ARG D 557     -25.137  -1.891 -13.149  1.00 35.49     0.174 HD
ATOM     12  HH  ARG D 557     -23.933  -2.746 -13.315  1.00 35.49     0.174 HD
ATOM     13  HE  ARG D 557     -25.656  -0.392 -14.546  1.00 35.49     0.178 HD
ENDBRANCH   4   5
ENDBRANCH   3   4
ENDBRANCH   2   3
ENDBRANCH   1   2
END_RES ARG D 557
BEGIN_RES GLU D 570
REMARK  3 active torsions:
REMARK  status: ('A' for Active; 'I' for Inactive)
REMARK    5  A    between atoms: CA   and  CB  
REMARK    6  A    between atoms: CB   and  CG  
REMARK    7  A    between atoms: CG   and  CD  
ROOT
ATOM     14  CA  GLU D 570     -18.033  -6.348 -13.375  1.00 32.92     0.160 C 
ENDROOT
BRANCH  14  15
ATOM     15  CB  GLU D 570     -19.500  -6.345 -13.794  1.00 32.92     0.043 C 
BRANCH  15  16
ATOM     16  CG  GLU D 570     -20.434  -5.494 -13.011  1.00 32.92     0.100 C 
BRANCH  16  17
ATOM     17  CD  GLU D 570     -21.693  -5.149 -13.771  1.00 32.92     0.185 C 
ATOM     18  OE1 GLU D 570     -22.445  -4.261 -13.324  1.00 32.92    -0.647 OA
ATOM     19  OE2 GLU D 570     -21.939  -5.784 -14.815  1.00 32.92    -0.647 OA
ENDBRANCH  16  17
ENDBRANCH  15  16
ENDBRANCH  14  15
END_RES GLU D 570
ENDMDL
MODEL 8
REMARK VINA RESULT:      -6.0      5.864      9.320
REMARK  16 active torsions:
REMARK  status: ('A' for Active; 'I' for Inactive)
REMARK    1  A    between atoms: C_2  and  C_3 
REMARK    2  A    between atoms: C_3  and  C_4 
REMARK    3  A    between atoms: C_4  and  C_5 
REMARK    4  A    between atoms: C_5  and  C_6 
REMARK    5  A    between atoms: C_6  and  C_7 
REMARK    6  A    between atoms: C_7  and  C_8 
REMARK    7  A    between atoms: C_8  and  O_9 
REMARK    8  A    between atoms: O_9  and  C_10 
REMARK    9  A    between atoms: C_10  and  O_12 
REMARK   10  A    between atoms: O_12  and  C_13 
REMARK   11  A    between atoms: C_13  and  C_14 
REMARK   12  A    between atoms: C_14  and  C_15 
REMARK   13  A    between atoms: C_15  and  C_16 
REMARK   14  A    between atoms: C_16  and  C_17 
REMARK   15  A    between atoms: C_17  and  C_18 
REMARK   16  A    between atoms: C_18  and  C_19 
ROOT
HETATM    1  C   UNL     1     -21.814  -6.425  -2.965  1.00  0.00     0.406 C 
HETATM    2  O   UNL     1     -22.433  -5.840  -2.079  1.00  0.00    -0.230 OA
ENDROOT
BRANCH   1   3
HETATM    3  O   UNL     1     -21.827  -6.125  -4.291  1.00  0.00    -0.298 OA
BRANCH   3   4
HETATM    4  C   UNL     1     -20.908  -6.864  -5.098  1.00  0.00     0.181 C 
BRANCH   4   5
HETATM    5  C   UNL     1     -20.683  -6.222  -6.463  1.00  0.00     0.027 C 
BRANCH   5   6
HETATM    6  C   UNL     1     -20.220  -4.769  -6.319  1.00  0.00     0.002 C 
BRANCH   6   7
HETATM    7  C   UNL     1     -21.029  -3.837  -7.218  1.00  0.00     0.000 C 
BRANCH   7   8
HETATM    8  C   UNL     1     -20.772  -4.141  -8.692  1.00  0.00     0.000 C 
BRANCH   8   9
HETATM    9  C   UNL     1     -22.080  -4.452  -9.410  1.00  0.00    -0.000 C 
BRANCH   9  10
HETATM   10  C   UNL     1     -21.937  -4.241 -10.915  1.00  0.00    -0.005 C 
HETATM   11  C   UNL     1     -20.537  -3.766 -11.258  1.00  0.00     0.005 C 
ENDBRANCH   9  10
ENDBRANCH   8   9
ENDBRANCH   7   8
ENDBRANCH   6   7
ENDBRANCH   5   6
ENDBRANCH   4   5
ENDBRANCH   3   4
ENDBRANCH   1   3
BRANCH   1  12
HETATM   12  O   UNL     1     -20.988  -7.493  -2.801  1.00  0.00    -0.298 OA
BRANCH  12  13
HETATM   13  C   UNL     1     -20.870  -7.980  -1.463  1.00  0.00     0.181 C 
BRANCH  13  14
HETATM   14  C   UNL     1     -21.732  -9.213  -1.213  1.00  0.00     0.027 C 
BRANCH  14  15
HETATM   15  C   UNL     1     -22.521  -9.077   0.093  1.00  0.00     0.002 C 
BRANCH  15  16
HETATM   16  C   UNL     1     -23.747  -9.988   0.099  1.00  0.00     0.000 C 
BRANCH  16  17
HETATM   17  C   UNL     1     -23.641 -11.052  -0.990  1.00  0.00     0.000 C 
BRANCH  17  18
HETATM   18  C   UNL     1     -23.763 -12.448  -0.390  1.00  0.00    -0.000 C 
BRANCH  18  19
HETATM   19  C   UNL     1     -22.807 -12.620   0.787  1.00  0.00    -0.005 C 
HETATM   20  C   UNL     1     -23.348 -13.642   1.770  1.00  0.00     0.005 C 
ENDBRANCH  18  19
ENDBRANCH  17  18
ENDBRANCH  16  17
ENDBRANCH  15  16
ENDBRANCH  14  15
ENDBRANCH  13  14
ENDBRANCH  12  13
ENDBRANCH   1  12
TORSDOF 16
BEGIN_RES ARG D 557
REMARK  4 active torsions:
REMARK  status: ('A' for Active; 'I' for Inactive)
REMARK    1  A    between atoms: CA   and  CB  
REMARK    2  A    between atoms: CB   and  CG  
REMARK    3  A    between atoms: CG   and  CD  
REMARK    4  A    between atoms: CD   and  NE  
REMARK       I    between atoms: NE   and  CZ  
REMARK       I    between atoms: CZ   and  NH1 
REMARK       I    between atoms: CZ   and  NH2 
ROOT
ATOM      1  CA  ARG D 557     -26.217   2.705 -17.014  1.00 35.49     0.159 C 
ENDROOT
BRANCH   1   2
ATOM      2  CB  ARG D 557     -26.789   1.319 -17.183  1.00 35.49     0.034 C 
BRANCH   2   3
ATOM      3  CG  ARG D 557     -25.839   0.201 -17.130  1.00 35.49     0.027 C 
BRANCH   3   4
ATOM      4  CD  ARG D 557     -24.749   0.433 -16.155  1.00 35.49     0.116 C 
BRANCH   4   5
ATOM      5  NE  ARG D 557     -24.851  -0.433 -15.011  1.00 35.49    -0.212 N 
ATOM      6  CZ  ARG D 557     -24.011  -1.394 -14.696  1.00 35.49     0.666 C 
ATOM      7  NH1 ARG D 557     -22.955  -1.682 -15.435  1.00 35.49    -0.235 N 
ATOM      8  NH2 ARG D 557     -24.249  -2.067 -13.608  1.00 35.49    -0.235 N 
ATOM      9  HH  ARG D 557     -22.779  -1.251 -16.154  1.00 35.49     0.174 HD
ATOM     10  HH  ARG D 557     -22.441  -2.318 -15.179  1.00 35.49     0.174 HD
ATOM     11  HH  ARG D 557     -24.934  -1.854 -13.147  1.00 35.49     0.174 HD
ATOM     12  HH  ARG D 557     -23.727  -2.692 -13.371  1.00 35.49     0.174 HD
ATOM     13  HE  ARG D 557     -25.542  -0.365 -14.519  1.00 35.49     0.178 HD
ENDBRANCH   4   5
ENDBRANCH   3   4
ENDBRANCH   2   3
ENDBRANCH   1   2
END_RES ARG D 557
BEGIN_RES GLU D 570
REMARK  3 active torsions:
REMARK  status: ('A' for Active; 'I' for Inactive)
REMARK    5  A    between atoms: CA   and  CB  
REMARK    6  A    between atoms: CB   and  CG  
REMARK    7  A    between atoms: CG   and  CD  
ROOT
ATOM     14  CA  GLU D 570     -18.033  -6.348 -13.375  1.00 32.92     0.160 C 
ENDROOT
BRANCH  14  15
ATOM     15  CB  GLU D 570     -19.500  -6.345 -13.794  1.00 32.92     0.043 C 
BRANCH  15  16
ATOM     16  CG  GLU D 570     -20.087  -7.635 -14.239  1.00 32.92     0.100 C 
BRANCH  16  17
ATOM     17  CD  GLU D 570     -20.682  -7.564 -15.626  1.00 32.92     0.185 C 
ATOM     18  OE1 GLU D 570     -20.669  -6.478 -16.236  1.00 32.92    -0.647 OA
ATOM     19  OE2 GLU D 570     -21.183  -8.603 -16.101  1.00 32.92    -0.647 OA
ENDBRANCH  16  17
ENDBRANCH  15  16
ENDBRANCH  14  15
END_RES GLU D 570
ENDMDL
MODEL 9
REMARK VINA RESULT:      -5.9      1.786      2.293
REMARK  16 active torsions:
REMARK  status: ('A' for Active; 'I' for Inactive)
REMARK    1  A    between atoms: C_2  and  C_3 
REMARK    2  A    between atoms: C_3  and  C_4 
REMARK    3  A    between atoms: C_4  and  C_5 
REMARK    4  A    between atoms: C_5  and  C_6 
REMARK    5  A    between atoms: C_6  and  C_7 
REMARK    6  A    between atoms: C_7  and  C_8 
REMARK    7  A    between atoms: C_8  and  O_9 
REMARK    8  A    between atoms: O_9  and  C_10 
REMARK    9  A    between atoms: C_10  and  O_12 
REMARK   10  A    between atoms: O_12  and  C_13 
REMARK   11  A    between atoms: C_13  and  C_14 
REMARK   12  A    between atoms: C_14  and  C_15 
REMARK   13  A    between atoms: C_15  and  C_16 
REMARK   14  A    between atoms: C_16  and  C_17 
REMARK   15  A    between atoms: C_17  and  C_18 
REMARK   16  A    between atoms: C_18  and  C_19 
ROOT
HETATM    1  C   UNL     1     -23.390  -4.018 -14.208  1.00  0.00     0.406 C 
HETATM    2  O   UNL     1     -22.211  -4.128 -14.536  1.00  0.00    -0.230 OA
ENDROOT
BRANCH   1   3
HETATM    3  O   UNL     1     -24.413  -4.831 -14.588  1.00  0.00    -0.298 OA
BRANCH   3   4
HETATM    4  C   UNL     1     -24.064  -6.200 -14.799  1.00  0.00     0.181 C 
BRANCH   4   5
HETATM    5  C   UNL     1     -24.735  -6.789 -16.036  1.00  0.00     0.027 C 
BRANCH   5   6
HETATM    6  C   UNL     1     -26.193  -7.160 -15.748  1.00  0.00     0.002 C 
BRANCH   6   7
HETATM    7  C   UNL     1     -27.158  -6.256 -16.511  1.00  0.00     0.000 C 
BRANCH   7   8
HETATM    8  C   UNL     1     -28.555  -6.307 -15.899  1.00  0.00     0.000 C 
BRANCH   8   9
HETATM    9  C   UNL     1     -29.618  -6.104 -16.972  1.00  0.00    -0.000 C 
BRANCH   9  10
HETATM   10  C   UNL     1     -30.278  -7.429 -17.342  1.00  0.00    -0.005 C 
HETATM   11  C   UNL     1     -29.857  -7.866 -18.733  1.00  0.00     0.005 C 
ENDBRANCH   9  10
ENDBRANCH   8   9
ENDBRANCH   7   8
ENDBRANCH   6   7
ENDBRANCH   5   6
ENDBRANCH   4   5
ENDBRANCH   3   4
ENDBRANCH   1   3
BRANCH   1  12
HETATM   12  O   UNL     1     -23.917  -3.061 -13.397  1.00  0.00    -0.298 OA
BRANCH  12  13
HETATM   13  C   UNL     1     -23.245  -2.875 -12.150  1.00  0.00     0.181 C 
BRANCH  13  14
HETATM   14  C   UNL     1     -23.298  -4.118 -11.267  1.00  0.00     0.027 C 
BRANCH  14  15
HETATM   15  C   UNL     1     -22.071  -4.196 -10.353  1.00  0.00     0.002 C 
BRANCH  15  16
HETATM   16  C   UNL     1     -22.469  -4.524  -8.916  1.00  0.00     0.000 C 
BRANCH  16  17
HETATM   17  C   UNL     1     -21.712  -3.644  -7.925  1.00  0.00     0.000 C 
BRANCH  17  18
HETATM   18  C   UNL     1     -21.229  -4.467  -6.736  1.00  0.00    -0.000 C 
BRANCH  18  19
HETATM   19  C   UNL     1     -20.981  -5.917  -7.143  1.00  0.00    -0.005 C 
HETATM   20  C   UNL     1     -20.273  -6.670  -6.033  1.00  0.00     0.005 C 
ENDBRANCH  18  19
ENDBRANCH  17  18
ENDBRANCH  16  17
ENDBRANCH  15  16
ENDBRANCH  14  15
ENDBRANCH  13  14
ENDBRANCH  12  13
ENDBRANCH   1  12
TORSDOF 16
BEGIN_RES ARG D 557
REMARK  4 active torsions:
REMARK  status: ('A' for Active; 'I' for Inactive)
REMARK    1  A    between atoms: CA   and  CB  
REMARK    2  A    between atoms: CB   and  CG  
REMARK    3  A    between atoms: CG   and  CD  
REMARK    4  A    between atoms: CD   and  NE  
REMARK       I    between atoms: NE   and  CZ  
REMARK       I    between atoms: CZ   and  NH1 
REMARK       I    between atoms: CZ   and  NH2 
ROOT
ATOM      1  CA  ARG D 557     -26.217   2.705 -17.014  1.00 35.49     0.159 C 
ENDROOT
BRANCH   1   2
ATOM      2  CB  ARG D 557     -26.789   1.319 -17.183  1.00 35.49     0.034 C 
BRANCH   2   3
ATOM      3  CG  ARG D 557     -28.252   1.199 -17.147  1.00 35.49     0.027 C 
BRANCH   3   4
ATOM      4  CD  ARG D 557     -28.697  -0.115 -16.629  1.00 35.49     0.116 C 
BRANCH   4   5
ATOM      5  NE  ARG D 557     -27.640  -0.817 -15.950  1.00 35.49    -0.212 N 
ATOM      6  CZ  ARG D 557     -27.376  -2.100 -16.060  1.00 35.49     0.666 C 
ATOM      7  NH1 ARG D 557     -28.090  -2.908 -16.822  1.00 35.49    -0.235 N 
ATOM      8  NH2 ARG D 557     -26.364  -2.564 -15.387  1.00 35.49    -0.235 N 
ATOM      9  HH  ARG D 557     -28.759  -2.624 -17.275  1.00 35.49     0.174 HD
ATOM     10  HH  ARG D 557     -27.870  -3.736 -16.856  1.00 35.49     0.174 HD
ATOM     11  HH  ARG D 557     -25.916  -2.018 -14.909  1.00 35.49     0.174 HD
ATOM     12  HH  ARG D 557     -26.161  -3.386 -15.435  1.00 35.49     0.174 HD
ATOM     13  HE  ARG D 557     -27.175  -0.387 -15.382  1.00 35.49     0.178 HD
ENDBRANCH   4   5
ENDBRANCH   3   4
ENDBRANCH   2   3
ENDBRANCH   1   2
END_RES ARG D 557
BEGIN_RES GLU D 570
REMARK  3 active torsions:
REMARK  status: ('A' for Active; 'I' for Inactive)
REMARK    5  A    between atoms: CA   and  CB  
REMARK    6  A    between atoms: CB   and  CG  
REMARK    7  A    between atoms: CG   and  CD  
ROOT
ATOM     14  CA  GLU D 570     -18.033  -6.348 -13.375  1.00 32.92     0.160 C 
ENDROOT
BRANCH  14  15
ATOM     15  CB  GLU D 570     -19.500  -6.345 -13.794  1.00 32.92     0.043 C 
BRANCH  15  16
ATOM     16  CG  GLU D 570     -20.089  -7.636 -14.234  1.00 32.92     0.100 C 
BRANCH  16  17
ATOM     17  CD  GLU D 570     -20.689  -7.568 -15.619  1.00 32.92     0.185 C 
ATOM     18  OE1 GLU D 570     -20.615  -6.502 -16.259  1.00 32.92    -0.647 OA
ATOM     19  OE2 GLU D 570     -21.254  -8.587 -16.062  1.00 32.92    -0.647 OA
ENDBRANCH  16  17
ENDBRANCH  15  16
ENDBRANCH  14  15
END_RES GLU D 570
ENDMDL
