MODEL 1
REMARK VINA RESULT:      -9.3      0.000      0.000
REMARK  5 active torsions:
REMARK  status: ('A' for Active; 'I' for Inactive)
REMARK    1  A    between atoms: C_3  and  C_10 
REMARK    2  A    between atoms: C_11  and  C_12 
REMARK    3  A    between atoms: C_13  and  C_14 
REMARK    4  A    between atoms: C_15  and  C_16 
REMARK    5  A    between atoms: C_17  and  C_18 
ROOT
HETATM    1  C   UNL     1     -26.493  -5.950 -16.509  1.00  0.00     0.009 C 
HETATM    2  C   UNL     1     -25.497  -5.670 -15.646  1.00  0.00     0.007 C 
ENDROOT
BRANCH   2   3
HETATM    3  C   UNL     1     -24.387  -6.578 -15.325  1.00  0.00    -0.062 C 
HETATM    4  C   UNL     1     -23.485  -6.365 -14.336  1.00  0.00     0.007 C 
HETATM    5  C   UNL     1     -24.248  -7.802 -16.201  1.00  0.00     0.048 C 
BRANCH   4   6
HETATM    6  C   UNL     1     -23.507  -5.246 -13.410  1.00  0.00     0.001 C 
HETATM    7  C   UNL     1     -23.150  -5.240 -12.109  1.00  0.00     0.007 C 
BRANCH   7   8
HETATM    8  C   UNL     1     -23.259  -4.067 -11.226  1.00  0.00    -0.059 C 
HETATM    9  C   UNL     1     -22.247  -3.276 -10.808  1.00  0.00     0.048 C 
HETATM   10  C   UNL     1     -24.619  -3.677 -10.674  1.00  0.00     0.048 C 
BRANCH   9  11
HETATM   11  C   UNL     1     -20.791  -3.326 -11.081  1.00  0.00     0.259 C 
HETATM   12  O   UNL     1     -20.110  -4.269 -10.697  1.00  0.00    -0.302 OA
ENDBRANCH   9  11
ENDBRANCH   7   8
ENDBRANCH   4   6
ENDBRANCH   2   3
BRANCH   1  13
HETATM   13  C   UNL     1     -27.614  -5.061 -16.874  1.00  0.00    -0.048 C 
HETATM   14  C   UNL     1     -27.723  -3.797 -16.391  1.00  0.00    -0.077 C 
HETATM   15  C   UNL     1     -26.725  -3.122 -15.483  1.00  0.00     0.044 C 
HETATM   16  C   UNL     1     -28.861  -2.862 -16.764  1.00  0.00     0.034 C 
HETATM   17  C   UNL     1     -30.024  -3.511 -17.498  1.00  0.00     0.005 C 
HETATM   18  C   UNL     1     -29.501  -4.484 -18.538  1.00  0.00     0.014 C 
HETATM   19  C   UNL     1     -28.629  -5.613 -17.914  1.00  0.00    -0.020 C 
HETATM   20  C   UNL     1     -27.938  -6.303 -19.112  1.00  0.00     0.020 C 
HETATM   21  C   UNL     1     -29.564  -6.629 -17.223  1.00  0.00     0.020 C 
ENDBRANCH   1  13
TORSDOF 5
BEGIN_RES ARG D 557
REMARK  4 active torsions:
REMARK  status: ('A' for Active; 'I' for Inactive)
REMARK    1  A    between atoms: CA   and  CB  
REMARK    2  A    between atoms: CB   and  CG  
REMARK    3  A    between atoms: CG   and  CD  
REMARK    4  A    between atoms: CD   and  NE  
REMARK       I    between atoms: NE   and  CZ  
REMARK       I    between atoms: CZ   and  NH1 
REMARK       I    between atoms: CZ   and  NH2 
ROOT
ATOM      1  CA  ARG D 557     -26.217   2.705 -17.014  1.00 35.49     0.159 C 
ENDROOT
BRANCH   1   2
ATOM      2  CB  ARG D 557     -26.789   1.319 -17.183  1.00 35.49     0.034 C 
BRANCH   2   3
ATOM      3  CG  ARG D 557     -25.834   0.204 -17.175  1.00 35.49     0.027 C 
BRANCH   3   4
ATOM      4  CD  ARG D 557     -24.638   0.492 -16.350  1.00 35.49     0.116 C 
BRANCH   4   5
ATOM      5  NE  ARG D 557     -24.645  -0.238 -15.110  1.00 35.49    -0.212 N 
ATOM      6  CZ  ARG D 557     -23.813  -1.201 -14.781  1.00 35.49     0.666 C 
ATOM      7  NH1 ARG D 557     -22.859  -1.621 -15.591  1.00 35.49    -0.235 N 
ATOM      8  NH2 ARG D 557     -23.953  -1.738 -13.604  1.00 35.49    -0.235 N 
ATOM      9  HH  ARG D 557     -22.747  -1.280 -16.369  1.00 35.49     0.174 HD
ATOM     10  HH  ARG D 557     -22.345  -2.251 -15.321  1.00 35.49     0.174 HD
ATOM     11  HH  ARG D 557     -24.574  -1.441 -13.100  1.00 35.49     0.174 HD
ATOM     12  HH  ARG D 557     -23.433  -2.360 -13.355  1.00 35.49     0.174 HD
ATOM     13  HE  ARG D 557     -25.273  -0.081 -14.559  1.00 35.49     0.178 HD
ENDBRANCH   4   5
ENDBRANCH   3   4
ENDBRANCH   2   3
ENDBRANCH   1   2
END_RES ARG D 557
BEGIN_RES GLU D 570
REMARK  3 active torsions:
REMARK  status: ('A' for Active; 'I' for Inactive)
REMARK    5  A    between atoms: CA   and  CB  
REMARK    6  A    between atoms: CB   and  CG  
REMARK    7  A    between atoms: CG   and  CD  
ROOT
ATOM     14  CA  GLU D 570     -18.033  -6.348 -13.375  1.00 32.92     0.160 C 
ENDROOT
BRANCH  14  15
ATOM     15  CB  GLU D 570     -19.500  -6.345 -13.794  1.00 32.92     0.043 C 
BRANCH  15  16
ATOM     16  CG  GLU D 570     -20.094  -7.640 -14.215  1.00 32.92     0.100 C 
BRANCH  16  17
ATOM     17  CD  GLU D 570     -20.516  -7.651 -15.666  1.00 32.92     0.185 C 
ATOM     18  OE1 GLU D 570     -20.748  -8.742 -16.221  1.00 32.92    -0.647 OA
ATOM     19  OE2 GLU D 570     -20.600  -6.557 -16.259  1.00 32.92    -0.647 OA
ENDBRANCH  16  17
ENDBRANCH  15  16
ENDBRANCH  14  15
END_RES GLU D 570
ENDMDL
MODEL 2
REMARK VINA RESULT:      -8.9      7.893     11.739
REMARK  5 active torsions:
REMARK  status: ('A' for Active; 'I' for Inactive)
REMARK    1  A    between atoms: C_3  and  C_10 
REMARK    2  A    between atoms: C_11  and  C_12 
REMARK    3  A    between atoms: C_13  and  C_14 
REMARK    4  A    between atoms: C_15  and  C_16 
REMARK    5  A    between atoms: C_17  and  C_18 
ROOT
HETATM    1  C   UNL     1     -20.662  -9.206  -2.690  1.00  0.00     0.009 C 
HETATM    2  C   UNL     1     -19.326  -9.029  -2.726  1.00  0.00     0.007 C 
ENDROOT
BRANCH   2   3
HETATM    3  C   UNL     1     -18.465  -9.376  -3.865  1.00  0.00    -0.062 C 
HETATM    4  C   UNL     1     -18.740  -9.066  -5.155  1.00  0.00     0.007 C 
HETATM    5  C   UNL     1     -17.219 -10.168  -3.544  1.00  0.00     0.048 C 
BRANCH   4   6
HETATM    6  C   UNL     1     -19.888  -8.297  -5.605  1.00  0.00     0.001 C 
HETATM    7  C   UNL     1     -19.988  -6.958  -5.737  1.00  0.00     0.007 C 
BRANCH   7   8
HETATM    8  C   UNL     1     -21.216  -6.256  -6.148  1.00  0.00    -0.059 C 
HETATM    9  C   UNL     1     -21.354  -5.427  -7.205  1.00  0.00     0.048 C 
HETATM   10  C   UNL     1     -22.477  -6.421  -5.319  1.00  0.00     0.048 C 
BRANCH   9  11
HETATM   11  C   UNL     1     -20.382  -4.979  -8.230  1.00  0.00     0.259 C 
HETATM   12  O   UNL     1     -19.462  -4.224  -7.938  1.00  0.00    -0.302 OA
ENDBRANCH   9  11
ENDBRANCH   7   8
ENDBRANCH   4   6
ENDBRANCH   2   3
BRANCH   1  13
HETATM   13  C   UNL     1     -21.565  -8.854  -1.578  1.00  0.00    -0.048 C 
HETATM   14  C   UNL     1     -21.892  -7.568  -1.289  1.00  0.00    -0.077 C 
HETATM   15  C   UNL     1     -21.437  -6.358  -2.067  1.00  0.00     0.044 C 
HETATM   16  C   UNL     1     -22.830  -7.185  -0.158  1.00  0.00     0.034 C 
HETATM   17  C   UNL     1     -23.172  -8.304   0.813  1.00  0.00     0.005 C 
HETATM   18  C   UNL     1     -23.429  -9.590   0.050  1.00  0.00     0.014 C 
HETATM   19  C   UNL     1     -22.200 -10.038  -0.794  1.00  0.00    -0.020 C 
HETATM   20  C   UNL     1     -22.731 -11.152  -1.726  1.00  0.00     0.020 C 
HETATM   21  C   UNL     1     -21.145 -10.643   0.156  1.00  0.00     0.020 C 
ENDBRANCH   1  13
TORSDOF 5
BEGIN_RES ARG D 557
REMARK  4 active torsions:
REMARK  status: ('A' for Active; 'I' for Inactive)
REMARK    1  A    between atoms: CA   and  CB  
REMARK    2  A    between atoms: CB   and  CG  
REMARK    3  A    between atoms: CG   and  CD  
REMARK    4  A    between atoms: CD   and  NE  
REMARK       I    between atoms: NE   and  CZ  
REMARK       I    between atoms: CZ   and  NH1 
REMARK       I    between atoms: CZ   and  NH2 
ROOT
ATOM      1  CA  ARG D 557     -26.217   2.705 -17.014  1.00 35.49     0.159 C 
ENDROOT
BRANCH   1   2
ATOM      2  CB  ARG D 557     -26.789   1.319 -17.183  1.00 35.49     0.034 C 
BRANCH   2   3
ATOM      3  CG  ARG D 557     -25.836   0.203 -17.153  1.00 35.49     0.027 C 
BRANCH   3   4
ATOM      4  CD  ARG D 557     -24.744   0.419 -16.176  1.00 35.49     0.116 C 
BRANCH   4   5
ATOM      5  NE  ARG D 557     -24.875  -0.427 -15.019  1.00 35.49    -0.212 N 
ATOM      6  CZ  ARG D 557     -24.050  -1.390 -14.675  1.00 35.49     0.666 C 
ATOM      7  NH1 ARG D 557     -22.985  -1.701 -15.389  1.00 35.49    -0.235 N 
ATOM      8  NH2 ARG D 557     -24.313  -2.043 -13.580  1.00 35.49    -0.235 N 
ATOM      9  HH  ARG D 557     -22.791  -1.283 -16.112  1.00 35.49     0.174 HD
ATOM     10  HH  ARG D 557     -22.481  -2.337 -15.114  1.00 35.49     0.174 HD
ATOM     11  HH  ARG D 557     -25.004  -1.815 -13.135  1.00 35.49     0.174 HD
ATOM     12  HH  ARG D 557     -23.802  -2.668 -13.323  1.00 35.49     0.174 HD
ATOM     13  HE  ARG D 557     -25.574  -0.344 -14.541  1.00 35.49     0.178 HD
ENDBRANCH   4   5
ENDBRANCH   3   4
ENDBRANCH   2   3
ENDBRANCH   1   2
END_RES ARG D 557
BEGIN_RES GLU D 570
REMARK  3 active torsions:
REMARK  status: ('A' for Active; 'I' for Inactive)
REMARK    5  A    between atoms: CA   and  CB  
REMARK    6  A    between atoms: CB   and  CG  
REMARK    7  A    between atoms: CG   and  CD  
ROOT
ATOM     14  CA  GLU D 570     -18.033  -6.348 -13.375  1.00 32.92     0.160 C 
ENDROOT
BRANCH  14  15
ATOM     15  CB  GLU D 570     -19.500  -6.345 -13.794  1.00 32.92     0.043 C 
BRANCH  15  16
ATOM     16  CG  GLU D 570     -20.447  -5.553 -12.967  1.00 32.92     0.100 C 
BRANCH  16  17
ATOM     17  CD  GLU D 570     -21.740  -5.245 -13.684  1.00 32.92     0.185 C 
ATOM     18  OE1 GLU D 570     -22.268  -6.127 -14.387  1.00 32.92    -0.647 OA
ATOM     19  OE2 GLU D 570     -22.222  -4.102 -13.554  1.00 32.92    -0.647 OA
ENDBRANCH  16  17
ENDBRANCH  15  16
ENDBRANCH  14  15
END_RES GLU D 570
ENDMDL
MODEL 3
REMARK VINA RESULT:      -8.6      8.465     12.570
REMARK  5 active torsions:
REMARK  status: ('A' for Active; 'I' for Inactive)
REMARK    1  A    between atoms: C_3  and  C_10 
REMARK    2  A    between atoms: C_11  and  C_12 
REMARK    3  A    between atoms: C_13  and  C_14 
REMARK    4  A    between atoms: C_15  and  C_16 
REMARK    5  A    between atoms: C_17  and  C_18 
ROOT
HETATM    1  C   UNL     1     -21.009  -9.539  -1.601  1.00  0.00     0.009 C 
HETATM    2  C   UNL     1     -20.911  -8.294  -1.095  1.00  0.00     0.007 C 
ENDROOT
BRANCH   2   3
HETATM    3  C   UNL     1     -22.027  -7.345  -0.982  1.00  0.00    -0.062 C 
HETATM    4  C   UNL     1     -22.312  -6.385  -1.895  1.00  0.00     0.007 C 
HETATM    5  C   UNL     1     -22.870  -7.449   0.269  1.00  0.00     0.048 C 
BRANCH   4   6
HETATM    6  C   UNL     1     -21.601  -6.183  -3.146  1.00  0.00     0.001 C 
HETATM    7  C   UNL     1     -21.930  -6.643  -4.371  1.00  0.00     0.007 C 
BRANCH   7   8
HETATM    8  C   UNL     1     -21.116  -6.436  -5.580  1.00  0.00    -0.059 C 
HETATM    9  C   UNL     1     -21.395  -5.603  -6.606  1.00  0.00     0.048 C 
HETATM   10  C   UNL     1     -19.837  -7.234  -5.759  1.00  0.00     0.048 C 
BRANCH   9  11
HETATM   11  C   UNL     1     -22.537  -4.687  -6.838  1.00  0.00     0.259 C 
HETATM   12  O   UNL     1     -22.650  -4.078  -7.895  1.00  0.00    -0.302 OA
ENDBRANCH   9  11
ENDBRANCH   7   8
ENDBRANCH   4   6
ENDBRANCH   2   3
BRANCH   1  13
HETATM   13  C   UNL     1     -19.921 -10.529  -1.715  1.00  0.00    -0.048 C 
HETATM   14  C   UNL     1     -19.612 -11.386  -0.708  1.00  0.00    -0.077 C 
HETATM   15  C   UNL     1     -20.343 -11.482   0.609  1.00  0.00     0.044 C 
HETATM   16  C   UNL     1     -18.505 -12.421  -0.810  1.00  0.00     0.034 C 
HETATM   17  C   UNL     1     -17.575 -12.266  -2.002  1.00  0.00     0.005 C 
HETATM   18  C   UNL     1     -18.379 -11.925  -3.244  1.00  0.00     0.014 C 
HETATM   19  C   UNL     1     -19.190 -10.606  -3.085  1.00  0.00    -0.020 C 
HETATM   20  C   UNL     1     -20.168 -10.583  -4.283  1.00  0.00     0.020 C 
HETATM   21  C   UNL     1     -18.218  -9.414  -3.212  1.00  0.00     0.020 C 
ENDBRANCH   1  13
TORSDOF 5
BEGIN_RES ARG D 557
REMARK  4 active torsions:
REMARK  status: ('A' for Active; 'I' for Inactive)
REMARK    1  A    between atoms: CA   and  CB  
REMARK    2  A    between atoms: CB   and  CG  
REMARK    3  A    between atoms: CG   and  CD  
REMARK    4  A    between atoms: CD   and  NE  
REMARK       I    between atoms: NE   and  CZ  
REMARK       I    between atoms: CZ   and  NH1 
REMARK       I    between atoms: CZ   and  NH2 
ROOT
ATOM      1  CA  ARG D 557     -26.217   2.705 -17.014  1.00 35.49     0.159 C 
ENDROOT
BRANCH   1   2
ATOM      2  CB  ARG D 557     -26.789   1.319 -17.183  1.00 35.49     0.034 C 
BRANCH   2   3
ATOM      3  CG  ARG D 557     -25.835   0.203 -17.158  1.00 35.49     0.027 C 
BRANCH   3   4
ATOM      4  CD  ARG D 557     -24.756   0.405 -16.165  1.00 35.49     0.116 C 
BRANCH   4   5
ATOM      5  NE  ARG D 557     -24.911  -0.447 -15.015  1.00 35.49    -0.212 N 
ATOM      6  CZ  ARG D 557     -24.099  -1.419 -14.665  1.00 35.49     0.666 C 
ATOM      7  NH1 ARG D 557     -23.026  -1.735 -15.366  1.00 35.49    -0.235 N 
ATOM      8  NH2 ARG D 557     -24.384  -2.076 -13.578  1.00 35.49    -0.235 N 
ATOM      9  HH  ARG D 557     -22.819  -1.314 -16.084  1.00 35.49     0.174 HD
ATOM     10  HH  ARG D 557     -22.532  -2.377 -15.088  1.00 35.49     0.174 HD
ATOM     11  HH  ARG D 557     -25.079  -1.845 -13.141  1.00 35.49     0.174 HD
ATOM     12  HH  ARG D 557     -23.881  -2.708 -13.318  1.00 35.49     0.174 HD
ATOM     13  HE  ARG D 557     -25.615  -0.361 -14.546  1.00 35.49     0.178 HD
ENDBRANCH   4   5
ENDBRANCH   3   4
ENDBRANCH   2   3
ENDBRANCH   1   2
END_RES ARG D 557
BEGIN_RES GLU D 570
REMARK  3 active torsions:
REMARK  status: ('A' for Active; 'I' for Inactive)
REMARK    5  A    between atoms: CA   and  CB  
REMARK    6  A    between atoms: CB   and  CG  
REMARK    7  A    between atoms: CG   and  CD  
ROOT
ATOM     14  CA  GLU D 570     -18.033  -6.348 -13.375  1.00 32.92     0.160 C 
ENDROOT
BRANCH  14  15
ATOM     15  CB  GLU D 570     -19.500  -6.345 -13.794  1.00 32.92     0.043 C 
BRANCH  15  16
ATOM     16  CG  GLU D 570     -20.441  -5.528 -12.985  1.00 32.92     0.100 C 
BRANCH  16  17
ATOM     17  CD  GLU D 570     -21.740  -5.242 -13.703  1.00 32.92     0.185 C 
ATOM     18  OE1 GLU D 570     -22.307  -4.148 -13.515  1.00 32.92    -0.647 OA
ATOM     19  OE2 GLU D 570     -22.204  -6.127 -14.448  1.00 32.92    -0.647 OA
ENDBRANCH  16  17
ENDBRANCH  15  16
ENDBRANCH  14  15
END_RES GLU D 570
ENDMDL
MODEL 4
REMARK VINA RESULT:      -8.5      7.967     11.821
REMARK  5 active torsions:
REMARK  status: ('A' for Active; 'I' for Inactive)
REMARK    1  A    between atoms: C_3  and  C_10 
REMARK    2  A    between atoms: C_11  and  C_12 
REMARK    3  A    between atoms: C_13  and  C_14 
REMARK    4  A    between atoms: C_15  and  C_16 
REMARK    5  A    between atoms: C_17  and  C_18 
ROOT
HETATM    1  C   UNL     1     -20.759  -9.114  -2.767  1.00  0.00     0.009 C 
HETATM    2  C   UNL     1     -19.419  -8.984  -2.812  1.00  0.00     0.007 C 
ENDROOT
BRANCH   2   3
HETATM    3  C   UNL     1     -18.589  -9.270  -3.990  1.00  0.00    -0.062 C 
HETATM    4  C   UNL     1     -18.885  -8.871  -5.251  1.00  0.00     0.007 C 
HETATM    5  C   UNL     1     -17.349 -10.101  -3.750  1.00  0.00     0.048 C 
BRANCH   4   6
HETATM    6  C   UNL     1     -20.028  -8.056  -5.624  1.00  0.00     0.001 C 
HETATM    7  C   UNL     1     -20.138  -6.712  -5.581  1.00  0.00     0.007 C 
BRANCH   7   8
HETATM    8  C   UNL     1     -21.361  -5.969  -5.926  1.00  0.00    -0.059 C 
HETATM    9  C   UNL     1     -21.448  -4.891  -6.735  1.00  0.00     0.048 C 
HETATM   10  C   UNL     1     -22.685  -6.396  -5.317  1.00  0.00     0.048 C 
BRANCH   9  11
HETATM   11  C   UNL     1     -20.410  -4.149  -7.489  1.00  0.00     0.259 C 
HETATM   12  O   UNL     1     -20.017  -4.548  -8.578  1.00  0.00    -0.302 OA
ENDBRANCH   9  11
ENDBRANCH   7   8
ENDBRANCH   4   6
ENDBRANCH   2   3
BRANCH   1  13
HETATM   13  C   UNL     1     -21.632  -8.819  -1.614  1.00  0.00    -0.048 C 
HETATM   14  C   UNL     1     -21.974  -7.551  -1.270  1.00  0.00    -0.077 C 
HETATM   15  C   UNL     1     -21.569  -6.305  -2.018  1.00  0.00     0.044 C 
HETATM   16  C   UNL     1     -22.881  -7.226  -0.096  1.00  0.00     0.034 C 
HETATM   17  C   UNL     1     -23.169  -8.385   0.846  1.00  0.00     0.005 C 
HETATM   18  C   UNL     1     -23.426  -9.649   0.047  1.00  0.00     0.014 C 
HETATM   19  C   UNL     1     -22.217 -10.042  -0.853  1.00  0.00    -0.020 C 
HETATM   20  C   UNL     1     -22.757 -11.133  -1.806  1.00  0.00     0.020 C 
HETATM   21  C   UNL     1     -21.120 -10.658   0.041  1.00  0.00     0.020 C 
ENDBRANCH   1  13
TORSDOF 5
BEGIN_RES ARG D 557
REMARK  4 active torsions:
REMARK  status: ('A' for Active; 'I' for Inactive)
REMARK    1  A    between atoms: CA   and  CB  
REMARK    2  A    between atoms: CB   and  CG  
REMARK    3  A    between atoms: CG   and  CD  
REMARK    4  A    between atoms: CD   and  NE  
REMARK       I    between atoms: NE   and  CZ  
REMARK       I    between atoms: CZ   and  NH1 
REMARK       I    between atoms: CZ   and  NH2 
ROOT
ATOM      1  CA  ARG D 557     -26.217   2.705 -17.014  1.00 35.49     0.159 C 
ENDROOT
BRANCH   1   2
ATOM      2  CB  ARG D 557     -26.789   1.319 -17.183  1.00 35.49     0.034 C 
BRANCH   2   3
ATOM      3  CG  ARG D 557     -28.222   1.157 -16.907  1.00 35.49     0.027 C 
BRANCH   3   4
ATOM      4  CD  ARG D 557     -28.611  -0.264 -16.757  1.00 35.49     0.116 C 
BRANCH   4   5
ATOM      5  NE  ARG D 557     -27.612  -1.029 -16.059  1.00 35.49    -0.212 N 
ATOM      6  CZ  ARG D 557     -27.460  -2.333 -16.122  1.00 35.49     0.666 C 
ATOM      7  NH1 ARG D 557     -28.246  -3.104 -16.849  1.00 35.49    -0.235 N 
ATOM      8  NH2 ARG D 557     -26.485  -2.857 -15.437  1.00 35.49    -0.235 N 
ATOM      9  HH  ARG D 557     -28.892  -2.780 -17.309  1.00 35.49     0.174 HD
ATOM     10  HH  ARG D 557     -28.097  -3.948 -16.854  1.00 35.49     0.174 HD
ATOM     11  HH  ARG D 557     -25.989  -2.334 -14.982  1.00 35.49     0.174 HD
ATOM     12  HH  ARG D 557     -26.353  -3.694 -15.456  1.00 35.49     0.174 HD
ATOM     13  HE  ARG D 557     -27.107  -0.620 -15.509  1.00 35.49     0.178 HD
ENDBRANCH   4   5
ENDBRANCH   3   4
ENDBRANCH   2   3
ENDBRANCH   1   2
END_RES ARG D 557
BEGIN_RES GLU D 570
REMARK  3 active torsions:
REMARK  status: ('A' for Active; 'I' for Inactive)
REMARK    5  A    between atoms: CA   and  CB  
REMARK    6  A    between atoms: CB   and  CG  
REMARK    7  A    between atoms: CG   and  CD  
ROOT
ATOM     14  CA  GLU D 570     -18.033  -6.348 -13.375  1.00 32.92     0.160 C 
ENDROOT
BRANCH  14  15
ATOM     15  CB  GLU D 570     -19.500  -6.345 -13.794  1.00 32.92     0.043 C 
BRANCH  15  16
ATOM     16  CG  GLU D 570     -20.442  -5.533 -12.981  1.00 32.92     0.100 C 
BRANCH  16  17
ATOM     17  CD  GLU D 570     -21.733  -5.227 -13.706  1.00 32.92     0.185 C 
ATOM     18  OE1 GLU D 570     -22.165  -6.043 -14.542  1.00 32.92    -0.647 OA
ATOM     19  OE2 GLU D 570     -22.308  -4.152 -13.446  1.00 32.92    -0.647 OA
ENDBRANCH  16  17
ENDBRANCH  15  16
ENDBRANCH  14  15
END_RES GLU D 570
ENDMDL
MODEL 5
REMARK VINA RESULT:      -8.2     10.279     13.621
REMARK  5 active torsions:
REMARK  status: ('A' for Active; 'I' for Inactive)
REMARK    1  A    between atoms: C_3  and  C_10 
REMARK    2  A    between atoms: C_11  and  C_12 
REMARK    3  A    between atoms: C_13  and  C_14 
REMARK    4  A    between atoms: C_15  and  C_16 
REMARK    5  A    between atoms: C_17  and  C_18 
ROOT
HETATM    1  C   UNL     1     -20.267  -9.320  -2.774  1.00  0.00     0.009 C 
HETATM    2  C   UNL     1     -18.924  -9.351  -2.661  1.00  0.00     0.007 C 
ENDROOT
BRANCH   2   3
HETATM    3  C   UNL     1     -18.005  -9.796  -3.717  1.00  0.00    -0.062 C 
HETATM    4  C   UNL     1     -16.882 -10.522  -3.497  1.00  0.00     0.007 C 
HETATM    5  C   UNL     1     -18.342  -9.365  -5.125  1.00  0.00     0.048 C 
BRANCH   4   6
HETATM    6  C   UNL     1     -16.445 -11.019  -2.203  1.00  0.00     0.001 C 
HETATM    7  C   UNL     1     -15.837 -12.191  -1.928  1.00  0.00     0.007 C 
BRANCH   7   8
HETATM    8  C   UNL     1     -15.479 -12.640  -0.572  1.00  0.00    -0.059 C 
HETATM    9  C   UNL     1     -14.618 -13.629  -0.251  1.00  0.00     0.048 C 
HETATM   10  C   UNL     1     -16.137 -11.978   0.626  1.00  0.00     0.048 C 
BRANCH   9  11
HETATM   11  C   UNL     1     -13.805 -14.531  -1.102  1.00  0.00     0.259 C 
HETATM   12  O   UNL     1     -12.818 -14.116  -1.697  1.00  0.00    -0.302 OA
ENDBRANCH   9  11
ENDBRANCH   7   8
ENDBRANCH   4   6
ENDBRANCH   2   3
BRANCH   1  13
HETATM   13  C   UNL     1     -21.225  -8.863  -1.749  1.00  0.00    -0.048 C 
HETATM   14  C   UNL     1     -21.635  -7.571  -1.665  1.00  0.00    -0.077 C 
HETATM   15  C   UNL     1     -21.225  -6.464  -2.606  1.00  0.00     0.044 C 
HETATM   16  C   UNL     1     -22.629  -7.082  -0.627  1.00  0.00     0.034 C 
HETATM   17  C   UNL     1     -22.937  -8.062   0.494  1.00  0.00     0.005 C 
HETATM   18  C   UNL     1     -23.094  -9.462  -0.072  1.00  0.00     0.014 C 
HETATM   19  C   UNL     1     -21.815  -9.953  -0.811  1.00  0.00    -0.020 C 
HETATM   20  C   UNL     1     -22.250 -11.224  -1.576  1.00  0.00     0.020 C 
HETATM   21  C   UNL     1     -20.758 -10.343   0.244  1.00  0.00     0.020 C 
ENDBRANCH   1  13
TORSDOF 5
BEGIN_RES ARG D 557
REMARK  4 active torsions:
REMARK  status: ('A' for Active; 'I' for Inactive)
REMARK    1  A    between atoms: CA   and  CB  
REMARK    2  A    between atoms: CB   and  CG  
REMARK    3  A    between atoms: CG   and  CD  
REMARK    4  A    between atoms: CD   and  NE  
REMARK       I    between atoms: NE   and  CZ  
REMARK       I    between atoms: CZ   and  NH1 
REMARK       I    between atoms: CZ   and  NH2 
ROOT
ATOM      1  CA  ARG D 557     -26.217   2.705 -17.014  1.00 35.49     0.159 C 
ENDROOT
BRANCH   1   2
ATOM      2  CB  ARG D 557     -26.789   1.319 -17.183  1.00 35.49     0.034 C 
BRANCH   2   3
ATOM      3  CG  ARG D 557     -25.836   0.203 -17.153  1.00 35.49     0.027 C 
BRANCH   3   4
ATOM      4  CD  ARG D 557     -24.757   0.409 -16.160  1.00 35.49     0.116 C 
BRANCH   4   5
ATOM      5  NE  ARG D 557     -24.909  -0.441 -15.009  1.00 35.49    -0.212 N 
ATOM      6  CZ  ARG D 557     -24.099  -1.417 -14.662  1.00 35.49     0.666 C 
ATOM      7  NH1 ARG D 557     -23.031  -1.737 -15.369  1.00 35.49    -0.235 N 
ATOM      8  NH2 ARG D 557     -24.380  -2.071 -13.573  1.00 35.49    -0.235 N 
ATOM      9  HH  ARG D 557     -22.826  -1.318 -16.088  1.00 35.49     0.174 HD
ATOM     10  HH  ARG D 557     -22.538  -2.380 -15.093  1.00 35.49     0.174 HD
ATOM     11  HH  ARG D 557     -25.072  -1.838 -13.133  1.00 35.49     0.174 HD
ATOM     12  HH  ARG D 557     -23.878  -2.705 -13.315  1.00 35.49     0.174 HD
ATOM     13  HE  ARG D 557     -25.610  -0.352 -14.537  1.00 35.49     0.178 HD
ENDBRANCH   4   5
ENDBRANCH   3   4
ENDBRANCH   2   3
ENDBRANCH   1   2
END_RES ARG D 557
BEGIN_RES GLU D 570
REMARK  3 active torsions:
REMARK  status: ('A' for Active; 'I' for Inactive)
REMARK    5  A    between atoms: CA   and  CB  
REMARK    6  A    between atoms: CB   and  CG  
REMARK    7  A    between atoms: CG   and  CD  
ROOT
ATOM     14  CA  GLU D 570     -18.033  -6.348 -13.375  1.00 32.92     0.160 C 
ENDROOT
BRANCH  14  15
ATOM     15  CB  GLU D 570     -19.500  -6.345 -13.794  1.00 32.92     0.043 C 
BRANCH  15  16
ATOM     16  CG  GLU D 570     -20.443  -5.535 -12.980  1.00 32.92     0.100 C 
BRANCH  16  17
ATOM     17  CD  GLU D 570     -21.739  -5.241 -13.698  1.00 32.92     0.185 C 
ATOM     18  OE1 GLU D 570     -22.297  -4.142 -13.515  1.00 32.92    -0.647 OA
ATOM     19  OE2 GLU D 570     -22.210  -6.126 -14.440  1.00 32.92    -0.647 OA
ENDBRANCH  16  17
ENDBRANCH  15  16
ENDBRANCH  14  15
END_RES GLU D 570
ENDMDL
MODEL 6
REMARK VINA RESULT:      -8.2      8.608     12.723
REMARK  5 active torsions:
REMARK  status: ('A' for Active; 'I' for Inactive)
REMARK    1  A    between atoms: C_3  and  C_10 
REMARK    2  A    between atoms: C_11  and  C_12 
REMARK    3  A    between atoms: C_13  and  C_14 
REMARK    4  A    between atoms: C_15  and  C_16 
REMARK    5  A    between atoms: C_17  and  C_18 
ROOT
HETATM    1  C   UNL     1     -20.983  -9.518  -1.612  1.00  0.00     0.009 C 
HETATM    2  C   UNL     1     -20.909  -8.305  -1.030  1.00  0.00     0.007 C 
ENDROOT
BRANCH   2   3
HETATM    3  C   UNL     1     -22.024  -7.353  -0.933  1.00  0.00    -0.062 C 
HETATM    4  C   UNL     1     -22.302  -6.403  -1.859  1.00  0.00     0.007 C 
HETATM    5  C   UNL     1     -22.873  -7.440   0.314  1.00  0.00     0.048 C 
BRANCH   4   6
HETATM    6  C   UNL     1     -21.585  -6.217  -3.108  1.00  0.00     0.001 C 
HETATM    7  C   UNL     1     -21.973  -6.577  -4.349  1.00  0.00     0.007 C 
BRANCH   7   8
HETATM    8  C   UNL     1     -21.152  -6.399  -5.558  1.00  0.00    -0.059 C 
HETATM    9  C   UNL     1     -21.412  -5.572  -6.594  1.00  0.00     0.048 C 
HETATM   10  C   UNL     1     -19.889  -7.224  -5.726  1.00  0.00     0.048 C 
BRANCH   9  11
HETATM   11  C   UNL     1     -22.535  -4.635  -6.839  1.00  0.00     0.259 C 
HETATM   12  O   UNL     1     -22.852  -4.318  -7.979  1.00  0.00    -0.302 OA
ENDBRANCH   9  11
ENDBRANCH   7   8
ENDBRANCH   4   6
ENDBRANCH   2   3
BRANCH   1  13
HETATM   13  C   UNL     1     -19.895 -10.511  -1.714  1.00  0.00    -0.048 C 
HETATM   14  C   UNL     1     -19.595 -11.363  -0.700  1.00  0.00    -0.077 C 
HETATM   15  C   UNL     1     -20.335 -11.451   0.613  1.00  0.00     0.044 C 
HETATM   16  C   UNL     1     -18.490 -12.401  -0.788  1.00  0.00     0.034 C 
HETATM   17  C   UNL     1     -17.552 -12.254  -1.976  1.00  0.00     0.005 C 
HETATM   18  C   UNL     1     -18.346 -11.918  -3.225  1.00  0.00     0.014 C 
HETATM   19  C   UNL     1     -19.156 -10.597  -3.078  1.00  0.00    -0.020 C 
HETATM   20  C   UNL     1     -20.125 -10.578  -4.283  1.00  0.00     0.020 C 
HETATM   21  C   UNL     1     -18.181  -9.407  -3.205  1.00  0.00     0.020 C 
ENDBRANCH   1  13
TORSDOF 5
BEGIN_RES ARG D 557
REMARK  4 active torsions:
REMARK  status: ('A' for Active; 'I' for Inactive)
REMARK    1  A    between atoms: CA   and  CB  
REMARK    2  A    between atoms: CB   and  CG  
REMARK    3  A    between atoms: CG   and  CD  
REMARK    4  A    between atoms: CD   and  NE  
REMARK       I    between atoms: NE   and  CZ  
REMARK       I    between atoms: CZ   and  NH1 
REMARK       I    between atoms: CZ   and  NH2 
ROOT
ATOM      1  CA  ARG D 557     -26.217   2.705 -17.014  1.00 35.49     0.159 C 
ENDROOT
BRANCH   1   2
ATOM      2  CB  ARG D 557     -26.789   1.319 -17.183  1.00 35.49     0.034 C 
BRANCH   2   3
ATOM      3  CG  ARG D 557     -28.231   1.226 -17.441  1.00 35.49     0.027 C 
BRANCH   3   4
ATOM      4  CD  ARG D 557     -28.914   0.304 -16.505  1.00 35.49     0.116 C 
BRANCH   4   5
ATOM      5  NE  ARG D 557     -29.308  -0.923 -17.144  1.00 35.49    -0.212 N 
ATOM      6  CZ  ARG D 557     -28.686  -2.077 -17.042  1.00 35.49     0.666 C 
ATOM      7  NH1 ARG D 557     -27.586  -2.228 -16.328  1.00 35.49    -0.235 N 
ATOM      8  NH2 ARG D 557     -29.198  -3.093 -17.674  1.00 35.49    -0.235 N 
ATOM      9  HH  ARG D 557     -27.233  -1.574 -15.902  1.00 35.49     0.174 HD
ATOM     10  HH  ARG D 557     -27.225  -3.005 -16.296  1.00 35.49     0.174 HD
ATOM     11  HH  ARG D 557     -29.913  -2.967 -18.122  1.00 35.49     0.174 HD
ATOM     12  HH  ARG D 557     -28.827  -3.854 -17.629  1.00 35.49     0.174 HD
ATOM     13  HE  ARG D 557     -29.966  -0.900 -17.682  1.00 35.49     0.178 HD
ENDBRANCH   4   5
ENDBRANCH   3   4
ENDBRANCH   2   3
ENDBRANCH   1   2
END_RES ARG D 557
BEGIN_RES GLU D 570
REMARK  3 active torsions:
REMARK  status: ('A' for Active; 'I' for Inactive)
REMARK    5  A    between atoms: CA   and  CB  
REMARK    6  A    between atoms: CB   and  CG  
REMARK    7  A    between atoms: CG   and  CD  
ROOT
ATOM     14  CA  GLU D 570     -18.033  -6.348 -13.375  1.00 32.92     0.160 C 
ENDROOT
BRANCH  14  15
ATOM     15  CB  GLU D 570     -19.500  -6.345 -13.794  1.00 32.92     0.043 C 
BRANCH  15  16
ATOM     16  CG  GLU D 570     -19.798  -6.483 -15.243  1.00 32.92     0.100 C 
BRANCH  16  17
ATOM     17  CD  GLU D 570     -20.962  -7.407 -15.519  1.00 32.92     0.185 C 
ATOM     18  OE1 GLU D 570     -22.121  -6.956 -15.452  1.00 32.92    -0.647 OA
ATOM     19  OE2 GLU D 570     -20.711  -8.598 -15.790  1.00 32.92    -0.647 OA
ENDBRANCH  16  17
ENDBRANCH  15  16
ENDBRANCH  14  15
END_RES GLU D 570
ENDMDL
MODEL 7
REMARK VINA RESULT:      -8.1      9.071     12.635
REMARK  5 active torsions:
REMARK  status: ('A' for Active; 'I' for Inactive)
REMARK    1  A    between atoms: C_3  and  C_10 
REMARK    2  A    between atoms: C_11  and  C_12 
REMARK    3  A    between atoms: C_13  and  C_14 
REMARK    4  A    between atoms: C_15  and  C_16 
REMARK    5  A    between atoms: C_17  and  C_18 
ROOT
HETATM    1  C   UNL     1     -21.226  -8.628  -3.254  1.00  0.00     0.009 C 
HETATM    2  C   UNL     1     -19.912  -8.561  -3.547  1.00  0.00     0.007 C 
ENDROOT
BRANCH   2   3
HETATM    3  C   UNL     1     -19.354  -8.591  -4.906  1.00  0.00    -0.062 C 
HETATM    4  C   UNL     1     -18.278  -9.327  -5.275  1.00  0.00     0.007 C 
HETATM    5  C   UNL     1     -20.025  -7.700  -5.926  1.00  0.00     0.048 C 
BRANCH   4   6
HETATM    6  C   UNL     1     -17.549 -10.238  -4.409  1.00  0.00     0.001 C 
HETATM    7  C   UNL     1     -16.261 -10.156  -4.017  1.00  0.00     0.007 C 
BRANCH   7   8
HETATM    8  C   UNL     1     -15.585 -11.160  -3.179  1.00  0.00    -0.059 C 
HETATM    9  C   UNL     1     -14.756 -12.138  -3.603  1.00  0.00     0.048 C 
HETATM   10  C   UNL     1     -15.832 -11.163  -1.680  1.00  0.00     0.048 C 
BRANCH   9  11
HETATM   11  C   UNL     1     -14.285 -12.499  -4.962  1.00  0.00     0.259 C 
HETATM   12  O   UNL     1     -13.256 -12.019  -5.420  1.00  0.00    -0.302 OA
ENDBRANCH   9  11
ENDBRANCH   7   8
ENDBRANCH   4   6
ENDBRANCH   2   3
BRANCH   1  13
HETATM   13  C   UNL     1     -21.830  -8.582  -1.908  1.00  0.00    -0.048 C 
HETATM   14  C   UNL     1     -22.168  -7.413  -1.306  1.00  0.00    -0.077 C 
HETATM   15  C   UNL     1     -22.028  -6.043  -1.923  1.00  0.00     0.044 C 
HETATM   16  C   UNL     1     -22.802  -7.343   0.072  1.00  0.00     0.034 C 
HETATM   17  C   UNL     1     -22.789  -8.642   0.862  1.00  0.00     0.005 C 
HETATM   18  C   UNL     1     -23.136  -9.805  -0.048  1.00  0.00     0.014 C 
HETATM   19  C   UNL     1     -22.142  -9.949  -1.238  1.00  0.00    -0.020 C 
HETATM   20  C   UNL     1     -22.811 -10.949  -2.208  1.00  0.00     0.020 C 
HETATM   21  C   UNL     1     -20.831 -10.569  -0.709  1.00  0.00     0.020 C 
ENDBRANCH   1  13
TORSDOF 5
BEGIN_RES ARG D 557
REMARK  4 active torsions:
REMARK  status: ('A' for Active; 'I' for Inactive)
REMARK    1  A    between atoms: CA   and  CB  
REMARK    2  A    between atoms: CB   and  CG  
REMARK    3  A    between atoms: CG   and  CD  
REMARK    4  A    between atoms: CD   and  NE  
REMARK       I    between atoms: NE   and  CZ  
REMARK       I    between atoms: CZ   and  NH1 
REMARK       I    between atoms: CZ   and  NH2 
ROOT
ATOM      1  CA  ARG D 557     -26.217   2.705 -17.014  1.00 35.49     0.159 C 
ENDROOT
BRANCH   1   2
ATOM      2  CB  ARG D 557     -26.789   1.319 -17.183  1.00 35.49     0.034 C 
BRANCH   2   3
ATOM      3  CG  ARG D 557     -25.857   0.196 -17.023  1.00 35.49     0.027 C 
BRANCH   3   4
ATOM      4  CD  ARG D 557     -26.242  -0.702 -15.909  1.00 35.49     0.116 C 
BRANCH   4   5
ATOM      5  NE  ARG D 557     -25.199  -0.820 -14.924  1.00 35.49    -0.212 N 
ATOM      6  CZ  ARG D 557     -24.796  -1.938 -14.363  1.00 35.49     0.666 C 
ATOM      7  NH1 ARG D 557     -25.336  -3.109 -14.646  1.00 35.49    -0.235 N 
ATOM      8  NH2 ARG D 557     -23.822  -1.861 -13.504  1.00 35.49    -0.235 N 
ATOM      9  HH  ARG D 557     -25.977  -3.183 -15.210  1.00 35.49     0.174 HD
ATOM     10  HH  ARG D 557     -25.030  -3.804 -14.251  1.00 35.49     0.174 HD
ATOM     11  HH  ARG D 557     -23.487  -1.092 -13.346  1.00 35.49     0.174 HD
ATOM     12  HH  ARG D 557     -23.532  -2.561 -13.124  1.00 35.49     0.174 HD
ATOM     13  HE  ARG D 557     -24.845  -0.105 -14.629  1.00 35.49     0.178 HD
ENDBRANCH   4   5
ENDBRANCH   3   4
ENDBRANCH   2   3
ENDBRANCH   1   2
END_RES ARG D 557
BEGIN_RES GLU D 570
REMARK  3 active torsions:
REMARK  status: ('A' for Active; 'I' for Inactive)
REMARK    5  A    between atoms: CA   and  CB  
REMARK    6  A    between atoms: CB   and  CG  
REMARK    7  A    between atoms: CG   and  CD  
ROOT
ATOM     14  CA  GLU D 570     -18.033  -6.348 -13.375  1.00 32.92     0.160 C 
ENDROOT
BRANCH  14  15
ATOM     15  CB  GLU D 570     -19.500  -6.345 -13.794  1.00 32.92     0.043 C 
BRANCH  15  16
ATOM     16  CG  GLU D 570     -20.438  -5.513 -12.997  1.00 32.92     0.100 C 
BRANCH  16  17
ATOM     17  CD  GLU D 570     -21.773  -5.314 -13.676  1.00 32.92     0.185 C 
ATOM     18  OE1 GLU D 570     -22.154  -6.151 -14.517  1.00 32.92    -0.647 OA
ATOM     19  OE2 GLU D 570     -22.437  -4.302 -13.376  1.00 32.92    -0.647 OA
ENDBRANCH  16  17
ENDBRANCH  15  16
ENDBRANCH  14  15
END_RES GLU D 570
ENDMDL
MODEL 8
REMARK VINA RESULT:      -8.1      9.127     12.722
REMARK  5 active torsions:
REMARK  status: ('A' for Active; 'I' for Inactive)
REMARK    1  A    between atoms: C_3  and  C_10 
REMARK    2  A    between atoms: C_11  and  C_12 
REMARK    3  A    between atoms: C_13  and  C_14 
REMARK    4  A    between atoms: C_15  and  C_16 
REMARK    5  A    between atoms: C_17  and  C_18 
ROOT
HETATM    1  C   UNL     1     -22.842 -10.176  -0.893  1.00  0.00     0.009 C 
HETATM    2  C   UNL     1     -22.024  -9.108  -0.970  1.00  0.00     0.007 C 
ENDROOT
BRANCH   2   3
HETATM    3  C   UNL     1     -22.400  -7.736  -0.603  1.00  0.00    -0.062 C 
HETATM    4  C   UNL     1     -22.071  -6.634  -1.319  1.00  0.00     0.007 C 
HETATM    5  C   UNL     1     -23.171  -7.576   0.687  1.00  0.00     0.048 C 
BRANCH   4   6
HETATM    6  C   UNL     1     -21.352  -6.641  -2.582  1.00  0.00     0.001 C 
HETATM    7  C   UNL     1     -21.734  -7.196  -3.751  1.00  0.00     0.007 C 
BRANCH   7   8
HETATM    8  C   UNL     1     -20.911  -7.203  -4.972  1.00  0.00    -0.059 C 
HETATM    9  C   UNL     1     -21.034  -6.375  -6.031  1.00  0.00     0.048 C 
HETATM   10  C   UNL     1     -19.816  -8.245  -5.122  1.00  0.00     0.048 C 
BRANCH   9  11
HETATM   11  C   UNL     1     -21.976  -5.262  -6.298  1.00  0.00     0.259 C 
HETATM   12  O   UNL     1     -21.852  -4.557  -7.292  1.00  0.00    -0.302 OA
ENDBRANCH   9  11
ENDBRANCH   7   8
ENDBRANCH   4   6
ENDBRANCH   2   3
BRANCH   1  13
HETATM   13  C   UNL     1     -22.500 -11.571  -1.233  1.00  0.00    -0.048 C 
HETATM   14  C   UNL     1     -22.483 -12.022  -2.513  1.00  0.00    -0.077 C 
HETATM   15  C   UNL     1     -22.752 -11.180  -3.737  1.00  0.00     0.044 C 
HETATM   16  C   UNL     1     -22.121 -13.449  -2.886  1.00  0.00     0.034 C 
HETATM   17  C   UNL     1     -22.043 -14.426  -1.723  1.00  0.00     0.005 C 
HETATM   18  C   UNL     1     -21.343 -13.774  -0.545  1.00  0.00     0.014 C 
HETATM   19  C   UNL     1     -22.074 -12.490  -0.054  1.00  0.00    -0.020 C 
HETATM   20  C   UNL     1     -21.080 -11.800   0.910  1.00  0.00     0.020 C 
HETATM   21  C   UNL     1     -23.327 -12.913   0.741  1.00  0.00     0.020 C 
ENDBRANCH   1  13
TORSDOF 5
BEGIN_RES ARG D 557
REMARK  4 active torsions:
REMARK  status: ('A' for Active; 'I' for Inactive)
REMARK    1  A    between atoms: CA   and  CB  
REMARK    2  A    between atoms: CB   and  CG  
REMARK    3  A    between atoms: CG   and  CD  
REMARK    4  A    between atoms: CD   and  NE  
REMARK       I    between atoms: NE   and  CZ  
REMARK       I    between atoms: CZ   and  NH1 
REMARK       I    between atoms: CZ   and  NH2 
ROOT
ATOM      1  CA  ARG D 557     -26.217   2.705 -17.014  1.00 35.49     0.159 C 
ENDROOT
BRANCH   1   2
ATOM      2  CB  ARG D 557     -26.789   1.319 -17.183  1.00 35.49     0.034 C 
BRANCH   2   3
ATOM      3  CG  ARG D 557     -25.842   0.200 -17.107  1.00 35.49     0.027 C 
BRANCH   3   4
ATOM      4  CD  ARG D 557     -24.773   0.432 -16.109  1.00 35.49     0.116 C 
BRANCH   4   5
ATOM      5  NE  ARG D 557     -24.874  -0.465 -14.988  1.00 35.49    -0.212 N 
ATOM      6  CZ  ARG D 557     -24.031  -1.431 -14.699  1.00 35.49     0.666 C 
ATOM      7  NH1 ARG D 557     -22.973  -1.696 -15.444  1.00 35.49    -0.235 N 
ATOM      8  NH2 ARG D 557     -24.267  -2.133 -13.629  1.00 35.49    -0.235 N 
ATOM      9  HH  ARG D 557     -22.798  -1.245 -16.151  1.00 35.49     0.174 HD
ATOM     10  HH  ARG D 557     -22.457  -2.337 -15.205  1.00 35.49     0.174 HD
ATOM     11  HH  ARG D 557     -24.953  -1.935 -13.163  1.00 35.49     0.174 HD
ATOM     12  HH  ARG D 557     -23.743  -2.763 -13.408  1.00 35.49     0.174 HD
ATOM     13  HE  ARG D 557     -25.565  -0.412 -14.495  1.00 35.49     0.178 HD
ENDBRANCH   4   5
ENDBRANCH   3   4
ENDBRANCH   2   3
ENDBRANCH   1   2
END_RES ARG D 557
BEGIN_RES GLU D 570
REMARK  3 active torsions:
REMARK  status: ('A' for Active; 'I' for Inactive)
REMARK    5  A    between atoms: CA   and  CB  
REMARK    6  A    between atoms: CB   and  CG  
REMARK    7  A    between atoms: CG   and  CD  
ROOT
ATOM     14  CA  GLU D 570     -18.033  -6.348 -13.375  1.00 32.92     0.160 C 
ENDROOT
BRANCH  14  15
ATOM     15  CB  GLU D 570     -19.500  -6.345 -13.794  1.00 32.92     0.043 C 
BRANCH  15  16
ATOM     16  CG  GLU D 570     -20.442  -5.533 -12.981  1.00 32.92     0.100 C 
BRANCH  16  17
ATOM     17  CD  GLU D 570     -21.680  -5.126 -13.746  1.00 32.92     0.185 C 
ATOM     18  OE1 GLU D 570     -22.726  -4.877 -13.117  1.00 32.92    -0.647 OA
ATOM     19  OE2 GLU D 570     -21.607  -5.070 -14.990  1.00 32.92    -0.647 OA
ENDBRANCH  16  17
ENDBRANCH  15  16
ENDBRANCH  14  15
END_RES GLU D 570
ENDMDL
MODEL 9
REMARK VINA RESULT:      -8.1      9.317     12.922
REMARK  5 active torsions:
REMARK  status: ('A' for Active; 'I' for Inactive)
REMARK    1  A    between atoms: C_3  and  C_10 
REMARK    2  A    between atoms: C_11  and  C_12 
REMARK    3  A    between atoms: C_13  and  C_14 
REMARK    4  A    between atoms: C_15  and  C_16 
REMARK    5  A    between atoms: C_17  and  C_18 
ROOT
HETATM    1  C   UNL     1     -22.738 -10.216  -0.767  1.00  0.00     0.009 C 
HETATM    2  C   UNL     1     -22.034  -9.080  -0.943  1.00  0.00     0.007 C 
ENDROOT
BRANCH   2   3
HETATM    3  C   UNL     1     -22.483  -7.744  -0.529  1.00  0.00    -0.062 C 
HETATM    4  C   UNL     1     -22.155  -6.595  -1.167  1.00  0.00     0.007 C 
HETATM    5  C   UNL     1     -23.331  -7.680   0.720  1.00  0.00     0.048 C 
BRANCH   4   6
HETATM    6  C   UNL     1     -21.365  -6.508  -2.383  1.00  0.00     0.001 C 
HETATM    7  C   UNL     1     -21.807  -6.414  -3.654  1.00  0.00     0.007 C 
BRANCH   7   8
HETATM    8  C   UNL     1     -20.930  -6.389  -4.836  1.00  0.00    -0.059 C 
HETATM    9  C   UNL     1     -20.361  -7.454  -5.441  1.00  0.00     0.048 C 
HETATM   10  C   UNL     1     -20.571  -5.054  -5.465  1.00  0.00     0.048 C 
BRANCH   9  11
HETATM   11  C   UNL     1     -20.425  -8.902  -5.132  1.00  0.00     0.259 C 
HETATM   12  O   UNL     1     -20.985  -9.683  -5.892  1.00  0.00    -0.302 OA
ENDBRANCH   9  11
ENDBRANCH   7   8
ENDBRANCH   4   6
ENDBRANCH   2   3
BRANCH   1  13
HETATM   13  C   UNL     1     -22.318 -11.578  -1.150  1.00  0.00    -0.048 C 
HETATM   14  C   UNL     1     -22.439 -12.044  -2.419  1.00  0.00    -0.077 C 
HETATM   15  C   UNL     1     -22.956 -11.248  -3.593  1.00  0.00     0.044 C 
HETATM   16  C   UNL     1     -22.002 -13.436  -2.838  1.00  0.00     0.034 C 
HETATM   17  C   UNL     1     -21.669 -14.385  -1.697  1.00  0.00     0.005 C 
HETATM   18  C   UNL     1     -20.874 -13.655  -0.631  1.00  0.00     0.014 C 
HETATM   19  C   UNL     1     -21.645 -12.437  -0.042  1.00  0.00    -0.020 C 
HETATM   20  C   UNL     1     -20.595 -11.644   0.770  1.00  0.00     0.020 C 
HETATM   21  C   UNL     1     -22.729 -12.963   0.923  1.00  0.00     0.020 C 
ENDBRANCH   1  13
TORSDOF 5
BEGIN_RES ARG D 557
REMARK  4 active torsions:
REMARK  status: ('A' for Active; 'I' for Inactive)
REMARK    1  A    between atoms: CA   and  CB  
REMARK    2  A    between atoms: CB   and  CG  
REMARK    3  A    between atoms: CG   and  CD  
REMARK    4  A    between atoms: CD   and  NE  
REMARK       I    between atoms: NE   and  CZ  
REMARK       I    between atoms: CZ   and  NH1 
REMARK       I    between atoms: CZ   and  NH2 
ROOT
ATOM      1  CA  ARG D 557     -26.217   2.705 -17.014  1.00 35.49     0.159 C 
ENDROOT
BRANCH   1   2
ATOM      2  CB  ARG D 557     -26.789   1.319 -17.183  1.00 35.49     0.034 C 
BRANCH   2   3
ATOM      3  CG  ARG D 557     -25.942   0.198 -16.757  1.00 35.49     0.027 C 
BRANCH   3   4
ATOM      4  CD  ARG D 557     -26.711  -0.857 -16.060  1.00 35.49     0.116 C 
BRANCH   4   5
ATOM      5  NE  ARG D 557     -25.964  -1.450 -14.982  1.00 35.49    -0.212 N 
ATOM      6  CZ  ARG D 557     -25.939  -2.729 -14.678  1.00 35.49     0.666 C 
ATOM      7  NH1 ARG D 557     -26.633  -3.631 -15.346  1.00 35.49    -0.235 N 
ATOM      8  NH2 ARG D 557     -25.188  -3.093 -13.679  1.00 35.49    -0.235 N 
ATOM      9  HH  ARG D 557     -27.132  -3.414 -16.008  1.00 35.49     0.174 HD
ATOM     10  HH  ARG D 557     -26.575  -4.451 -15.103  1.00 35.49     0.174 HD
ATOM     11  HH  ARG D 557     -24.745  -2.489 -13.270  1.00 35.49     0.174 HD
ATOM     12  HH  ARG D 557     -25.142  -3.909 -13.455  1.00 35.49     0.174 HD
ATOM     13  HE  ARG D 557     -25.545  -0.932 -14.454  1.00 35.49     0.178 HD
ENDBRANCH   4   5
ENDBRANCH   3   4
ENDBRANCH   2   3
ENDBRANCH   1   2
END_RES ARG D 557
BEGIN_RES GLU D 570
REMARK  3 active torsions:
REMARK  status: ('A' for Active; 'I' for Inactive)
REMARK    5  A    between atoms: CA   and  CB  
REMARK    6  A    between atoms: CB   and  CG  
REMARK    7  A    between atoms: CG   and  CD  
ROOT
ATOM     14  CA  GLU D 570     -18.033  -6.348 -13.375  1.00 32.92     0.160 C 
ENDROOT
BRANCH  14  15
ATOM     15  CB  GLU D 570     -19.500  -6.345 -13.794  1.00 32.92     0.043 C 
BRANCH  15  16
ATOM     16  CG  GLU D 570     -20.435  -5.501 -13.007  1.00 32.92     0.100 C 
BRANCH  16  17
ATOM     17  CD  GLU D 570     -21.745  -5.252 -13.717  1.00 32.92     0.185 C 
ATOM     18  OE1 GLU D 570     -22.313  -4.152 -13.573  1.00 32.92    -0.647 OA
ATOM     19  OE2 GLU D 570     -22.218  -6.174 -14.410  1.00 32.92    -0.647 OA
ENDBRANCH  16  17
ENDBRANCH  15  16
ENDBRANCH  14  15
END_RES GLU D 570
ENDMDL
