MODEL 1
REMARK VINA RESULT:      -6.5      0.000      0.000
REMARK  16 active torsions:
REMARK  status: ('A' for Active; 'I' for Inactive)
REMARK    1  A    between atoms: C_2  and  C_3 
REMARK    2  A    between atoms: C_3  and  C_4 
REMARK    3  A    between atoms: C_4  and  C_5 
REMARK    4  A    between atoms: C_5  and  C_6 
REMARK    5  A    between atoms: C_6  and  C_7 
REMARK    6  A    between atoms: C_7  and  O_9 
REMARK    7  A    between atoms: O_9  and  C_10 
REMARK    8  A    between atoms: C_10  and  C_11 
REMARK    9  A    between atoms: C_11  and  C_14 
REMARK   10  A    between atoms: C_14  and  O_15 
REMARK   11  A    between atoms: O_15  and  C_16 
REMARK   12  A    between atoms: C_16  and  C_18 
REMARK   13  A    between atoms: C_18  and  C_19 
REMARK   14  A    between atoms: C_19  and  C_20 
REMARK   15  A    between atoms: C_20  and  C_21 
REMARK   16  A    between atoms: C_21  and  C_22 
ROOT
HETATM    1  C   UNL     1     -20.791  -8.391  -4.231  1.00  0.00    -0.004 C 
HETATM    2  C   UNL     1     -21.557  -9.596  -3.664  1.00  0.00     0.019 C 
HETATM    3  C   UNL     1     -19.390  -8.847  -4.682  1.00  0.00     0.019 C 
ENDROOT
BRANCH   1   4
HETATM    4  C   UNL     1     -21.560  -7.810  -5.435  1.00  0.00     0.189 C 
BRANCH   4   5
HETATM    5  O   UNL     1     -20.660  -7.195  -6.379  1.00  0.00    -0.321 OA
BRANCH   5   6
HETATM    6  C   UNL     1     -20.883  -5.870  -6.613  1.00  0.00     0.258 C 
HETATM    7  O   UNL     1     -21.909  -5.264  -6.336  1.00  0.00    -0.265 OA
BRANCH   6   8
HETATM    8  C   UNL     1     -19.675  -5.223  -7.242  1.00  0.00     0.111 C 
BRANCH   8   9
HETATM    9  C   UNL     1     -20.079  -4.051  -8.132  1.00  0.00     0.010 C 
BRANCH   9  10
HETATM   10  C   UNL     1     -20.481  -4.490  -9.543  1.00  0.00     0.000 C 
BRANCH  10  11
HETATM   11  C   UNL     1     -21.670  -3.671 -10.044  1.00  0.00    -0.000 C 
BRANCH  11  12
HETATM   12  C   UNL     1     -22.990  -4.192  -9.482  1.00  0.00    -0.005 C 
HETATM   13  C   UNL     1     -23.733  -5.030 -10.510  1.00  0.00     0.005 C 
ENDBRANCH  11  12
ENDBRANCH  10  11
ENDBRANCH   9  10
ENDBRANCH   8   9
ENDBRANCH   6   8
ENDBRANCH   5   6
ENDBRANCH   4   5
ENDBRANCH   1   4
BRANCH   1  14
HETATM   14  C   UNL     1     -20.645  -7.318  -3.131  1.00  0.00     0.189 C 
BRANCH  14  15
HETATM   15  O   UNL     1     -21.124  -7.755  -1.848  1.00  0.00    -0.321 OA
BRANCH  15  16
HETATM   16  C   UNL     1     -22.117  -7.001  -1.300  1.00  0.00     0.258 C 
HETATM   17  O   UNL     1     -22.609  -5.990  -1.805  1.00  0.00    -0.265 OA
BRANCH  16  18
HETATM   18  C   UNL     1     -22.664  -7.671  -0.069  1.00  0.00     0.111 C 
BRANCH  18  19
HETATM   19  C   UNL     1     -21.662  -8.677   0.514  1.00  0.00     0.010 C 
BRANCH  19  20
HETATM   20  C   UNL     1     -22.064 -10.137   0.276  1.00  0.00     0.000 C 
BRANCH  20  21
HETATM   21  C   UNL     1     -23.502 -10.227  -0.237  1.00  0.00    -0.000 C 
BRANCH  21  22
HETATM   22  C   UNL     1     -23.919 -11.672  -0.497  1.00  0.00    -0.005 C 
HETATM   23  C   UNL     1     -23.421 -12.595   0.605  1.00  0.00     0.005 C 
ENDBRANCH  21  22
ENDBRANCH  20  21
ENDBRANCH  19  20
ENDBRANCH  18  19
ENDBRANCH  16  18
ENDBRANCH  15  16
ENDBRANCH  14  15
ENDBRANCH   1  14
TORSDOF 16
BEGIN_RES ARG D 557
REMARK  4 active torsions:
REMARK  status: ('A' for Active; 'I' for Inactive)
REMARK    1  A    between atoms: CA   and  CB  
REMARK    2  A    between atoms: CB   and  CG  
REMARK    3  A    between atoms: CG   and  CD  
REMARK    4  A    between atoms: CD   and  NE  
REMARK       I    between atoms: NE   and  CZ  
REMARK       I    between atoms: CZ   and  NH1 
REMARK       I    between atoms: CZ   and  NH2 
ROOT
ATOM      1  CA  ARG D 557     -26.217   2.705 -17.014  1.00 35.49     0.159 C 
ENDROOT
BRANCH   1   2
ATOM      2  CB  ARG D 557     -26.789   1.319 -17.183  1.00 35.49     0.034 C 
BRANCH   2   3
ATOM      3  CG  ARG D 557     -25.931   0.197 -16.784  1.00 35.49     0.027 C 
BRANCH   3   4
ATOM      4  CD  ARG D 557     -26.680  -0.860 -16.067  1.00 35.49     0.116 C 
BRANCH   4   5
ATOM      5  NE  ARG D 557     -25.917  -1.427 -14.986  1.00 35.49    -0.212 N 
ATOM      6  CZ  ARG D 557     -25.910  -2.693 -14.634  1.00 35.49     0.666 C 
ATOM      7  NH1 ARG D 557     -26.640  -3.605 -15.249  1.00 35.49    -0.235 N 
ATOM      8  NH2 ARG D 557     -25.140  -3.036 -13.642  1.00 35.49    -0.235 N 
ATOM      9  HH  ARG D 557     -27.152  -3.403 -15.906  1.00 35.49     0.174 HD
ATOM     10  HH  ARG D 557     -26.592  -4.416 -14.977  1.00 35.49     0.174 HD
ATOM     11  HH  ARG D 557     -24.675  -2.427 -13.268  1.00 35.49     0.174 HD
ATOM     12  HH  ARG D 557     -25.106  -3.844 -13.388  1.00 35.49     0.174 HD
ATOM     13  HE  ARG D 557     -25.474  -0.899 -14.490  1.00 35.49     0.178 HD
ENDBRANCH   4   5
ENDBRANCH   3   4
ENDBRANCH   2   3
ENDBRANCH   1   2
END_RES ARG D 557
BEGIN_RES GLU D 570
REMARK  3 active torsions:
REMARK  status: ('A' for Active; 'I' for Inactive)
REMARK    5  A    between atoms: CA   and  CB  
REMARK    6  A    between atoms: CB   and  CG  
REMARK    7  A    between atoms: CG   and  CD  
ROOT
ATOM     14  CA  GLU D 570     -18.033  -6.348 -13.375  1.00 32.92     0.160 C 
ENDROOT
BRANCH  14  15
ATOM     15  CB  GLU D 570     -19.500  -6.345 -13.794  1.00 32.92     0.043 C 
BRANCH  15  16
ATOM     16  CG  GLU D 570     -20.433  -5.492 -13.013  1.00 32.92     0.100 C 
BRANCH  16  17
ATOM     17  CD  GLU D 570     -21.734  -5.227 -13.736  1.00 32.92     0.185 C 
ATOM     18  OE1 GLU D 570     -22.291  -4.122 -13.593  1.00 32.92    -0.647 OA
ATOM     19  OE2 GLU D 570     -22.208  -6.141 -14.439  1.00 32.92    -0.647 OA
ENDBRANCH  16  17
ENDBRANCH  15  16
ENDBRANCH  14  15
END_RES GLU D 570
ENDMDL
MODEL 2
REMARK VINA RESULT:      -6.5      0.829      7.146
REMARK  16 active torsions:
REMARK  status: ('A' for Active; 'I' for Inactive)
REMARK    1  A    between atoms: C_2  and  C_3 
REMARK    2  A    between atoms: C_3  and  C_4 
REMARK    3  A    between atoms: C_4  and  C_5 
REMARK    4  A    between atoms: C_5  and  C_6 
REMARK    5  A    between atoms: C_6  and  C_7 
REMARK    6  A    between atoms: C_7  and  O_9 
REMARK    7  A    between atoms: O_9  and  C_10 
REMARK    8  A    between atoms: C_10  and  C_11 
REMARK    9  A    between atoms: C_11  and  C_14 
REMARK   10  A    between atoms: C_14  and  O_15 
REMARK   11  A    between atoms: O_15  and  C_16 
REMARK   12  A    between atoms: C_16  and  C_18 
REMARK   13  A    between atoms: C_18  and  C_19 
REMARK   14  A    between atoms: C_19  and  C_20 
REMARK   15  A    between atoms: C_20  and  C_21 
REMARK   16  A    between atoms: C_21  and  C_22 
ROOT
HETATM    1  C   UNL     1     -20.420  -8.598  -3.600  1.00  0.00    -0.004 C 
HETATM    2  C   UNL     1     -19.265  -9.391  -2.968  1.00  0.00     0.019 C 
HETATM    3  C   UNL     1     -21.654  -9.512  -3.724  1.00  0.00     0.019 C 
ENDROOT
BRANCH   1   4
HETATM    4  C   UNL     1     -20.759  -7.384  -2.711  1.00  0.00     0.189 C 
BRANCH   4   5
HETATM    5  O   UNL     1     -20.888  -7.773  -1.329  1.00  0.00    -0.321 OA
BRANCH   5   6
HETATM    6  C   UNL     1     -22.044  -7.380  -0.721  1.00  0.00     0.258 C 
HETATM    7  O   UNL     1     -22.736  -6.430  -1.062  1.00  0.00    -0.265 OA
BRANCH   6   8
HETATM    8  C   UNL     1     -22.388  -8.295   0.427  1.00  0.00     0.111 C 
BRANCH   8   9
HETATM    9  C   UNL     1     -21.294  -9.336   0.647  1.00  0.00     0.010 C 
BRANCH   9  10
HETATM   10  C   UNL     1     -21.715 -10.740   0.206  1.00  0.00     0.000 C 
BRANCH  10  11
HETATM   11  C   UNL     1     -23.174 -10.747  -0.250  1.00  0.00    -0.000 C 
BRANCH  11  12
HETATM   12  C   UNL     1     -23.784 -12.144  -0.167  1.00  0.00    -0.005 C 
HETATM   13  C   UNL     1     -23.222 -12.921   1.013  1.00  0.00     0.005 C 
ENDBRANCH  11  12
ENDBRANCH  10  11
ENDBRANCH   9  10
ENDBRANCH   8   9
ENDBRANCH   6   8
ENDBRANCH   5   6
ENDBRANCH   4   5
ENDBRANCH   1   4
BRANCH   1  14
HETATM   14  C   UNL     1     -20.000  -8.121  -5.006  1.00  0.00     0.189 C 
BRANCH  14  15
HETATM   15  O   UNL     1     -21.114  -7.732  -5.827  1.00  0.00    -0.321 OA
BRANCH  15  16
HETATM   16  C   UNL     1     -21.364  -6.394  -5.889  1.00  0.00     0.258 C 
HETATM   17  O   UNL     1     -22.406  -5.844  -5.524  1.00  0.00    -0.265 OA
BRANCH  16  18
HETATM   18  C   UNL     1     -20.124  -5.649  -6.297  1.00  0.00     0.111 C 
BRANCH  18  19
HETATM   19  C   UNL     1     -20.467  -4.361  -7.057  1.00  0.00     0.010 C 
BRANCH  19  20
HETATM   20  C   UNL     1     -20.960  -4.615  -8.486  1.00  0.00     0.000 C 
BRANCH  20  21
HETATM   21  C   UNL     1     -22.304  -3.924  -8.727  1.00  0.00    -0.000 C 
BRANCH  21  22
HETATM   22  C   UNL     1     -22.667  -3.900 -10.209  1.00  0.00    -0.005 C 
HETATM   23  C   UNL     1     -23.725  -4.943 -10.533  1.00  0.00     0.005 C 
ENDBRANCH  21  22
ENDBRANCH  20  21
ENDBRANCH  19  20
ENDBRANCH  18  19
ENDBRANCH  16  18
ENDBRANCH  15  16
ENDBRANCH  14  15
ENDBRANCH   1  14
TORSDOF 16
BEGIN_RES ARG D 557
REMARK  4 active torsions:
REMARK  status: ('A' for Active; 'I' for Inactive)
REMARK    1  A    between atoms: CA   and  CB  
REMARK    2  A    between atoms: CB   and  CG  
REMARK    3  A    between atoms: CG   and  CD  
REMARK    4  A    between atoms: CD   and  NE  
REMARK       I    between atoms: NE   and  CZ  
REMARK       I    between atoms: CZ   and  NH1 
REMARK       I    between atoms: CZ   and  NH2 
ROOT
ATOM      1  CA  ARG D 557     -26.217   2.705 -17.014  1.00 35.49     0.159 C 
ENDROOT
BRANCH   1   2
ATOM      2  CB  ARG D 557     -26.789   1.319 -17.183  1.00 35.49     0.034 C 
BRANCH   2   3
ATOM      3  CG  ARG D 557     -25.864   0.195 -16.994  1.00 35.49     0.027 C 
BRANCH   3   4
ATOM      4  CD  ARG D 557     -26.338  -0.758 -15.964  1.00 35.49     0.116 C 
BRANCH   4   5
ATOM      5  NE  ARG D 557     -25.362  -0.965 -14.926  1.00 35.49    -0.212 N 
ATOM      6  CZ  ARG D 557     -25.112  -2.105 -14.322  1.00 35.49     0.666 C 
ATOM      7  NH1 ARG D 557     -25.766  -3.216 -14.607  1.00 35.49    -0.235 N 
ATOM      8  NH2 ARG D 557     -24.176  -2.113 -13.418  1.00 35.49    -0.235 N 
ATOM      9  HH  ARG D 557     -26.384  -3.234 -15.200  1.00 35.49     0.174 HD
ATOM     10  HH  ARG D 557     -25.558  -3.930 -14.182  1.00 35.49     0.174 HD
ATOM     11  HH  ARG D 557     -23.766  -1.382 -13.261  1.00 35.49     0.174 HD
ATOM     12  HH  ARG D 557     -23.984  -2.831 -13.010  1.00 35.49     0.174 HD
ATOM     13  HE  ARG D 557     -24.944  -0.285 -14.630  1.00 35.49     0.178 HD
ENDBRANCH   4   5
ENDBRANCH   3   4
ENDBRANCH   2   3
ENDBRANCH   1   2
END_RES ARG D 557
BEGIN_RES GLU D 570
REMARK  3 active torsions:
REMARK  status: ('A' for Active; 'I' for Inactive)
REMARK    5  A    between atoms: CA   and  CB  
REMARK    6  A    between atoms: CB   and  CG  
REMARK    7  A    between atoms: CG   and  CD  
ROOT
ATOM     14  CA  GLU D 570     -18.033  -6.348 -13.375  1.00 32.92     0.160 C 
ENDROOT
BRANCH  14  15
ATOM     15  CB  GLU D 570     -19.500  -6.345 -13.794  1.00 32.92     0.043 C 
BRANCH  15  16
ATOM     16  CG  GLU D 570     -20.434  -5.495 -13.011  1.00 32.92     0.100 C 
BRANCH  16  17
ATOM     17  CD  GLU D 570     -21.747  -5.254 -13.720  1.00 32.92     0.185 C 
ATOM     18  OE1 GLU D 570     -22.303  -6.206 -14.301  1.00 32.92    -0.647 OA
ATOM     19  OE2 GLU D 570     -22.215  -4.099 -13.707  1.00 32.92    -0.647 OA
ENDBRANCH  16  17
ENDBRANCH  15  16
ENDBRANCH  14  15
END_RES GLU D 570
ENDMDL
MODEL 3
REMARK VINA RESULT:      -6.2      1.515      7.554
REMARK  16 active torsions:
REMARK  status: ('A' for Active; 'I' for Inactive)
REMARK    1  A    between atoms: C_2  and  C_3 
REMARK    2  A    between atoms: C_3  and  C_4 
REMARK    3  A    between atoms: C_4  and  C_5 
REMARK    4  A    between atoms: C_5  and  C_6 
REMARK    5  A    between atoms: C_6  and  C_7 
REMARK    6  A    between atoms: C_7  and  O_9 
REMARK    7  A    between atoms: O_9  and  C_10 
REMARK    8  A    between atoms: C_10  and  C_11 
REMARK    9  A    between atoms: C_11  and  C_14 
REMARK   10  A    between atoms: C_14  and  O_15 
REMARK   11  A    between atoms: O_15  and  C_16 
REMARK   12  A    between atoms: C_16  and  C_18 
REMARK   13  A    between atoms: C_18  and  C_19 
REMARK   14  A    between atoms: C_19  and  C_20 
REMARK   15  A    between atoms: C_20  and  C_21 
REMARK   16  A    between atoms: C_21  and  C_22 
ROOT
HETATM    1  C   UNL     1     -20.823  -8.435  -4.280  1.00  0.00    -0.004 C 
HETATM    2  C   UNL     1     -19.337  -8.815  -4.369  1.00  0.00     0.019 C 
HETATM    3  C   UNL     1     -21.668  -9.717  -4.150  1.00  0.00     0.019 C 
ENDROOT
BRANCH   1   4
HETATM    4  C   UNL     1     -21.052  -7.535  -3.047  1.00  0.00     0.189 C 
BRANCH   4   5
HETATM    5  O   UNL     1     -21.482  -8.311  -1.911  1.00  0.00    -0.321 OA
BRANCH   5   6
HETATM    6  C   UNL     1     -22.138  -7.607  -0.943  1.00  0.00     0.258 C 
HETATM    7  O   UNL     1     -22.631  -6.497  -1.086  1.00  0.00    -0.265 OA
BRANCH   6   8
HETATM    8  C   UNL     1     -22.207  -8.394   0.341  1.00  0.00     0.111 C 
BRANCH   8   9
HETATM    9  C   UNL     1     -22.265  -9.894   0.065  1.00  0.00     0.010 C 
BRANCH   9  10
HETATM   10  C   UNL     1     -23.687 -10.393  -0.200  1.00  0.00     0.000 C 
BRANCH  10  11
HETATM   11  C   UNL     1     -23.736 -11.921  -0.177  1.00  0.00    -0.000 C 
BRANCH  11  12
HETATM   12  C   UNL     1     -22.696 -12.503   0.778  1.00  0.00    -0.005 C 
HETATM   13  C   UNL     1     -23.311 -13.558   1.684  1.00  0.00     0.005 C 
ENDBRANCH  11  12
ENDBRANCH  10  11
ENDBRANCH   9  10
ENDBRANCH   8   9
ENDBRANCH   6   8
ENDBRANCH   5   6
ENDBRANCH   4   5
ENDBRANCH   1   4
BRANCH   1  14
HETATM   14  C   UNL     1     -21.234  -7.685  -5.564  1.00  0.00     0.189 C 
BRANCH  14  15
HETATM   15  O   UNL     1     -20.137  -7.006  -6.198  1.00  0.00    -0.321 OA
BRANCH  15  16
HETATM   16  C   UNL     1     -20.309  -5.670  -6.404  1.00  0.00     0.258 C 
HETATM   17  O   UNL     1     -19.839  -4.772  -5.703  1.00  0.00    -0.265 OA
BRANCH  16  18
HETATM   18  C   UNL     1     -21.005  -5.429  -7.715  1.00  0.00     0.111 C 
BRANCH  18  19
HETATM   19  C   UNL     1     -21.889  -4.177  -7.660  1.00  0.00     0.010 C 
BRANCH  19  20
HETATM   20  C   UNL     1     -22.119  -3.539  -9.035  1.00  0.00     0.000 C 
BRANCH  20  21
HETATM   21  C   UNL     1     -22.572  -4.589 -10.051  1.00  0.00    -0.000 C 
BRANCH  21  22
HETATM   22  C   UNL     1     -24.091  -4.739 -10.069  1.00  0.00    -0.005 C 
HETATM   23  C   UNL     1     -24.778  -3.399  -9.852  1.00  0.00     0.005 C 
ENDBRANCH  21  22
ENDBRANCH  20  21
ENDBRANCH  19  20
ENDBRANCH  18  19
ENDBRANCH  16  18
ENDBRANCH  15  16
ENDBRANCH  14  15
ENDBRANCH   1  14
TORSDOF 16
BEGIN_RES ARG D 557
REMARK  4 active torsions:
REMARK  status: ('A' for Active; 'I' for Inactive)
REMARK    1  A    between atoms: CA   and  CB  
REMARK    2  A    between atoms: CB   and  CG  
REMARK    3  A    between atoms: CG   and  CD  
REMARK    4  A    between atoms: CD   and  NE  
REMARK       I    between atoms: NE   and  CZ  
REMARK       I    between atoms: CZ   and  NH1 
REMARK       I    between atoms: CZ   and  NH2 
ROOT
ATOM      1  CA  ARG D 557     -26.217   2.705 -17.014  1.00 35.49     0.159 C 
ENDROOT
BRANCH   1   2
ATOM      2  CB  ARG D 557     -26.789   1.319 -17.183  1.00 35.49     0.034 C 
BRANCH   2   3
ATOM      3  CG  ARG D 557     -28.156   1.104 -16.692  1.00 35.49     0.027 C 
BRANCH   3   4
ATOM      4  CD  ARG D 557     -28.794  -0.085 -17.302  1.00 35.49     0.116 C 
BRANCH   4   5
ATOM      5  NE  ARG D 557     -28.185  -1.313 -16.863  1.00 35.49    -0.212 N 
ATOM      6  CZ  ARG D 557     -28.670  -2.520 -17.048  1.00 35.49     0.666 C 
ATOM      7  NH1 ARG D 557     -29.816  -2.736 -17.667  1.00 35.49    -0.235 N 
ATOM      8  NH2 ARG D 557     -27.972  -3.523 -16.601  1.00 35.49    -0.235 N 
ATOM      9  HH  ARG D 557     -30.291  -2.092 -17.971  1.00 35.49     0.174 HD
ATOM     10  HH  ARG D 557     -30.081  -3.546 -17.760  1.00 35.49     0.174 HD
ATOM     11  HH  ARG D 557     -27.232  -3.353 -16.212  1.00 35.49     0.174 HD
ATOM     12  HH  ARG D 557     -28.250  -4.317 -16.705  1.00 35.49     0.174 HD
ATOM     13  HE  ARG D 557     -27.479  -1.262 -16.392  1.00 35.49     0.178 HD
ENDBRANCH   4   5
ENDBRANCH   3   4
ENDBRANCH   2   3
ENDBRANCH   1   2
END_RES ARG D 557
BEGIN_RES GLU D 570
REMARK  3 active torsions:
REMARK  status: ('A' for Active; 'I' for Inactive)
REMARK    5  A    between atoms: CA   and  CB  
REMARK    6  A    between atoms: CB   and  CG  
REMARK    7  A    between atoms: CG   and  CD  
ROOT
ATOM     14  CA  GLU D 570     -18.033  -6.348 -13.375  1.00 32.92     0.160 C 
ENDROOT
BRANCH  14  15
ATOM     15  CB  GLU D 570     -19.500  -6.345 -13.794  1.00 32.92     0.043 C 
BRANCH  15  16
ATOM     16  CG  GLU D 570     -20.439  -5.516 -12.995  1.00 32.92     0.100 C 
BRANCH  16  17
ATOM     17  CD  GLU D 570     -21.740  -5.242 -13.711  1.00 32.92     0.185 C 
ATOM     18  OE1 GLU D 570     -22.293  -4.136 -13.560  1.00 32.92    -0.647 OA
ATOM     19  OE2 GLU D 570     -22.221  -6.150 -14.418  1.00 32.92    -0.647 OA
ENDBRANCH  16  17
ENDBRANCH  15  16
ENDBRANCH  14  15
END_RES GLU D 570
ENDMDL
MODEL 4
REMARK VINA RESULT:      -6.1      1.815      2.229
REMARK  16 active torsions:
REMARK  status: ('A' for Active; 'I' for Inactive)
REMARK    1  A    between atoms: C_2  and  C_3 
REMARK    2  A    between atoms: C_3  and  C_4 
REMARK    3  A    between atoms: C_4  and  C_5 
REMARK    4  A    between atoms: C_5  and  C_6 
REMARK    5  A    between atoms: C_6  and  C_7 
REMARK    6  A    between atoms: C_7  and  O_9 
REMARK    7  A    between atoms: O_9  and  C_10 
REMARK    8  A    between atoms: C_10  and  C_11 
REMARK    9  A    between atoms: C_11  and  C_14 
REMARK   10  A    between atoms: C_14  and  O_15 
REMARK   11  A    between atoms: O_15  and  C_16 
REMARK   12  A    between atoms: C_16  and  C_18 
REMARK   13  A    between atoms: C_18  and  C_19 
REMARK   14  A    between atoms: C_19  and  C_20 
REMARK   15  A    between atoms: C_20  and  C_21 
REMARK   16  A    between atoms: C_21  and  C_22 
ROOT
HETATM    1  C   UNL     1     -20.505  -8.538  -4.036  1.00  0.00    -0.004 C 
HETATM    2  C   UNL     1     -21.412  -9.680  -4.520  1.00  0.00     0.019 C 
HETATM    3  C   UNL     1     -19.283  -9.133  -3.311  1.00  0.00     0.019 C 
ENDROOT
BRANCH   1   4
HETATM    4  C   UNL     1     -20.035  -7.705  -5.247  1.00  0.00     0.189 C 
BRANCH   4   5
HETATM    5  O   UNL     1     -21.134  -7.409  -6.132  1.00  0.00    -0.321 OA
BRANCH   5   6
HETATM    6  C   UNL     1     -21.325  -6.085  -6.397  1.00  0.00     0.258 C 
HETATM    7  O   UNL     1     -22.263  -5.410  -5.996  1.00  0.00    -0.265 OA
BRANCH   6   8
HETATM    8  C   UNL     1     -20.200  -5.536  -7.237  1.00  0.00     0.111 C 
BRANCH   8   9
HETATM    9  C   UNL     1     -20.721  -4.547  -8.276  1.00  0.00     0.010 C 
BRANCH   9  10
HETATM   10  C   UNL     1     -20.056  -4.720  -9.644  1.00  0.00     0.000 C 
BRANCH  10  11
HETATM   11  C   UNL     1     -20.721  -3.820 -10.686  1.00  0.00    -0.000 C 
BRANCH  11  12
HETATM   12  C   UNL     1     -22.204  -3.615 -10.388  1.00  0.00    -0.005 C 
HETATM   13  C   UNL     1     -22.933  -3.039 -11.592  1.00  0.00     0.005 C 
ENDBRANCH  11  12
ENDBRANCH  10  11
ENDBRANCH   9  10
ENDBRANCH   8   9
ENDBRANCH   6   8
ENDBRANCH   5   6
ENDBRANCH   4   5
ENDBRANCH   1   4
BRANCH   1  14
HETATM   14  C   UNL     1     -21.291  -7.645  -3.054  1.00  0.00     0.189 C 
BRANCH  14  15
HETATM   15  O   UNL     1     -21.022  -7.948  -1.675  1.00  0.00    -0.321 OA
BRANCH  15  16
HETATM   16  C   UNL     1     -21.914  -7.448  -0.774  1.00  0.00     0.258 C 
HETATM   17  O   UNL     1     -22.746  -6.568  -1.006  1.00  0.00    -0.265 OA
BRANCH  16  18
HETATM   18  C   UNL     1     -21.870  -8.242   0.502  1.00  0.00     0.111 C 
BRANCH  18  19
HETATM   19  C   UNL     1     -20.865  -9.398   0.409  1.00  0.00     0.010 C 
BRANCH  19  20
HETATM   20  C   UNL     1     -21.533 -10.777   0.384  1.00  0.00     0.000 C 
BRANCH  20  21
HETATM   21  C   UNL     1     -21.724 -11.261  -1.055  1.00  0.00    -0.000 C 
BRANCH  21  22
HETATM   22  C   UNL     1     -23.182 -11.154  -1.496  1.00  0.00    -0.005 C 
HETATM   23  C   UNL     1     -24.116 -11.086  -0.299  1.00  0.00     0.005 C 
ENDBRANCH  21  22
ENDBRANCH  20  21
ENDBRANCH  19  20
ENDBRANCH  18  19
ENDBRANCH  16  18
ENDBRANCH  15  16
ENDBRANCH  14  15
ENDBRANCH   1  14
TORSDOF 16
BEGIN_RES ARG D 557
REMARK  4 active torsions:
REMARK  status: ('A' for Active; 'I' for Inactive)
REMARK    1  A    between atoms: CA   and  CB  
REMARK    2  A    between atoms: CB   and  CG  
REMARK    3  A    between atoms: CG   and  CD  
REMARK    4  A    between atoms: CD   and  NE  
REMARK       I    between atoms: NE   and  CZ  
REMARK       I    between atoms: CZ   and  NH1 
REMARK       I    between atoms: CZ   and  NH2 
ROOT
ATOM      1  CA  ARG D 557     -26.217   2.705 -17.014  1.00 35.49     0.159 C 
ENDROOT
BRANCH   1   2
ATOM      2  CB  ARG D 557     -26.789   1.319 -17.183  1.00 35.49     0.034 C 
BRANCH   2   3
ATOM      3  CG  ARG D 557     -28.233   1.226 -17.427  1.00 35.49     0.027 C 
BRANCH   3   4
ATOM      4  CD  ARG D 557     -28.906   0.298 -16.489  1.00 35.49     0.116 C 
BRANCH   4   5
ATOM      5  NE  ARG D 557     -29.324  -0.918 -17.134  1.00 35.49    -0.212 N 
ATOM      6  CZ  ARG D 557     -28.715  -2.080 -17.052  1.00 35.49     0.666 C 
ATOM      7  NH1 ARG D 557     -27.608  -2.252 -16.355  1.00 35.49    -0.235 N 
ATOM      8  NH2 ARG D 557     -29.248  -3.083 -17.687  1.00 35.49    -0.235 N 
ATOM      9  HH  ARG D 557     -27.241  -1.607 -15.927  1.00 35.49     0.174 HD
ATOM     10  HH  ARG D 557     -27.257  -3.033 -16.335  1.00 35.49     0.174 HD
ATOM     11  HH  ARG D 557     -29.968  -2.944 -18.124  1.00 35.49     0.174 HD
ATOM     12  HH  ARG D 557     -28.886  -3.849 -17.655  1.00 35.49     0.174 HD
ATOM     13  HE  ARG D 557     -29.989  -0.881 -17.664  1.00 35.49     0.178 HD
ENDBRANCH   4   5
ENDBRANCH   3   4
ENDBRANCH   2   3
ENDBRANCH   1   2
END_RES ARG D 557
BEGIN_RES GLU D 570
REMARK  3 active torsions:
REMARK  status: ('A' for Active; 'I' for Inactive)
REMARK    5  A    between atoms: CA   and  CB  
REMARK    6  A    between atoms: CB   and  CG  
REMARK    7  A    between atoms: CG   and  CD  
ROOT
ATOM     14  CA  GLU D 570     -18.033  -6.348 -13.375  1.00 32.92     0.160 C 
ENDROOT
BRANCH  14  15
ATOM     15  CB  GLU D 570     -19.500  -6.345 -13.794  1.00 32.92     0.043 C 
BRANCH  15  16
ATOM     16  CG  GLU D 570     -20.115  -7.652 -14.143  1.00 32.92     0.100 C 
BRANCH  16  17
ATOM     17  CD  GLU D 570     -20.682  -7.681 -15.543  1.00 32.92     0.185 C 
ATOM     18  OE1 GLU D 570     -20.661  -8.750 -16.182  1.00 32.92    -0.647 OA
ATOM     19  OE2 GLU D 570     -21.137  -6.619 -16.012  1.00 32.92    -0.647 OA
ENDBRANCH  16  17
ENDBRANCH  15  16
ENDBRANCH  14  15
END_RES GLU D 570
ENDMDL
MODEL 5
REMARK VINA RESULT:      -6.1      1.759      2.205
REMARK  16 active torsions:
REMARK  status: ('A' for Active; 'I' for Inactive)
REMARK    1  A    between atoms: C_2  and  C_3 
REMARK    2  A    between atoms: C_3  and  C_4 
REMARK    3  A    between atoms: C_4  and  C_5 
REMARK    4  A    between atoms: C_5  and  C_6 
REMARK    5  A    between atoms: C_6  and  C_7 
REMARK    6  A    between atoms: C_7  and  O_9 
REMARK    7  A    between atoms: O_9  and  C_10 
REMARK    8  A    between atoms: C_10  and  C_11 
REMARK    9  A    between atoms: C_11  and  C_14 
REMARK   10  A    between atoms: C_14  and  O_15 
REMARK   11  A    between atoms: O_15  and  C_16 
REMARK   12  A    between atoms: C_16  and  C_18 
REMARK   13  A    between atoms: C_18  and  C_19 
REMARK   14  A    between atoms: C_19  and  C_20 
REMARK   15  A    between atoms: C_20  and  C_21 
REMARK   16  A    between atoms: C_21  and  C_22 
ROOT
HETATM    1  C   UNL     1     -21.459  -6.307  -4.872  1.00  0.00    -0.004 C 
HETATM    2  C   UNL     1     -22.892  -6.180  -5.411  1.00  0.00     0.019 C 
HETATM    3  C   UNL     1     -20.870  -7.662  -5.311  1.00  0.00     0.019 C 
ENDROOT
BRANCH   1   4
HETATM    4  C   UNL     1     -20.594  -5.159  -5.432  1.00  0.00     0.189 C 
BRANCH   4   5
HETATM    5  O   UNL     1     -20.422  -5.286  -6.858  1.00  0.00    -0.321 OA
BRANCH   5   6
HETATM    6  C   UNL     1     -20.778  -4.188  -7.585  1.00  0.00     0.258 C 
HETATM    7  O   UNL     1     -21.755  -3.482  -7.371  1.00  0.00    -0.265 OA
BRANCH   6   8
HETATM    8  C   UNL     1     -19.784  -3.926  -8.687  1.00  0.00     0.111 C 
BRANCH   8   9
HETATM    9  C   UNL     1     -20.140  -4.710  -9.947  1.00  0.00     0.010 C 
BRANCH   9  10
HETATM   10  C   UNL     1     -20.565  -3.806 -11.107  1.00  0.00     0.000 C 
BRANCH  10  11
HETATM   11  C   UNL     1     -21.912  -4.253 -11.674  1.00  0.00    -0.000 C 
BRANCH  11  12
HETATM   12  C   UNL     1     -23.074  -3.795 -10.795  1.00  0.00    -0.005 C 
HETATM   13  C   UNL     1     -23.882  -4.979 -10.289  1.00  0.00     0.005 C 
ENDBRANCH  11  12
ENDBRANCH  10  11
ENDBRANCH   9  10
ENDBRANCH   8   9
ENDBRANCH   6   8
ENDBRANCH   5   6
ENDBRANCH   4   5
ENDBRANCH   1   4
BRANCH   1  14
HETATM   14  C   UNL     1     -21.488  -6.242  -3.331  1.00  0.00     0.189 C 
BRANCH  14  15
HETATM   15  O   UNL     1     -21.825  -7.499  -2.719  1.00  0.00    -0.321 OA
BRANCH  15  16
HETATM   16  C   UNL     1     -21.152  -7.797  -1.571  1.00  0.00     0.258 C 
HETATM   17  O   UNL     1     -19.940  -8.007  -1.487  1.00  0.00    -0.265 OA
BRANCH  16  18
HETATM   18  C   UNL     1     -22.062  -7.660  -0.382  1.00  0.00     0.111 C 
BRANCH  18  19
HETATM   19  C   UNL     1     -21.783  -8.745   0.666  1.00  0.00     0.010 C 
BRANCH  19  20
HETATM   20  C   UNL     1     -22.137 -10.156   0.184  1.00  0.00     0.000 C 
BRANCH  20  21
HETATM   21  C   UNL     1     -23.621 -10.251  -0.172  1.00  0.00    -0.000 C 
BRANCH  21  22
HETATM   22  C   UNL     1     -23.883 -11.335  -1.214  1.00  0.00    -0.005 C 
HETATM   23  C   UNL     1     -22.971 -11.170  -2.421  1.00  0.00     0.005 C 
ENDBRANCH  21  22
ENDBRANCH  20  21
ENDBRANCH  19  20
ENDBRANCH  18  19
ENDBRANCH  16  18
ENDBRANCH  15  16
ENDBRANCH  14  15
ENDBRANCH   1  14
TORSDOF 16
BEGIN_RES ARG D 557
REMARK  4 active torsions:
REMARK  status: ('A' for Active; 'I' for Inactive)
REMARK    1  A    between atoms: CA   and  CB  
REMARK    2  A    between atoms: CB   and  CG  
REMARK    3  A    between atoms: CG   and  CD  
REMARK    4  A    between atoms: CD   and  NE  
REMARK       I    between atoms: NE   and  CZ  
REMARK       I    between atoms: CZ   and  NH1 
REMARK       I    between atoms: CZ   and  NH2 
ROOT
ATOM      1  CA  ARG D 557     -26.217   2.705 -17.014  1.00 35.49     0.159 C 
ENDROOT
BRANCH   1   2
ATOM      2  CB  ARG D 557     -26.789   1.319 -17.183  1.00 35.49     0.034 C 
BRANCH   2   3
ATOM      3  CG  ARG D 557     -28.188   1.128 -16.781  1.00 35.49     0.027 C 
BRANCH   3   4
ATOM      4  CD  ARG D 557     -28.730  -0.176 -17.227  1.00 35.49     0.116 C 
BRANCH   4   5
ATOM      5  NE  ARG D 557     -28.019  -1.285 -16.648  1.00 35.49    -0.212 N 
ATOM      6  CZ  ARG D 557     -28.298  -2.556 -16.832  1.00 35.49     0.666 C 
ATOM      7  NH1 ARG D 557     -29.306  -2.960 -17.583  1.00 35.49    -0.235 N 
ATOM      8  NH2 ARG D 557     -27.533  -3.430 -16.245  1.00 35.49    -0.235 N 
ATOM      9  HH  ARG D 557     -29.822  -2.402 -17.980  1.00 35.49     0.174 HD
ATOM     10  HH  ARG D 557     -29.439  -3.802 -17.668  1.00 35.49     0.174 HD
ATOM     11  HH  ARG D 557     -26.885  -3.140 -15.771  1.00 35.49     0.174 HD
ATOM     12  HH  ARG D 557     -27.679  -4.259 -16.342  1.00 35.49     0.174 HD
ATOM     13  HE  ARG D 557     -27.399  -1.115 -16.092  1.00 35.49     0.178 HD
ENDBRANCH   4   5
ENDBRANCH   3   4
ENDBRANCH   2   3
ENDBRANCH   1   2
END_RES ARG D 557
BEGIN_RES GLU D 570
REMARK  3 active torsions:
REMARK  status: ('A' for Active; 'I' for Inactive)
REMARK    5  A    between atoms: CA   and  CB  
REMARK    6  A    between atoms: CB   and  CG  
REMARK    7  A    between atoms: CG   and  CD  
ROOT
ATOM     14  CA  GLU D 570     -18.033  -6.348 -13.375  1.00 32.92     0.160 C 
ENDROOT
BRANCH  14  15
ATOM     15  CB  GLU D 570     -19.500  -6.345 -13.794  1.00 32.92     0.043 C 
BRANCH  15  16
ATOM     16  CG  GLU D 570     -19.814  -5.928 -15.185  1.00 32.92     0.100 C 
BRANCH  16  17
ATOM     17  CD  GLU D 570     -21.279  -5.624 -15.393  1.00 32.92     0.185 C 
ATOM     18  OE1 GLU D 570     -21.601  -4.596 -16.019  1.00 32.92    -0.647 OA
ATOM     19  OE2 GLU D 570     -22.114  -6.414 -14.910  1.00 32.92    -0.647 OA
ENDBRANCH  16  17
ENDBRANCH  15  16
ENDBRANCH  14  15
END_RES GLU D 570
ENDMDL
MODEL 6
REMARK VINA RESULT:      -6.1      1.418      2.525
REMARK  16 active torsions:
REMARK  status: ('A' for Active; 'I' for Inactive)
REMARK    1  A    between atoms: C_2  and  C_3 
REMARK    2  A    between atoms: C_3  and  C_4 
REMARK    3  A    between atoms: C_4  and  C_5 
REMARK    4  A    between atoms: C_5  and  C_6 
REMARK    5  A    between atoms: C_6  and  C_7 
REMARK    6  A    between atoms: C_7  and  O_9 
REMARK    7  A    between atoms: O_9  and  C_10 
REMARK    8  A    between atoms: C_10  and  C_11 
REMARK    9  A    between atoms: C_11  and  C_14 
REMARK   10  A    between atoms: C_14  and  O_15 
REMARK   11  A    between atoms: O_15  and  C_16 
REMARK   12  A    between atoms: C_16  and  C_18 
REMARK   13  A    between atoms: C_18  and  C_19 
REMARK   14  A    between atoms: C_19  and  C_20 
REMARK   15  A    between atoms: C_20  and  C_21 
REMARK   16  A    between atoms: C_21  and  C_22 
ROOT
HETATM    1  C   UNL     1     -19.451  -9.236  -4.290  1.00  0.00    -0.004 C 
HETATM    2  C   UNL     1     -18.395  -9.447  -5.385  1.00  0.00     0.019 C 
HETATM    3  C   UNL     1     -18.754  -9.176  -2.917  1.00  0.00     0.019 C 
ENDROOT
BRANCH   1   4
HETATM    4  C   UNL     1     -20.204  -7.914  -4.547  1.00  0.00     0.189 C 
BRANCH   4   5
HETATM    5  O   UNL     1     -20.354  -7.668  -5.960  1.00  0.00    -0.321 OA
BRANCH   5   6
HETATM    6  C   UNL     1     -20.781  -6.415  -6.289  1.00  0.00     0.258 C 
HETATM    7  O   UNL     1     -21.820  -5.897  -5.902  1.00  0.00    -0.265 OA
BRANCH   6   8
HETATM    8  C   UNL     1     -19.784  -5.722  -7.181  1.00  0.00     0.111 C 
BRANCH   8   9
HETATM    9  C   UNL     1     -20.211  -4.286  -7.473  1.00  0.00     0.010 C 
BRANCH   9  10
HETATM   10  C   UNL     1     -20.191  -3.954  -8.967  1.00  0.00     0.000 C 
BRANCH  10  11
HETATM   11  C   UNL     1     -21.497  -4.386  -9.634  1.00  0.00    -0.000 C 
BRANCH  11  12
HETATM   12  C   UNL     1     -22.710  -3.740  -8.968  1.00  0.00    -0.005 C 
HETATM   13  C   UNL     1     -24.008  -4.309  -9.519  1.00  0.00     0.005 C 
ENDBRANCH  11  12
ENDBRANCH  10  11
ENDBRANCH   9  10
ENDBRANCH   8   9
ENDBRANCH   6   8
ENDBRANCH   5   6
ENDBRANCH   4   5
ENDBRANCH   1   4
BRANCH   1  14
HETATM   14  C   UNL     1     -20.442 -10.418  -4.303  1.00  0.00     0.189 C 
BRANCH  14  15
HETATM   15  O   UNL     1     -21.072 -10.643  -3.030  1.00  0.00    -0.321 OA
BRANCH  15  16
HETATM   16  C   UNL     1     -22.380 -11.021  -3.076  1.00  0.00     0.258 C 
HETATM   17  O   UNL     1     -22.937 -11.556  -4.037  1.00  0.00    -0.265 OA
BRANCH  16  18
HETATM   18  C   UNL     1     -23.018 -10.860  -1.724  1.00  0.00     0.111 C 
BRANCH  18  19
HETATM   19  C   UNL     1     -22.123 -10.054  -0.773  1.00  0.00     0.010 C 
BRANCH  19  20
HETATM   20  C   UNL     1     -22.914  -9.240   0.257  1.00  0.00     0.000 C 
BRANCH  20  21
HETATM   21  C   UNL     1     -22.903  -7.753  -0.103  1.00  0.00    -0.000 C 
BRANCH  21  22
HETATM   22  C   UNL     1     -21.805  -7.426  -1.113  1.00  0.00    -0.005 C 
HETATM   23  C   UNL     1     -22.145  -6.177  -1.910  1.00  0.00     0.005 C 
ENDBRANCH  21  22
ENDBRANCH  20  21
ENDBRANCH  19  20
ENDBRANCH  18  19
ENDBRANCH  16  18
ENDBRANCH  15  16
ENDBRANCH  14  15
ENDBRANCH   1  14
TORSDOF 16
BEGIN_RES ARG D 557
REMARK  4 active torsions:
REMARK  status: ('A' for Active; 'I' for Inactive)
REMARK    1  A    between atoms: CA   and  CB  
REMARK    2  A    between atoms: CB   and  CG  
REMARK    3  A    between atoms: CG   and  CD  
REMARK    4  A    between atoms: CD   and  NE  
REMARK       I    between atoms: NE   and  CZ  
REMARK       I    between atoms: CZ   and  NH1 
REMARK       I    between atoms: CZ   and  NH2 
ROOT
ATOM      1  CA  ARG D 557     -26.217   2.705 -17.014  1.00 35.49     0.159 C 
ENDROOT
BRANCH   1   2
ATOM      2  CB  ARG D 557     -26.789   1.319 -17.183  1.00 35.49     0.034 C 
BRANCH   2   3
ATOM      3  CG  ARG D 557     -25.864   0.195 -16.994  1.00 35.49     0.027 C 
BRANCH   3   4
ATOM      4  CD  ARG D 557     -26.280  -0.699 -15.889  1.00 35.49     0.116 C 
BRANCH   4   5
ATOM      5  NE  ARG D 557     -25.226  -0.902 -14.931  1.00 35.49    -0.212 N 
ATOM      6  CZ  ARG D 557     -24.934  -2.039 -14.339  1.00 35.49     0.666 C 
ATOM      7  NH1 ARG D 557     -25.614  -3.149 -14.562  1.00 35.49    -0.235 N 
ATOM      8  NH2 ARG D 557     -23.930  -2.045 -13.512  1.00 35.49    -0.235 N 
ATOM      9  HH  ARG D 557     -26.277  -3.168 -15.104  1.00 35.49     0.174 HD
ATOM     10  HH  ARG D 557     -25.376  -3.861 -14.149  1.00 35.49     0.174 HD
ATOM     11  HH  ARG D 557     -23.505  -1.315 -13.393  1.00 35.49     0.174 HD
ATOM     12  HH  ARG D 557     -23.709  -2.761 -13.114  1.00 35.49     0.174 HD
ATOM     13  HE  ARG D 557     -24.783  -0.223 -14.673  1.00 35.49     0.178 HD
ENDBRANCH   4   5
ENDBRANCH   3   4
ENDBRANCH   2   3
ENDBRANCH   1   2
END_RES ARG D 557
BEGIN_RES GLU D 570
REMARK  3 active torsions:
REMARK  status: ('A' for Active; 'I' for Inactive)
REMARK    5  A    between atoms: CA   and  CB  
REMARK    6  A    between atoms: CB   and  CG  
REMARK    7  A    between atoms: CG   and  CD  
ROOT
ATOM     14  CA  GLU D 570     -18.033  -6.348 -13.375  1.00 32.92     0.160 C 
ENDROOT
BRANCH  14  15
ATOM     15  CB  GLU D 570     -19.500  -6.345 -13.794  1.00 32.92     0.043 C 
BRANCH  15  16
ATOM     16  CG  GLU D 570     -20.449  -5.565 -12.958  1.00 32.92     0.100 C 
BRANCH  16  17
ATOM     17  CD  GLU D 570     -21.681  -5.129 -13.716  1.00 32.92     0.185 C 
ATOM     18  OE1 GLU D 570     -22.736  -4.919 -13.087  1.00 32.92    -0.647 OA
ATOM     19  OE2 GLU D 570     -21.595  -5.013 -14.955  1.00 32.92    -0.647 OA
ENDBRANCH  16  17
ENDBRANCH  15  16
ENDBRANCH  14  15
END_RES GLU D 570
ENDMDL
MODEL 7
REMARK VINA RESULT:      -5.9      1.995      6.453
REMARK  16 active torsions:
REMARK  status: ('A' for Active; 'I' for Inactive)
REMARK    1  A    between atoms: C_2  and  C_3 
REMARK    2  A    between atoms: C_3  and  C_4 
REMARK    3  A    between atoms: C_4  and  C_5 
REMARK    4  A    between atoms: C_5  and  C_6 
REMARK    5  A    between atoms: C_6  and  C_7 
REMARK    6  A    between atoms: C_7  and  O_9 
REMARK    7  A    between atoms: O_9  and  C_10 
REMARK    8  A    between atoms: C_10  and  C_11 
REMARK    9  A    between atoms: C_11  and  C_14 
REMARK   10  A    between atoms: C_14  and  O_15 
REMARK   11  A    between atoms: O_15  and  C_16 
REMARK   12  A    between atoms: C_16  and  C_18 
REMARK   13  A    between atoms: C_18  and  C_19 
REMARK   14  A    between atoms: C_19  and  C_20 
REMARK   15  A    between atoms: C_20  and  C_21 
REMARK   16  A    between atoms: C_21  and  C_22 
ROOT
HETATM    1  C   UNL     1     -21.889  -8.743  -0.086  1.00  0.00    -0.004 C 
HETATM    2  C   UNL     1     -23.141  -7.982   0.376  1.00  0.00     0.019 C 
HETATM    3  C   UNL     1     -21.057  -9.147   1.147  1.00  0.00     0.019 C 
ENDROOT
BRANCH   1   4
HETATM    4  C   UNL     1     -22.312 -10.008  -0.863  1.00  0.00     0.189 C 
BRANCH   4   5
HETATM    5  O   UNL     1     -21.395 -11.094  -0.625  1.00  0.00    -0.321 OA
BRANCH   5   6
HETATM    6  C   UNL     1     -20.664 -11.486  -1.708  1.00  0.00     0.258 C 
HETATM    7  O   UNL     1     -21.114 -12.035  -2.705  1.00  0.00    -0.265 OA
BRANCH   6   8
HETATM    8  C   UNL     1     -19.211 -11.125  -1.536  1.00  0.00     0.111 C 
BRANCH   8   9
HETATM    9  C   UNL     1     -18.573 -10.760  -2.874  1.00  0.00     0.010 C 
BRANCH   9  10
HETATM   10  C   UNL     1     -17.903  -9.384  -2.855  1.00  0.00     0.000 C 
BRANCH  10  11
HETATM   11  C   UNL     1     -16.382  -9.523  -2.921  1.00  0.00    -0.000 C 
BRANCH  11  12
HETATM   12  C   UNL     1     -15.954 -10.515  -4.000  1.00  0.00    -0.005 C 
HETATM   13  C   UNL     1     -15.851  -9.839  -5.358  1.00  0.00     0.005 C 
ENDBRANCH  11  12
ENDBRANCH  10  11
ENDBRANCH   9  10
ENDBRANCH   8   9
ENDBRANCH   6   8
ENDBRANCH   5   6
ENDBRANCH   4   5
ENDBRANCH   1   4
BRANCH   1  14
HETATM   14  C   UNL     1     -21.041  -7.826  -0.992  1.00  0.00     0.189 C 
BRANCH  14  15
HETATM   15  O   UNL     1     -21.236  -8.080  -2.393  1.00  0.00    -0.321 OA
BRANCH  15  16
HETATM   16  C   UNL     1     -21.617  -7.006  -3.141  1.00  0.00     0.258 C 
HETATM   17  O   UNL     1     -22.260  -6.040  -2.728  1.00  0.00    -0.265 OA
BRANCH  16  18
HETATM   18  C   UNL     1     -20.990  -7.072  -4.507  1.00  0.00     0.111 C 
BRANCH  18  19
HETATM   19  C   UNL     1     -21.487  -5.934  -5.408  1.00  0.00     0.010 C 
BRANCH  19  20
HETATM   20  C   UNL     1     -20.422  -4.863  -5.670  1.00  0.00     0.000 C 
BRANCH  20  21
HETATM   21  C   UNL     1     -20.784  -4.029  -6.900  1.00  0.00    -0.000 C 
BRANCH  21  22
HETATM   22  C   UNL     1     -19.742  -4.174  -8.006  1.00  0.00    -0.005 C 
HETATM   23  C   UNL     1     -20.399  -4.477  -9.344  1.00  0.00     0.005 C 
ENDBRANCH  21  22
ENDBRANCH  20  21
ENDBRANCH  19  20
ENDBRANCH  18  19
ENDBRANCH  16  18
ENDBRANCH  15  16
ENDBRANCH  14  15
ENDBRANCH   1  14
TORSDOF 16
BEGIN_RES ARG D 557
REMARK  4 active torsions:
REMARK  status: ('A' for Active; 'I' for Inactive)
REMARK    1  A    between atoms: CA   and  CB  
REMARK    2  A    between atoms: CB   and  CG  
REMARK    3  A    between atoms: CG   and  CD  
REMARK    4  A    between atoms: CD   and  NE  
REMARK       I    between atoms: NE   and  CZ  
REMARK       I    between atoms: CZ   and  NH1 
REMARK       I    between atoms: CZ   and  NH2 
ROOT
ATOM      1  CA  ARG D 557     -26.217   2.705 -17.014  1.00 35.49     0.159 C 
ENDROOT
BRANCH   1   2
ATOM      2  CB  ARG D 557     -26.789   1.319 -17.183  1.00 35.49     0.034 C 
BRANCH   2   3
ATOM      3  CG  ARG D 557     -25.864   0.195 -16.994  1.00 35.49     0.027 C 
BRANCH   3   4
ATOM      4  CD  ARG D 557     -26.282  -0.700 -15.891  1.00 35.49     0.116 C 
BRANCH   4   5
ATOM      5  NE  ARG D 557     -25.226  -0.913 -14.936  1.00 35.49    -0.212 N 
ATOM      6  CZ  ARG D 557     -24.931  -2.056 -14.359  1.00 35.49     0.666 C 
ATOM      7  NH1 ARG D 557     -25.608  -3.165 -14.594  1.00 35.49    -0.235 N 
ATOM      8  NH2 ARG D 557     -23.926  -2.070 -13.532  1.00 35.49    -0.235 N 
ATOM      9  HH  ARG D 557     -26.272  -3.179 -15.136  1.00 35.49     0.174 HD
ATOM     10  HH  ARG D 557     -25.369  -3.882 -14.191  1.00 35.49     0.174 HD
ATOM     11  HH  ARG D 557     -23.502  -1.340 -13.405  1.00 35.49     0.174 HD
ATOM     12  HH  ARG D 557     -23.703  -2.790 -13.144  1.00 35.49     0.174 HD
ATOM     13  HE  ARG D 557     -24.785  -0.236 -14.671  1.00 35.49     0.178 HD
ENDBRANCH   4   5
ENDBRANCH   3   4
ENDBRANCH   2   3
ENDBRANCH   1   2
END_RES ARG D 557
BEGIN_RES GLU D 570
REMARK  3 active torsions:
REMARK  status: ('A' for Active; 'I' for Inactive)
REMARK    5  A    between atoms: CA   and  CB  
REMARK    6  A    between atoms: CB   and  CG  
REMARK    7  A    between atoms: CG   and  CD  
ROOT
ATOM     14  CA  GLU D 570     -18.033  -6.348 -13.375  1.00 32.92     0.160 C 
ENDROOT
BRANCH  14  15
ATOM     15  CB  GLU D 570     -19.500  -6.345 -13.794  1.00 32.92     0.043 C 
BRANCH  15  16
ATOM     16  CG  GLU D 570     -20.448  -5.561 -12.961  1.00 32.92     0.100 C 
BRANCH  16  17
ATOM     17  CD  GLU D 570     -21.676  -5.119 -13.723  1.00 32.92     0.185 C 
ATOM     18  OE1 GLU D 570     -22.717  -4.854 -13.092  1.00 32.92    -0.647 OA
ATOM     19  OE2 GLU D 570     -21.601  -5.054 -14.966  1.00 32.92    -0.647 OA
ENDBRANCH  16  17
ENDBRANCH  15  16
ENDBRANCH  14  15
END_RES GLU D 570
ENDMDL
MODEL 8
REMARK VINA RESULT:      -5.9      2.068      3.115
REMARK  16 active torsions:
REMARK  status: ('A' for Active; 'I' for Inactive)
REMARK    1  A    between atoms: C_2  and  C_3 
REMARK    2  A    between atoms: C_3  and  C_4 
REMARK    3  A    between atoms: C_4  and  C_5 
REMARK    4  A    between atoms: C_5  and  C_6 
REMARK    5  A    between atoms: C_6  and  C_7 
REMARK    6  A    between atoms: C_7  and  O_9 
REMARK    7  A    between atoms: O_9  and  C_10 
REMARK    8  A    between atoms: C_10  and  C_11 
REMARK    9  A    between atoms: C_11  and  C_14 
REMARK   10  A    between atoms: C_14  and  O_15 
REMARK   11  A    between atoms: O_15  and  C_16 
REMARK   12  A    between atoms: C_16  and  C_18 
REMARK   13  A    between atoms: C_18  and  C_19 
REMARK   14  A    between atoms: C_19  and  C_20 
REMARK   15  A    between atoms: C_20  and  C_21 
REMARK   16  A    between atoms: C_21  and  C_22 
ROOT
HETATM    1  C   UNL     1     -21.281  -6.493  -4.382  1.00  0.00    -0.004 C 
HETATM    2  C   UNL     1     -21.439  -6.121  -2.900  1.00  0.00     0.019 C 
HETATM    3  C   UNL     1     -22.674  -6.558  -5.040  1.00  0.00     0.019 C 
ENDROOT
BRANCH   1   4
HETATM    4  C   UNL     1     -20.420  -5.429  -5.093  1.00  0.00     0.189 C 
BRANCH   4   5
HETATM    5  O   UNL     1     -20.436  -5.618  -6.522  1.00  0.00    -0.321 OA
BRANCH   5   6
HETATM    6  C   UNL     1     -20.203  -4.494  -7.258  1.00  0.00     0.258 C 
HETATM    7  O   UNL     1     -19.188  -4.266  -7.903  1.00  0.00    -0.265 OA
BRANCH   6   8
HETATM    8  C   UNL     1     -21.386  -3.560  -7.206  1.00  0.00     0.111 C 
BRANCH   8   9
HETATM    9  C   UNL     1     -22.620  -4.201  -7.833  1.00  0.00     0.010 C 
BRANCH   9  10
HETATM   10  C   UNL     1     -22.511  -4.331  -9.355  1.00  0.00     0.000 C 
BRANCH  10  11
HETATM   11  C   UNL     1     -23.657  -3.590 -10.043  1.00  0.00    -0.000 C 
BRANCH  11  12
HETATM   12  C   UNL     1     -23.288  -3.179 -11.467  1.00  0.00    -0.005 C 
HETATM   13  C   UNL     1     -21.792  -2.942 -11.601  1.00  0.00     0.005 C 
ENDBRANCH  11  12
ENDBRANCH  10  11
ENDBRANCH   9  10
ENDBRANCH   8   9
ENDBRANCH   6   8
ENDBRANCH   5   6
ENDBRANCH   4   5
ENDBRANCH   1   4
BRANCH   1  14
HETATM   14  C   UNL     1     -20.606  -7.876  -4.490  1.00  0.00     0.189 C 
BRANCH  14  15
HETATM   15  O   UNL     1     -21.536  -8.940  -4.756  1.00  0.00    -0.321 OA
BRANCH  15  16
HETATM   16  C   UNL     1     -21.327 -10.095  -4.062  1.00  0.00     0.258 C 
HETATM   17  O   UNL     1     -21.132 -11.204  -4.563  1.00  0.00    -0.265 OA
BRANCH  16  18
HETATM   18  C   UNL     1     -21.188  -9.804  -2.593  1.00  0.00     0.111 C 
BRANCH  18  19
HETATM   19  C   UNL     1     -21.902 -10.860  -1.741  1.00  0.00     0.010 C 
BRANCH  19  20
HETATM   20  C   UNL     1     -22.118 -10.420  -0.289  1.00  0.00     0.000 C 
BRANCH  20  21
HETATM   21  C   UNL     1     -23.425  -9.637  -0.148  1.00  0.00    -0.000 C 
BRANCH  21  22
HETATM   22  C   UNL     1     -23.225  -8.344   0.638  1.00  0.00    -0.005 C 
HETATM   23  C   UNL     1     -21.825  -7.787   0.434  1.00  0.00     0.005 C 
ENDBRANCH  21  22
ENDBRANCH  20  21
ENDBRANCH  19  20
ENDBRANCH  18  19
ENDBRANCH  16  18
ENDBRANCH  15  16
ENDBRANCH  14  15
ENDBRANCH   1  14
TORSDOF 16
BEGIN_RES ARG D 557
REMARK  4 active torsions:
REMARK  status: ('A' for Active; 'I' for Inactive)
REMARK    1  A    between atoms: CA   and  CB  
REMARK    2  A    between atoms: CB   and  CG  
REMARK    3  A    between atoms: CG   and  CD  
REMARK    4  A    between atoms: CD   and  NE  
REMARK       I    between atoms: NE   and  CZ  
REMARK       I    between atoms: CZ   and  NH1 
REMARK       I    between atoms: CZ   and  NH2 
ROOT
ATOM      1  CA  ARG D 557     -26.217   2.705 -17.014  1.00 35.49     0.159 C 
ENDROOT
BRANCH   1   2
ATOM      2  CB  ARG D 557     -26.789   1.319 -17.183  1.00 35.49     0.034 C 
BRANCH   2   3
ATOM      3  CG  ARG D 557     -28.237   1.224 -17.407  1.00 35.49     0.027 C 
BRANCH   3   4
ATOM      4  CD  ARG D 557     -28.892   0.282 -16.472  1.00 35.49     0.116 C 
BRANCH   4   5
ATOM      5  NE  ARG D 557     -29.299  -0.935 -17.124  1.00 35.49    -0.212 N 
ATOM      6  CZ  ARG D 557     -28.677  -2.090 -17.051  1.00 35.49     0.666 C 
ATOM      7  NH1 ARG D 557     -27.566  -2.256 -16.357  1.00 35.49    -0.235 N 
ATOM      8  NH2 ARG D 557     -29.201  -3.095 -17.692  1.00 35.49    -0.235 N 
ATOM      9  HH  ARG D 557     -27.205  -1.609 -15.926  1.00 35.49     0.174 HD
ATOM     10  HH  ARG D 557     -27.207  -3.033 -16.344  1.00 35.49     0.174 HD
ATOM     11  HH  ARG D 557     -29.923  -2.961 -18.126  1.00 35.49     0.174 HD
ATOM     12  HH  ARG D 557     -28.830  -3.857 -17.665  1.00 35.49     0.174 HD
ATOM     13  HE  ARG D 557     -29.965  -0.902 -17.652  1.00 35.49     0.178 HD
ENDBRANCH   4   5
ENDBRANCH   3   4
ENDBRANCH   2   3
ENDBRANCH   1   2
END_RES ARG D 557
BEGIN_RES GLU D 570
REMARK  3 active torsions:
REMARK  status: ('A' for Active; 'I' for Inactive)
REMARK    5  A    between atoms: CA   and  CB  
REMARK    6  A    between atoms: CB   and  CG  
REMARK    7  A    between atoms: CG   and  CD  
ROOT
ATOM     14  CA  GLU D 570     -18.033  -6.348 -13.375  1.00 32.92     0.160 C 
ENDROOT
BRANCH  14  15
ATOM     15  CB  GLU D 570     -19.500  -6.345 -13.794  1.00 32.92     0.043 C 
BRANCH  15  16
ATOM     16  CG  GLU D 570     -19.810  -5.975 -15.199  1.00 32.92     0.100 C 
BRANCH  16  17
ATOM     17  CD  GLU D 570     -21.274  -5.675 -15.421  1.00 32.92     0.185 C 
ATOM     18  OE1 GLU D 570     -22.124  -6.258 -14.721  1.00 32.92    -0.647 OA
ATOM     19  OE2 GLU D 570     -21.575  -4.860 -16.315  1.00 32.92    -0.647 OA
ENDBRANCH  16  17
ENDBRANCH  15  16
ENDBRANCH  14  15
END_RES GLU D 570
ENDMDL
MODEL 9
REMARK VINA RESULT:      -5.8      1.624      2.349
REMARK  16 active torsions:
REMARK  status: ('A' for Active; 'I' for Inactive)
REMARK    1  A    between atoms: C_2  and  C_3 
REMARK    2  A    between atoms: C_3  and  C_4 
REMARK    3  A    between atoms: C_4  and  C_5 
REMARK    4  A    between atoms: C_5  and  C_6 
REMARK    5  A    between atoms: C_6  and  C_7 
REMARK    6  A    between atoms: C_7  and  O_9 
REMARK    7  A    between atoms: O_9  and  C_10 
REMARK    8  A    between atoms: C_10  and  C_11 
REMARK    9  A    between atoms: C_11  and  C_14 
REMARK   10  A    between atoms: C_14  and  O_15 
REMARK   11  A    between atoms: O_15  and  C_16 
REMARK   12  A    between atoms: C_16  and  C_18 
REMARK   13  A    between atoms: C_18  and  C_19 
REMARK   14  A    between atoms: C_19  and  C_20 
REMARK   15  A    between atoms: C_20  and  C_21 
REMARK   16  A    between atoms: C_21  and  C_22 
ROOT
HETATM    1  C   UNL     1     -21.196  -6.702  -5.072  1.00  0.00    -0.004 C 
HETATM    2  C   UNL     1     -19.808  -6.981  -5.668  1.00  0.00     0.019 C 
HETATM    3  C   UNL     1     -21.038  -5.871  -3.784  1.00  0.00     0.019 C 
ENDROOT
BRANCH   1   4
HETATM    4  C   UNL     1     -22.048  -5.919  -6.093  1.00  0.00     0.189 C 
BRANCH   4   5
HETATM    5  O   UNL     1     -21.353  -5.775  -7.347  1.00  0.00    -0.321 OA
BRANCH   5   6
HETATM    6  C   UNL     1     -21.629  -4.631  -8.036  1.00  0.00     0.258 C 
HETATM    7  O   UNL     1     -22.715  -4.067  -8.067  1.00  0.00    -0.265 OA
BRANCH   6   8
HETATM    8  C   UNL     1     -20.401  -4.117  -8.744  1.00  0.00     0.111 C 
BRANCH   8   9
HETATM    9  C   UNL     1     -20.373  -4.576 -10.199  1.00  0.00     0.010 C 
BRANCH   9  10
HETATM   10  C   UNL     1     -20.560  -3.422 -11.187  1.00  0.00     0.000 C 
BRANCH  10  11
HETATM   11  C   UNL     1     -22.043  -3.197 -11.480  1.00  0.00    -0.000 C 
BRANCH  11  12
HETATM   12  C   UNL     1     -22.787  -4.517 -11.668  1.00  0.00    -0.005 C 
HETATM   13  C   UNL     1     -22.742  -4.973 -13.118  1.00  0.00     0.005 C 
ENDBRANCH  11  12
ENDBRANCH  10  11
ENDBRANCH   9  10
ENDBRANCH   8   9
ENDBRANCH   6   8
ENDBRANCH   5   6
ENDBRANCH   4   5
ENDBRANCH   1   4
BRANCH   1  14
HETATM   14  C   UNL     1     -21.882  -8.041  -4.730  1.00  0.00     0.189 C 
BRANCH  14  15
HETATM   15  O   UNL     1     -21.869  -8.340  -3.324  1.00  0.00    -0.321 OA
BRANCH  15  16
HETATM   16  C   UNL     1     -21.079  -9.384  -2.948  1.00  0.00     0.258 C 
HETATM   17  O   UNL     1     -20.991 -10.463  -3.539  1.00  0.00    -0.265 OA
BRANCH  16  18
HETATM   18  C   UNL     1     -20.184  -8.980  -1.809  1.00  0.00     0.111 C 
BRANCH  18  19
HETATM   19  C   UNL     1     -20.921  -8.077  -0.811  1.00  0.00     0.010 C 
BRANCH  19  20
HETATM   20  C   UNL     1     -21.554  -8.851   0.351  1.00  0.00     0.000 C 
BRANCH  20  21
HETATM   21  C   UNL     1     -23.077  -8.884   0.215  1.00  0.00    -0.000 C 
BRANCH  21  22
HETATM   22  C   UNL     1     -23.571 -10.248  -0.262  1.00  0.00    -0.005 C 
HETATM   23  C   UNL     1     -22.580 -11.346   0.091  1.00  0.00     0.005 C 
ENDBRANCH  21  22
ENDBRANCH  20  21
ENDBRANCH  19  20
ENDBRANCH  18  19
ENDBRANCH  16  18
ENDBRANCH  15  16
ENDBRANCH  14  15
ENDBRANCH   1  14
TORSDOF 16
BEGIN_RES ARG D 557
REMARK  4 active torsions:
REMARK  status: ('A' for Active; 'I' for Inactive)
REMARK    1  A    between atoms: CA   and  CB  
REMARK    2  A    between atoms: CB   and  CG  
REMARK    3  A    between atoms: CG   and  CD  
REMARK    4  A    between atoms: CD   and  NE  
REMARK       I    between atoms: NE   and  CZ  
REMARK       I    between atoms: CZ   and  NH1 
REMARK       I    between atoms: CZ   and  NH2 
ROOT
ATOM      1  CA  ARG D 557     -26.217   2.705 -17.014  1.00 35.49     0.159 C 
ENDROOT
BRANCH   1   2
ATOM      2  CB  ARG D 557     -26.789   1.319 -17.183  1.00 35.49     0.034 C 
BRANCH   2   3
ATOM      3  CG  ARG D 557     -25.974   0.203 -16.687  1.00 35.49     0.027 C 
BRANCH   3   4
ATOM      4  CD  ARG D 557     -26.800  -0.921 -16.191  1.00 35.49     0.116 C 
BRANCH   4   5
ATOM      5  NE  ARG D 557     -26.254  -1.510 -14.996  1.00 35.49    -0.212 N 
ATOM      6  CZ  ARG D 557     -26.243  -2.792 -14.708  1.00 35.49     0.666 C 
ATOM      7  NH1 ARG D 557     -26.765  -3.704 -15.507  1.00 35.49    -0.235 N 
ATOM      8  NH2 ARG D 557     -25.685  -3.150 -13.588  1.00 35.49    -0.235 N 
ATOM      9  HH  ARG D 557     -27.135  -3.491 -16.250  1.00 35.49     0.174 HD
ATOM     10  HH  ARG D 557     -26.726  -4.525 -15.268  1.00 35.49     0.174 HD
ATOM     11  HH  ARG D 557     -25.349  -2.541 -13.095  1.00 35.49     0.174 HD
ATOM     12  HH  ARG D 557     -25.655  -3.969 -13.369  1.00 35.49     0.174 HD
ATOM     13  HE  ARG D 557     -25.961  -0.988 -14.392  1.00 35.49     0.178 HD
ENDBRANCH   4   5
ENDBRANCH   3   4
ENDBRANCH   2   3
ENDBRANCH   1   2
END_RES ARG D 557
BEGIN_RES GLU D 570
REMARK  3 active torsions:
REMARK  status: ('A' for Active; 'I' for Inactive)
REMARK    5  A    between atoms: CA   and  CB  
REMARK    6  A    between atoms: CB   and  CG  
REMARK    7  A    between atoms: CG   and  CD  
ROOT
ATOM     14  CA  GLU D 570     -18.033  -6.348 -13.375  1.00 32.92     0.160 C 
ENDROOT
BRANCH  14  15
ATOM     15  CB  GLU D 570     -19.500  -6.345 -13.794  1.00 32.92     0.043 C 
BRANCH  15  16
ATOM     16  CG  GLU D 570     -20.108  -7.649 -14.166  1.00 32.92     0.100 C 
BRANCH  16  17
ATOM     17  CD  GLU D 570     -20.690  -7.651 -15.560  1.00 32.92     0.185 C 
ATOM     18  OE1 GLU D 570     -21.164  -6.595 -16.020  1.00 32.92    -0.647 OA
ATOM     19  OE2 GLU D 570     -20.686  -8.725 -16.193  1.00 32.92    -0.647 OA
ENDBRANCH  16  17
ENDBRANCH  15  16
ENDBRANCH  14  15
END_RES GLU D 570
ENDMDL
