MODEL 1
REMARK VINA RESULT:      -3.9      0.000      0.000
REMARK  3 active torsions:
REMARK  status: ('A' for Active; 'I' for Inactive)
REMARK    1  A    between atoms: CA_1  and  C_2 
REMARK    2  A    between atoms: CA_1  and  N_5 
REMARK    3  A    between atoms: C_2  and  OXT_4 
ROOT
ATOM      1  CA  GLY A   1     -24.211  -7.316 -16.920  1.00  0.00     0.376 C 
ENDROOT
BRANCH   1   2
ATOM      2  C   GLY A   1     -25.119  -6.821 -15.797  1.00  0.00     0.168 C 
ATOM      3  O   GLY A   1     -26.089  -7.417 -15.363  1.00  0.00    -0.649 OA
BRANCH   2   4
ATOM      4  OXT GLY A   1     -24.688  -5.625 -15.310  1.00  0.00    -0.775 OA
ATOM      5  HXT GLY A   1     -23.702  -5.638 -15.384  1.00  0.00     0.167 HD
ENDBRANCH   2   4
ENDBRANCH   1   2
BRANCH   1   6
ATOM      6  N   GLY A   1     -22.941  -7.813 -16.334  1.00  0.00     0.088 N 
ATOM      7  H1  GLY A   1     -23.163  -8.243 -15.429  1.00  0.00     0.313 HD
ATOM      8  H2  GLY A   1     -22.377  -6.995 -16.087  1.00  0.00     0.313 HD
ENDBRANCH   1   6
TORSDOF 3
BEGIN_RES ARG D 557
REMARK  4 active torsions:
REMARK  status: ('A' for Active; 'I' for Inactive)
REMARK    1  A    between atoms: CA   and  CB  
REMARK    2  A    between atoms: CB   and  CG  
REMARK    3  A    between atoms: CG   and  CD  
REMARK    4  A    between atoms: CD   and  NE  
REMARK       I    between atoms: NE   and  CZ  
REMARK       I    between atoms: CZ   and  NH1 
REMARK       I    between atoms: CZ   and  NH2 
ROOT
ATOM      1  CA  ARG D 557     -26.217   2.705 -17.014  1.00 35.49     0.159 C 
ENDROOT
BRANCH   1   2
ATOM      2  CB  ARG D 557     -26.789   1.319 -17.183  1.00 35.49     0.034 C 
BRANCH   2   3
ATOM      3  CG  ARG D 557     -25.864   0.195 -16.992  1.00 35.49     0.027 C 
BRANCH   3   4
ATOM      4  CD  ARG D 557     -26.284  -0.700 -15.890  1.00 35.49     0.116 C 
BRANCH   4   5
ATOM      5  NE  ARG D 557     -25.217  -0.948 -14.957  1.00 35.49    -0.212 N 
ATOM      6  CZ  ARG D 557     -25.018  -2.067 -14.297  1.00 35.49     0.666 C 
ATOM      7  NH1 ARG D 557     -25.815  -3.113 -14.418  1.00 35.49    -0.235 N 
ATOM      8  NH2 ARG D 557     -23.986  -2.123 -13.507  1.00 35.49    -0.235 N 
ATOM      9  HH  ARG D 557     -26.499  -3.100 -14.934  1.00 35.49     0.174 HD
ATOM     10  HH  ARG D 557     -25.633  -3.817 -13.965  1.00 35.49     0.174 HD
ATOM     11  HH  ARG D 557     -23.484  -1.435 -13.454  1.00 35.49     0.174 HD
ATOM     12  HH  ARG D 557     -23.822  -2.829 -13.068  1.00 35.49     0.174 HD
ATOM     13  HE  ARG D 557     -24.698  -0.303 -14.763  1.00 35.49     0.178 HD
ENDBRANCH   4   5
ENDBRANCH   3   4
ENDBRANCH   2   3
ENDBRANCH   1   2
END_RES ARG D 557
BEGIN_RES GLU D 570
REMARK  3 active torsions:
REMARK  status: ('A' for Active; 'I' for Inactive)
REMARK    5  A    between atoms: CA   and  CB  
REMARK    6  A    between atoms: CB   and  CG  
REMARK    7  A    between atoms: CG   and  CD  
ROOT
ATOM     14  CA  GLU D 570     -18.033  -6.348 -13.375  1.00 32.92     0.160 C 
ENDROOT
BRANCH  14  15
ATOM     15  CB  GLU D 570     -19.500  -6.345 -13.794  1.00 32.92     0.043 C 
BRANCH  15  16
ATOM     16  CG  GLU D 570     -20.439  -5.518 -12.993  1.00 32.92     0.100 C 
BRANCH  16  17
ATOM     17  CD  GLU D 570     -21.725  -5.211 -13.724  1.00 32.92     0.185 C 
ATOM     18  OE1 GLU D 570     -21.757  -5.320 -14.965  1.00 32.92    -0.647 OA
ATOM     19  OE2 GLU D 570     -22.707  -4.841 -13.050  1.00 32.92    -0.647 OA
ENDBRANCH  16  17
ENDBRANCH  15  16
ENDBRANCH  14  15
END_RES GLU D 570
ENDMDL
MODEL 2
REMARK VINA RESULT:      -3.9      2.691      4.265
REMARK  3 active torsions:
REMARK  status: ('A' for Active; 'I' for Inactive)
REMARK    1  A    between atoms: CA_1  and  C_2 
REMARK    2  A    between atoms: CA_1  and  N_5 
REMARK    3  A    between atoms: C_2  and  OXT_4 
ROOT
ATOM      1  CA  GLY A   1     -23.411  -3.700  -9.370  1.00  0.00     0.376 C 
ENDROOT
BRANCH   1   2
ATOM      2  C   GLY A   1     -24.663  -3.511 -10.223  1.00  0.00     0.168 C 
ATOM      3  O   GLY A   1     -25.726  -3.071  -9.823  1.00  0.00    -0.649 OA
BRANCH   2   4
ATOM      4  OXT GLY A   1     -24.434  -3.874 -11.515  1.00  0.00    -0.775 OA
ATOM      5  HXT GLY A   1     -24.207  -3.041 -11.998  1.00  0.00     0.167 HD
ENDBRANCH   2   4
ENDBRANCH   1   2
BRANCH   1   6
ATOM      6  N   GLY A   1     -23.815  -4.074  -7.991  1.00  0.00     0.088 N 
ATOM      7  H1  GLY A   1     -24.647  -3.522  -7.750  1.00  0.00     0.313 HD
ATOM      8  H2  GLY A   1     -23.094  -3.722  -7.355  1.00  0.00     0.313 HD
ENDBRANCH   1   6
TORSDOF 3
BEGIN_RES ARG D 557
REMARK  4 active torsions:
REMARK  status: ('A' for Active; 'I' for Inactive)
REMARK    1  A    between atoms: CA   and  CB  
REMARK    2  A    between atoms: CB   and  CG  
REMARK    3  A    between atoms: CG   and  CD  
REMARK    4  A    between atoms: CD   and  NE  
REMARK       I    between atoms: NE   and  CZ  
REMARK       I    between atoms: CZ   and  NH1 
REMARK       I    between atoms: CZ   and  NH2 
ROOT
ATOM      1  CA  ARG D 557     -26.217   2.705 -17.014  1.00 35.49     0.159 C 
ENDROOT
BRANCH   1   2
ATOM      2  CB  ARG D 557     -26.789   1.319 -17.183  1.00 35.49     0.034 C 
BRANCH   2   3
ATOM      3  CG  ARG D 557     -25.853   0.197 -17.047  1.00 35.49     0.027 C 
BRANCH   3   4
ATOM      4  CD  ARG D 557     -26.206  -0.700 -15.923  1.00 35.49     0.116 C 
BRANCH   4   5
ATOM      5  NE  ARG D 557     -25.150  -0.789 -14.949  1.00 35.49    -0.212 N 
ATOM      6  CZ  ARG D 557     -24.759  -1.886 -14.339  1.00 35.49     0.666 C 
ATOM      7  NH1 ARG D 557     -25.325  -3.059 -14.556  1.00 35.49    -0.235 N 
ATOM      8  NH2 ARG D 557     -23.770  -1.785 -13.499  1.00 35.49    -0.235 N 
ATOM      9  HH  ARG D 557     -25.976  -3.149 -15.106  1.00 35.49     0.174 HD
ATOM     10  HH  ARG D 557     -25.025  -3.740 -14.131  1.00 35.49     0.174 HD
ATOM     11  HH  ARG D 557     -23.419  -1.016 -13.384  1.00 35.49     0.174 HD
ATOM     12  HH  ARG D 557     -23.487  -2.471 -13.089  1.00 35.49     0.174 HD
ATOM     13  HE  ARG D 557     -24.779  -0.068 -14.695  1.00 35.49     0.178 HD
ENDBRANCH   4   5
ENDBRANCH   3   4
ENDBRANCH   2   3
ENDBRANCH   1   2
END_RES ARG D 557
BEGIN_RES GLU D 570
REMARK  3 active torsions:
REMARK  status: ('A' for Active; 'I' for Inactive)
REMARK    5  A    between atoms: CA   and  CB  
REMARK    6  A    between atoms: CB   and  CG  
REMARK    7  A    between atoms: CG   and  CD  
ROOT
ATOM     14  CA  GLU D 570     -18.033  -6.348 -13.375  1.00 32.92     0.160 C 
ENDROOT
BRANCH  14  15
ATOM     15  CB  GLU D 570     -19.500  -6.345 -13.794  1.00 32.92     0.043 C 
BRANCH  15  16
ATOM     16  CG  GLU D 570     -20.441  -5.527 -12.986  1.00 32.92     0.100 C 
BRANCH  16  17
ATOM     17  CD  GLU D 570     -21.759  -5.284 -13.683  1.00 32.92     0.185 C 
ATOM     18  OE1 GLU D 570     -22.359  -4.210 -13.486  1.00 32.92    -0.647 OA
ATOM     19  OE2 GLU D 570     -22.205  -6.185 -14.421  1.00 32.92    -0.647 OA
ENDBRANCH  16  17
ENDBRANCH  15  16
ENDBRANCH  14  15
END_RES GLU D 570
ENDMDL
MODEL 3
REMARK VINA RESULT:      -3.7      3.000      4.215
REMARK  3 active torsions:
REMARK  status: ('A' for Active; 'I' for Inactive)
REMARK    1  A    between atoms: CA_1  and  C_2 
REMARK    2  A    between atoms: CA_1  and  N_5 
REMARK    3  A    between atoms: C_2  and  OXT_4 
ROOT
ATOM      1  CA  GLY A   1     -23.789  -2.024 -14.047  1.00  0.00     0.376 C 
ENDROOT
BRANCH   1   2
ATOM      2  C   GLY A   1     -24.955  -1.363 -14.777  1.00  0.00     0.168 C 
ATOM      3  O   GLY A   1     -25.946  -1.943 -15.187  1.00  0.00    -0.649 OA
BRANCH   2   4
ATOM      4  OXT GLY A   1     -24.764  -0.021 -14.891  1.00  0.00    -0.775 OA
ATOM      5  HXT GLY A   1     -24.649   0.159 -15.856  1.00  0.00     0.167 HD
ENDBRANCH   2   4
ENDBRANCH   1   2
BRANCH   1   6
ATOM      6  N   GLY A   1     -22.729  -2.361 -15.029  1.00  0.00     0.088 N 
ATOM      7  H1  GLY A   1     -22.631  -1.563 -15.668  1.00  0.00     0.313 HD
ATOM      8  H2  GLY A   1     -23.091  -3.111 -15.626  1.00  0.00     0.313 HD
ENDBRANCH   1   6
TORSDOF 3
BEGIN_RES ARG D 557
REMARK  4 active torsions:
REMARK  status: ('A' for Active; 'I' for Inactive)
REMARK    1  A    between atoms: CA   and  CB  
REMARK    2  A    between atoms: CB   and  CG  
REMARK    3  A    between atoms: CG   and  CD  
REMARK    4  A    between atoms: CD   and  NE  
REMARK       I    between atoms: NE   and  CZ  
REMARK       I    between atoms: CZ   and  NH1 
REMARK       I    between atoms: CZ   and  NH2 
ROOT
ATOM      1  CA  ARG D 557     -26.217   2.705 -17.014  1.00 35.49     0.159 C 
ENDROOT
BRANCH   1   2
ATOM      2  CB  ARG D 557     -26.789   1.319 -17.183  1.00 35.49     0.034 C 
BRANCH   2   3
ATOM      3  CG  ARG D 557     -28.139   1.092 -16.653  1.00 35.49     0.027 C 
BRANCH   3   4
ATOM      4  CD  ARG D 557     -28.809  -0.064 -17.291  1.00 35.49     0.116 C 
BRANCH   4   5
ATOM      5  NE  ARG D 557     -28.225  -1.317 -16.891  1.00 35.49    -0.212 N 
ATOM      6  CZ  ARG D 557     -28.754  -2.506 -17.079  1.00 35.49     0.666 C 
ATOM      7  NH1 ARG D 557     -29.926  -2.676 -17.663  1.00 35.49    -0.235 N 
ATOM      8  NH2 ARG D 557     -28.074  -3.537 -16.670  1.00 35.49    -0.235 N 
ATOM      9  HH  ARG D 557     -30.389  -2.012 -17.942  1.00 35.49     0.174 HD
ATOM     10  HH  ARG D 557     -30.219  -3.475 -17.761  1.00 35.49     0.174 HD
ATOM     11  HH  ARG D 557     -27.317  -3.397 -16.302  1.00 35.49     0.174 HD
ATOM     12  HH  ARG D 557     -28.381  -4.320 -16.777  1.00 35.49     0.174 HD
ATOM     13  HE  ARG D 557     -27.503  -1.296 -16.442  1.00 35.49     0.178 HD
ENDBRANCH   4   5
ENDBRANCH   3   4
ENDBRANCH   2   3
ENDBRANCH   1   2
END_RES ARG D 557
BEGIN_RES GLU D 570
REMARK  3 active torsions:
REMARK  status: ('A' for Active; 'I' for Inactive)
REMARK    5  A    between atoms: CA   and  CB  
REMARK    6  A    between atoms: CB   and  CG  
REMARK    7  A    between atoms: CG   and  CD  
ROOT
ATOM     14  CA  GLU D 570     -18.033  -6.348 -13.375  1.00 32.92     0.160 C 
ENDROOT
BRANCH  14  15
ATOM     15  CB  GLU D 570     -19.500  -6.345 -13.794  1.00 32.92     0.043 C 
BRANCH  15  16
ATOM     16  CG  GLU D 570     -20.447  -5.553 -12.967  1.00 32.92     0.100 C 
BRANCH  16  17
ATOM     17  CD  GLU D 570     -21.740  -5.244 -13.684  1.00 32.92     0.185 C 
ATOM     18  OE1 GLU D 570     -21.745  -5.195 -14.929  1.00 32.92    -0.647 OA
ATOM     19  OE2 GLU D 570     -22.756  -5.032 -12.993  1.00 32.92    -0.647 OA
ENDBRANCH  16  17
ENDBRANCH  15  16
ENDBRANCH  14  15
END_RES GLU D 570
ENDMDL
MODEL 4
REMARK VINA RESULT:      -3.6      5.938      6.268
REMARK  3 active torsions:
REMARK  status: ('A' for Active; 'I' for Inactive)
REMARK    1  A    between atoms: CA_1  and  C_2 
REMARK    2  A    between atoms: CA_1  and  N_5 
REMARK    3  A    between atoms: C_2  and  OXT_4 
ROOT
ATOM      1  CA  GLY A   1     -29.941 -15.836 -20.042  1.00  0.00     0.376 C 
ENDROOT
BRANCH   1   2
ATOM      2  C   GLY A   1     -29.771 -14.324 -20.165  1.00  0.00     0.168 C 
ATOM      3  O   GLY A   1     -29.125 -13.758 -21.030  1.00  0.00    -0.649 OA
BRANCH   2   4
ATOM      4  OXT GLY A   1     -30.465 -13.671 -19.193  1.00  0.00    -0.775 OA
ATOM      5  HXT GLY A   1     -29.805 -13.115 -18.710  1.00  0.00     0.167 HD
ENDBRANCH   2   4
ENDBRANCH   1   2
BRANCH   1   6
ATOM      6  N   GLY A   1     -31.034 -16.277 -20.944  1.00  0.00     0.088 N 
ATOM      7  H1  GLY A   1     -31.882 -16.388 -20.376  1.00  0.00     0.313 HD
ATOM      8  H2  GLY A   1     -30.815 -17.230 -21.247  1.00  0.00     0.313 HD
ENDBRANCH   1   6
TORSDOF 3
BEGIN_RES ARG D 557
REMARK  4 active torsions:
REMARK  status: ('A' for Active; 'I' for Inactive)
REMARK    1  A    between atoms: CA   and  CB  
REMARK    2  A    between atoms: CB   and  CG  
REMARK    3  A    between atoms: CG   and  CD  
REMARK    4  A    between atoms: CD   and  NE  
REMARK       I    between atoms: NE   and  CZ  
REMARK       I    between atoms: CZ   and  NH1 
REMARK       I    between atoms: CZ   and  NH2 
ROOT
ATOM      1  CA  ARG D 557     -26.217   2.705 -17.014  1.00 35.49     0.159 C 
ENDROOT
BRANCH   1   2
ATOM      2  CB  ARG D 557     -26.789   1.319 -17.183  1.00 35.49     0.034 C 
BRANCH   2   3
ATOM      3  CG  ARG D 557     -25.836   0.203 -17.154  1.00 35.49     0.027 C 
BRANCH   3   4
ATOM      4  CD  ARG D 557     -24.750   0.413 -16.169  1.00 35.49     0.116 C 
BRANCH   4   5
ATOM      5  NE  ARG D 557     -24.894  -0.435 -15.015  1.00 35.49    -0.212 N 
ATOM      6  CZ  ARG D 557     -24.079  -1.406 -14.669  1.00 35.49     0.666 C 
ATOM      7  NH1 ARG D 557     -23.013  -1.724 -15.379  1.00 35.49    -0.235 N 
ATOM      8  NH2 ARG D 557     -24.353  -2.058 -13.576  1.00 35.49    -0.235 N 
ATOM      9  HH  ARG D 557     -22.812  -1.306 -16.100  1.00 35.49     0.174 HD
ATOM     10  HH  ARG D 557     -22.516  -2.365 -15.102  1.00 35.49     0.174 HD
ATOM     11  HH  ARG D 557     -25.044  -1.826 -13.134  1.00 35.49     0.174 HD
ATOM     12  HH  ARG D 557     -23.848  -2.689 -13.319  1.00 35.49     0.174 HD
ATOM     13  HE  ARG D 557     -25.594  -0.347 -14.540  1.00 35.49     0.178 HD
ENDBRANCH   4   5
ENDBRANCH   3   4
ENDBRANCH   2   3
ENDBRANCH   1   2
END_RES ARG D 557
BEGIN_RES GLU D 570
REMARK  3 active torsions:
REMARK  status: ('A' for Active; 'I' for Inactive)
REMARK    5  A    between atoms: CA   and  CB  
REMARK    6  A    between atoms: CB   and  CG  
REMARK    7  A    between atoms: CG   and  CD  
ROOT
ATOM     14  CA  GLU D 570     -18.033  -6.348 -13.375  1.00 32.92     0.160 C 
ENDROOT
BRANCH  14  15
ATOM     15  CB  GLU D 570     -19.500  -6.345 -13.794  1.00 32.92     0.043 C 
BRANCH  15  16
ATOM     16  CG  GLU D 570     -20.443  -5.536 -12.979  1.00 32.92     0.100 C 
BRANCH  16  17
ATOM     17  CD  GLU D 570     -21.734  -5.231 -13.702  1.00 32.92     0.185 C 
ATOM     18  OE1 GLU D 570     -22.306  -4.145 -13.488  1.00 32.92    -0.647 OA
ATOM     19  OE2 GLU D 570     -22.188  -6.095 -14.477  1.00 32.92    -0.647 OA
ENDBRANCH  16  17
ENDBRANCH  15  16
ENDBRANCH  14  15
END_RES GLU D 570
ENDMDL
MODEL 5
REMARK VINA RESULT:      -3.3      3.421      4.868
REMARK  3 active torsions:
REMARK  status: ('A' for Active; 'I' for Inactive)
REMARK    1  A    between atoms: CA_1  and  C_2 
REMARK    2  A    between atoms: CA_1  and  N_5 
REMARK    3  A    between atoms: C_2  and  OXT_4 
ROOT
ATOM      1  CA  GLY A   1     -23.422  -3.892  -9.557  1.00  0.00     0.376 C 
ENDROOT
BRANCH   1   2
ATOM      2  C   GLY A   1     -24.611  -3.302 -10.313  1.00  0.00     0.168 C 
ATOM      3  O   GLY A   1     -25.740  -3.191  -9.868  1.00  0.00    -0.649 OA
BRANCH   2   4
ATOM      4  OXT GLY A   1     -24.243  -2.882 -11.554  1.00  0.00    -0.775 OA
ATOM      5  HXT GLY A   1     -24.976  -2.302 -11.876  1.00  0.00     0.167 HD
ENDBRANCH   2   4
ENDBRANCH   1   2
BRANCH   1   6
ATOM      6  N   GLY A   1     -23.761  -3.986  -8.116  1.00  0.00     0.088 N 
ATOM      7  H1  GLY A   1     -23.072  -4.605  -7.673  1.00  0.00     0.313 HD
ATOM      8  H2  GLY A   1     -24.641  -4.504  -8.041  1.00  0.00     0.313 HD
ENDBRANCH   1   6
TORSDOF 3
BEGIN_RES ARG D 557
REMARK  4 active torsions:
REMARK  status: ('A' for Active; 'I' for Inactive)
REMARK    1  A    between atoms: CA   and  CB  
REMARK    2  A    between atoms: CB   and  CG  
REMARK    3  A    between atoms: CG   and  CD  
REMARK    4  A    between atoms: CD   and  NE  
REMARK       I    between atoms: NE   and  CZ  
REMARK       I    between atoms: CZ   and  NH1 
REMARK       I    between atoms: CZ   and  NH2 
ROOT
ATOM      1  CA  ARG D 557     -26.217   2.705 -17.014  1.00 35.49     0.159 C 
ENDROOT
BRANCH   1   2
ATOM      2  CB  ARG D 557     -26.789   1.319 -17.183  1.00 35.49     0.034 C 
BRANCH   2   3
ATOM      3  CG  ARG D 557     -28.188   1.128 -16.783  1.00 35.49     0.027 C 
BRANCH   3   4
ATOM      4  CD  ARG D 557     -28.725  -0.183 -17.213  1.00 35.49     0.116 C 
BRANCH   4   5
ATOM      5  NE  ARG D 557     -28.003  -1.282 -16.629  1.00 35.49    -0.212 N 
ATOM      6  CZ  ARG D 557     -28.270  -2.557 -16.805  1.00 35.49     0.666 C 
ATOM      7  NH1 ARG D 557     -29.274  -2.974 -17.553  1.00 35.49    -0.235 N 
ATOM      8  NH2 ARG D 557     -27.495  -3.420 -16.214  1.00 35.49    -0.235 N 
ATOM      9  HH  ARG D 557     -29.795  -2.424 -17.953  1.00 35.49     0.174 HD
ATOM     10  HH  ARG D 557     -29.399  -3.818 -17.634  1.00 35.49     0.174 HD
ATOM     11  HH  ARG D 557     -26.850  -3.122 -15.743  1.00 35.49     0.174 HD
ATOM     12  HH  ARG D 557     -27.634  -4.251 -16.307  1.00 35.49     0.174 HD
ATOM     13  HE  ARG D 557     -27.384  -1.104 -16.074  1.00 35.49     0.178 HD
ENDBRANCH   4   5
ENDBRANCH   3   4
ENDBRANCH   2   3
ENDBRANCH   1   2
END_RES ARG D 557
BEGIN_RES GLU D 570
REMARK  3 active torsions:
REMARK  status: ('A' for Active; 'I' for Inactive)
REMARK    5  A    between atoms: CA   and  CB  
REMARK    6  A    between atoms: CB   and  CG  
REMARK    7  A    between atoms: CG   and  CD  
ROOT
ATOM     14  CA  GLU D 570     -18.033  -6.348 -13.375  1.00 32.92     0.160 C 
ENDROOT
BRANCH  14  15
ATOM     15  CB  GLU D 570     -19.500  -6.345 -13.794  1.00 32.92     0.043 C 
BRANCH  15  16
ATOM     16  CG  GLU D 570     -20.446  -5.551 -12.968  1.00 32.92     0.100 C 
BRANCH  16  17
ATOM     17  CD  GLU D 570     -21.737  -5.237 -13.689  1.00 32.92     0.185 C 
ATOM     18  OE1 GLU D 570     -22.364  -4.204 -13.385  1.00 32.92    -0.647 OA
ATOM     19  OE2 GLU D 570     -22.134  -6.042 -14.554  1.00 32.92    -0.647 OA
ENDBRANCH  16  17
ENDBRANCH  15  16
ENDBRANCH  14  15
END_RES GLU D 570
ENDMDL
MODEL 6
REMARK VINA RESULT:      -3.2      1.938      2.333
REMARK  3 active torsions:
REMARK  status: ('A' for Active; 'I' for Inactive)
REMARK    1  A    between atoms: CA_1  and  C_2 
REMARK    2  A    between atoms: CA_1  and  N_5 
REMARK    3  A    between atoms: C_2  and  OXT_4 
ROOT
ATOM      1  CA  GLY A   1     -24.854  -6.822 -17.500  1.00  0.00     0.376 C 
ENDROOT
BRANCH   1   2
ATOM      2  C   GLY A   1     -24.625  -7.498 -16.150  1.00  0.00     0.168 C 
ATOM      3  O   GLY A   1     -25.129  -7.153 -15.096  1.00  0.00    -0.649 OA
BRANCH   2   4
ATOM      4  OXT GLY A   1     -23.795  -8.570 -16.275  1.00  0.00    -0.775 OA
ATOM      5  HXT GLY A   1     -24.255  -9.326 -15.832  1.00  0.00     0.167 HD
ENDBRANCH   2   4
ENDBRANCH   1   2
BRANCH   1   6
ATOM      6  N   GLY A   1     -24.058  -7.525 -18.537  1.00  0.00     0.088 N 
ATOM      7  H1  GLY A   1     -24.644  -8.274 -18.925  1.00  0.00     0.313 HD
ATOM      8  H2  GLY A   1     -23.305  -8.026 -18.057  1.00  0.00     0.313 HD
ENDBRANCH   1   6
TORSDOF 3
BEGIN_RES ARG D 557
REMARK  4 active torsions:
REMARK  status: ('A' for Active; 'I' for Inactive)
REMARK    1  A    between atoms: CA   and  CB  
REMARK    2  A    between atoms: CB   and  CG  
REMARK    3  A    between atoms: CG   and  CD  
REMARK    4  A    between atoms: CD   and  NE  
REMARK       I    between atoms: NE   and  CZ  
REMARK       I    between atoms: CZ   and  NH1 
REMARK       I    between atoms: CZ   and  NH2 
ROOT
ATOM      1  CA  ARG D 557     -26.217   2.705 -17.014  1.00 35.49     0.159 C 
ENDROOT
BRANCH   1   2
ATOM      2  CB  ARG D 557     -26.789   1.319 -17.183  1.00 35.49     0.034 C 
BRANCH   2   3
ATOM      3  CG  ARG D 557     -25.838   0.201 -17.135  1.00 35.49     0.027 C 
BRANCH   3   4
ATOM      4  CD  ARG D 557     -24.752   0.427 -16.154  1.00 35.49     0.116 C 
BRANCH   4   5
ATOM      5  NE  ARG D 557     -24.869  -0.434 -15.007  1.00 35.49    -0.212 N 
ATOM      6  CZ  ARG D 557     -24.039  -1.401 -14.684  1.00 35.49     0.666 C 
ATOM      7  NH1 ARG D 557     -22.981  -1.700 -15.415  1.00 35.49    -0.235 N 
ATOM      8  NH2 ARG D 557     -24.289  -2.068 -13.595  1.00 35.49    -0.235 N 
ATOM      9  HH  ARG D 557     -22.796  -1.273 -16.135  1.00 35.49     0.174 HD
ATOM     10  HH  ARG D 557     -22.474  -2.340 -15.154  1.00 35.49     0.174 HD
ATOM     11  HH  ARG D 557     -24.975  -1.847 -13.139  1.00 35.49     0.174 HD
ATOM     12  HH  ARG D 557     -23.774  -2.696 -13.352  1.00 35.49     0.174 HD
ATOM     13  HE  ARG D 557     -25.562  -0.358 -14.520  1.00 35.49     0.178 HD
ENDBRANCH   4   5
ENDBRANCH   3   4
ENDBRANCH   2   3
ENDBRANCH   1   2
END_RES ARG D 557
BEGIN_RES GLU D 570
REMARK  3 active torsions:
REMARK  status: ('A' for Active; 'I' for Inactive)
REMARK    5  A    between atoms: CA   and  CB  
REMARK    6  A    between atoms: CB   and  CG  
REMARK    7  A    between atoms: CG   and  CD  
ROOT
ATOM     14  CA  GLU D 570     -18.033  -6.348 -13.375  1.00 32.92     0.160 C 
ENDROOT
BRANCH  14  15
ATOM     15  CB  GLU D 570     -19.500  -6.345 -13.794  1.00 32.92     0.043 C 
BRANCH  15  16
ATOM     16  CG  GLU D 570     -19.801  -6.108 -15.229  1.00 32.92     0.100 C 
BRANCH  16  17
ATOM     17  CD  GLU D 570     -20.706  -7.163 -15.824  1.00 32.92     0.185 C 
ATOM     18  OE1 GLU D 570     -20.791  -8.272 -15.264  1.00 32.92    -0.647 OA
ATOM     19  OE2 GLU D 570     -21.323  -6.881 -16.870  1.00 32.92    -0.647 OA
ENDBRANCH  16  17
ENDBRANCH  15  16
ENDBRANCH  14  15
END_RES GLU D 570
ENDMDL
MODEL 7
REMARK VINA RESULT:      -3.2      6.066      6.392
REMARK  3 active torsions:
REMARK  status: ('A' for Active; 'I' for Inactive)
REMARK    1  A    between atoms: CA_1  and  C_2 
REMARK    2  A    between atoms: CA_1  and  N_5 
REMARK    3  A    between atoms: C_2  and  OXT_4 
ROOT
ATOM      1  CA  GLY A   1     -29.877 -15.822 -20.049  1.00  0.00     0.376 C 
ENDROOT
BRANCH   1   2
ATOM      2  C   GLY A   1     -29.760 -14.303 -20.132  1.00  0.00     0.168 C 
ATOM      3  O   GLY A   1     -29.083 -13.693 -20.942  1.00  0.00    -0.649 OA
BRANCH   2   4
ATOM      4  OXT GLY A   1     -30.540 -13.699 -19.194  1.00  0.00    -0.775 OA
ATOM      5  HXT GLY A   1     -31.392 -13.480 -19.645  1.00  0.00     0.167 HD
ENDBRANCH   2   4
ENDBRANCH   1   2
BRANCH   1   6
ATOM      6  N   GLY A   1     -31.007 -16.270 -20.901  1.00  0.00     0.088 N 
ATOM      7  H1  GLY A   1     -31.845 -16.312 -20.309  1.00  0.00     0.313 HD
ATOM      8  H2  GLY A   1     -30.834 -17.248 -21.151  1.00  0.00     0.313 HD
ENDBRANCH   1   6
TORSDOF 3
BEGIN_RES ARG D 557
REMARK  4 active torsions:
REMARK  status: ('A' for Active; 'I' for Inactive)
REMARK    1  A    between atoms: CA   and  CB  
REMARK    2  A    between atoms: CB   and  CG  
REMARK    3  A    between atoms: CG   and  CD  
REMARK    4  A    between atoms: CD   and  NE  
REMARK       I    between atoms: NE   and  CZ  
REMARK       I    between atoms: CZ   and  NH1 
REMARK       I    between atoms: CZ   and  NH2 
ROOT
ATOM      1  CA  ARG D 557     -26.217   2.705 -17.014  1.00 35.49     0.159 C 
ENDROOT
BRANCH   1   2
ATOM      2  CB  ARG D 557     -26.789   1.319 -17.183  1.00 35.49     0.034 C 
BRANCH   2   3
ATOM      3  CG  ARG D 557     -28.224   1.160 -16.920  1.00 35.49     0.027 C 
BRANCH   3   4
ATOM      4  CD  ARG D 557     -28.612  -0.258 -16.741  1.00 35.49     0.116 C 
BRANCH   4   5
ATOM      5  NE  ARG D 557     -27.609  -1.009 -16.033  1.00 35.49    -0.212 N 
ATOM      6  CZ  ARG D 557     -27.435  -2.310 -16.098  1.00 35.49     0.666 C 
ATOM      7  NH1 ARG D 557     -28.201  -3.092 -16.837  1.00 35.49    -0.235 N 
ATOM      8  NH2 ARG D 557     -26.460  -2.821 -15.404  1.00 35.49    -0.235 N 
ATOM      9  HH  ARG D 557     -28.846  -2.777 -17.304  1.00 35.49     0.174 HD
ATOM     10  HH  ARG D 557     -28.038  -3.933 -16.843  1.00 35.49     0.174 HD
ATOM     11  HH  ARG D 557     -25.978  -2.291 -14.942  1.00 35.49     0.174 HD
ATOM     12  HH  ARG D 557     -26.315  -3.656 -15.423  1.00 35.49     0.174 HD
ATOM     13  HE  ARG D 557     -27.118  -0.594 -15.477  1.00 35.49     0.178 HD
ENDBRANCH   4   5
ENDBRANCH   3   4
ENDBRANCH   2   3
ENDBRANCH   1   2
END_RES ARG D 557
BEGIN_RES GLU D 570
REMARK  3 active torsions:
REMARK  status: ('A' for Active; 'I' for Inactive)
REMARK    5  A    between atoms: CA   and  CB  
REMARK    6  A    between atoms: CB   and  CG  
REMARK    7  A    between atoms: CG   and  CD  
ROOT
ATOM     14  CA  GLU D 570     -18.033  -6.348 -13.375  1.00 32.92     0.160 C 
ENDROOT
BRANCH  14  15
ATOM     15  CB  GLU D 570     -19.500  -6.345 -13.794  1.00 32.92     0.043 C 
BRANCH  15  16
ATOM     16  CG  GLU D 570     -20.443  -5.536 -12.979  1.00 32.92     0.100 C 
BRANCH  16  17
ATOM     17  CD  GLU D 570     -21.705  -5.172 -13.726  1.00 32.92     0.185 C 
ATOM     18  OE1 GLU D 570     -21.644  -4.970 -14.954  1.00 32.92    -0.647 OA
ATOM     19  OE2 GLU D 570     -22.762  -5.072 -13.073  1.00 32.92    -0.647 OA
ENDBRANCH  16  17
ENDBRANCH  15  16
ENDBRANCH  14  15
END_RES GLU D 570
ENDMDL
MODEL 8
REMARK VINA RESULT:      -3.1      3.090      4.651
REMARK  3 active torsions:
REMARK  status: ('A' for Active; 'I' for Inactive)
REMARK    1  A    between atoms: CA_1  and  C_2 
REMARK    2  A    between atoms: CA_1  and  N_5 
REMARK    3  A    between atoms: C_2  and  OXT_4 
ROOT
ATOM      1  CA  GLY A   1     -23.845  -4.275  -9.190  1.00  0.00     0.376 C 
ENDROOT
BRANCH   1   2
ATOM      2  C   GLY A   1     -24.723  -3.426 -10.105  1.00  0.00     0.168 C 
ATOM      3  O   GLY A   1     -24.383  -2.975 -11.185  1.00  0.00    -0.649 OA
BRANCH   2   4
ATOM      4  OXT GLY A   1     -25.964  -3.254  -9.572  1.00  0.00    -0.775 OA
ATOM      5  HXT GLY A   1     -26.123  -4.037  -8.989  1.00  0.00     0.167 HD
ENDBRANCH   2   4
ENDBRANCH   1   2
BRANCH   1   6
ATOM      6  N   GLY A   1     -22.906  -3.389  -8.458  1.00  0.00     0.088 N 
ATOM      7  H1  GLY A   1     -21.952  -3.656  -8.727  1.00  0.00     0.313 HD
ATOM      8  H2  GLY A   1     -22.960  -3.637  -7.466  1.00  0.00     0.313 HD
ENDBRANCH   1   6
TORSDOF 3
BEGIN_RES ARG D 557
REMARK  4 active torsions:
REMARK  status: ('A' for Active; 'I' for Inactive)
REMARK    1  A    between atoms: CA   and  CB  
REMARK    2  A    between atoms: CB   and  CG  
REMARK    3  A    between atoms: CG   and  CD  
REMARK    4  A    between atoms: CD   and  NE  
REMARK       I    between atoms: NE   and  CZ  
REMARK       I    between atoms: CZ   and  NH1 
REMARK       I    between atoms: CZ   and  NH2 
ROOT
ATOM      1  CA  ARG D 557     -26.217   2.705 -17.014  1.00 35.49     0.159 C 
ENDROOT
BRANCH   1   2
ATOM      2  CB  ARG D 557     -26.789   1.319 -17.183  1.00 35.49     0.034 C 
BRANCH   2   3
ATOM      3  CG  ARG D 557     -25.856   0.196 -17.028  1.00 35.49     0.027 C 
BRANCH   3   4
ATOM      4  CD  ARG D 557     -26.149  -0.618 -15.826  1.00 35.49     0.116 C 
BRANCH   4   5
ATOM      5  NE  ARG D 557     -24.977  -0.834 -15.018  1.00 35.49    -0.212 N 
ATOM      6  CZ  ARG D 557     -24.710  -1.919 -14.327  1.00 35.49     0.666 C 
ATOM      7  NH1 ARG D 557     -25.526  -2.956 -14.291  1.00 35.49    -0.235 N 
ATOM      8  NH2 ARG D 557     -23.588  -1.949 -13.668  1.00 35.49    -0.235 N 
ATOM      9  HH  ARG D 557     -26.269  -2.958 -14.719  1.00 35.49     0.174 HD
ATOM     10  HH  ARG D 557     -25.298  -3.638 -13.825  1.00 35.49     0.174 HD
ATOM     11  HH  ARG D 557     -23.077  -1.268 -13.716  1.00 35.49     0.174 HD
ATOM     12  HH  ARG D 557     -23.379  -2.634 -13.213  1.00 35.49     0.174 HD
ATOM     13  HE  ARG D 557     -24.432  -0.188 -14.926  1.00 35.49     0.178 HD
ENDBRANCH   4   5
ENDBRANCH   3   4
ENDBRANCH   2   3
ENDBRANCH   1   2
END_RES ARG D 557
BEGIN_RES GLU D 570
REMARK  3 active torsions:
REMARK  status: ('A' for Active; 'I' for Inactive)
REMARK    5  A    between atoms: CA   and  CB  
REMARK    6  A    between atoms: CB   and  CG  
REMARK    7  A    between atoms: CG   and  CD  
ROOT
ATOM     14  CA  GLU D 570     -18.033  -6.348 -13.375  1.00 32.92     0.160 C 
ENDROOT
BRANCH  14  15
ATOM     15  CB  GLU D 570     -19.500  -6.345 -13.794  1.00 32.92     0.043 C 
BRANCH  15  16
ATOM     16  CG  GLU D 570     -20.109  -7.649 -14.165  1.00 32.92     0.100 C 
BRANCH  16  17
ATOM     17  CD  GLU D 570     -20.678  -7.656 -15.565  1.00 32.92     0.185 C 
ATOM     18  OE1 GLU D 570     -21.124  -6.596 -16.042  1.00 32.92    -0.647 OA
ATOM     19  OE2 GLU D 570     -20.693  -8.739 -16.183  1.00 32.92    -0.647 OA
ENDBRANCH  16  17
ENDBRANCH  15  16
ENDBRANCH  14  15
END_RES GLU D 570
ENDMDL
MODEL 9
REMARK VINA RESULT:      -3.1      2.710      3.088
REMARK  3 active torsions:
REMARK  status: ('A' for Active; 'I' for Inactive)
REMARK    1  A    between atoms: CA_1  and  C_2 
REMARK    2  A    between atoms: CA_1  and  N_5 
REMARK    3  A    between atoms: C_2  and  OXT_4 
ROOT
ATOM      1  CA  GLY A   1     -27.984  -7.013 -15.629  1.00  0.00     0.376 C 
ENDROOT
BRANCH   1   2
ATOM      2  C   GLY A   1     -26.554  -6.590 -15.956  1.00  0.00     0.168 C 
ATOM      3  O   GLY A   1     -26.244  -5.617 -16.620  1.00  0.00    -0.649 OA
BRANCH   2   4
ATOM      4  OXT GLY A   1     -25.652  -7.431 -15.381  1.00  0.00    -0.775 OA
ATOM      5  HXT GLY A   1     -25.148  -7.843 -16.125  1.00  0.00     0.167 HD
ENDBRANCH   2   4
ENDBRANCH   1   2
BRANCH   1   6
ATOM      6  N   GLY A   1     -28.642  -7.500 -16.868  1.00  0.00     0.088 N 
ATOM      7  H1  GLY A   1     -28.187  -8.380 -17.137  1.00  0.00     0.313 HD
ATOM      8  H2  GLY A   1     -28.392  -6.854 -17.622  1.00  0.00     0.313 HD
ENDBRANCH   1   6
TORSDOF 3
BEGIN_RES ARG D 557
REMARK  4 active torsions:
REMARK  status: ('A' for Active; 'I' for Inactive)
REMARK    1  A    between atoms: CA   and  CB  
REMARK    2  A    between atoms: CB   and  CG  
REMARK    3  A    between atoms: CG   and  CD  
REMARK    4  A    between atoms: CD   and  NE  
REMARK       I    between atoms: NE   and  CZ  
REMARK       I    between atoms: CZ   and  NH1 
REMARK       I    between atoms: CZ   and  NH2 
ROOT
ATOM      1  CA  ARG D 557     -26.217   2.705 -17.014  1.00 35.49     0.159 C 
ENDROOT
BRANCH   1   2
ATOM      2  CB  ARG D 557     -26.789   1.319 -17.183  1.00 35.49     0.034 C 
BRANCH   2   3
ATOM      3  CG  ARG D 557     -28.217   1.153 -16.888  1.00 35.49     0.027 C 
BRANCH   3   4
ATOM      4  CD  ARG D 557     -28.594  -0.267 -16.700  1.00 35.49     0.116 C 
BRANCH   4   5
ATOM      5  NE  ARG D 557     -27.585  -1.006 -15.988  1.00 35.49    -0.212 N 
ATOM      6  CZ  ARG D 557     -27.393  -2.304 -16.055  1.00 35.49     0.666 C 
ATOM      7  NH1 ARG D 557     -28.145  -3.095 -16.798  1.00 35.49    -0.235 N 
ATOM      8  NH2 ARG D 557     -26.415  -2.803 -15.356  1.00 35.49    -0.235 N 
ATOM      9  HH  ARG D 557     -28.793  -2.787 -17.268  1.00 35.49     0.174 HD
ATOM     10  HH  ARG D 557     -27.972  -3.934 -16.804  1.00 35.49     0.174 HD
ATOM     11  HH  ARG D 557     -25.942  -2.268 -14.891  1.00 35.49     0.174 HD
ATOM     12  HH  ARG D 557     -26.259  -3.636 -15.377  1.00 35.49     0.174 HD
ATOM     13  HE  ARG D 557     -27.101  -0.585 -15.429  1.00 35.49     0.178 HD
ENDBRANCH   4   5
ENDBRANCH   3   4
ENDBRANCH   2   3
ENDBRANCH   1   2
END_RES ARG D 557
BEGIN_RES GLU D 570
REMARK  3 active torsions:
REMARK  status: ('A' for Active; 'I' for Inactive)
REMARK    5  A    between atoms: CA   and  CB  
REMARK    6  A    between atoms: CB   and  CG  
REMARK    7  A    between atoms: CG   and  CD  
ROOT
ATOM     14  CA  GLU D 570     -18.033  -6.348 -13.375  1.00 32.92     0.160 C 
ENDROOT
BRANCH  14  15
ATOM     15  CB  GLU D 570     -19.500  -6.345 -13.794  1.00 32.92     0.043 C 
BRANCH  15  16
ATOM     16  CG  GLU D 570     -20.094  -7.640 -14.215  1.00 32.92     0.100 C 
BRANCH  16  17
ATOM     17  CD  GLU D 570     -21.100  -7.491 -15.333  1.00 32.92     0.185 C 
ATOM     18  OE1 GLU D 570     -21.121  -8.340 -16.245  1.00 32.92    -0.647 OA
ATOM     19  OE2 GLU D 570     -21.863  -6.506 -15.305  1.00 32.92    -0.647 OA
ENDBRANCH  16  17
ENDBRANCH  15  16
ENDBRANCH  14  15
END_RES GLU D 570
ENDMDL
