MODEL 1
REMARK VINA RESULT:      -3.0      0.000      0.000
REMARK  1 active torsions:
REMARK  status: ('A' for Active; 'I' for Inactive)
REMARK    1  A    between atoms: C_2  and  O_4 
ROOT
HETATM    1  C   UNL     1     -23.690  -4.909 -10.474  1.00  0.00     0.039 C 
HETATM    2  C   UNL     1     -22.782  -3.752 -10.091  1.00  0.00     0.110 C 
HETATM    3  C   UNL     1     -21.413  -4.236  -9.635  1.00  0.00     0.039 C 
ENDROOT
BRANCH   2   4
HETATM    4  O   UNL     1     -22.625  -2.887 -11.210  1.00  0.00    -0.396 OA
HETATM    5  H   UNL     1     -22.230  -3.402 -11.934  1.00  0.00     0.209 HD
ENDBRANCH   2   4
TORSDOF 1
BEGIN_RES ARG D 557
REMARK  4 active torsions:
REMARK  status: ('A' for Active; 'I' for Inactive)
REMARK    1  A    between atoms: CA   and  CB  
REMARK    2  A    between atoms: CB   and  CG  
REMARK    3  A    between atoms: CG   and  CD  
REMARK    4  A    between atoms: CD   and  NE  
REMARK       I    between atoms: NE   and  CZ  
REMARK       I    between atoms: CZ   and  NH1 
REMARK       I    between atoms: CZ   and  NH2 
ROOT
ATOM      1  CA  ARG D 557     -26.217   2.705 -17.014  1.00 35.49     0.159 C 
ENDROOT
BRANCH   1   2
ATOM      2  CB  ARG D 557     -26.789   1.319 -17.183  1.00 35.49     0.034 C 
BRANCH   2   3
ATOM      3  CG  ARG D 557     -25.836   0.203 -17.153  1.00 35.49     0.027 C 
BRANCH   3   4
ATOM      4  CD  ARG D 557     -24.748   0.416 -16.171  1.00 35.49     0.116 C 
BRANCH   4   5
ATOM      5  NE  ARG D 557     -24.888  -0.431 -15.015  1.00 35.49    -0.212 N 
ATOM      6  CZ  ARG D 557     -24.072  -1.401 -14.671  1.00 35.49     0.666 C 
ATOM      7  NH1 ARG D 557     -23.008  -1.720 -15.385  1.00 35.49    -0.235 N 
ATOM      8  NH2 ARG D 557     -24.341  -2.053 -13.577  1.00 35.49    -0.235 N 
ATOM      9  HH  ARG D 557     -22.810  -1.303 -16.107  1.00 35.49     0.174 HD
ATOM     10  HH  ARG D 557     -22.510  -2.361 -15.110  1.00 35.49     0.174 HD
ATOM     11  HH  ARG D 557     -25.031  -1.820 -13.132  1.00 35.49     0.174 HD
ATOM     12  HH  ARG D 557     -23.835  -2.683 -13.321  1.00 35.49     0.174 HD
ATOM     13  HE  ARG D 557     -25.586  -0.342 -14.538  1.00 35.49     0.178 HD
ENDBRANCH   4   5
ENDBRANCH   3   4
ENDBRANCH   2   3
ENDBRANCH   1   2
END_RES ARG D 557
BEGIN_RES GLU D 570
REMARK  3 active torsions:
REMARK  status: ('A' for Active; 'I' for Inactive)
REMARK    5  A    between atoms: CA   and  CB  
REMARK    6  A    between atoms: CB   and  CG  
REMARK    7  A    between atoms: CG   and  CD  
ROOT
ATOM     14  CA  GLU D 570     -18.033  -6.348 -13.375  1.00 32.92     0.160 C 
ENDROOT
BRANCH  14  15
ATOM     15  CB  GLU D 570     -19.500  -6.345 -13.794  1.00 32.92     0.043 C 
BRANCH  15  16
ATOM     16  CG  GLU D 570     -20.439  -5.516 -12.994  1.00 32.92     0.100 C 
BRANCH  16  17
ATOM     17  CD  GLU D 570     -21.740  -5.241 -13.711  1.00 32.92     0.185 C 
ATOM     18  OE1 GLU D 570     -22.245  -4.105 -13.634  1.00 32.92    -0.647 OA
ATOM     19  OE2 GLU D 570     -22.268  -6.177 -14.343  1.00 32.92    -0.647 OA
ENDBRANCH  16  17
ENDBRANCH  15  16
ENDBRANCH  14  15
END_RES GLU D 570
ENDMDL
MODEL 2
REMARK VINA RESULT:      -2.7      4.955      6.180
REMARK  1 active torsions:
REMARK  status: ('A' for Active; 'I' for Inactive)
REMARK    1  A    between atoms: C_2  and  O_4 
ROOT
HETATM    1  C   UNL     1     -25.809   5.814  -9.858  1.00  0.00     0.039 C 
HETATM    2  C   UNL     1     -26.022   7.069 -10.689  1.00  0.00     0.110 C 
HETATM    3  C   UNL     1     -24.931   7.244 -11.736  1.00  0.00     0.039 C 
ENDROOT
BRANCH   2   4
HETATM    4  O   UNL     1     -27.287   6.995 -11.338  1.00  0.00    -0.396 OA
HETATM    5  H   UNL     1     -27.201   6.391 -12.095  1.00  0.00     0.209 HD
ENDBRANCH   2   4
TORSDOF 1
BEGIN_RES ARG D 557
REMARK  4 active torsions:
REMARK  status: ('A' for Active; 'I' for Inactive)
REMARK    1  A    between atoms: CA   and  CB  
REMARK    2  A    between atoms: CB   and  CG  
REMARK    3  A    between atoms: CG   and  CD  
REMARK    4  A    between atoms: CD   and  NE  
REMARK       I    between atoms: NE   and  CZ  
REMARK       I    between atoms: CZ   and  NH1 
REMARK       I    between atoms: CZ   and  NH2 
ROOT
ATOM      1  CA  ARG D 557     -26.217   2.705 -17.014  1.00 35.49     0.159 C 
ENDROOT
BRANCH   1   2
ATOM      2  CB  ARG D 557     -26.789   1.319 -17.183  1.00 35.49     0.034 C 
BRANCH   2   3
ATOM      3  CG  ARG D 557     -25.865   0.195 -16.991  1.00 35.49     0.027 C 
BRANCH   3   4
ATOM      4  CD  ARG D 557     -26.296  -0.710 -15.901  1.00 35.49     0.116 C 
BRANCH   4   5
ATOM      5  NE  ARG D 557     -25.251  -0.933 -14.936  1.00 35.49    -0.212 N 
ATOM      6  CZ  ARG D 557     -24.977  -2.077 -14.351  1.00 35.49     0.666 C 
ATOM      7  NH1 ARG D 557     -25.667  -3.178 -14.588  1.00 35.49    -0.235 N 
ATOM      8  NH2 ARG D 557     -23.979  -2.100 -13.516  1.00 35.49    -0.235 N 
ATOM      9  HH  ARG D 557     -26.326  -3.186 -15.135  1.00 35.49     0.174 HD
ATOM     10  HH  ARG D 557     -25.440  -3.896 -14.179  1.00 35.49     0.174 HD
ATOM     11  HH  ARG D 557     -23.547  -1.376 -13.389  1.00 35.49     0.174 HD
ATOM     12  HH  ARG D 557     -23.769  -2.821 -13.122  1.00 35.49     0.174 HD
ATOM     13  HE  ARG D 557     -24.803  -0.260 -14.670  1.00 35.49     0.178 HD
ENDBRANCH   4   5
ENDBRANCH   3   4
ENDBRANCH   2   3
ENDBRANCH   1   2
END_RES ARG D 557
BEGIN_RES GLU D 570
REMARK  3 active torsions:
REMARK  status: ('A' for Active; 'I' for Inactive)
REMARK    5  A    between atoms: CA   and  CB  
REMARK    6  A    between atoms: CB   and  CG  
REMARK    7  A    between atoms: CG   and  CD  
ROOT
ATOM     14  CA  GLU D 570     -18.033  -6.348 -13.375  1.00 32.92     0.160 C 
ENDROOT
BRANCH  14  15
ATOM     15  CB  GLU D 570     -19.500  -6.345 -13.794  1.00 32.92     0.043 C 
BRANCH  15  16
ATOM     16  CG  GLU D 570     -20.447  -5.556 -12.965  1.00 32.92     0.100 C 
BRANCH  16  17
ATOM     17  CD  GLU D 570     -21.682  -5.130 -13.725  1.00 32.92     0.185 C 
ATOM     18  OE1 GLU D 570     -22.735  -4.914 -13.095  1.00 32.92    -0.647 OA
ATOM     19  OE2 GLU D 570     -21.599  -5.027 -14.964  1.00 32.92    -0.647 OA
ENDBRANCH  16  17
ENDBRANCH  15  16
ENDBRANCH  14  15
END_RES GLU D 570
ENDMDL
MODEL 3
REMARK VINA RESULT:      -2.7      4.641      6.214
REMARK  1 active torsions:
REMARK  status: ('A' for Active; 'I' for Inactive)
REMARK    1  A    between atoms: C_2  and  O_4 
ROOT
HETATM    1  C   UNL     1     -28.809  -6.563 -18.447  1.00  0.00     0.039 C 
HETATM    2  C   UNL     1     -29.825  -7.590 -17.976  1.00  0.00     0.110 C 
HETATM    3  C   UNL     1     -31.112  -6.933 -17.499  1.00  0.00     0.039 C 
ENDROOT
BRANCH   2   4
HETATM    4  O   UNL     1     -30.122  -8.482 -19.045  1.00  0.00    -0.396 OA
HETATM    5  H   UNL     1     -30.888  -8.128 -19.527  1.00  0.00     0.209 HD
ENDBRANCH   2   4
TORSDOF 1
BEGIN_RES ARG D 557
REMARK  4 active torsions:
REMARK  status: ('A' for Active; 'I' for Inactive)
REMARK    1  A    between atoms: CA   and  CB  
REMARK    2  A    between atoms: CB   and  CG  
REMARK    3  A    between atoms: CG   and  CD  
REMARK    4  A    between atoms: CD   and  NE  
REMARK       I    between atoms: NE   and  CZ  
REMARK       I    between atoms: CZ   and  NH1 
REMARK       I    between atoms: CZ   and  NH2 
ROOT
ATOM      1  CA  ARG D 557     -26.217   2.705 -17.014  1.00 35.49     0.159 C 
ENDROOT
BRANCH   1   2
ATOM      2  CB  ARG D 557     -26.789   1.319 -17.183  1.00 35.49     0.034 C 
BRANCH   2   3
ATOM      3  CG  ARG D 557     -25.836   0.203 -17.154  1.00 35.49     0.027 C 
BRANCH   3   4
ATOM      4  CD  ARG D 557     -24.751   0.413 -16.168  1.00 35.49     0.116 C 
BRANCH   4   5
ATOM      5  NE  ARG D 557     -24.894  -0.436 -15.015  1.00 35.49    -0.212 N 
ATOM      6  CZ  ARG D 557     -24.079  -1.407 -14.670  1.00 35.49     0.666 C 
ATOM      7  NH1 ARG D 557     -23.013  -1.724 -15.381  1.00 35.49    -0.235 N 
ATOM      8  NH2 ARG D 557     -24.352  -2.062 -13.579  1.00 35.49    -0.235 N 
ATOM      9  HH  ARG D 557     -22.813  -1.306 -16.102  1.00 35.49     0.174 HD
ATOM     10  HH  ARG D 557     -22.516  -2.366 -15.106  1.00 35.49     0.174 HD
ATOM     11  HH  ARG D 557     -25.043  -1.830 -13.136  1.00 35.49     0.174 HD
ATOM     12  HH  ARG D 557     -23.847  -2.692 -13.322  1.00 35.49     0.174 HD
ATOM     13  HE  ARG D 557     -25.594  -0.349 -14.539  1.00 35.49     0.178 HD
ENDBRANCH   4   5
ENDBRANCH   3   4
ENDBRANCH   2   3
ENDBRANCH   1   2
END_RES ARG D 557
BEGIN_RES GLU D 570
REMARK  3 active torsions:
REMARK  status: ('A' for Active; 'I' for Inactive)
REMARK    5  A    between atoms: CA   and  CB  
REMARK    6  A    between atoms: CB   and  CG  
REMARK    7  A    between atoms: CG   and  CD  
ROOT
ATOM     14  CA  GLU D 570     -18.033  -6.348 -13.375  1.00 32.92     0.160 C 
ENDROOT
BRANCH  14  15
ATOM     15  CB  GLU D 570     -19.500  -6.345 -13.794  1.00 32.92     0.043 C 
BRANCH  15  16
ATOM     16  CG  GLU D 570     -20.445  -5.547 -12.971  1.00 32.92     0.100 C 
BRANCH  16  17
ATOM     17  CD  GLU D 570     -21.743  -5.251 -13.685  1.00 32.92     0.185 C 
ATOM     18  OE1 GLU D 570     -22.255  -6.133 -14.401  1.00 32.92    -0.647 OA
ATOM     19  OE2 GLU D 570     -22.245  -4.118 -13.541  1.00 32.92    -0.647 OA
ENDBRANCH  16  17
ENDBRANCH  15  16
ENDBRANCH  14  15
END_RES GLU D 570
ENDMDL
MODEL 4
REMARK VINA RESULT:      -2.6      1.585      2.164
REMARK  1 active torsions:
REMARK  status: ('A' for Active; 'I' for Inactive)
REMARK    1  A    between atoms: C_2  and  O_4 
ROOT
HETATM    1  C   UNL     1     -21.860  -4.093  -9.127  1.00  0.00     0.039 C 
HETATM    2  C   UNL     1     -23.320  -3.848  -9.473  1.00  0.00     0.110 C 
HETATM    3  C   UNL     1     -23.852  -4.895 -10.441  1.00  0.00     0.039 C 
ENDROOT
BRANCH   2   4
HETATM    4  O   UNL     1     -24.096  -3.873  -8.281  1.00  0.00    -0.396 OA
HETATM    5  H   UNL     1     -23.494  -3.745  -7.528  1.00  0.00     0.209 HD
ENDBRANCH   2   4
TORSDOF 1
BEGIN_RES ARG D 557
REMARK  4 active torsions:
REMARK  status: ('A' for Active; 'I' for Inactive)
REMARK    1  A    between atoms: CA   and  CB  
REMARK    2  A    between atoms: CB   and  CG  
REMARK    3  A    between atoms: CG   and  CD  
REMARK    4  A    between atoms: CD   and  NE  
REMARK       I    between atoms: NE   and  CZ  
REMARK       I    between atoms: CZ   and  NH1 
REMARK       I    between atoms: CZ   and  NH2 
ROOT
ATOM      1  CA  ARG D 557     -26.217   2.705 -17.014  1.00 35.49     0.159 C 
ENDROOT
BRANCH   1   2
ATOM      2  CB  ARG D 557     -26.789   1.319 -17.183  1.00 35.49     0.034 C 
BRANCH   2   3
ATOM      3  CG  ARG D 557     -25.931   0.197 -16.784  1.00 35.49     0.027 C 
BRANCH   3   4
ATOM      4  CD  ARG D 557     -26.683  -0.864 -16.075  1.00 35.49     0.116 C 
BRANCH   4   5
ATOM      5  NE  ARG D 557     -25.934  -1.419 -14.979  1.00 35.49    -0.212 N 
ATOM      6  CZ  ARG D 557     -25.906  -2.686 -14.631  1.00 35.49     0.666 C 
ATOM      7  NH1 ARG D 557     -26.600  -3.612 -15.268  1.00 35.49    -0.235 N 
ATOM      8  NH2 ARG D 557     -25.153  -3.016 -13.622  1.00 35.49    -0.235 N 
ATOM      9  HH  ARG D 557     -27.100  -3.418 -15.936  1.00 35.49     0.174 HD
ATOM     10  HH  ARG D 557     -26.541  -4.423 -14.998  1.00 35.49     0.174 HD
ATOM     11  HH  ARG D 557     -24.711  -2.398 -13.234  1.00 35.49     0.174 HD
ATOM     12  HH  ARG D 557     -25.107  -3.824 -13.371  1.00 35.49     0.174 HD
ATOM     13  HE  ARG D 557     -25.515  -0.883 -14.469  1.00 35.49     0.178 HD
ENDBRANCH   4   5
ENDBRANCH   3   4
ENDBRANCH   2   3
ENDBRANCH   1   2
END_RES ARG D 557
BEGIN_RES GLU D 570
REMARK  3 active torsions:
REMARK  status: ('A' for Active; 'I' for Inactive)
REMARK    5  A    between atoms: CA   and  CB  
REMARK    6  A    between atoms: CB   and  CG  
REMARK    7  A    between atoms: CG   and  CD  
ROOT
ATOM     14  CA  GLU D 570     -18.033  -6.348 -13.375  1.00 32.92     0.160 C 
ENDROOT
BRANCH  14  15
ATOM     15  CB  GLU D 570     -19.500  -6.345 -13.794  1.00 32.92     0.043 C 
BRANCH  15  16
ATOM     16  CG  GLU D 570     -20.442  -5.530 -12.984  1.00 32.92     0.100 C 
BRANCH  16  17
ATOM     17  CD  GLU D 570     -21.747  -5.257 -13.695  1.00 32.92     0.185 C 
ATOM     18  OE1 GLU D 570     -22.238  -6.144 -14.419  1.00 32.92    -0.647 OA
ATOM     19  OE2 GLU D 570     -22.276  -4.139 -13.538  1.00 32.92    -0.647 OA
ENDBRANCH  16  17
ENDBRANCH  15  16
ENDBRANCH  14  15
END_RES GLU D 570
ENDMDL
MODEL 5
REMARK VINA RESULT:      -2.6      3.909      5.655
REMARK  1 active torsions:
REMARK  status: ('A' for Active; 'I' for Inactive)
REMARK    1  A    between atoms: C_2  and  O_4 
ROOT
HETATM    1  C   UNL     1     -28.877  -3.548 -17.324  1.00  0.00     0.039 C 
HETATM    2  C   UNL     1     -30.275  -4.002 -17.713  1.00  0.00     0.110 C 
HETATM    3  C   UNL     1     -30.819  -5.043 -16.746  1.00  0.00     0.039 C 
ENDROOT
BRANCH   2   4
HETATM    4  O   UNL     1     -31.146  -2.877 -17.730  1.00  0.00    -0.396 OA
HETATM    5  H   UNL     1     -30.783  -2.226 -18.353  1.00  0.00     0.209 HD
ENDBRANCH   2   4
TORSDOF 1
BEGIN_RES ARG D 557
REMARK  4 active torsions:
REMARK  status: ('A' for Active; 'I' for Inactive)
REMARK    1  A    between atoms: CA   and  CB  
REMARK    2  A    between atoms: CB   and  CG  
REMARK    3  A    between atoms: CG   and  CD  
REMARK    4  A    between atoms: CD   and  NE  
REMARK       I    between atoms: NE   and  CZ  
REMARK       I    between atoms: CZ   and  NH1 
REMARK       I    between atoms: CZ   and  NH2 
ROOT
ATOM      1  CA  ARG D 557     -26.217   2.705 -17.014  1.00 35.49     0.159 C 
ENDROOT
BRANCH   1   2
ATOM      2  CB  ARG D 557     -26.789   1.319 -17.183  1.00 35.49     0.034 C 
BRANCH   2   3
ATOM      3  CG  ARG D 557     -25.839   0.201 -17.130  1.00 35.49     0.027 C 
BRANCH   3   4
ATOM      4  CD  ARG D 557     -24.761   0.423 -16.140  1.00 35.49     0.116 C 
BRANCH   4   5
ATOM      5  NE  ARG D 557     -24.878  -0.453 -15.005  1.00 35.49    -0.212 N 
ATOM      6  CZ  ARG D 557     -24.042  -1.417 -14.689  1.00 35.49     0.666 C 
ATOM      7  NH1 ARG D 557     -22.977  -1.699 -15.417  1.00 35.49    -0.235 N 
ATOM      8  NH2 ARG D 557     -24.293  -2.100 -13.610  1.00 35.49    -0.235 N 
ATOM      9  HH  ARG D 557     -22.791  -1.261 -16.130  1.00 35.49     0.174 HD
ATOM     10  HH  ARG D 557     -22.466  -2.338 -15.161  1.00 35.49     0.174 HD
ATOM     11  HH  ARG D 557     -24.984  -1.891 -13.156  1.00 35.49     0.174 HD
ATOM     12  HH  ARG D 557     -23.774  -2.728 -13.372  1.00 35.49     0.174 HD
ATOM     13  HE  ARG D 557     -25.574  -0.390 -14.521  1.00 35.49     0.178 HD
ENDBRANCH   4   5
ENDBRANCH   3   4
ENDBRANCH   2   3
ENDBRANCH   1   2
END_RES ARG D 557
BEGIN_RES GLU D 570
REMARK  3 active torsions:
REMARK  status: ('A' for Active; 'I' for Inactive)
REMARK    5  A    between atoms: CA   and  CB  
REMARK    6  A    between atoms: CB   and  CG  
REMARK    7  A    between atoms: CG   and  CD  
ROOT
ATOM     14  CA  GLU D 570     -18.033  -6.348 -13.375  1.00 32.92     0.160 C 
ENDROOT
BRANCH  14  15
ATOM     15  CB  GLU D 570     -19.500  -6.345 -13.794  1.00 32.92     0.043 C 
BRANCH  15  16
ATOM     16  CG  GLU D 570     -20.449  -5.565 -12.958  1.00 32.92     0.100 C 
BRANCH  16  17
ATOM     17  CD  GLU D 570     -21.637  -5.051 -13.739  1.00 32.92     0.185 C 
ATOM     18  OE1 GLU D 570     -22.635  -4.639 -13.119  1.00 32.92    -0.647 OA
ATOM     19  OE2 GLU D 570     -21.574  -5.077 -14.984  1.00 32.92    -0.647 OA
ENDBRANCH  16  17
ENDBRANCH  15  16
ENDBRANCH  14  15
END_RES GLU D 570
ENDMDL
MODEL 6
REMARK VINA RESULT:      -2.5      2.854      3.546
REMARK  1 active torsions:
REMARK  status: ('A' for Active; 'I' for Inactive)
REMARK    1  A    between atoms: C_2  and  O_4 
ROOT
HETATM    1  C   UNL     1     -21.852  -4.148  -9.307  1.00  0.00     0.039 C 
HETATM    2  C   UNL     1     -23.343  -3.854  -9.331  1.00  0.00     0.110 C 
HETATM    3  C   UNL     1     -24.079  -4.754 -10.313  1.00  0.00     0.039 C 
ENDROOT
BRANCH   2   4
HETATM    4  O   UNL     1     -23.881  -4.044  -8.027  1.00  0.00    -0.396 OA
HETATM    5  H   UNL     1     -23.144  -4.024  -7.392  1.00  0.00     0.209 HD
ENDBRANCH   2   4
TORSDOF 1
BEGIN_RES ARG D 557
REMARK  4 active torsions:
REMARK  status: ('A' for Active; 'I' for Inactive)
REMARK    1  A    between atoms: CA   and  CB  
REMARK    2  A    between atoms: CB   and  CG  
REMARK    3  A    between atoms: CG   and  CD  
REMARK    4  A    between atoms: CD   and  NE  
REMARK       I    between atoms: NE   and  CZ  
REMARK       I    between atoms: CZ   and  NH1 
REMARK       I    between atoms: CZ   and  NH2 
ROOT
ATOM      1  CA  ARG D 557     -26.217   2.705 -17.014  1.00 35.49     0.159 C 
ENDROOT
BRANCH   1   2
ATOM      2  CB  ARG D 557     -26.789   1.319 -17.183  1.00 35.49     0.034 C 
BRANCH   2   3
ATOM      3  CG  ARG D 557     -28.234   1.226 -17.426  1.00 35.49     0.027 C 
BRANCH   3   4
ATOM      4  CD  ARG D 557     -28.904   0.292 -16.493  1.00 35.49     0.116 C 
BRANCH   4   5
ATOM      5  NE  ARG D 557     -29.300  -0.931 -17.140  1.00 35.49    -0.212 N 
ATOM      6  CZ  ARG D 557     -28.685  -2.088 -17.037  1.00 35.49     0.666 C 
ATOM      7  NH1 ARG D 557     -27.592  -2.249 -16.314  1.00 35.49    -0.235 N 
ATOM      8  NH2 ARG D 557     -29.197  -3.099 -17.677  1.00 35.49    -0.235 N 
ATOM      9  HH  ARG D 557     -27.239  -1.598 -15.883  1.00 35.49     0.174 HD
ATOM     10  HH  ARG D 557     -27.236  -3.027 -16.282  1.00 35.49     0.174 HD
ATOM     11  HH  ARG D 557     -29.907  -2.967 -18.130  1.00 35.49     0.174 HD
ATOM     12  HH  ARG D 557     -28.830  -3.862 -17.632  1.00 35.49     0.174 HD
ATOM     13  HE  ARG D 557     -29.953  -0.902 -17.683  1.00 35.49     0.178 HD
ENDBRANCH   4   5
ENDBRANCH   3   4
ENDBRANCH   2   3
ENDBRANCH   1   2
END_RES ARG D 557
BEGIN_RES GLU D 570
REMARK  3 active torsions:
REMARK  status: ('A' for Active; 'I' for Inactive)
REMARK    5  A    between atoms: CA   and  CB  
REMARK    6  A    between atoms: CB   and  CG  
REMARK    7  A    between atoms: CG   and  CD  
ROOT
ATOM     14  CA  GLU D 570     -18.033  -6.348 -13.375  1.00 32.92     0.160 C 
ENDROOT
BRANCH  14  15
ATOM     15  CB  GLU D 570     -19.500  -6.345 -13.794  1.00 32.92     0.043 C 
BRANCH  15  16
ATOM     16  CG  GLU D 570     -20.447  -5.554 -12.966  1.00 32.92     0.100 C 
BRANCH  16  17
ATOM     17  CD  GLU D 570     -21.739  -5.241 -13.684  1.00 32.92     0.185 C 
ATOM     18  OE1 GLU D 570     -22.150  -6.027 -14.560  1.00 32.92    -0.647 OA
ATOM     19  OE2 GLU D 570     -22.337  -4.191 -13.380  1.00 32.92    -0.647 OA
ENDBRANCH  16  17
ENDBRANCH  15  16
ENDBRANCH  14  15
END_RES GLU D 570
ENDMDL
MODEL 7
REMARK VINA RESULT:      -2.5      8.651      9.895
REMARK  1 active torsions:
REMARK  status: ('A' for Active; 'I' for Inactive)
REMARK    1  A    between atoms: C_2  and  O_4 
ROOT
HETATM    1  C   UNL     1      -9.343   6.251 -20.538  1.00  0.00     0.039 C 
HETATM    2  C   UNL     1     -10.310   5.961 -19.402  1.00  0.00     0.110 C 
HETATM    3  C   UNL     1     -11.110   4.691 -19.653  1.00  0.00     0.039 C 
ENDROOT
BRANCH   2   4
HETATM    4  O   UNL     1      -9.581   5.823 -18.187  1.00  0.00    -0.396 OA
HETATM    5  H   UNL     1     -10.214   5.615 -17.479  1.00  0.00     0.209 HD
ENDBRANCH   2   4
TORSDOF 1
BEGIN_RES ARG D 557
REMARK  4 active torsions:
REMARK  status: ('A' for Active; 'I' for Inactive)
REMARK    1  A    between atoms: CA   and  CB  
REMARK    2  A    between atoms: CB   and  CG  
REMARK    3  A    between atoms: CG   and  CD  
REMARK    4  A    between atoms: CD   and  NE  
REMARK       I    between atoms: NE   and  CZ  
REMARK       I    between atoms: CZ   and  NH1 
REMARK       I    between atoms: CZ   and  NH2 
ROOT
ATOM      1  CA  ARG D 557     -26.217   2.705 -17.014  1.00 35.49     0.159 C 
ENDROOT
BRANCH   1   2
ATOM      2  CB  ARG D 557     -26.789   1.319 -17.183  1.00 35.49     0.034 C 
BRANCH   2   3
ATOM      3  CG  ARG D 557     -25.864   0.195 -16.996  1.00 35.49     0.027 C 
BRANCH   3   4
ATOM      4  CD  ARG D 557     -26.280  -0.701 -15.893  1.00 35.49     0.116 C 
BRANCH   4   5
ATOM      5  NE  ARG D 557     -25.225  -0.912 -14.937  1.00 35.49    -0.212 N 
ATOM      6  CZ  ARG D 557     -24.931  -2.054 -14.357  1.00 35.49     0.666 C 
ATOM      7  NH1 ARG D 557     -25.609  -3.163 -14.590  1.00 35.49    -0.235 N 
ATOM      8  NH2 ARG D 557     -23.926  -2.066 -13.530  1.00 35.49    -0.235 N 
ATOM      9  HH  ARG D 557     -26.272  -3.178 -15.131  1.00 35.49     0.174 HD
ATOM     10  HH  ARG D 557     -25.369  -3.879 -14.184  1.00 35.49     0.174 HD
ATOM     11  HH  ARG D 557     -23.502  -1.336 -13.405  1.00 35.49     0.174 HD
ATOM     12  HH  ARG D 557     -23.704  -2.785 -13.140  1.00 35.49     0.174 HD
ATOM     13  HE  ARG D 557     -24.784  -0.234 -14.673  1.00 35.49     0.178 HD
ENDBRANCH   4   5
ENDBRANCH   3   4
ENDBRANCH   2   3
ENDBRANCH   1   2
END_RES ARG D 557
BEGIN_RES GLU D 570
REMARK  3 active torsions:
REMARK  status: ('A' for Active; 'I' for Inactive)
REMARK    5  A    between atoms: CA   and  CB  
REMARK    6  A    between atoms: CB   and  CG  
REMARK    7  A    between atoms: CG   and  CD  
ROOT
ATOM     14  CA  GLU D 570     -18.033  -6.348 -13.375  1.00 32.92     0.160 C 
ENDROOT
BRANCH  14  15
ATOM     15  CB  GLU D 570     -19.500  -6.345 -13.794  1.00 32.92     0.043 C 
BRANCH  15  16
ATOM     16  CG  GLU D 570     -20.448  -5.560 -12.962  1.00 32.92     0.100 C 
BRANCH  16  17
ATOM     17  CD  GLU D 570     -21.675  -5.117 -13.725  1.00 32.92     0.185 C 
ATOM     18  OE1 GLU D 570     -21.618  -5.036 -14.967  1.00 32.92    -0.647 OA
ATOM     19  OE2 GLU D 570     -22.698  -4.833 -13.072  1.00 32.92    -0.647 OA
ENDBRANCH  16  17
ENDBRANCH  15  16
ENDBRANCH  14  15
END_RES GLU D 570
ENDMDL
MODEL 8
REMARK VINA RESULT:      -2.4      5.272      6.719
REMARK  1 active torsions:
REMARK  status: ('A' for Active; 'I' for Inactive)
REMARK    1  A    between atoms: C_2  and  O_4 
ROOT
HETATM    1  C   UNL     1     -24.502   7.110 -11.341  1.00  0.00     0.039 C 
HETATM    2  C   UNL     1     -25.690   6.724 -10.475  1.00  0.00     0.110 C 
HETATM    3  C   UNL     1     -27.007   7.163 -11.098  1.00  0.00     0.039 C 
ENDROOT
BRANCH   2   4
HETATM    4  O   UNL     1     -25.703   5.311 -10.298  1.00  0.00    -0.396 OA
HETATM    5  H   UNL     1     -24.866   4.958 -10.642  1.00  0.00     0.209 HD
ENDBRANCH   2   4
TORSDOF 1
BEGIN_RES ARG D 557
REMARK  4 active torsions:
REMARK  status: ('A' for Active; 'I' for Inactive)
REMARK    1  A    between atoms: CA   and  CB  
REMARK    2  A    between atoms: CB   and  CG  
REMARK    3  A    between atoms: CG   and  CD  
REMARK    4  A    between atoms: CD   and  NE  
REMARK       I    between atoms: NE   and  CZ  
REMARK       I    between atoms: CZ   and  NH1 
REMARK       I    between atoms: CZ   and  NH2 
ROOT
ATOM      1  CA  ARG D 557     -26.217   2.705 -17.014  1.00 35.49     0.159 C 
ENDROOT
BRANCH   1   2
ATOM      2  CB  ARG D 557     -26.789   1.319 -17.183  1.00 35.49     0.034 C 
BRANCH   2   3
ATOM      3  CG  ARG D 557     -28.185   1.126 -16.772  1.00 35.49     0.027 C 
BRANCH   3   4
ATOM      4  CD  ARG D 557     -28.719  -0.191 -17.189  1.00 35.49     0.116 C 
BRANCH   4   5
ATOM      5  NE  ARG D 557     -27.989  -1.283 -16.600  1.00 35.49    -0.212 N 
ATOM      6  CZ  ARG D 557     -28.237  -2.560 -16.784  1.00 35.49     0.666 C 
ATOM      7  NH1 ARG D 557     -29.228  -2.988 -17.545  1.00 35.49    -0.235 N 
ATOM      8  NH2 ARG D 557     -27.459  -3.415 -16.187  1.00 35.49    -0.235 N 
ATOM      9  HH  ARG D 557     -29.751  -2.443 -17.949  1.00 35.49     0.174 HD
ATOM     10  HH  ARG D 557     -29.340  -3.833 -17.630  1.00 35.49     0.174 HD
ATOM     11  HH  ARG D 557     -26.823  -3.110 -15.707  1.00 35.49     0.174 HD
ATOM     12  HH  ARG D 557     -27.585  -4.248 -16.284  1.00 35.49     0.174 HD
ATOM     13  HE  ARG D 557     -27.379  -1.098 -16.037  1.00 35.49     0.178 HD
ENDBRANCH   4   5
ENDBRANCH   3   4
ENDBRANCH   2   3
ENDBRANCH   1   2
END_RES ARG D 557
BEGIN_RES GLU D 570
REMARK  3 active torsions:
REMARK  status: ('A' for Active; 'I' for Inactive)
REMARK    5  A    between atoms: CA   and  CB  
REMARK    6  A    between atoms: CB   and  CG  
REMARK    7  A    between atoms: CG   and  CD  
ROOT
ATOM     14  CA  GLU D 570     -18.033  -6.348 -13.375  1.00 32.92     0.160 C 
ENDROOT
BRANCH  14  15
ATOM     15  CB  GLU D 570     -19.500  -6.345 -13.794  1.00 32.92     0.043 C 
BRANCH  15  16
ATOM     16  CG  GLU D 570     -20.440  -5.524 -12.988  1.00 32.92     0.100 C 
BRANCH  16  17
ATOM     17  CD  GLU D 570     -21.708  -5.178 -13.734  1.00 32.92     0.185 C 
ATOM     18  OE1 GLU D 570     -22.783  -5.120 -13.106  1.00 32.92    -0.647 OA
ATOM     19  OE2 GLU D 570     -21.629  -4.979 -14.962  1.00 32.92    -0.647 OA
ENDBRANCH  16  17
ENDBRANCH  15  16
ENDBRANCH  14  15
END_RES GLU D 570
ENDMDL
MODEL 9
REMARK VINA RESULT:      -2.4      1.623      2.040
REMARK  1 active torsions:
REMARK  status: ('A' for Active; 'I' for Inactive)
REMARK    1  A    between atoms: C_2  and  O_4 
ROOT
HETATM    1  C   UNL     1     -20.427  -4.616  -6.266  1.00  0.00     0.039 C 
HETATM    2  C   UNL     1     -20.839  -3.762  -7.454  1.00  0.00     0.110 C 
HETATM    3  C   UNL     1     -20.378  -4.368  -8.772  1.00  0.00     0.039 C 
ENDROOT
BRANCH   2   4
HETATM    4  O   UNL     1     -22.256  -3.629  -7.469  1.00  0.00    -0.396 OA
HETATM    5  H   UNL     1     -22.570  -3.657  -6.550  1.00  0.00     0.209 HD
ENDBRANCH   2   4
TORSDOF 1
BEGIN_RES ARG D 557
REMARK  4 active torsions:
REMARK  status: ('A' for Active; 'I' for Inactive)
REMARK    1  A    between atoms: CA   and  CB  
REMARK    2  A    between atoms: CB   and  CG  
REMARK    3  A    between atoms: CG   and  CD  
REMARK    4  A    between atoms: CD   and  NE  
REMARK       I    between atoms: NE   and  CZ  
REMARK       I    between atoms: CZ   and  NH1 
REMARK       I    between atoms: CZ   and  NH2 
ROOT
ATOM      1  CA  ARG D 557     -26.217   2.705 -17.014  1.00 35.49     0.159 C 
ENDROOT
BRANCH   1   2
ATOM      2  CB  ARG D 557     -26.789   1.319 -17.183  1.00 35.49     0.034 C 
BRANCH   2   3
ATOM      3  CG  ARG D 557     -25.839   0.201 -17.129  1.00 35.49     0.027 C 
BRANCH   3   4
ATOM      4  CD  ARG D 557     -24.755   0.429 -16.147  1.00 35.49     0.116 C 
BRANCH   4   5
ATOM      5  NE  ARG D 557     -24.859  -0.448 -15.011  1.00 35.49    -0.212 N 
ATOM      6  CZ  ARG D 557     -24.012  -1.404 -14.699  1.00 35.49     0.666 C 
ATOM      7  NH1 ARG D 557     -22.948  -1.676 -15.431  1.00 35.49    -0.235 N 
ATOM      8  NH2 ARG D 557     -24.253  -2.089 -13.618  1.00 35.49    -0.235 N 
ATOM      9  HH  ARG D 557     -22.769  -1.237 -16.144  1.00 35.49     0.174 HD
ATOM     10  HH  ARG D 557     -22.430  -2.310 -15.176  1.00 35.49     0.174 HD
ATOM     11  HH  ARG D 557     -24.944  -1.886 -13.161  1.00 35.49     0.174 HD
ATOM     12  HH  ARG D 557     -23.727  -2.711 -13.382  1.00 35.49     0.174 HD
ATOM     13  HE  ARG D 557     -25.554  -0.391 -14.524  1.00 35.49     0.178 HD
ENDBRANCH   4   5
ENDBRANCH   3   4
ENDBRANCH   2   3
ENDBRANCH   1   2
END_RES ARG D 557
BEGIN_RES GLU D 570
REMARK  3 active torsions:
REMARK  status: ('A' for Active; 'I' for Inactive)
REMARK    5  A    between atoms: CA   and  CB  
REMARK    6  A    between atoms: CB   and  CG  
REMARK    7  A    between atoms: CG   and  CD  
ROOT
ATOM     14  CA  GLU D 570     -18.033  -6.348 -13.375  1.00 32.92     0.160 C 
ENDROOT
BRANCH  14  15
ATOM     15  CB  GLU D 570     -19.500  -6.345 -13.794  1.00 32.92     0.043 C 
BRANCH  15  16
ATOM     16  CG  GLU D 570     -20.452  -5.580 -12.948  1.00 32.92     0.100 C 
BRANCH  16  17
ATOM     17  CD  GLU D 570     -21.650  -5.074 -13.718  1.00 32.92     0.185 C 
ATOM     18  OE1 GLU D 570     -22.619  -4.606 -13.090  1.00 32.92    -0.647 OA
ATOM     19  OE2 GLU D 570     -21.625  -5.162 -14.961  1.00 32.92    -0.647 OA
ENDBRANCH  16  17
ENDBRANCH  15  16
ENDBRANCH  14  15
END_RES GLU D 570
ENDMDL
