MODEL 1
REMARK VINA RESULT:      -7.5      0.000      0.000
REMARK  7 active torsions:
REMARK  status: ('A' for Active; 'I' for Inactive)
REMARK    1  A    between atoms: C_5  and  C_34 
REMARK    2  A    between atoms: C_15  and  O_28 
REMARK    3  A    between atoms: C_19  and  O_26 
REMARK    4  A    between atoms: C_20  and  O_25 
REMARK    5  A    between atoms: C_21  and  C_23 
REMARK    6  A    between atoms: C_23  and  O_24 
REMARK    7  A    between atoms: C_34  and  O_36 
ROOT
HETATM    1  C   UNL     1     -24.324 -10.740   0.003  1.00  0.00     0.010 C 
HETATM    2  C   UNL     1     -22.832 -10.665  -0.306  1.00  0.00    -0.014 C 
HETATM    3  C   UNL     1     -22.158 -11.856   0.385  1.00  0.00     0.006 C 
HETATM    4  C   UNL     1     -20.666 -11.577   0.448  1.00  0.00     0.021 C 
HETATM    5  C   UNL     1     -20.117 -11.643  -0.985  1.00  0.00     0.053 C 
HETATM    6  C   UNL     1     -18.624 -11.379  -0.993  1.00  0.00     0.022 C 
HETATM    7  C   UNL     1     -18.187 -11.635  -2.434  1.00  0.00     0.016 C 
HETATM    8  C   UNL     1     -18.689 -10.600  -3.466  1.00  0.00    -0.013 C 
HETATM    9  C   UNL     1     -19.953  -9.890  -3.123  1.00  0.00    -0.069 C 
HETATM   10  C   UNL     1     -20.021  -8.815  -3.990  1.00  0.00    -0.022 C 
HETATM   11  C   UNL     1     -18.987  -8.682  -5.351  1.00  0.00     0.033 C 
HETATM   12  C   UNL     1     -17.865  -9.969  -5.900  1.00  0.00     0.007 C 
HETATM   13  C   UNL     1     -19.011 -10.948  -5.197  1.00  0.00    -0.026 C 
HETATM   14  C   UNL     1     -18.996 -12.202  -6.172  1.00  0.00     0.042 C 
HETATM   15  C   UNL     1     -17.660 -12.480  -6.662  1.00  0.00     0.124 C 
HETATM   16  C   UNL     1     -16.875 -12.347  -5.340  1.00  0.00     0.036 C 
HETATM   17  C   UNL     1     -16.242 -10.990  -5.623  1.00  0.00    -0.030 C 
HETATM   18  C   UNL     1     -15.147 -11.703  -6.733  1.00  0.00     0.044 C 
HETATM   19  C   UNL     1     -14.578 -13.230  -6.392  1.00  0.00     0.148 C 
HETATM   20  C   UNL     1     -15.514 -14.320  -5.742  1.00  0.00     0.157 C 
HETATM   21  C   UNL     1     -16.429 -13.670  -4.737  1.00  0.00     0.012 C 
HETATM   22  C   UNL     1     -15.740 -13.506  -3.359  1.00  0.00     0.020 C 
HETATM   23  C   UNL     1     -15.204 -10.226  -4.748  1.00  0.00     0.016 C 
HETATM   24  C   UNL     1     -20.651 -10.861  -5.533  1.00  0.00     0.016 C 
HETATM   25  C   UNL     1     -20.782 -10.455  -1.871  1.00  0.00     0.038 C 
HETATM   26  C   UNL     1     -22.373 -10.515  -1.814  1.00  0.00    -0.005 C 
HETATM   27  C   UNL     1     -23.034 -11.556  -2.727  1.00  0.00     0.011 C 
HETATM   28  C   UNL     1     -17.629  -9.425  -3.021  1.00  0.00     0.021 C 
ENDROOT
BRANCH   5  29
HETATM   29  C   UNL     1     -20.182 -13.179  -1.276  1.00  0.00     0.149 C 
HETATM   30  O   UNL     1     -20.750 -13.656  -2.252  1.00  0.00    -0.649 OA
BRANCH  29  31
HETATM   31  O   UNL     1     -19.682 -14.017  -0.368  1.00  0.00    -0.776 OA
HETATM   32  H   UNL     1     -20.193 -14.845  -0.573  1.00  0.00     0.167 HD
ENDBRANCH  29  31
ENDBRANCH   5  29
BRANCH  15  33
HETATM   33  O   UNL     1     -17.627 -13.662  -7.432  1.00  0.00    -0.395 OA
HETATM   34  H   UNL     1     -17.543 -13.399  -8.390  1.00  0.00     0.210 HD
ENDBRANCH  15  33
BRANCH  21  35
HETATM   35  C   UNL     1     -17.749 -14.525  -4.568  1.00  0.00     0.176 C 
BRANCH  35  36
HETATM   36  O   UNL     1     -17.724 -15.726  -5.322  1.00  0.00    -0.400 OA
HETATM   37  H   UNL     1     -17.957 -15.470  -6.232  1.00  0.00     0.209 HD
ENDBRANCH  35  36
ENDBRANCH  21  35
BRANCH  19  38
HETATM   38  O   UNL     1     -13.377 -13.085  -5.627  1.00  0.00    -0.393 OA
HETATM   39  H   UNL     1     -12.650 -12.877  -6.233  1.00  0.00     0.210 HD
ENDBRANCH  19  38
BRANCH  20  40
HETATM   40  O   UNL     1     -14.857 -15.432  -5.122  1.00  0.00    -0.392 OA
HETATM   41  H   UNL     1     -13.905 -15.196  -5.050  1.00  0.00     0.210 HD
ENDBRANCH  20  40
TORSDOF 7
BEGIN_RES ARG D 557
REMARK  4 active torsions:
REMARK  status: ('A' for Active; 'I' for Inactive)
REMARK    1  A    between atoms: CA   and  CB  
REMARK    2  A    between atoms: CB   and  CG  
REMARK    3  A    between atoms: CG   and  CD  
REMARK    4  A    between atoms: CD   and  NE  
REMARK       I    between atoms: NE   and  CZ  
REMARK       I    between atoms: CZ   and  NH1 
REMARK       I    between atoms: CZ   and  NH2 
ROOT
ATOM      1  CA  ARG D 557     -26.217   2.705 -17.014  1.00 35.49     0.159 C 
ENDROOT
BRANCH   1   2
ATOM      2  CB  ARG D 557     -26.789   1.319 -17.183  1.00 35.49     0.034 C 
BRANCH   2   3
ATOM      3  CG  ARG D 557     -25.838   0.202 -17.136  1.00 35.49     0.027 C 
BRANCH   3   4
ATOM      4  CD  ARG D 557     -24.754   0.424 -16.153  1.00 35.49     0.116 C 
BRANCH   4   5
ATOM      5  NE  ARG D 557     -24.882  -0.429 -15.001  1.00 35.49    -0.212 N 
ATOM      6  CZ  ARG D 557     -24.062  -1.400 -14.669  1.00 35.49     0.666 C 
ATOM      7  NH1 ARG D 557     -23.003  -1.713 -15.393  1.00 35.49    -0.235 N 
ATOM      8  NH2 ARG D 557     -24.321  -2.058 -13.577  1.00 35.49    -0.235 N 
ATOM      9  HH  ARG D 557     -22.812  -1.292 -16.115  1.00 35.49     0.174 HD
ATOM     10  HH  ARG D 557     -22.502  -2.355 -15.126  1.00 35.49     0.174 HD
ATOM     11  HH  ARG D 557     -25.008  -1.829 -13.125  1.00 35.49     0.174 HD
ATOM     12  HH  ARG D 557     -23.813  -2.689 -13.328  1.00 35.49     0.174 HD
ATOM     13  HE  ARG D 557     -25.577  -0.344 -14.517  1.00 35.49     0.178 HD
ENDBRANCH   4   5
ENDBRANCH   3   4
ENDBRANCH   2   3
ENDBRANCH   1   2
END_RES ARG D 557
BEGIN_RES GLU D 570
REMARK  3 active torsions:
REMARK  status: ('A' for Active; 'I' for Inactive)
REMARK    5  A    between atoms: CA   and  CB  
REMARK    6  A    between atoms: CB   and  CG  
REMARK    7  A    between atoms: CG   and  CD  
ROOT
ATOM     14  CA  GLU D 570     -18.033  -6.348 -13.375  1.00 32.92     0.160 C 
ENDROOT
BRANCH  14  15
ATOM     15  CB  GLU D 570     -19.500  -6.345 -13.794  1.00 32.92     0.043 C 
BRANCH  15  16
ATOM     16  CG  GLU D 570     -20.451  -5.576 -12.951  1.00 32.92     0.100 C 
BRANCH  16  17
ATOM     17  CD  GLU D 570     -21.739  -5.243 -13.668  1.00 32.92     0.185 C 
ATOM     18  OE1 GLU D 570     -22.272  -6.109 -14.387  1.00 32.92    -0.647 OA
ATOM     19  OE2 GLU D 570     -22.209  -4.097 -13.523  1.00 32.92    -0.647 OA
ENDBRANCH  16  17
ENDBRANCH  15  16
ENDBRANCH  14  15
END_RES GLU D 570
ENDMDL
MODEL 2
REMARK VINA RESULT:      -7.4      3.424      5.816
REMARK  7 active torsions:
REMARK  status: ('A' for Active; 'I' for Inactive)
REMARK    1  A    between atoms: C_5  and  C_34 
REMARK    2  A    between atoms: C_15  and  O_28 
REMARK    3  A    between atoms: C_19  and  O_26 
REMARK    4  A    between atoms: C_20  and  O_25 
REMARK    5  A    between atoms: C_21  and  C_23 
REMARK    6  A    between atoms: C_23  and  O_24 
REMARK    7  A    between atoms: C_34  and  O_36 
ROOT
HETATM    1  C   UNL     1     -21.371  -6.021  -3.232  1.00  0.00     0.010 C 
HETATM    2  C   UNL     1     -21.025  -7.107  -2.218  1.00  0.00    -0.014 C 
HETATM    3  C   UNL     1     -22.148  -7.137  -1.175  1.00  0.00     0.006 C 
HETATM    4  C   UNL     1     -21.637  -7.889   0.041  1.00  0.00     0.021 C 
HETATM    5  C   UNL     1     -21.480  -9.365  -0.352  1.00  0.00     0.053 C 
HETATM    6  C   UNL     1     -20.975 -10.177   0.825  1.00  0.00     0.022 C 
HETATM    7  C   UNL     1     -21.022 -11.628   0.351  1.00  0.00     0.016 C 
HETATM    8  C   UNL     1     -19.993 -11.996  -0.741  1.00  0.00    -0.013 C 
HETATM    9  C   UNL     1     -19.534 -10.880  -1.614  1.00  0.00    -0.069 C 
HETATM   10  C   UNL     1     -18.410 -11.355  -2.264  1.00  0.00    -0.022 C 
HETATM   11  C   UNL     1     -17.984 -13.016  -2.239  1.00  0.00     0.033 C 
HETATM   12  C   UNL     1     -19.014 -14.316  -1.557  1.00  0.00     0.007 C 
HETATM   13  C   UNL     1     -20.228 -13.264  -1.989  1.00  0.00    -0.026 C 
HETATM   14  C   UNL     1     -21.368 -14.269  -2.450  1.00  0.00     0.042 C 
HETATM   15  C   UNL     1     -21.378 -15.472  -1.640  1.00  0.00     0.124 C 
HETATM   16  C   UNL     1     -21.240 -14.834  -0.242  1.00  0.00     0.036 C 
HETATM   17  C   UNL     1     -19.777 -15.191  -0.005  1.00  0.00    -0.030 C 
HETATM   18  C   UNL     1     -20.197 -16.828   0.281  1.00  0.00     0.044 C 
HETATM   19  C   UNL     1     -21.635 -17.138   1.060  1.00  0.00     0.148 C 
HETATM   20  C   UNL     1     -22.919 -16.267   0.775  1.00  0.00     0.157 C 
HETATM   21  C   UNL     1     -22.522 -14.828   0.576  1.00  0.00     0.012 C 
HETATM   22  C   UNL     1     -22.375 -14.084   1.928  1.00  0.00     0.020 C 
HETATM   23  C   UNL     1     -18.937 -14.948   1.284  1.00  0.00     0.016 C 
HETATM   24  C   UNL     1     -20.380 -12.586  -3.514  1.00  0.00     0.016 C 
HETATM   25  C   UNL     1     -20.340  -9.497  -1.502  1.00  0.00     0.038 C 
HETATM   26  C   UNL     1     -20.665  -8.556  -2.745  1.00  0.00    -0.005 C 
HETATM   27  C   UNL     1     -21.711  -9.090  -3.732  1.00  0.00     0.011 C 
HETATM   28  C   UNL     1     -18.707 -12.042   0.281  1.00  0.00     0.021 C 
ENDROOT
BRANCH   5  29
HETATM   29  C   UNL     1     -22.972  -9.823  -0.453  1.00  0.00     0.149 C 
HETATM   30  O   UNL     1     -23.394 -10.551  -1.345  1.00  0.00    -0.649 OA
BRANCH  29  31
HETATM   31  O   UNL     1     -23.849  -9.319   0.413  1.00  0.00    -0.776 OA
HETATM   32  H   UNL     1     -23.511  -8.388   0.506  1.00  0.00     0.167 HD
ENDBRANCH  29  31
ENDBRANCH   5  29
BRANCH  15  33
HETATM   33  O   UNL     1     -22.462 -16.311  -1.972  1.00  0.00    -0.395 OA
HETATM   34  H   UNL     1     -23.098 -16.306  -1.203  1.00  0.00     0.210 HD
ENDBRANCH  15  33
BRANCH  21  35
HETATM   35  C   UNL     1     -23.594 -14.086  -0.320  1.00  0.00     0.176 C 
BRANCH  35  36
HETATM   36  O   UNL     1     -24.681 -14.922  -0.679  1.00  0.00    -0.400 OA
HETATM   37  H   UNL     1     -25.187 -14.424  -1.345  1.00  0.00     0.209 HD
ENDBRANCH  35  36
ENDBRANCH  21  35
BRANCH  19  38
HETATM   38  O   UNL     1     -21.366 -17.182   2.466  1.00  0.00    -0.393 OA
HETATM   39  H   UNL     1     -20.409 -17.260   2.593  1.00  0.00     0.210 HD
ENDBRANCH  19  38
BRANCH  20  40
HETATM   40  O   UNL     1     -23.961 -16.332   1.756  1.00  0.00    -0.392 OA
HETATM   41  H   UNL     1     -24.241 -15.407   1.935  1.00  0.00     0.210 HD
ENDBRANCH  20  40
TORSDOF 7
BEGIN_RES ARG D 557
REMARK  4 active torsions:
REMARK  status: ('A' for Active; 'I' for Inactive)
REMARK    1  A    between atoms: CA   and  CB  
REMARK    2  A    between atoms: CB   and  CG  
REMARK    3  A    between atoms: CG   and  CD  
REMARK    4  A    between atoms: CD   and  NE  
REMARK       I    between atoms: NE   and  CZ  
REMARK       I    between atoms: CZ   and  NH1 
REMARK       I    between atoms: CZ   and  NH2 
ROOT
ATOM      1  CA  ARG D 557     -26.217   2.705 -17.014  1.00 35.49     0.159 C 
ENDROOT
BRANCH   1   2
ATOM      2  CB  ARG D 557     -26.789   1.319 -17.183  1.00 35.49     0.034 C 
BRANCH   2   3
ATOM      3  CG  ARG D 557     -25.837   0.202 -17.143  1.00 35.49     0.027 C 
BRANCH   3   4
ATOM      4  CD  ARG D 557     -24.754   0.419 -16.156  1.00 35.49     0.116 C 
BRANCH   4   5
ATOM      5  NE  ARG D 557     -24.889  -0.436 -15.006  1.00 35.49    -0.212 N 
ATOM      6  CZ  ARG D 557     -24.067  -1.403 -14.667  1.00 35.49     0.666 C 
ATOM      7  NH1 ARG D 557     -23.000  -1.710 -15.381  1.00 35.49    -0.235 N 
ATOM      8  NH2 ARG D 557     -24.333  -2.063 -13.577  1.00 35.49    -0.235 N 
ATOM      9  HH  ARG D 557     -22.804  -1.287 -16.101  1.00 35.49     0.174 HD
ATOM     10  HH  ARG D 557     -22.498  -2.349 -15.109  1.00 35.49     0.174 HD
ATOM     11  HH  ARG D 557     -25.025  -1.838 -13.132  1.00 35.49     0.174 HD
ATOM     12  HH  ARG D 557     -23.823  -2.691 -13.324  1.00 35.49     0.174 HD
ATOM     13  HE  ARG D 557     -25.589  -0.355 -14.529  1.00 35.49     0.178 HD
ENDBRANCH   4   5
ENDBRANCH   3   4
ENDBRANCH   2   3
ENDBRANCH   1   2
END_RES ARG D 557
BEGIN_RES GLU D 570
REMARK  3 active torsions:
REMARK  status: ('A' for Active; 'I' for Inactive)
REMARK    5  A    between atoms: CA   and  CB  
REMARK    6  A    between atoms: CB   and  CG  
REMARK    7  A    between atoms: CG   and  CD  
ROOT
ATOM     14  CA  GLU D 570     -18.033  -6.348 -13.375  1.00 32.92     0.160 C 
ENDROOT
BRANCH  14  15
ATOM     15  CB  GLU D 570     -19.500  -6.345 -13.794  1.00 32.92     0.043 C 
BRANCH  15  16
ATOM     16  CG  GLU D 570     -20.445  -5.544 -12.973  1.00 32.92     0.100 C 
BRANCH  16  17
ATOM     17  CD  GLU D 570     -21.733  -5.228 -13.697  1.00 32.92     0.185 C 
ATOM     18  OE1 GLU D 570     -22.277  -4.123 -13.510  1.00 32.92    -0.647 OA
ATOM     19  OE2 GLU D 570     -22.211  -6.101 -14.447  1.00 32.92    -0.647 OA
ENDBRANCH  16  17
ENDBRANCH  15  16
ENDBRANCH  14  15
END_RES GLU D 570
ENDMDL
MODEL 3
REMARK VINA RESULT:      -7.4      1.581      2.713
REMARK  7 active torsions:
REMARK  status: ('A' for Active; 'I' for Inactive)
REMARK    1  A    between atoms: C_5  and  C_34 
REMARK    2  A    between atoms: C_15  and  O_28 
REMARK    3  A    between atoms: C_19  and  O_26 
REMARK    4  A    between atoms: C_20  and  O_25 
REMARK    5  A    between atoms: C_21  and  C_23 
REMARK    6  A    between atoms: C_23  and  O_24 
REMARK    7  A    between atoms: C_34  and  O_36 
ROOT
HETATM    1  C   UNL     1     -22.311  -6.858  -0.769  1.00  0.00     0.010 C 
HETATM    2  C   UNL     1     -21.488  -8.135  -0.908  1.00  0.00    -0.014 C 
HETATM    3  C   UNL     1     -22.463  -9.317  -0.876  1.00  0.00     0.006 C 
HETATM    4  C   UNL     1     -21.663 -10.576  -0.592  1.00  0.00     0.021 C 
HETATM    5  C   UNL     1     -20.795 -10.868  -1.825  1.00  0.00     0.053 C 
HETATM    6  C   UNL     1     -19.971 -12.122  -1.609  1.00  0.00     0.022 C 
HETATM    7  C   UNL     1     -19.292 -12.383  -2.952  1.00  0.00     0.016 C 
HETATM    8  C   UNL     1     -18.202 -11.361  -3.346  1.00  0.00    -0.013 C 
HETATM    9  C   UNL     1     -18.341  -9.995  -2.767  1.00  0.00    -0.069 C 
HETATM   10  C   UNL     1     -17.120  -9.379  -2.974  1.00  0.00    -0.022 C 
HETATM   11  C   UNL     1     -15.933 -10.047  -4.015  1.00  0.00     0.033 C 
HETATM   12  C   UNL     1     -16.199 -11.471  -5.072  1.00  0.00     0.007 C 
HETATM   13  C   UNL     1     -17.767 -10.920  -5.031  1.00  0.00    -0.026 C 
HETATM   14  C   UNL     1     -18.259 -11.256  -6.503  1.00  0.00     0.042 C 
HETATM   15  C   UNL     1     -17.686 -12.498  -6.986  1.00  0.00     0.124 C 
HETATM   16  C   UNL     1     -17.897 -13.376  -5.735  1.00  0.00     0.036 C 
HETATM   17  C   UNL     1     -16.451 -13.384  -5.253  1.00  0.00    -0.030 C 
HETATM   18  C   UNL     1     -16.014 -14.472  -6.504  1.00  0.00     0.044 C 
HETATM   19  C   UNL     1     -17.123 -15.630  -6.949  1.00  0.00     0.148 C 
HETATM   20  C   UNL     1     -18.665 -15.305  -6.998  1.00  0.00     0.157 C 
HETATM   21  C   UNL     1     -19.026 -14.387  -5.859  1.00  0.00     0.012 C 
HETATM   22  C   UNL     1     -19.281 -15.175  -4.549  1.00  0.00     0.020 C 
HETATM   23  C   UNL     1     -15.855 -14.176  -4.052  1.00  0.00     0.016 C 
HETATM   24  C   UNL     1     -18.214  -9.342  -5.374  1.00  0.00     0.016 C 
HETATM   25  C   UNL     1     -19.724  -9.662  -2.026  1.00  0.00     0.038 C 
HETATM   26  C   UNL     1     -20.455  -8.249  -2.102  1.00  0.00    -0.005 C 
HETATM   27  C   UNL     1     -21.091  -7.899  -3.454  1.00  0.00     0.011 C 
HETATM   28  C   UNL     1     -17.072 -11.946  -2.306  1.00  0.00     0.021 C 
ENDROOT
BRANCH   5  29
HETATM   29  C   UNL     1     -21.868 -11.351  -2.856  1.00  0.00     0.149 C 
HETATM   30  O   UNL     1     -21.996 -10.863  -3.974  1.00  0.00    -0.649 OA
BRANCH  29  31
HETATM   31  O   UNL     1     -22.751 -12.270  -2.468  1.00  0.00    -0.776 OA
HETATM   32  H   UNL     1     -23.044 -11.895  -1.595  1.00  0.00     0.167 HD
ENDBRANCH  29  31
ENDBRANCH   5  29
BRANCH  15  33
HETATM   33  O   UNL     1     -18.213 -12.856  -8.244  1.00  0.00    -0.395 OA
HETATM   34  H   UNL     1     -18.553 -12.025  -8.680  1.00  0.00     0.210 HD
ENDBRANCH  15  33
BRANCH  21  35
HETATM   35  C   UNL     1     -20.313 -13.543  -6.225  1.00  0.00     0.176 C 
BRANCH  35  36
HETATM   36  O   UNL     1     -20.866 -13.904  -7.480  1.00  0.00    -0.400 OA
HETATM   37  H   UNL     1     -20.727 -13.135  -8.060  1.00  0.00     0.209 HD
ENDBRANCH  35  36
ENDBRANCH  21  35
BRANCH  19  38
HETATM   38  O   UNL     1     -16.884 -16.791  -6.146  1.00  0.00    -0.393 OA
HETATM   39  H   UNL     1     -16.014 -16.704  -5.731  1.00  0.00     0.210 HD
ENDBRANCH  19  38
BRANCH  20  40
HETATM   40  O   UNL     1     -19.552 -16.430  -6.988  1.00  0.00    -0.392 OA
HETATM   41  H   UNL     1     -19.236 -17.046  -7.686  1.00  0.00     0.210 HD
ENDBRANCH  20  40
TORSDOF 7
BEGIN_RES ARG D 557
REMARK  4 active torsions:
REMARK  status: ('A' for Active; 'I' for Inactive)
REMARK    1  A    between atoms: CA   and  CB  
REMARK    2  A    between atoms: CB   and  CG  
REMARK    3  A    between atoms: CG   and  CD  
REMARK    4  A    between atoms: CD   and  NE  
REMARK       I    between atoms: NE   and  CZ  
REMARK       I    between atoms: CZ   and  NH1 
REMARK       I    between atoms: CZ   and  NH2 
ROOT
ATOM      1  CA  ARG D 557     -26.217   2.705 -17.014  1.00 35.49     0.159 C 
ENDROOT
BRANCH   1   2
ATOM      2  CB  ARG D 557     -26.789   1.319 -17.183  1.00 35.49     0.034 C 
BRANCH   2   3
ATOM      3  CG  ARG D 557     -25.836   0.203 -17.155  1.00 35.49     0.027 C 
BRANCH   3   4
ATOM      4  CD  ARG D 557     -24.762   0.402 -16.155  1.00 35.49     0.116 C 
BRANCH   4   5
ATOM      5  NE  ARG D 557     -24.922  -0.456 -15.010  1.00 35.49    -0.212 N 
ATOM      6  CZ  ARG D 557     -24.109  -1.427 -14.660  1.00 35.49     0.666 C 
ATOM      7  NH1 ARG D 557     -23.031  -1.736 -15.357  1.00 35.49    -0.235 N 
ATOM      8  NH2 ARG D 557     -24.398  -2.090 -13.578  1.00 35.49    -0.235 N 
ATOM      9  HH  ARG D 557     -22.821  -1.312 -16.071  1.00 35.49     0.174 HD
ATOM     10  HH  ARG D 557     -22.537  -2.378 -15.078  1.00 35.49     0.174 HD
ATOM     11  HH  ARG D 557     -25.096  -1.864 -13.144  1.00 35.49     0.174 HD
ATOM     12  HH  ARG D 557     -23.895  -2.722 -13.318  1.00 35.49     0.174 HD
ATOM     13  HE  ARG D 557     -25.629  -0.374 -14.545  1.00 35.49     0.178 HD
ENDBRANCH   4   5
ENDBRANCH   3   4
ENDBRANCH   2   3
ENDBRANCH   1   2
END_RES ARG D 557
BEGIN_RES GLU D 570
REMARK  3 active torsions:
REMARK  status: ('A' for Active; 'I' for Inactive)
REMARK    5  A    between atoms: CA   and  CB  
REMARK    6  A    between atoms: CB   and  CG  
REMARK    7  A    between atoms: CG   and  CD  
ROOT
ATOM     14  CA  GLU D 570     -18.033  -6.348 -13.375  1.00 32.92     0.160 C 
ENDROOT
BRANCH  14  15
ATOM     15  CB  GLU D 570     -19.500  -6.345 -13.794  1.00 32.92     0.043 C 
BRANCH  15  16
ATOM     16  CG  GLU D 570     -20.440  -5.524 -12.988  1.00 32.92     0.100 C 
BRANCH  16  17
ATOM     17  CD  GLU D 570     -21.730  -5.222 -13.715  1.00 32.92     0.185 C 
ATOM     18  OE1 GLU D 570     -22.312  -4.142 -13.492  1.00 32.92    -0.647 OA
ATOM     19  OE2 GLU D 570     -22.173  -6.081 -14.502  1.00 32.92    -0.647 OA
ENDBRANCH  16  17
ENDBRANCH  15  16
ENDBRANCH  14  15
END_RES GLU D 570
ENDMDL
MODEL 4
REMARK VINA RESULT:      -7.2      2.145      3.226
REMARK  7 active torsions:
REMARK  status: ('A' for Active; 'I' for Inactive)
REMARK    1  A    between atoms: C_5  and  C_34 
REMARK    2  A    between atoms: C_15  and  O_28 
REMARK    3  A    between atoms: C_19  and  O_26 
REMARK    4  A    between atoms: C_20  and  O_25 
REMARK    5  A    between atoms: C_21  and  C_23 
REMARK    6  A    between atoms: C_23  and  O_24 
REMARK    7  A    between atoms: C_34  and  O_36 
ROOT
HETATM    1  C   UNL     1     -22.312  -6.833  -0.778  1.00  0.00     0.010 C 
HETATM    2  C   UNL     1     -21.491  -8.112  -0.912  1.00  0.00    -0.014 C 
HETATM    3  C   UNL     1     -22.468  -9.292  -0.878  1.00  0.00     0.006 C 
HETATM    4  C   UNL     1     -21.669 -10.551  -0.589  1.00  0.00     0.021 C 
HETATM    5  C   UNL     1     -20.800 -10.848  -1.820  1.00  0.00     0.053 C 
HETATM    6  C   UNL     1     -19.978 -12.103  -1.599  1.00  0.00     0.022 C 
HETATM    7  C   UNL     1     -19.298 -12.369  -2.940  1.00  0.00     0.016 C 
HETATM    8  C   UNL     1     -18.206 -11.350  -3.336  1.00  0.00    -0.013 C 
HETATM    9  C   UNL     1     -18.344  -9.982  -2.762  1.00  0.00    -0.069 C 
HETATM   10  C   UNL     1     -17.122  -9.368  -2.968  1.00  0.00    -0.022 C 
HETATM   11  C   UNL     1     -15.934 -10.041  -4.006  1.00  0.00     0.033 C 
HETATM   12  C   UNL     1     -16.200 -11.468  -5.059  1.00  0.00     0.007 C 
HETATM   13  C   UNL     1     -17.768 -10.914  -5.022  1.00  0.00    -0.026 C 
HETATM   14  C   UNL     1     -18.259 -11.255  -6.494  1.00  0.00     0.042 C 
HETATM   15  C   UNL     1     -17.686 -12.499  -6.972  1.00  0.00     0.124 C 
HETATM   16  C   UNL     1     -17.900 -13.372  -5.718  1.00  0.00     0.036 C 
HETATM   17  C   UNL     1     -16.455 -13.381  -5.234  1.00  0.00    -0.030 C 
HETATM   18  C   UNL     1     -16.018 -14.473  -6.481  1.00  0.00     0.044 C 
HETATM   19  C   UNL     1     -17.128 -15.632  -6.924  1.00  0.00     0.148 C 
HETATM   20  C   UNL     1     -18.670 -15.304  -6.976  1.00  0.00     0.157 C 
HETATM   21  C   UNL     1     -19.031 -14.382  -5.841  1.00  0.00     0.012 C 
HETATM   22  C   UNL     1     -19.288 -15.166  -4.528  1.00  0.00     0.020 C 
HETATM   23  C   UNL     1     -15.862 -14.170  -4.030  1.00  0.00     0.016 C 
HETATM   24  C   UNL     1     -18.213  -9.337  -5.370  1.00  0.00     0.016 C 
HETATM   25  C   UNL     1     -19.727  -9.645  -2.023  1.00  0.00     0.038 C 
HETATM   26  C   UNL     1     -20.456  -8.231  -2.105  1.00  0.00    -0.005 C 
HETATM   27  C   UNL     1     -21.090  -7.884  -3.458  1.00  0.00     0.011 C 
HETATM   28  C   UNL     1     -17.078 -11.933  -2.292  1.00  0.00     0.021 C 
ENDROOT
BRANCH   5  29
HETATM   29  C   UNL     1     -21.872 -11.333  -2.851  1.00  0.00     0.149 C 
HETATM   30  O   UNL     1     -21.993 -10.853  -3.972  1.00  0.00    -0.649 OA
BRANCH  29  31
HETATM   31  O   UNL     1     -22.762 -12.244  -2.458  1.00  0.00    -0.776 OA
HETATM   32  H   UNL     1     -23.159 -11.792  -1.667  1.00  0.00     0.167 HD
ENDBRANCH  29  31
ENDBRANCH   5  29
BRANCH  15  33
HETATM   33  O   UNL     1     -18.212 -12.860  -8.230  1.00  0.00    -0.395 OA
HETATM   34  H   UNL     1     -19.147 -12.515  -8.279  1.00  0.00     0.210 HD
ENDBRANCH  15  33
BRANCH  21  35
HETATM   35  C   UNL     1     -20.316 -13.538  -6.211  1.00  0.00     0.176 C 
BRANCH  35  36
HETATM   36  O   UNL     1     -20.862 -13.896  -7.469  1.00  0.00    -0.400 OA
HETATM   37  H   UNL     1     -21.394 -14.695  -7.307  1.00  0.00     0.209 HD
ENDBRANCH  35  36
ENDBRANCH  21  35
BRANCH  19  38
HETATM   38  O   UNL     1     -16.892 -16.790  -6.117  1.00  0.00    -0.393 OA
HETATM   39  H   UNL     1     -16.326 -16.536  -5.373  1.00  0.00     0.210 HD
ENDBRANCH  19  38
BRANCH  20  40
HETATM   40  O   UNL     1     -19.558 -16.428  -6.964  1.00  0.00    -0.392 OA
HETATM   41  H   UNL     1     -20.447 -16.085  -6.723  1.00  0.00     0.210 HD
ENDBRANCH  20  40
TORSDOF 7
BEGIN_RES ARG D 557
REMARK  4 active torsions:
REMARK  status: ('A' for Active; 'I' for Inactive)
REMARK    1  A    between atoms: CA   and  CB  
REMARK    2  A    between atoms: CB   and  CG  
REMARK    3  A    between atoms: CG   and  CD  
REMARK    4  A    between atoms: CD   and  NE  
REMARK       I    between atoms: NE   and  CZ  
REMARK       I    between atoms: CZ   and  NH1 
REMARK       I    between atoms: CZ   and  NH2 
ROOT
ATOM      1  CA  ARG D 557     -26.217   2.705 -17.014  1.00 35.49     0.159 C 
ENDROOT
BRANCH   1   2
ATOM      2  CB  ARG D 557     -26.789   1.319 -17.183  1.00 35.49     0.034 C 
BRANCH   2   3
ATOM      3  CG  ARG D 557     -28.235   1.225 -17.418  1.00 35.49     0.027 C 
BRANCH   3   4
ATOM      4  CD  ARG D 557     -28.899   0.289 -16.482  1.00 35.49     0.116 C 
BRANCH   4   5
ATOM      5  NE  ARG D 557     -29.295  -0.934 -17.129  1.00 35.49    -0.212 N 
ATOM      6  CZ  ARG D 557     -28.673  -2.089 -17.035  1.00 35.49     0.666 C 
ATOM      7  NH1 ARG D 557     -27.573  -2.246 -16.322  1.00 35.49    -0.235 N 
ATOM      8  NH2 ARG D 557     -29.187  -3.100 -17.673  1.00 35.49    -0.235 N 
ATOM      9  HH  ARG D 557     -27.219  -1.594 -15.893  1.00 35.49     0.174 HD
ATOM     10  HH  ARG D 557     -27.213  -3.023 -16.296  1.00 35.49     0.174 HD
ATOM     11  HH  ARG D 557     -29.902  -2.971 -18.119  1.00 35.49     0.174 HD
ATOM     12  HH  ARG D 557     -28.816  -3.862 -17.633  1.00 35.49     0.174 HD
ATOM     13  HE  ARG D 557     -29.953  -0.907 -17.666  1.00 35.49     0.178 HD
ENDBRANCH   4   5
ENDBRANCH   3   4
ENDBRANCH   2   3
ENDBRANCH   1   2
END_RES ARG D 557
BEGIN_RES GLU D 570
REMARK  3 active torsions:
REMARK  status: ('A' for Active; 'I' for Inactive)
REMARK    5  A    between atoms: CA   and  CB  
REMARK    6  A    between atoms: CB   and  CG  
REMARK    7  A    between atoms: CG   and  CD  
ROOT
ATOM     14  CA  GLU D 570     -18.033  -6.348 -13.375  1.00 32.92     0.160 C 
ENDROOT
BRANCH  14  15
ATOM     15  CB  GLU D 570     -19.500  -6.345 -13.794  1.00 32.92     0.043 C 
BRANCH  15  16
ATOM     16  CG  GLU D 570     -20.443  -5.538 -12.978  1.00 32.92     0.100 C 
BRANCH  16  17
ATOM     17  CD  GLU D 570     -21.728  -5.218 -13.706  1.00 32.92     0.185 C 
ATOM     18  OE1 GLU D 570     -22.323  -4.155 -13.445  1.00 32.92    -0.647 OA
ATOM     19  OE2 GLU D 570     -22.153  -6.048 -14.534  1.00 32.92    -0.647 OA
ENDBRANCH  16  17
ENDBRANCH  15  16
ENDBRANCH  14  15
END_RES GLU D 570
ENDMDL
MODEL 5
REMARK VINA RESULT:      -6.8      2.116      6.271
REMARK  7 active torsions:
REMARK  status: ('A' for Active; 'I' for Inactive)
REMARK    1  A    between atoms: C_5  and  C_34 
REMARK    2  A    between atoms: C_15  and  O_28 
REMARK    3  A    between atoms: C_19  and  O_26 
REMARK    4  A    between atoms: C_20  and  O_25 
REMARK    5  A    between atoms: C_21  and  C_23 
REMARK    6  A    between atoms: C_23  and  O_24 
REMARK    7  A    between atoms: C_34  and  O_36 
ROOT
HETATM    1  C   UNL     1     -17.588 -15.005  -8.947  1.00  0.00     0.010 C 
HETATM    2  C   UNL     1     -18.367 -13.872  -8.288  1.00  0.00    -0.014 C 
HETATM    3  C   UNL     1     -19.839 -14.296  -8.233  1.00  0.00     0.006 C 
HETATM    4  C   UNL     1     -20.674 -13.053  -7.979  1.00  0.00     0.021 C 
HETATM    5  C   UNL     1     -20.389 -12.582  -6.545  1.00  0.00     0.053 C 
HETATM    6  C   UNL     1     -21.200 -11.341  -6.224  1.00  0.00     0.022 C 
HETATM    7  C   UNL     1     -20.950 -11.082  -4.740  1.00  0.00     0.016 C 
HETATM    8  C   UNL     1     -19.520 -10.616  -4.386  1.00  0.00    -0.013 C 
HETATM    9  C   UNL     1     -18.440 -11.041  -5.321  1.00  0.00    -0.069 C 
HETATM   10  C   UNL     1     -17.347 -10.255  -5.006  1.00  0.00    -0.022 C 
HETATM   11  C   UNL     1     -17.294  -9.308  -3.578  1.00  0.00     0.033 C 
HETATM   12  C   UNL     1     -18.524  -9.371  -2.274  1.00  0.00     0.007 C 
HETATM   13  C   UNL     1     -18.693 -10.931  -2.824  1.00  0.00    -0.026 C 
HETATM   14  C   UNL     1     -18.982 -11.714  -1.473  1.00  0.00     0.042 C 
HETATM   15  C   UNL     1     -19.782 -10.921  -0.559  1.00  0.00     0.124 C 
HETATM   16  C   UNL     1     -20.843 -10.393  -1.547  1.00  0.00     0.036 C 
HETATM   17  C   UNL     1     -20.316  -8.967  -1.658  1.00  0.00    -0.030 C 
HETATM   18  C   UNL     1     -20.922  -8.595  -0.099  1.00  0.00     0.044 C 
HETATM   19  C   UNL     1     -22.359  -9.297   0.365  1.00  0.00     0.148 C 
HETATM   20  C   UNL     1     -22.705 -10.783  -0.036  1.00  0.00     0.157 C 
HETATM   21  C   UNL     1     -22.203 -11.063  -1.428  1.00  0.00     0.012 C 
HETATM   22  C   UNL     1     -23.210 -10.586  -2.505  1.00  0.00     0.020 C 
HETATM   23  C   UNL     1     -20.955  -7.777  -2.434  1.00  0.00     0.016 C 
HETATM   24  C   UNL     1     -17.415 -11.997  -3.025  1.00  0.00     0.016 C 
HETATM   25  C   UNL     1     -18.831 -12.136  -6.426  1.00  0.00     0.038 C 
HETATM   26  C   UNL     1     -17.860 -13.306  -6.898  1.00  0.00    -0.005 C 
HETATM   27  C   UNL     1     -17.612 -14.422  -5.875  1.00  0.00     0.011 C 
HETATM   28  C   UNL     1     -19.725  -9.083  -4.941  1.00  0.00     0.021 C 
ENDROOT
BRANCH   5  29
HETATM   29  C   UNL     1     -21.118 -13.680  -5.704  1.00  0.00     0.149 C 
HETATM   30  O   UNL     1     -20.559 -14.349  -4.841  1.00  0.00    -0.649 OA
BRANCH  29  31
HETATM   31  O   UNL     1     -22.382 -13.974  -6.005  1.00  0.00    -0.776 OA
HETATM   32  H   UNL     1     -22.337 -14.014  -6.997  1.00  0.00     0.167 HD
ENDBRANCH  29  31
ENDBRANCH   5  29
BRANCH  15  33
HETATM   33  O   UNL     1     -20.137 -11.659   0.590  1.00  0.00    -0.395 OA
HETATM   34  H   UNL     1     -19.357 -12.228   0.840  1.00  0.00     0.210 HD
ENDBRANCH  15  33
BRANCH  21  35
HETATM   35  C   UNL     1     -21.931 -12.611  -1.609  1.00  0.00     0.176 C 
BRANCH  35  36
HETATM   36  O   UNL     1     -22.301 -13.368  -0.469  1.00  0.00    -0.400 OA
HETATM   37  H   UNL     1     -21.490 -13.823  -0.181  1.00  0.00     0.209 HD
ENDBRANCH  35  36
ENDBRANCH  21  35
BRANCH  19  38
HETATM   38  O   UNL     1     -23.418  -8.417  -0.024  1.00  0.00    -0.393 OA
HETATM   39  H   UNL     1     -24.160  -8.951  -0.344  1.00  0.00     0.210 HD
ENDBRANCH  19  38
BRANCH  20  40
HETATM   40  O   UNL     1     -24.086 -11.156   0.045  1.00  0.00    -0.392 OA
HETATM   41  H   UNL     1     -24.257 -11.412   0.979  1.00  0.00     0.210 HD
ENDBRANCH  20  40
TORSDOF 7
BEGIN_RES ARG D 557
REMARK  4 active torsions:
REMARK  status: ('A' for Active; 'I' for Inactive)
REMARK    1  A    between atoms: CA   and  CB  
REMARK    2  A    between atoms: CB   and  CG  
REMARK    3  A    between atoms: CG   and  CD  
REMARK    4  A    between atoms: CD   and  NE  
REMARK       I    between atoms: NE   and  CZ  
REMARK       I    between atoms: CZ   and  NH1 
REMARK       I    between atoms: CZ   and  NH2 
ROOT
ATOM      1  CA  ARG D 557     -26.217   2.705 -17.014  1.00 35.49     0.159 C 
ENDROOT
BRANCH   1   2
ATOM      2  CB  ARG D 557     -26.789   1.319 -17.183  1.00 35.49     0.034 C 
BRANCH   2   3
ATOM      3  CG  ARG D 557     -25.877   0.194 -16.944  1.00 35.49     0.027 C 
BRANCH   3   4
ATOM      4  CD  ARG D 557     -26.338  -0.683 -15.844  1.00 35.49     0.116 C 
BRANCH   4   5
ATOM      5  NE  ARG D 557     -25.295  -0.950 -14.889  1.00 35.49    -0.212 N 
ATOM      6  CZ  ARG D 557     -25.020  -2.121 -14.359  1.00 35.49     0.666 C 
ATOM      7  NH1 ARG D 557     -25.708  -3.210 -14.649  1.00 35.49    -0.235 N 
ATOM      8  NH2 ARG D 557     -24.023  -2.183 -13.525  1.00 35.49    -0.235 N 
ATOM      9  HH  ARG D 557     -26.367  -3.192 -15.197  1.00 35.49     0.174 HD
ATOM     10  HH  ARG D 557     -25.481  -3.946 -14.275  1.00 35.49     0.174 HD
ATOM     11  HH  ARG D 557     -23.592  -1.465 -13.363  1.00 35.49     0.174 HD
ATOM     12  HH  ARG D 557     -23.813  -2.922 -13.166  1.00 35.49     0.174 HD
ATOM     13  HE  ARG D 557     -24.848  -0.291 -14.591  1.00 35.49     0.178 HD
ENDBRANCH   4   5
ENDBRANCH   3   4
ENDBRANCH   2   3
ENDBRANCH   1   2
END_RES ARG D 557
BEGIN_RES GLU D 570
REMARK  3 active torsions:
REMARK  status: ('A' for Active; 'I' for Inactive)
REMARK    5  A    between atoms: CA   and  CB  
REMARK    6  A    between atoms: CB   and  CG  
REMARK    7  A    between atoms: CG   and  CD  
ROOT
ATOM     14  CA  GLU D 570     -18.033  -6.348 -13.375  1.00 32.92     0.160 C 
ENDROOT
BRANCH  14  15
ATOM     15  CB  GLU D 570     -19.500  -6.345 -13.794  1.00 32.92     0.043 C 
BRANCH  15  16
ATOM     16  CG  GLU D 570     -20.448  -5.558 -12.963  1.00 32.92     0.100 C 
BRANCH  16  17
ATOM     17  CD  GLU D 570     -21.707  -5.177 -13.706  1.00 32.92     0.185 C 
ATOM     18  OE1 GLU D 570     -22.731  -4.892 -13.056  1.00 32.92    -0.647 OA
ATOM     19  OE2 GLU D 570     -21.674  -5.181 -14.953  1.00 32.92    -0.647 OA
ENDBRANCH  16  17
ENDBRANCH  15  16
ENDBRANCH  14  15
END_RES GLU D 570
ENDMDL
MODEL 6
REMARK VINA RESULT:      -6.7      2.212      6.340
REMARK  7 active torsions:
REMARK  status: ('A' for Active; 'I' for Inactive)
REMARK    1  A    between atoms: C_5  and  C_34 
REMARK    2  A    between atoms: C_15  and  O_28 
REMARK    3  A    between atoms: C_19  and  O_26 
REMARK    4  A    between atoms: C_20  and  O_25 
REMARK    5  A    between atoms: C_21  and  C_23 
REMARK    6  A    between atoms: C_23  and  O_24 
REMARK    7  A    between atoms: C_34  and  O_36 
ROOT
HETATM    1  C   UNL     1     -12.960 -12.781  -6.489  1.00  0.00     0.010 C 
HETATM    2  C   UNL     1     -14.087 -13.093  -5.510  1.00  0.00    -0.014 C 
HETATM    3  C   UNL     1     -13.721 -12.452  -4.167  1.00  0.00     0.006 C 
HETATM    4  C   UNL     1     -14.589 -13.087  -3.094  1.00  0.00     0.021 C 
HETATM    5  C   UNL     1     -16.034 -12.621  -3.325  1.00  0.00     0.053 C 
HETATM    6  C   UNL     1     -16.957 -13.216  -2.280  1.00  0.00     0.022 C 
HETATM    7  C   UNL     1     -18.310 -12.550  -2.524  1.00  0.00     0.016 C 
HETATM    8  C   UNL     1     -19.019 -12.964  -3.833  1.00  0.00    -0.013 C 
HETATM    9  C   UNL     1     -18.136 -13.422  -4.942  1.00  0.00    -0.069 C 
HETATM   10  C   UNL     1     -18.974 -14.039  -5.853  1.00  0.00    -0.022 C 
HETATM   11  C   UNL     1     -20.679 -13.896  -5.755  1.00  0.00     0.033 C 
HETATM   12  C   UNL     1     -21.541 -12.811  -4.617  1.00  0.00     0.007 C 
HETATM   13  C   UNL     1     -20.143 -11.923  -4.767  1.00  0.00    -0.026 C 
HETATM   14  C   UNL     1     -20.703 -10.438  -4.704  1.00  0.00     0.042 C 
HETATM   15  C   UNL     1     -21.822 -10.328  -3.787  1.00  0.00     0.124 C 
HETATM   16  C   UNL     1     -21.254 -11.136  -2.601  1.00  0.00     0.036 C 
HETATM   17  C   UNL     1     -22.087 -12.396  -2.804  1.00  0.00    -0.030 C 
HETATM   18  C   UNL     1     -23.479 -11.605  -2.192  1.00  0.00     0.044 C 
HETATM   19  C   UNL     1     -23.270 -10.507  -0.958  1.00  0.00     0.148 C 
HETATM   20  C   UNL     1     -22.016  -9.551  -0.924  1.00  0.00     0.157 C 
HETATM   21  C   UNL     1     -20.802 -10.289  -1.422  1.00  0.00     0.012 C 
HETATM   22  C   UNL     1     -20.138 -11.122  -0.296  1.00  0.00     0.020 C 
HETATM   23  C   UNL     1     -22.132 -13.661  -1.896  1.00  0.00     0.016 C 
HETATM   24  C   UNL     1     -19.470 -11.476  -6.235  1.00  0.00     0.016 C 
HETATM   25  C   UNL     1     -16.560 -13.188  -4.754  1.00  0.00     0.038 C 
HETATM   26  C   UNL     1     -15.577 -12.769  -5.936  1.00  0.00    -0.005 C 
HETATM   27  C   UNL     1     -15.732 -11.334  -6.457  1.00  0.00     0.011 C 
HETATM   28  C   UNL     1     -19.491 -14.439  -3.282  1.00  0.00     0.021 C 
ENDROOT
BRANCH   5  29
HETATM   29  C   UNL     1     -15.956 -11.123  -2.882  1.00  0.00     0.149 C 
HETATM   30  O   UNL     1     -16.200 -10.185  -3.632  1.00  0.00    -0.649 OA
BRANCH  29  31
HETATM   31  O   UNL     1     -15.505 -10.848  -1.658  1.00  0.00    -0.776 OA
HETATM   32  H   UNL     1     -16.202 -10.215  -1.337  1.00  0.00     0.167 HD
ENDBRANCH  29  31
ENDBRANCH   5  29
BRANCH  15  33
HETATM   33  O   UNL     1     -22.242  -8.990  -3.643  1.00  0.00    -0.395 OA
HETATM   34  H   UNL     1     -23.192  -9.000  -3.336  1.00  0.00     0.210 HD
ENDBRANCH  15  33
BRANCH  21  35
HETATM   35  C   UNL     1     -19.747  -9.268  -2.013  1.00  0.00     0.176 C 
BRANCH  35  36
HETATM   36  O   UNL     1     -20.143  -7.916  -1.851  1.00  0.00    -0.400 OA
HETATM   37  H   UNL     1     -19.515  -7.533  -1.213  1.00  0.00     0.209 HD
ENDBRANCH  35  36
ENDBRANCH  21  35
BRANCH  19  38
HETATM   38  O   UNL     1     -23.389 -11.217   0.280  1.00  0.00    -0.393 OA
HETATM   39  H   UNL     1     -23.990 -11.965   0.148  1.00  0.00     0.210 HD
ENDBRANCH  19  38
BRANCH  20  40
HETATM   40  O   UNL     1     -21.711  -8.949   0.340  1.00  0.00    -0.392 OA
HETATM   41  H   UNL     1     -22.560  -8.616   0.708  1.00  0.00     0.210 HD
ENDBRANCH  20  40
TORSDOF 7
BEGIN_RES ARG D 557
REMARK  4 active torsions:
REMARK  status: ('A' for Active; 'I' for Inactive)
REMARK    1  A    between atoms: CA   and  CB  
REMARK    2  A    between atoms: CB   and  CG  
REMARK    3  A    between atoms: CG   and  CD  
REMARK    4  A    between atoms: CD   and  NE  
REMARK       I    between atoms: NE   and  CZ  
REMARK       I    between atoms: CZ   and  NH1 
REMARK       I    between atoms: CZ   and  NH2 
ROOT
ATOM      1  CA  ARG D 557     -26.217   2.705 -17.014  1.00 35.49     0.159 C 
ENDROOT
BRANCH   1   2
ATOM      2  CB  ARG D 557     -26.789   1.319 -17.183  1.00 35.49     0.034 C 
BRANCH   2   3
ATOM      3  CG  ARG D 557     -25.837   0.202 -17.142  1.00 35.49     0.027 C 
BRANCH   3   4
ATOM      4  CD  ARG D 557     -24.754   0.419 -16.156  1.00 35.49     0.116 C 
BRANCH   4   5
ATOM      5  NE  ARG D 557     -24.888  -0.437 -15.007  1.00 35.49    -0.212 N 
ATOM      6  CZ  ARG D 557     -24.060  -1.398 -14.665  1.00 35.49     0.666 C 
ATOM      7  NH1 ARG D 557     -22.988  -1.697 -15.375  1.00 35.49    -0.235 N 
ATOM      8  NH2 ARG D 557     -24.326  -2.061 -13.577  1.00 35.49    -0.235 N 
ATOM      9  HH  ARG D 557     -22.792  -1.273 -16.093  1.00 35.49     0.174 HD
ATOM     10  HH  ARG D 557     -22.482  -2.333 -15.102  1.00 35.49     0.174 HD
ATOM     11  HH  ARG D 557     -25.021  -1.841 -13.134  1.00 35.49     0.174 HD
ATOM     12  HH  ARG D 557     -23.812  -2.686 -13.322  1.00 35.49     0.174 HD
ATOM     13  HE  ARG D 557     -25.590  -0.362 -14.532  1.00 35.49     0.178 HD
ENDBRANCH   4   5
ENDBRANCH   3   4
ENDBRANCH   2   3
ENDBRANCH   1   2
END_RES ARG D 557
BEGIN_RES GLU D 570
REMARK  3 active torsions:
REMARK  status: ('A' for Active; 'I' for Inactive)
REMARK    5  A    between atoms: CA   and  CB  
REMARK    6  A    between atoms: CB   and  CG  
REMARK    7  A    between atoms: CG   and  CD  
ROOT
ATOM     14  CA  GLU D 570     -18.033  -6.348 -13.375  1.00 32.92     0.160 C 
ENDROOT
BRANCH  14  15
ATOM     15  CB  GLU D 570     -19.500  -6.345 -13.794  1.00 32.92     0.043 C 
BRANCH  15  16
ATOM     16  CG  GLU D 570     -20.442  -5.531 -12.983  1.00 32.92     0.100 C 
BRANCH  16  17
ATOM     17  CD  GLU D 570     -21.728  -5.218 -13.711  1.00 32.92     0.185 C 
ATOM     18  OE1 GLU D 570     -22.279  -4.117 -13.520  1.00 32.92    -0.647 OA
ATOM     19  OE2 GLU D 570     -22.199  -6.090 -14.468  1.00 32.92    -0.647 OA
ENDBRANCH  16  17
ENDBRANCH  15  16
ENDBRANCH  14  15
END_RES GLU D 570
ENDMDL
MODEL 7
REMARK VINA RESULT:      -6.6      2.058      4.021
REMARK  7 active torsions:
REMARK  status: ('A' for Active; 'I' for Inactive)
REMARK    1  A    between atoms: C_5  and  C_34 
REMARK    2  A    between atoms: C_15  and  O_28 
REMARK    3  A    between atoms: C_19  and  O_26 
REMARK    4  A    between atoms: C_20  and  O_25 
REMARK    5  A    between atoms: C_21  and  C_23 
REMARK    6  A    between atoms: C_23  and  O_24 
REMARK    7  A    between atoms: C_34  and  O_36 
ROOT
HETATM    1  C   UNL     1     -22.286  -7.957   1.113  1.00  0.00     0.010 C 
HETATM    2  C   UNL     1     -22.292  -8.557  -0.289  1.00  0.00    -0.014 C 
HETATM    3  C   UNL     1     -21.303  -7.752  -1.139  1.00  0.00     0.006 C 
HETATM    4  C   UNL     1     -21.596  -8.045  -2.601  1.00  0.00     0.021 C 
HETATM    5  C   UNL     1     -21.195  -9.501  -2.877  1.00  0.00     0.053 C 
HETATM    6  C   UNL     1     -21.457  -9.859  -4.326  1.00  0.00     0.022 C 
HETATM    7  C   UNL     1     -20.869 -11.257  -4.500  1.00  0.00     0.016 C 
HETATM    8  C   UNL     1     -21.626 -12.385  -3.762  1.00  0.00    -0.013 C 
HETATM    9  C   UNL     1     -22.391 -11.978  -2.550  1.00  0.00    -0.069 C 
HETATM   10  C   UNL     1     -23.228 -13.041  -2.266  1.00  0.00    -0.022 C 
HETATM   11  C   UNL     1     -23.040 -14.569  -3.021  1.00  0.00     0.033 C 
HETATM   12  C   UNL     1     -21.665 -15.011  -4.085  1.00  0.00     0.007 C 
HETATM   13  C   UNL     1     -20.875 -13.892  -3.141  1.00  0.00    -0.026 C 
HETATM   14  C   UNL     1     -19.425 -14.532  -3.038  1.00  0.00     0.042 C 
HETATM   15  C   UNL     1     -19.045 -15.193  -4.272  1.00  0.00     0.124 C 
HETATM   16  C   UNL     1     -19.493 -14.116  -5.282  1.00  0.00     0.036 C 
HETATM   17  C   UNL     1     -20.747 -14.823  -5.781  1.00  0.00    -0.030 C 
HETATM   18  C   UNL     1     -19.797 -15.926  -6.685  1.00  0.00     0.044 C 
HETATM   19  C   UNL     1     -18.398 -15.357  -7.384  1.00  0.00     0.148 C 
HETATM   20  C   UNL     1     -17.488 -14.303  -6.642  1.00  0.00     0.157 C 
HETATM   21  C   UNL     1     -18.353 -13.320  -5.899  1.00  0.00     0.012 C 
HETATM   22  C   UNL     1     -18.844 -12.177  -6.824  1.00  0.00     0.020 C 
HETATM   23  C   UNL     1     -21.703 -14.366  -6.924  1.00  0.00     0.016 C 
HETATM   24  C   UNL     1     -20.871 -13.916  -1.466  1.00  0.00     0.016 C 
HETATM   25  C   UNL     1     -22.135 -10.494  -1.998  1.00  0.00     0.038 C 
HETATM   26  C   UNL     1     -22.082 -10.118  -0.451  1.00  0.00    -0.005 C 
HETATM   27  C   UNL     1     -20.850 -10.619   0.315  1.00  0.00     0.011 C 
HETATM   28  C   UNL     1     -22.878 -12.438  -4.826  1.00  0.00     0.021 C 
ENDROOT
BRANCH   5  29
HETATM   29  C   UNL     1     -19.634  -9.409  -2.837  1.00  0.00     0.149 C 
HETATM   30  O   UNL     1     -18.984  -8.666  -3.564  1.00  0.00    -0.649 OA
BRANCH  29  31
HETATM   31  O   UNL     1     -18.970 -10.250  -2.045  1.00  0.00    -0.776 OA
HETATM   32  H   UNL     1     -18.698  -9.641  -1.307  1.00  0.00     0.167 HD
ENDBRANCH  29  31
ENDBRANCH   5  29
BRANCH  15  33
HETATM   33  O   UNL     1     -17.715 -15.659  -4.220  1.00  0.00    -0.395 OA
HETATM   34  H   UNL     1     -17.367 -15.692  -5.155  1.00  0.00     0.210 HD
ENDBRANCH  15  33
BRANCH  21  35
HETATM   35  C   UNL     1     -17.556 -12.705  -4.678  1.00  0.00     0.176 C 
BRANCH  35  36
HETATM   36  O   UNL     1     -16.205 -13.132  -4.636  1.00  0.00    -0.400 OA
HETATM   37  H   UNL     1     -15.696 -12.363  -4.324  1.00  0.00     0.209 HD
ENDBRANCH  35  36
ENDBRANCH  21  35
BRANCH  19  38
HETATM   38  O   UNL     1     -18.726 -14.893  -8.698  1.00  0.00    -0.393 OA
HETATM   39  H   UNL     1     -19.364 -14.168  -8.617  1.00  0.00     0.210 HD
ENDBRANCH  19  38
BRANCH  20  40
HETATM   40  O   UNL     1     -16.558 -13.581  -7.459  1.00  0.00    -0.392 OA
HETATM   41  H   UNL     1     -16.414 -14.120  -8.269  1.00  0.00     0.210 HD
ENDBRANCH  20  40
TORSDOF 7
BEGIN_RES ARG D 557
REMARK  4 active torsions:
REMARK  status: ('A' for Active; 'I' for Inactive)
REMARK    1  A    between atoms: CA   and  CB  
REMARK    2  A    between atoms: CB   and  CG  
REMARK    3  A    between atoms: CG   and  CD  
REMARK    4  A    between atoms: CD   and  NE  
REMARK       I    between atoms: NE   and  CZ  
REMARK       I    between atoms: CZ   and  NH1 
REMARK       I    between atoms: CZ   and  NH2 
ROOT
ATOM      1  CA  ARG D 557     -26.217   2.705 -17.014  1.00 35.49     0.159 C 
ENDROOT
BRANCH   1   2
ATOM      2  CB  ARG D 557     -26.789   1.319 -17.183  1.00 35.49     0.034 C 
BRANCH   2   3
ATOM      3  CG  ARG D 557     -25.837   0.202 -17.144  1.00 35.49     0.027 C 
BRANCH   3   4
ATOM      4  CD  ARG D 557     -24.755   0.417 -16.156  1.00 35.49     0.116 C 
BRANCH   4   5
ATOM      5  NE  ARG D 557     -24.894  -0.435 -15.005  1.00 35.49    -0.212 N 
ATOM      6  CZ  ARG D 557     -24.078  -1.408 -14.666  1.00 35.49     0.666 C 
ATOM      7  NH1 ARG D 557     -23.015  -1.723 -15.382  1.00 35.49    -0.235 N 
ATOM      8  NH2 ARG D 557     -24.348  -2.065 -13.575  1.00 35.49    -0.235 N 
ATOM      9  HH  ARG D 557     -22.817  -1.302 -16.102  1.00 35.49     0.174 HD
ATOM     10  HH  ARG D 557     -22.517  -2.365 -15.110  1.00 35.49     0.174 HD
ATOM     11  HH  ARG D 557     -25.037  -1.834 -13.129  1.00 35.49     0.174 HD
ATOM     12  HH  ARG D 557     -23.842  -2.696 -13.322  1.00 35.49     0.174 HD
ATOM     13  HE  ARG D 557     -25.592  -0.349 -14.527  1.00 35.49     0.178 HD
ENDBRANCH   4   5
ENDBRANCH   3   4
ENDBRANCH   2   3
ENDBRANCH   1   2
END_RES ARG D 557
BEGIN_RES GLU D 570
REMARK  3 active torsions:
REMARK  status: ('A' for Active; 'I' for Inactive)
REMARK    5  A    between atoms: CA   and  CB  
REMARK    6  A    between atoms: CB   and  CG  
REMARK    7  A    between atoms: CG   and  CD  
ROOT
ATOM     14  CA  GLU D 570     -18.033  -6.348 -13.375  1.00 32.92     0.160 C 
ENDROOT
BRANCH  14  15
ATOM     15  CB  GLU D 570     -19.500  -6.345 -13.794  1.00 32.92     0.043 C 
BRANCH  15  16
ATOM     16  CG  GLU D 570     -20.445  -5.546 -12.972  1.00 32.92     0.100 C 
BRANCH  16  17
ATOM     17  CD  GLU D 570     -21.729  -5.220 -13.699  1.00 32.92     0.185 C 
ATOM     18  OE1 GLU D 570     -22.285  -4.126 -13.485  1.00 32.92    -0.647 OA
ATOM     19  OE2 GLU D 570     -22.192  -6.076 -14.478  1.00 32.92    -0.647 OA
ENDBRANCH  16  17
ENDBRANCH  15  16
ENDBRANCH  14  15
END_RES GLU D 570
ENDMDL
MODEL 8
REMARK VINA RESULT:      -6.5      1.334      1.966
REMARK  7 active torsions:
REMARK  status: ('A' for Active; 'I' for Inactive)
REMARK    1  A    between atoms: C_5  and  C_34 
REMARK    2  A    between atoms: C_15  and  O_28 
REMARK    3  A    between atoms: C_19  and  O_26 
REMARK    4  A    between atoms: C_20  and  O_25 
REMARK    5  A    between atoms: C_21  and  C_23 
REMARK    6  A    between atoms: C_23  and  O_24 
REMARK    7  A    between atoms: C_34  and  O_36 
ROOT
HETATM    1  C   UNL     1     -24.447 -10.932  -0.139  1.00  0.00     0.010 C 
HETATM    2  C   UNL     1     -23.140 -10.529  -0.816  1.00  0.00    -0.014 C 
HETATM    3  C   UNL     1     -22.068 -10.431   0.274  1.00  0.00     0.006 C 
HETATM    4  C   UNL     1     -20.898  -9.643  -0.289  1.00  0.00     0.021 C 
HETATM    5  C   UNL     1     -20.227 -10.507  -1.368  1.00  0.00     0.053 C 
HETATM    6  C   UNL     1     -19.042  -9.778  -1.970  1.00  0.00     0.022 C 
HETATM    7  C   UNL     1     -18.380 -10.799  -2.893  1.00  0.00     0.016 C 
HETATM    8  C   UNL     1     -19.192 -11.166  -4.156  1.00  0.00    -0.013 C 
HETATM    9  C   UNL     1     -20.670 -11.013  -4.055  1.00  0.00    -0.069 C 
HETATM   10  C   UNL     1     -21.139 -11.067  -5.355  1.00  0.00    -0.022 C 
HETATM   11  C   UNL     1     -20.144 -11.576  -6.655  1.00  0.00     0.033 C 
HETATM   12  C   UNL     1     -18.497 -12.259  -6.464  1.00  0.00     0.007 C 
HETATM   13  C   UNL     1     -19.120 -12.748  -5.001  1.00  0.00    -0.026 C 
HETATM   14  C   UNL     1     -18.411 -14.156  -4.810  1.00  0.00     0.042 C 
HETATM   15  C   UNL     1     -17.055 -14.145  -5.326  1.00  0.00     0.124 C 
HETATM   16  C   UNL     1     -16.576 -12.800  -4.742  1.00  0.00     0.036 C 
HETATM   17  C   UNL     1     -16.626 -11.994  -6.034  1.00  0.00    -0.030 C 
HETATM   18  C   UNL     1     -15.210 -12.773  -6.605  1.00  0.00     0.044 C 
HETATM   19  C   UNL     1     -14.033 -13.160  -5.494  1.00  0.00     0.148 C 
HETATM   20  C   UNL     1     -14.413 -13.667  -4.049  1.00  0.00     0.157 C 
HETATM   21  C   UNL     1     -15.631 -12.930  -3.557  1.00  0.00     0.012 C 
HETATM   22  C   UNL     1     -15.256 -11.564  -2.928  1.00  0.00     0.020 C 
HETATM   23  C   UNL     1     -16.172 -10.520  -6.252  1.00  0.00     0.016 C 
HETATM   24  C   UNL     1     -20.560 -13.587  -4.830  1.00  0.00     0.016 C 
HETATM   25  C   UNL     1     -21.270 -10.745  -2.591  1.00  0.00     0.038 C 
HETATM   26  C   UNL     1     -22.642 -11.362  -2.067  1.00  0.00    -0.005 C 
HETATM   27  C   UNL     1     -22.632 -12.872  -1.791  1.00  0.00     0.011 C 
HETATM   28  C   UNL     1     -18.863  -9.765  -4.951  1.00  0.00     0.021 C 
ENDROOT
BRANCH   5  29
HETATM   29  C   UNL     1     -19.532 -11.608  -0.500  1.00  0.00     0.149 C 
HETATM   30  O   UNL     1     -18.848 -11.356   0.486  1.00  0.00    -0.649 OA
BRANCH  29  31
HETATM   31  O   UNL     1     -19.603 -12.874  -0.908  1.00  0.00    -0.776 OA
HETATM   32  H   UNL     1     -20.537 -13.103  -0.657  1.00  0.00     0.167 HD
ENDBRANCH  29  31
ENDBRANCH   5  29
BRANCH  15  33
HETATM   33  O   UNL     1     -16.388 -15.357  -5.051  1.00  0.00    -0.395 OA
HETATM   34  H   UNL     1     -16.093 -15.333  -4.098  1.00  0.00     0.210 HD
ENDBRANCH  15  33
BRANCH  21  35
HETATM   35  C   UNL     1     -16.406 -13.806  -2.491  1.00  0.00     0.176 C 
BRANCH  35  36
HETATM   36  O   UNL     1     -15.729 -15.012  -2.178  1.00  0.00    -0.400 OA
HETATM   37  H   UNL     1     -14.803 -14.870  -2.443  1.00  0.00     0.209 HD
ENDBRANCH  35  36
ENDBRANCH  21  35
BRANCH  19  38
HETATM   38  O   UNL     1     -13.133 -12.050  -5.410  1.00  0.00    -0.393 OA
HETATM   39  H   UNL     1     -13.605 -11.251  -5.686  1.00  0.00     0.210 HD
ENDBRANCH  19  38
BRANCH  20  40
HETATM   40  O   UNL     1     -13.384 -13.584  -3.056  1.00  0.00    -0.392 OA
HETATM   41  H   UNL     1     -13.793 -13.847  -2.201  1.00  0.00     0.210 HD
ENDBRANCH  20  40
TORSDOF 7
BEGIN_RES ARG D 557
REMARK  4 active torsions:
REMARK  status: ('A' for Active; 'I' for Inactive)
REMARK    1  A    between atoms: CA   and  CB  
REMARK    2  A    between atoms: CB   and  CG  
REMARK    3  A    between atoms: CG   and  CD  
REMARK    4  A    between atoms: CD   and  NE  
REMARK       I    between atoms: NE   and  CZ  
REMARK       I    between atoms: CZ   and  NH1 
REMARK       I    between atoms: CZ   and  NH2 
ROOT
ATOM      1  CA  ARG D 557     -26.217   2.705 -17.014  1.00 35.49     0.159 C 
ENDROOT
BRANCH   1   2
ATOM      2  CB  ARG D 557     -26.789   1.319 -17.183  1.00 35.49     0.034 C 
BRANCH   2   3
ATOM      3  CG  ARG D 557     -25.862   0.195 -17.002  1.00 35.49     0.027 C 
BRANCH   3   4
ATOM      4  CD  ARG D 557     -26.262  -0.691 -15.885  1.00 35.49     0.116 C 
BRANCH   4   5
ATOM      5  NE  ARG D 557     -25.193  -0.891 -14.942  1.00 35.49    -0.212 N 
ATOM      6  CZ  ARG D 557     -24.882  -2.029 -14.363  1.00 35.49     0.666 C 
ATOM      7  NH1 ARG D 557     -25.553  -3.144 -14.585  1.00 35.49    -0.235 N 
ATOM      8  NH2 ARG D 557     -23.867  -2.030 -13.549  1.00 35.49    -0.235 N 
ATOM      9  HH  ARG D 557     -26.223  -3.166 -15.118  1.00 35.49     0.174 HD
ATOM     10  HH  ARG D 557     -25.303  -3.857 -14.180  1.00 35.49     0.174 HD
ATOM     11  HH  ARG D 557     -23.447  -1.297 -13.430  1.00 35.49     0.174 HD
ATOM     12  HH  ARG D 557     -23.633  -2.746 -13.159  1.00 35.49     0.174 HD
ATOM     13  HE  ARG D 557     -24.754  -0.209 -14.686  1.00 35.49     0.178 HD
ENDBRANCH   4   5
ENDBRANCH   3   4
ENDBRANCH   2   3
ENDBRANCH   1   2
END_RES ARG D 557
BEGIN_RES GLU D 570
REMARK  3 active torsions:
REMARK  status: ('A' for Active; 'I' for Inactive)
REMARK    5  A    between atoms: CA   and  CB  
REMARK    6  A    between atoms: CB   and  CG  
REMARK    7  A    between atoms: CG   and  CD  
ROOT
ATOM     14  CA  GLU D 570     -18.033  -6.348 -13.375  1.00 32.92     0.160 C 
ENDROOT
BRANCH  14  15
ATOM     15  CB  GLU D 570     -19.500  -6.345 -13.794  1.00 32.92     0.043 C 
BRANCH  15  16
ATOM     16  CG  GLU D 570     -20.446  -5.549 -12.970  1.00 32.92     0.100 C 
BRANCH  16  17
ATOM     17  CD  GLU D 570     -21.674  -5.115 -13.735  1.00 32.92     0.185 C 
ATOM     18  OE1 GLU D 570     -22.723  -4.873 -13.109  1.00 32.92    -0.647 OA
ATOM     19  OE2 GLU D 570     -21.590  -5.033 -14.976  1.00 32.92    -0.647 OA
ENDBRANCH  16  17
ENDBRANCH  15  16
ENDBRANCH  14  15
END_RES GLU D 570
ENDMDL
MODEL 9
REMARK VINA RESULT:      -6.3      2.074      4.054
REMARK  7 active torsions:
REMARK  status: ('A' for Active; 'I' for Inactive)
REMARK    1  A    between atoms: C_5  and  C_34 
REMARK    2  A    between atoms: C_15  and  O_28 
REMARK    3  A    between atoms: C_19  and  O_26 
REMARK    4  A    between atoms: C_20  and  O_25 
REMARK    5  A    between atoms: C_21  and  C_23 
REMARK    6  A    between atoms: C_23  and  O_24 
REMARK    7  A    between atoms: C_34  and  O_36 
ROOT
HETATM    1  C   UNL     1     -22.227  -5.796  -5.810  1.00  0.00     0.010 C 
HETATM    2  C   UNL     1     -21.268  -6.508  -4.861  1.00  0.00    -0.014 C 
HETATM    3  C   UNL     1     -22.001  -6.709  -3.531  1.00  0.00     0.006 C 
HETATM    4  C   UNL     1     -20.962  -7.020  -2.467  1.00  0.00     0.021 C 
HETATM    5  C   UNL     1     -20.387  -8.413  -2.767  1.00  0.00     0.053 C 
HETATM    6  C   UNL     1     -19.343  -8.790  -1.734  1.00  0.00     0.022 C 
HETATM    7  C   UNL     1     -18.981 -10.239  -2.052  1.00  0.00     0.016 C 
HETATM    8  C   UNL     1     -18.201 -10.447  -3.369  1.00  0.00    -0.013 C 
HETATM    9  C   UNL     1     -18.413  -9.421  -4.428  1.00  0.00    -0.069 C 
HETATM   10  C   UNL     1     -17.397  -9.618  -5.345  1.00  0.00    -0.022 C 
HETATM   11  C   UNL     1     -16.409 -11.018  -5.314  1.00  0.00     0.033 C 
HETATM   12  C   UNL     1     -16.690 -12.434  -4.250  1.00  0.00     0.007 C 
HETATM   13  C   UNL     1     -18.269 -11.928  -4.382  1.00  0.00    -0.026 C 
HETATM   14  C   UNL     1     -19.046 -13.314  -4.395  1.00  0.00     0.042 C 
HETATM   15  C   UNL     1     -18.414 -14.286  -3.523  1.00  0.00     0.124 C 
HETATM   16  C   UNL     1     -18.168 -13.395  -2.289  1.00  0.00     0.036 C 
HETATM   17  C   UNL     1     -16.666 -13.211  -2.475  1.00  0.00    -0.030 C 
HETATM   18  C   UNL     1     -16.378 -14.815  -1.943  1.00  0.00     0.044 C 
HETATM   19  C   UNL     1     -17.360 -15.425  -0.745  1.00  0.00     0.148 C 
HETATM   20  C   UNL     1     -18.899 -15.083  -0.701  1.00  0.00     0.157 C 
HETATM   21  C   UNL     1     -19.114 -13.654  -1.126  1.00  0.00     0.012 C 
HETATM   22  C   UNL     1     -18.909 -12.670   0.053  1.00  0.00     0.020 C 
HETATM   23  C   UNL     1     -15.674 -12.480  -1.522  1.00  0.00     0.016 C 
HETATM   24  C   UNL     1     -19.036 -11.624  -5.840  1.00  0.00     0.016 C 
HETATM   25  C   UNL     1     -19.608  -8.376  -4.193  1.00  0.00     0.038 C 
HETATM   26  C   UNL     1     -20.554  -7.833  -5.353  1.00  0.00    -0.005 C 
HETATM   27  C   UNL     1     -21.550  -8.846  -5.932  1.00  0.00     0.011 C 
HETATM   28  C   UNL     1     -16.771  -9.889  -2.781  1.00  0.00     0.021 C 
ENDROOT
BRANCH   5  29
HETATM   29  C   UNL     1     -21.586  -9.338  -2.377  1.00  0.00     0.149 C 
HETATM   30  O   UNL     1     -22.179  -9.258  -1.307  1.00  0.00    -0.649 OA
BRANCH  29  31
HETATM   31  O   UNL     1     -21.919 -10.327  -3.206  1.00  0.00    -0.776 OA
HETATM   32  H   UNL     1     -22.059 -11.073  -2.564  1.00  0.00     0.167 HD
ENDBRANCH  29  31
ENDBRANCH   5  29
BRANCH  15  33
HETATM   33  O   UNL     1     -19.168 -15.475  -3.445  1.00  0.00    -0.395 OA
HETATM   34  H   UNL     1     -18.591 -16.176  -3.031  1.00  0.00     0.210 HD
ENDBRANCH  15  33
BRANCH  21  35
HETATM   35  C   UNL     1     -20.570 -13.474  -1.717  1.00  0.00     0.176 C 
BRANCH  35  36
HETATM   36  O   UNL     1     -21.351 -14.653  -1.617  1.00  0.00    -0.400 OA
HETATM   37  H   UNL     1     -21.788 -14.606  -0.749  1.00  0.00     0.209 HD
ENDBRANCH  35  36
ENDBRANCH  21  35
BRANCH  19  38
HETATM   38  O   UNL     1     -16.747 -15.124   0.514  1.00  0.00    -0.393 OA
HETATM   39  H   UNL     1     -17.160 -14.324   0.873  1.00  0.00     0.210 HD
ENDBRANCH  19  38
BRANCH  20  40
HETATM   40  O   UNL     1     -19.562 -15.301   0.551  1.00  0.00    -0.392 OA
HETATM   41  H   UNL     1     -18.909 -15.731   1.147  1.00  0.00     0.210 HD
ENDBRANCH  20  40
TORSDOF 7
BEGIN_RES ARG D 557
REMARK  4 active torsions:
REMARK  status: ('A' for Active; 'I' for Inactive)
REMARK    1  A    between atoms: CA   and  CB  
REMARK    2  A    between atoms: CB   and  CG  
REMARK    3  A    between atoms: CG   and  CD  
REMARK    4  A    between atoms: CD   and  NE  
REMARK       I    between atoms: NE   and  CZ  
REMARK       I    between atoms: CZ   and  NH1 
REMARK       I    between atoms: CZ   and  NH2 
ROOT
ATOM      1  CA  ARG D 557     -26.217   2.705 -17.014  1.00 35.49     0.159 C 
ENDROOT
BRANCH   1   2
ATOM      2  CB  ARG D 557     -26.789   1.319 -17.183  1.00 35.49     0.034 C 
BRANCH   2   3
ATOM      3  CG  ARG D 557     -25.836   0.203 -17.156  1.00 35.49     0.027 C 
BRANCH   3   4
ATOM      4  CD  ARG D 557     -24.758   0.406 -16.161  1.00 35.49     0.116 C 
BRANCH   4   5
ATOM      5  NE  ARG D 557     -24.911  -0.450 -15.014  1.00 35.49    -0.212 N 
ATOM      6  CZ  ARG D 557     -24.095  -1.420 -14.665  1.00 35.49     0.666 C 
ATOM      7  NH1 ARG D 557     -23.020  -1.729 -15.366  1.00 35.49    -0.235 N 
ATOM      8  NH2 ARG D 557     -24.378  -2.081 -13.580  1.00 35.49    -0.235 N 
ATOM      9  HH  ARG D 557     -22.814  -1.306 -16.082  1.00 35.49     0.174 HD
ATOM     10  HH  ARG D 557     -22.524  -2.370 -15.088  1.00 35.49     0.174 HD
ATOM     11  HH  ARG D 557     -25.075  -1.854 -13.143  1.00 35.49     0.174 HD
ATOM     12  HH  ARG D 557     -23.874  -2.711 -13.321  1.00 35.49     0.174 HD
ATOM     13  HE  ARG D 557     -25.616  -0.368 -14.545  1.00 35.49     0.178 HD
ENDBRANCH   4   5
ENDBRANCH   3   4
ENDBRANCH   2   3
ENDBRANCH   1   2
END_RES ARG D 557
BEGIN_RES GLU D 570
REMARK  3 active torsions:
REMARK  status: ('A' for Active; 'I' for Inactive)
REMARK    5  A    between atoms: CA   and  CB  
REMARK    6  A    between atoms: CB   and  CG  
REMARK    7  A    between atoms: CG   and  CD  
ROOT
ATOM     14  CA  GLU D 570     -18.033  -6.348 -13.375  1.00 32.92     0.160 C 
ENDROOT
BRANCH  14  15
ATOM     15  CB  GLU D 570     -19.500  -6.345 -13.794  1.00 32.92     0.043 C 
BRANCH  15  16
ATOM     16  CG  GLU D 570     -20.441  -5.527 -12.986  1.00 32.92     0.100 C 
BRANCH  16  17
ATOM     17  CD  GLU D 570     -21.741  -5.245 -13.702  1.00 32.92     0.185 C 
ATOM     18  OE1 GLU D 570     -22.212  -6.110 -14.465  1.00 32.92    -0.647 OA
ATOM     19  OE2 GLU D 570     -22.285  -4.139 -13.511  1.00 32.92    -0.647 OA
ENDBRANCH  16  17
ENDBRANCH  15  16
ENDBRANCH  14  15
END_RES GLU D 570
ENDMDL
