MODEL 1
REMARK VINA RESULT:      -6.1      0.000      0.000
REMARK  11 active torsions:
REMARK  status: ('A' for Active; 'I' for Inactive)
REMARK    1  A    between atoms: C_1  and  C_2 
REMARK    2  A    between atoms: C_1  and  O_12 
REMARK    3  A    between atoms: C_2  and  C_3 
REMARK    4  A    between atoms: C_2  and  O_11 
REMARK    5  A    between atoms: C_3  and  C_4 
REMARK    6  A    between atoms: C_3  and  O_10 
REMARK    7  A    between atoms: C_4  and  C_5 
REMARK    8  A    between atoms: C_4  and  O_9 
REMARK    9  A    between atoms: C_5  and  C_6 
REMARK   10  A    between atoms: C_5  and  O_8 
REMARK   11  A    between atoms: C_6  and  O_7 
ROOT
HETATM    1  C   UNL     1     -22.921  -2.697 -12.981  1.00  0.00     0.180 C 
ENDROOT
BRANCH   1   2
HETATM    2  C   UNL     1     -23.329  -2.651 -14.485  1.00  0.00     0.173 C 
BRANCH   2   3
HETATM    3  C   UNL     1     -23.838  -1.258 -14.907  1.00  0.00     0.198 C 
BRANCH   3   4
HETATM    4  O   UNL     1     -25.205  -1.047 -14.582  1.00  0.00    -0.398 OA
HETATM    5  H   UNL     1     -25.365  -1.498 -13.725  1.00  0.00     0.209 HD
ENDBRANCH   3   4
ENDBRANCH   2   3
BRANCH   2   6
HETATM    6  O   UNL     1     -24.328  -3.612 -14.816  1.00  0.00    -0.391 OA
HETATM    7  H   UNL     1     -25.006  -3.616 -14.120  1.00  0.00     0.210 HD
ENDBRANCH   2   6
ENDBRANCH   1   2
BRANCH   1   8
HETATM    8  C   UNL     1     -23.973  -3.377 -12.056  1.00  0.00     0.180 C 
BRANCH   8   9
HETATM    9  C   UNL     1     -23.697  -3.192 -10.540  1.00  0.00     0.173 C 
BRANCH   9  10
HETATM   10  C   UNL     1     -24.712  -3.965  -9.680  1.00  0.00     0.198 C 
BRANCH  10  11
HETATM   11  O   UNL     1     -25.964  -3.274  -9.673  1.00  0.00    -0.398 OA
HETATM   12  H   UNL     1     -26.260  -3.243 -10.603  1.00  0.00     0.209 HD
ENDBRANCH  10  11
ENDBRANCH   9  10
BRANCH   9  13
HETATM   13  O   UNL     1     -22.391  -3.626 -10.142  1.00  0.00    -0.391 OA
HETATM   14  H   UNL     1     -21.731  -3.125 -10.648  1.00  0.00     0.210 HD
ENDBRANCH   9  13
ENDBRANCH   8   9
BRANCH   8  15
HETATM   15  O   UNL     1     -25.291  -2.902 -12.334  1.00  0.00    -0.390 OA
HETATM   16  H   UNL     1     -25.252  -2.284 -13.085  1.00  0.00     0.210 HD
ENDBRANCH   8  15
ENDBRANCH   1   8
BRANCH   1  17
HETATM   17  O   UNL     1     -21.646  -3.344 -12.876  1.00  0.00    -0.390 OA
HETATM   18  H   UNL     1     -21.786  -4.302 -12.980  1.00  0.00     0.210 HD
ENDBRANCH   1  17
TORSDOF 11
BEGIN_RES ARG D 557
REMARK  4 active torsions:
REMARK  status: ('A' for Active; 'I' for Inactive)
REMARK    1  A    between atoms: CA   and  CB  
REMARK    2  A    between atoms: CB   and  CG  
REMARK    3  A    between atoms: CG   and  CD  
REMARK    4  A    between atoms: CD   and  NE  
REMARK       I    between atoms: NE   and  CZ  
REMARK       I    between atoms: CZ   and  NH1 
REMARK       I    between atoms: CZ   and  NH2 
ROOT
ATOM      1  CA  ARG D 557     -26.217   2.705 -17.014  1.00 35.49     0.159 C 
ENDROOT
BRANCH   1   2
ATOM      2  CB  ARG D 557     -26.789   1.319 -17.183  1.00 35.49     0.034 C 
BRANCH   2   3
ATOM      3  CG  ARG D 557     -28.237   1.224 -17.403  1.00 35.49     0.027 C 
BRANCH   3   4
ATOM      4  CD  ARG D 557     -28.876   0.212 -16.530  1.00 35.49     0.116 C 
BRANCH   4   5
ATOM      5  NE  ARG D 557     -27.953  -0.816 -16.127  1.00 35.49    -0.212 N 
ATOM      6  CZ  ARG D 557     -27.986  -2.072 -16.512  1.00 35.49     0.666 C 
ATOM      7  NH1 ARG D 557     -28.913  -2.539 -17.327  1.00 35.49    -0.235 N 
ATOM      8  NH2 ARG D 557     -27.055  -2.862 -16.062  1.00 35.49    -0.235 N 
ATOM      9  HH  ARG D 557     -29.534  -2.037 -17.637  1.00 35.49     0.174 HD
ATOM     10  HH  ARG D 557     -28.883  -3.367 -17.546  1.00 35.49     0.174 HD
ATOM     11  HH  ARG D 557     -26.465  -2.531 -15.543  1.00 35.49     0.174 HD
ATOM     12  HH  ARG D 557     -27.041  -3.678 -16.291  1.00 35.49     0.174 HD
ATOM     13  HE  ARG D 557     -27.365  -0.619 -15.545  1.00 35.49     0.178 HD
ENDBRANCH   4   5
ENDBRANCH   3   4
ENDBRANCH   2   3
ENDBRANCH   1   2
END_RES ARG D 557
BEGIN_RES GLU D 570
REMARK  3 active torsions:
REMARK  status: ('A' for Active; 'I' for Inactive)
REMARK    5  A    between atoms: CA   and  CB  
REMARK    6  A    between atoms: CB   and  CG  
REMARK    7  A    between atoms: CG   and  CD  
ROOT
ATOM     14  CA  GLU D 570     -18.033  -6.348 -13.375  1.00 32.92     0.160 C 
ENDROOT
BRANCH  14  15
ATOM     15  CB  GLU D 570     -19.500  -6.345 -13.794  1.00 32.92     0.043 C 
BRANCH  15  16
ATOM     16  CG  GLU D 570     -19.802  -6.103 -15.229  1.00 32.92     0.100 C 
BRANCH  16  17
ATOM     17  CD  GLU D 570     -21.212  -5.614 -15.460  1.00 32.92     0.185 C 
ATOM     18  OE1 GLU D 570     -21.476  -5.003 -16.513  1.00 32.92    -0.647 OA
ATOM     19  OE2 GLU D 570     -22.059  -5.829 -14.570  1.00 32.92    -0.647 OA
ENDBRANCH  16  17
ENDBRANCH  15  16
ENDBRANCH  14  15
END_RES GLU D 570
ENDMDL
MODEL 2
REMARK VINA RESULT:      -5.9      1.089      1.713
REMARK  11 active torsions:
REMARK  status: ('A' for Active; 'I' for Inactive)
REMARK    1  A    between atoms: C_1  and  C_2 
REMARK    2  A    between atoms: C_1  and  O_12 
REMARK    3  A    between atoms: C_2  and  C_3 
REMARK    4  A    between atoms: C_2  and  O_11 
REMARK    5  A    between atoms: C_3  and  C_4 
REMARK    6  A    between atoms: C_3  and  O_10 
REMARK    7  A    between atoms: C_4  and  C_5 
REMARK    8  A    between atoms: C_4  and  O_9 
REMARK    9  A    between atoms: C_5  and  C_6 
REMARK   10  A    between atoms: C_5  and  O_8 
REMARK   11  A    between atoms: C_6  and  O_7 
ROOT
HETATM    1  C   UNL     1     -23.844  -3.275 -12.713  1.00  0.00     0.180 C 
ENDROOT
BRANCH   1   2
HETATM    2  C   UNL     1     -23.661  -2.282 -13.900  1.00  0.00     0.173 C 
BRANCH   2   3
HETATM    3  C   UNL     1     -25.010  -1.828 -14.493  1.00  0.00     0.198 C 
BRANCH   3   4
HETATM    4  O   UNL     1     -25.055  -0.433 -14.762  1.00  0.00    -0.398 OA
HETATM    5  H   UNL     1     -25.341   0.005 -13.932  1.00  0.00     0.209 HD
ENDBRANCH   3   4
ENDBRANCH   2   3
BRANCH   2   6
HETATM    6  O   UNL     1     -22.867  -2.820 -14.954  1.00  0.00    -0.391 OA
HETATM    7  H   UNL     1     -22.234  -2.145 -15.249  1.00  0.00     0.210 HD
ENDBRANCH   2   6
ENDBRANCH   1   2
BRANCH   1   8
HETATM    8  C   UNL     1     -22.648  -3.306 -11.717  1.00  0.00     0.180 C 
BRANCH   8   9
HETATM    9  C   UNL     1     -22.809  -4.333 -10.565  1.00  0.00     0.173 C 
BRANCH   9  10
HETATM   10  C   UNL     1     -23.048  -3.637  -9.214  1.00  0.00     0.198 C 
BRANCH  10  11
HETATM   11  O   UNL     1     -24.446  -3.392  -9.038  1.00  0.00    -0.398 OA
HETATM   12  H   UNL     1     -24.908  -4.110  -9.511  1.00  0.00     0.209 HD
ENDBRANCH  10  11
ENDBRANCH   9  10
BRANCH   9  13
HETATM   13  O   UNL     1     -23.895  -5.247 -10.766  1.00  0.00    -0.391 OA
HETATM   14  H   UNL     1     -24.507  -5.169 -10.016  1.00  0.00     0.210 HD
ENDBRANCH   9  13
ENDBRANCH   8   9
BRANCH   8  15
HETATM   15  O   UNL     1     -21.419  -3.578 -12.393  1.00  0.00    -0.390 OA
HETATM   16  H   UNL     1     -20.907  -2.753 -12.461  1.00  0.00     0.210 HD
ENDBRANCH   8  15
ENDBRANCH   1   8
BRANCH   1  17
HETATM   17  O   UNL     1     -25.069  -2.956 -12.039  1.00  0.00    -0.390 OA
HETATM   18  H   UNL     1     -25.230  -3.643 -11.368  1.00  0.00     0.210 HD
ENDBRANCH   1  17
TORSDOF 11
BEGIN_RES ARG D 557
REMARK  4 active torsions:
REMARK  status: ('A' for Active; 'I' for Inactive)
REMARK    1  A    between atoms: CA   and  CB  
REMARK    2  A    between atoms: CB   and  CG  
REMARK    3  A    between atoms: CG   and  CD  
REMARK    4  A    between atoms: CD   and  NE  
REMARK       I    between atoms: NE   and  CZ  
REMARK       I    between atoms: CZ   and  NH1 
REMARK       I    between atoms: CZ   and  NH2 
ROOT
ATOM      1  CA  ARG D 557     -26.217   2.705 -17.014  1.00 35.49     0.159 C 
ENDROOT
BRANCH   1   2
ATOM      2  CB  ARG D 557     -26.789   1.319 -17.183  1.00 35.49     0.034 C 
BRANCH   2   3
ATOM      3  CG  ARG D 557     -28.152   1.101 -16.683  1.00 35.49     0.027 C 
BRANCH   3   4
ATOM      4  CD  ARG D 557     -28.781  -0.106 -17.266  1.00 35.49     0.116 C 
BRANCH   4   5
ATOM      5  NE  ARG D 557     -28.149  -1.318 -16.815  1.00 35.49    -0.212 N 
ATOM      6  CZ  ARG D 557     -28.604  -2.537 -17.002  1.00 35.49     0.666 C 
ATOM      7  NH1 ARG D 557     -29.737  -2.781 -17.635  1.00 35.49    -0.235 N 
ATOM      8  NH2 ARG D 557     -27.889  -3.522 -16.542  1.00 35.49    -0.235 N 
ATOM      9  HH  ARG D 557     -30.222  -2.149 -17.948  1.00 35.49     0.174 HD
ATOM     10  HH  ARG D 557     -29.982  -3.597 -17.730  1.00 35.49     0.174 HD
ATOM     11  HH  ARG D 557     -27.158  -3.334 -16.144  1.00 35.49     0.174 HD
ATOM     12  HH  ARG D 557     -28.148  -4.322 -16.647  1.00 35.49     0.174 HD
ATOM     13  HE  ARG D 557     -27.451  -1.250 -16.335  1.00 35.49     0.178 HD
ENDBRANCH   4   5
ENDBRANCH   3   4
ENDBRANCH   2   3
ENDBRANCH   1   2
END_RES ARG D 557
BEGIN_RES GLU D 570
REMARK  3 active torsions:
REMARK  status: ('A' for Active; 'I' for Inactive)
REMARK    5  A    between atoms: CA   and  CB  
REMARK    6  A    between atoms: CB   and  CG  
REMARK    7  A    between atoms: CG   and  CD  
ROOT
ATOM     14  CA  GLU D 570     -18.033  -6.348 -13.375  1.00 32.92     0.160 C 
ENDROOT
BRANCH  14  15
ATOM     15  CB  GLU D 570     -19.500  -6.345 -13.794  1.00 32.92     0.043 C 
BRANCH  15  16
ATOM     16  CG  GLU D 570     -19.804  -6.054 -15.219  1.00 32.92     0.100 C 
BRANCH  16  17
ATOM     17  CD  GLU D 570     -21.211  -5.544 -15.429  1.00 32.92     0.185 C 
ATOM     18  OE1 GLU D 570     -22.038  -5.650 -14.502  1.00 32.92    -0.647 OA
ATOM     19  OE2 GLU D 570     -21.495  -5.049 -16.537  1.00 32.92    -0.647 OA
ENDBRANCH  16  17
ENDBRANCH  15  16
ENDBRANCH  14  15
END_RES GLU D 570
ENDMDL
MODEL 3
REMARK VINA RESULT:      -5.8      1.074      3.626
REMARK  11 active torsions:
REMARK  status: ('A' for Active; 'I' for Inactive)
REMARK    1  A    between atoms: C_1  and  C_2 
REMARK    2  A    between atoms: C_1  and  O_12 
REMARK    3  A    between atoms: C_2  and  C_3 
REMARK    4  A    between atoms: C_2  and  O_11 
REMARK    5  A    between atoms: C_3  and  C_4 
REMARK    6  A    between atoms: C_3  and  O_10 
REMARK    7  A    between atoms: C_4  and  C_5 
REMARK    8  A    between atoms: C_4  and  O_9 
REMARK    9  A    between atoms: C_5  and  C_6 
REMARK   10  A    between atoms: C_5  and  O_8 
REMARK   11  A    between atoms: C_6  and  O_7 
ROOT
HETATM    1  C   UNL     1     -23.529  -3.306 -11.368  1.00  0.00     0.180 C 
ENDROOT
BRANCH   1   2
HETATM    2  C   UNL     1     -22.879  -4.257 -10.319  1.00  0.00     0.173 C 
BRANCH   2   3
HETATM    3  C   UNL     1     -22.949  -3.682  -8.890  1.00  0.00     0.198 C 
BRANCH   3   4
HETATM    4  O   UNL     1     -24.226  -3.848  -8.289  1.00  0.00    -0.398 OA
HETATM    5  H   UNL     1     -24.714  -3.009  -8.426  1.00  0.00     0.209 HD
ENDBRANCH   3   4
ENDBRANCH   2   3
BRANCH   2   6
HETATM    6  O   UNL     1     -21.517  -4.558 -10.614  1.00  0.00    -0.391 OA
HETATM    7  H   UNL     1     -21.077  -4.857  -9.802  1.00  0.00     0.210 HD
ENDBRANCH   2   6
ENDBRANCH   1   2
BRANCH   1   8
HETATM    8  C   UNL     1     -23.248  -3.702 -12.848  1.00  0.00     0.180 C 
BRANCH   8   9
HETATM    9  C   UNL     1     -24.301  -3.170 -13.856  1.00  0.00     0.173 C 
BRANCH   9  10
HETATM   10  C   UNL     1     -23.867  -1.830 -14.476  1.00  0.00     0.198 C 
BRANCH  10  11
HETATM   11  O   UNL     1     -22.916  -2.065 -15.517  1.00  0.00    -0.398 OA
HETATM   12  H   UNL     1     -23.389  -1.907 -16.356  1.00  0.00     0.209 HD
ENDBRANCH  10  11
ENDBRANCH   9  10
BRANCH   9  13
HETATM   13  O   UNL     1     -24.556  -4.072 -14.940  1.00  0.00    -0.391 OA
HETATM   14  H   UNL     1     -23.739  -4.178 -15.453  1.00  0.00     0.210 HD
ENDBRANCH   9  13
ENDBRANCH   8   9
BRANCH   8  15
HETATM   15  O   UNL     1     -21.958  -3.255 -13.267  1.00  0.00    -0.390 OA
HETATM   16  H   UNL     1     -21.652  -3.819 -13.999  1.00  0.00     0.210 HD
ENDBRANCH   8  15
ENDBRANCH   1   8
BRANCH   1  17
HETATM   17  O   UNL     1     -24.938  -3.239 -11.110  1.00  0.00    -0.390 OA
HETATM   18  H   UNL     1     -25.122  -2.393 -10.664  1.00  0.00     0.210 HD
ENDBRANCH   1  17
TORSDOF 11
BEGIN_RES ARG D 557
REMARK  4 active torsions:
REMARK  status: ('A' for Active; 'I' for Inactive)
REMARK    1  A    between atoms: CA   and  CB  
REMARK    2  A    between atoms: CB   and  CG  
REMARK    3  A    between atoms: CG   and  CD  
REMARK    4  A    between atoms: CD   and  NE  
REMARK       I    between atoms: NE   and  CZ  
REMARK       I    between atoms: CZ   and  NH1 
REMARK       I    between atoms: CZ   and  NH2 
ROOT
ATOM      1  CA  ARG D 557     -26.217   2.705 -17.014  1.00 35.49     0.159 C 
ENDROOT
BRANCH   1   2
ATOM      2  CB  ARG D 557     -26.789   1.319 -17.183  1.00 35.49     0.034 C 
BRANCH   2   3
ATOM      3  CG  ARG D 557     -28.230   1.227 -17.445  1.00 35.49     0.027 C 
BRANCH   3   4
ATOM      4  CD  ARG D 557     -28.900   0.233 -16.574  1.00 35.49     0.116 C 
BRANCH   4   5
ATOM      5  NE  ARG D 557     -28.009  -0.824 -16.173  1.00 35.49    -0.212 N 
ATOM      6  CZ  ARG D 557     -28.079  -2.076 -16.565  1.00 35.49     0.666 C 
ATOM      7  NH1 ARG D 557     -29.016  -2.512 -17.386  1.00 35.49    -0.235 N 
ATOM      8  NH2 ARG D 557     -27.173  -2.896 -16.117  1.00 35.49    -0.235 N 
ATOM      9  HH  ARG D 557     -29.621  -1.989 -17.695  1.00 35.49     0.174 HD
ATOM     10  HH  ARG D 557     -29.010  -3.339 -17.609  1.00 35.49     0.174 HD
ATOM     11  HH  ARG D 557     -26.575  -2.586 -15.594  1.00 35.49     0.174 HD
ATOM     12  HH  ARG D 557     -27.183  -3.711 -16.351  1.00 35.49     0.174 HD
ATOM     13  HE  ARG D 557     -27.418  -0.648 -15.588  1.00 35.49     0.178 HD
ENDBRANCH   4   5
ENDBRANCH   3   4
ENDBRANCH   2   3
ENDBRANCH   1   2
END_RES ARG D 557
BEGIN_RES GLU D 570
REMARK  3 active torsions:
REMARK  status: ('A' for Active; 'I' for Inactive)
REMARK    5  A    between atoms: CA   and  CB  
REMARK    6  A    between atoms: CB   and  CG  
REMARK    7  A    between atoms: CG   and  CD  
ROOT
ATOM     14  CA  GLU D 570     -18.033  -6.348 -13.375  1.00 32.92     0.160 C 
ENDROOT
BRANCH  14  15
ATOM     15  CB  GLU D 570     -19.500  -6.345 -13.794  1.00 32.92     0.043 C 
BRANCH  15  16
ATOM     16  CG  GLU D 570     -19.810  -5.979 -15.200  1.00 32.92     0.100 C 
BRANCH  16  17
ATOM     17  CD  GLU D 570     -21.284  -5.755 -15.440  1.00 32.92     0.185 C 
ATOM     18  OE1 GLU D 570     -22.083  -6.684 -15.208  1.00 32.92    -0.647 OA
ATOM     19  OE2 GLU D 570     -21.644  -4.646 -15.881  1.00 32.92    -0.647 OA
ENDBRANCH  16  17
ENDBRANCH  15  16
ENDBRANCH  14  15
END_RES GLU D 570
ENDMDL
MODEL 4
REMARK VINA RESULT:      -5.6      3.775      5.591
REMARK  11 active torsions:
REMARK  status: ('A' for Active; 'I' for Inactive)
REMARK    1  A    between atoms: C_1  and  C_2 
REMARK    2  A    between atoms: C_1  and  O_12 
REMARK    3  A    between atoms: C_2  and  C_3 
REMARK    4  A    between atoms: C_2  and  O_11 
REMARK    5  A    between atoms: C_3  and  C_4 
REMARK    6  A    between atoms: C_3  and  O_10 
REMARK    7  A    between atoms: C_4  and  C_5 
REMARK    8  A    between atoms: C_4  and  O_9 
REMARK    9  A    between atoms: C_5  and  C_6 
REMARK   10  A    between atoms: C_5  and  O_8 
REMARK   11  A    between atoms: C_6  and  O_7 
ROOT
HETATM    1  C   UNL     1     -28.705  -5.389 -15.961  1.00  0.00     0.180 C 
ENDROOT
BRANCH   1   2
HETATM    2  C   UNL     1     -29.957  -5.359 -16.888  1.00  0.00     0.173 C 
BRANCH   2   3
HETATM    3  C   UNL     1     -29.812  -4.331 -18.028  1.00  0.00     0.198 C 
BRANCH   3   4
HETATM    4  O   UNL     1     -30.351  -3.058 -17.696  1.00  0.00    -0.398 OA
HETATM    5  H   UNL     1     -29.773  -2.388 -18.120  1.00  0.00     0.209 HD
ENDBRANCH   3   4
ENDBRANCH   2   3
BRANCH   2   6
HETATM    6  O   UNL     1     -31.162  -5.077 -16.181  1.00  0.00    -0.391 OA
HETATM    7  H   UNL     1     -31.919  -5.328 -16.735  1.00  0.00     0.210 HD
ENDBRANCH   2   6
ENDBRANCH   1   2
BRANCH   1   8
HETATM    8  C   UNL     1     -27.766  -6.609 -16.196  1.00  0.00     0.180 C 
BRANCH   8   9
HETATM    9  C   UNL     1     -26.326  -6.226 -16.628  1.00  0.00     0.173 C 
BRANCH   9  10
HETATM   10  C   UNL     1     -25.268  -7.038 -15.860  1.00  0.00     0.198 C 
BRANCH  10  11
HETATM   11  O   UNL     1     -24.789  -6.276 -14.749  1.00  0.00    -0.398 OA
HETATM   12  H   UNL     1     -25.565  -6.111 -14.179  1.00  0.00     0.209 HD
ENDBRANCH  10  11
ENDBRANCH   9  10
BRANCH   9  13
HETATM   13  O   UNL     1     -26.078  -6.428 -18.025  1.00  0.00    -0.391 OA
HETATM   14  H   UNL     1     -25.684  -7.307 -18.145  1.00  0.00     0.210 HD
ENDBRANCH   9  13
ENDBRANCH   8   9
BRANCH   8  15
HETATM   15  O   UNL     1     -27.683  -7.431 -15.031  1.00  0.00    -0.390 OA
HETATM   16  H   UNL     1     -28.545  -7.426 -14.579  1.00  0.00     0.210 HD
ENDBRANCH   8  15
ENDBRANCH   1   8
BRANCH   1  17
HETATM   17  O   UNL     1     -27.994  -4.153 -16.116  1.00  0.00    -0.390 OA
HETATM   18  H   UNL     1     -27.884  -3.758 -15.234  1.00  0.00     0.210 HD
ENDBRANCH   1  17
TORSDOF 11
BEGIN_RES ARG D 557
REMARK  4 active torsions:
REMARK  status: ('A' for Active; 'I' for Inactive)
REMARK    1  A    between atoms: CA   and  CB  
REMARK    2  A    between atoms: CB   and  CG  
REMARK    3  A    between atoms: CG   and  CD  
REMARK    4  A    between atoms: CD   and  NE  
REMARK       I    between atoms: NE   and  CZ  
REMARK       I    between atoms: CZ   and  NH1 
REMARK       I    between atoms: CZ   and  NH2 
ROOT
ATOM      1  CA  ARG D 557     -26.217   2.705 -17.014  1.00 35.49     0.159 C 
ENDROOT
BRANCH   1   2
ATOM      2  CB  ARG D 557     -26.789   1.319 -17.183  1.00 35.49     0.034 C 
BRANCH   2   3
ATOM      3  CG  ARG D 557     -25.865   0.195 -16.990  1.00 35.49     0.027 C 
BRANCH   3   4
ATOM      4  CD  ARG D 557     -26.307  -0.721 -15.915  1.00 35.49     0.116 C 
BRANCH   4   5
ATOM      5  NE  ARG D 557     -25.281  -0.936 -14.929  1.00 35.49    -0.212 N 
ATOM      6  CZ  ARG D 557     -24.983  -2.087 -14.369  1.00 35.49     0.666 C 
ATOM      7  NH1 ARG D 557     -25.629  -3.203 -14.653  1.00 35.49    -0.235 N 
ATOM      8  NH2 ARG D 557     -24.006  -2.101 -13.509  1.00 35.49    -0.235 N 
ATOM      9  HH  ARG D 557     -26.274  -3.217 -15.218  1.00 35.49     0.174 HD
ATOM     10  HH  ARG D 557     -25.389  -3.924 -14.258  1.00 35.49     0.174 HD
ATOM     11  HH  ARG D 557     -23.602  -1.367 -13.350  1.00 35.49     0.174 HD
ATOM     12  HH  ARG D 557     -23.782  -2.826 -13.130  1.00 35.49     0.174 HD
ATOM     13  HE  ARG D 557     -24.863  -0.258 -14.633  1.00 35.49     0.178 HD
ENDBRANCH   4   5
ENDBRANCH   3   4
ENDBRANCH   2   3
ENDBRANCH   1   2
END_RES ARG D 557
BEGIN_RES GLU D 570
REMARK  3 active torsions:
REMARK  status: ('A' for Active; 'I' for Inactive)
REMARK    5  A    between atoms: CA   and  CB  
REMARK    6  A    between atoms: CB   and  CG  
REMARK    7  A    between atoms: CG   and  CD  
ROOT
ATOM     14  CA  GLU D 570     -18.033  -6.348 -13.375  1.00 32.92     0.160 C 
ENDROOT
BRANCH  14  15
ATOM     15  CB  GLU D 570     -19.500  -6.345 -13.794  1.00 32.92     0.043 C 
BRANCH  15  16
ATOM     16  CG  GLU D 570     -20.439  -5.516 -12.994  1.00 32.92     0.100 C 
BRANCH  16  17
ATOM     17  CD  GLU D 570     -21.739  -5.239 -13.712  1.00 32.92     0.185 C 
ATOM     18  OE1 GLU D 570     -21.794  -5.397 -14.947  1.00 32.92    -0.647 OA
ATOM     19  OE2 GLU D 570     -22.708  -4.845 -13.035  1.00 32.92    -0.647 OA
ENDBRANCH  16  17
ENDBRANCH  15  16
ENDBRANCH  14  15
END_RES GLU D 570
ENDMDL
MODEL 5
REMARK VINA RESULT:      -5.4      3.595      5.460
REMARK  11 active torsions:
REMARK  status: ('A' for Active; 'I' for Inactive)
REMARK    1  A    between atoms: C_1  and  C_2 
REMARK    2  A    between atoms: C_1  and  O_12 
REMARK    3  A    between atoms: C_2  and  C_3 
REMARK    4  A    between atoms: C_2  and  O_11 
REMARK    5  A    between atoms: C_3  and  C_4 
REMARK    6  A    between atoms: C_3  and  O_10 
REMARK    7  A    between atoms: C_4  and  C_5 
REMARK    8  A    between atoms: C_4  and  O_9 
REMARK    9  A    between atoms: C_5  and  C_6 
REMARK   10  A    between atoms: C_5  and  O_8 
REMARK   11  A    between atoms: C_6  and  O_7 
ROOT
HETATM    1  C   UNL     1     -28.085  -6.545 -16.164  1.00  0.00     0.180 C 
ENDROOT
BRANCH   1   2
HETATM    2  C   UNL     1     -29.112  -6.906 -17.279  1.00  0.00     0.173 C 
BRANCH   2   3
HETATM    3  C   UNL     1     -30.503  -6.299 -17.007  1.00  0.00     0.198 C 
BRANCH   3   4
HETATM    4  O   UNL     1     -30.609  -4.946 -17.429  1.00  0.00    -0.398 OA
HETATM    5  H   UNL     1     -30.057  -4.858 -18.235  1.00  0.00     0.209 HD
ENDBRANCH   3   4
ENDBRANCH   2   3
BRANCH   2   6
HETATM    6  O   UNL     1     -29.264  -8.312 -17.457  1.00  0.00    -0.391 OA
HETATM    7  H   UNL     1     -30.207  -8.536 -17.407  1.00  0.00     0.210 HD
ENDBRANCH   2   6
ENDBRANCH   1   2
BRANCH   1   8
HETATM    8  C   UNL     1     -26.677  -6.151 -16.697  1.00  0.00     0.180 C 
BRANCH   8   9
HETATM    9  C   UNL     1     -25.510  -6.526 -15.744  1.00  0.00     0.173 C 
BRANCH   9  10
HETATM   10  C   UNL     1     -24.475  -7.427 -16.442  1.00  0.00     0.198 C 
BRANCH  10  11
HETATM   11  O   UNL     1     -23.635  -6.633 -17.284  1.00  0.00    -0.398 OA
HETATM   12  H   UNL     1     -23.393  -7.204 -18.038  1.00  0.00     0.209 HD
ENDBRANCH  10  11
ENDBRANCH   9  10
BRANCH   9  13
HETATM   13  O   UNL     1     -24.804  -5.389 -15.235  1.00  0.00    -0.391 OA
HETATM   14  H   UNL     1     -24.809  -4.693 -15.912  1.00  0.00     0.210 HD
ENDBRANCH   9  13
ENDBRANCH   8   9
BRANCH   8  15
HETATM   15  O   UNL     1     -26.422  -6.741 -17.973  1.00  0.00    -0.390 OA
HETATM   16  H   UNL     1     -27.011  -6.333 -18.632  1.00  0.00     0.210 HD
ENDBRANCH   8  15
ENDBRANCH   1   8
BRANCH   1  17
HETATM   17  O   UNL     1     -28.642  -5.500 -15.354  1.00  0.00    -0.390 OA
HETATM   18  H   UNL     1     -28.774  -4.719 -15.920  1.00  0.00     0.210 HD
ENDBRANCH   1  17
TORSDOF 11
BEGIN_RES ARG D 557
REMARK  4 active torsions:
REMARK  status: ('A' for Active; 'I' for Inactive)
REMARK    1  A    between atoms: CA   and  CB  
REMARK    2  A    between atoms: CB   and  CG  
REMARK    3  A    between atoms: CG   and  CD  
REMARK    4  A    between atoms: CD   and  NE  
REMARK       I    between atoms: NE   and  CZ  
REMARK       I    between atoms: CZ   and  NH1 
REMARK       I    between atoms: CZ   and  NH2 
ROOT
ATOM      1  CA  ARG D 557     -26.217   2.705 -17.014  1.00 35.49     0.159 C 
ENDROOT
BRANCH   1   2
ATOM      2  CB  ARG D 557     -26.789   1.319 -17.183  1.00 35.49     0.034 C 
BRANCH   2   3
ATOM      3  CG  ARG D 557     -28.242   1.181 -17.030  1.00 35.49     0.027 C 
BRANCH   3   4
ATOM      4  CD  ARG D 557     -28.663  -0.232 -16.888  1.00 35.49     0.116 C 
BRANCH   4   5
ATOM      5  NE  ARG D 557     -27.693  -1.017 -16.172  1.00 35.49    -0.212 N 
ATOM      6  CZ  ARG D 557     -27.569  -2.325 -16.230  1.00 35.49     0.666 C 
ATOM      7  NH1 ARG D 557     -28.362  -3.080 -16.968  1.00 35.49    -0.235 N 
ATOM      8  NH2 ARG D 557     -26.618  -2.869 -15.529  1.00 35.49    -0.235 N 
ATOM      9  HH  ARG D 557     -28.993  -2.743 -17.439  1.00 35.49     0.174 HD
ATOM     10  HH  ARG D 557     -28.232  -3.927 -16.969  1.00 35.49     0.174 HD
ATOM     11  HH  ARG D 557     -26.117  -2.356 -15.067  1.00 35.49     0.174 HD
ATOM     12  HH  ARG D 557     -26.505  -3.709 -15.544  1.00 35.49     0.174 HD
ATOM     13  HE  ARG D 557     -27.188  -0.619 -15.616  1.00 35.49     0.178 HD
ENDBRANCH   4   5
ENDBRANCH   3   4
ENDBRANCH   2   3
ENDBRANCH   1   2
END_RES ARG D 557
BEGIN_RES GLU D 570
REMARK  3 active torsions:
REMARK  status: ('A' for Active; 'I' for Inactive)
REMARK    5  A    between atoms: CA   and  CB  
REMARK    6  A    between atoms: CB   and  CG  
REMARK    7  A    between atoms: CG   and  CD  
ROOT
ATOM     14  CA  GLU D 570     -18.033  -6.348 -13.375  1.00 32.92     0.160 C 
ENDROOT
BRANCH  14  15
ATOM     15  CB  GLU D 570     -19.500  -6.345 -13.794  1.00 32.92     0.043 C 
BRANCH  15  16
ATOM     16  CG  GLU D 570     -19.811  -5.964 -15.196  1.00 32.92     0.100 C 
BRANCH  16  17
ATOM     17  CD  GLU D 570     -21.239  -5.507 -15.380  1.00 32.92     0.185 C 
ATOM     18  OE1 GLU D 570     -22.091  -5.828 -14.529  1.00 32.92    -0.647 OA
ATOM     19  OE2 GLU D 570     -21.512  -4.836 -16.394  1.00 32.92    -0.647 OA
ENDBRANCH  16  17
ENDBRANCH  15  16
ENDBRANCH  14  15
END_RES GLU D 570
ENDMDL
MODEL 6
REMARK VINA RESULT:      -5.2      1.638      2.469
REMARK  11 active torsions:
REMARK  status: ('A' for Active; 'I' for Inactive)
REMARK    1  A    between atoms: C_1  and  C_2 
REMARK    2  A    between atoms: C_1  and  O_12 
REMARK    3  A    between atoms: C_2  and  C_3 
REMARK    4  A    between atoms: C_2  and  O_11 
REMARK    5  A    between atoms: C_3  and  C_4 
REMARK    6  A    between atoms: C_3  and  O_10 
REMARK    7  A    between atoms: C_4  and  C_5 
REMARK    8  A    between atoms: C_4  and  O_9 
REMARK    9  A    between atoms: C_5  and  C_6 
REMARK   10  A    between atoms: C_5  and  O_8 
REMARK   11  A    between atoms: C_6  and  O_7 
ROOT
HETATM    1  C   UNL     1     -22.475  -3.131 -11.419  1.00  0.00     0.180 C 
ENDROOT
BRANCH   1   2
HETATM    2  C   UNL     1     -23.889  -3.441 -11.996  1.00  0.00     0.173 C 
BRANCH   2   3
HETATM    3  C   UNL     1     -24.176  -2.650 -13.289  1.00  0.00     0.198 C 
BRANCH   3   4
HETATM    4  O   UNL     1     -23.826  -3.367 -14.465  1.00  0.00    -0.398 OA
HETATM    5  H   UNL     1     -24.214  -4.264 -14.374  1.00  0.00     0.209 HD
ENDBRANCH   3   4
ENDBRANCH   2   3
BRANCH   2   6
HETATM    6  O   UNL     1     -24.936  -3.175 -11.067  1.00  0.00    -0.391 OA
HETATM    7  H   UNL     1     -24.604  -3.323 -10.166  1.00  0.00     0.210 HD
ENDBRANCH   2   6
ENDBRANCH   1   2
BRANCH   1   8
HETATM    8  C   UNL     1     -22.134  -3.911 -10.115  1.00  0.00     0.180 C 
BRANCH   8   9
HETATM    9  C   UNL     1     -20.618  -3.961  -9.786  1.00  0.00     0.173 C 
BRANCH   9  10
HETATM   10  C   UNL     1     -20.370  -4.305  -8.307  1.00  0.00     0.198 C 
BRANCH  10  11
HETATM   11  O   UNL     1     -21.181  -5.419  -7.928  1.00  0.00    -0.398 OA
HETATM   12  H   UNL     1     -21.645  -5.151  -7.111  1.00  0.00     0.209 HD
ENDBRANCH  10  11
ENDBRANCH   9  10
BRANCH   9  13
HETATM   13  O   UNL     1     -19.898  -4.922 -10.568  1.00  0.00    -0.391 OA
HETATM   14  H   UNL     1     -19.813  -5.739 -10.052  1.00  0.00     0.210 HD
ENDBRANCH   9  13
ENDBRANCH   8   9
BRANCH   8  15
HETATM   15  O   UNL     1     -22.821  -3.363  -8.989  1.00  0.00    -0.390 OA
HETATM   16  H   UNL     1     -22.192  -2.844  -8.458  1.00  0.00     0.210 HD
ENDBRANCH   8  15
ENDBRANCH   1   8
BRANCH   1  17
HETATM   17  O   UNL     1     -21.501  -3.381 -12.441  1.00  0.00    -0.390 OA
HETATM   18  H   UNL     1     -20.932  -2.595 -12.513  1.00  0.00     0.210 HD
ENDBRANCH   1  17
TORSDOF 11
BEGIN_RES ARG D 557
REMARK  4 active torsions:
REMARK  status: ('A' for Active; 'I' for Inactive)
REMARK    1  A    between atoms: CA   and  CB  
REMARK    2  A    between atoms: CB   and  CG  
REMARK    3  A    between atoms: CG   and  CD  
REMARK    4  A    between atoms: CD   and  NE  
REMARK       I    between atoms: NE   and  CZ  
REMARK       I    between atoms: CZ   and  NH1 
REMARK       I    between atoms: CZ   and  NH2 
ROOT
ATOM      1  CA  ARG D 557     -26.217   2.705 -17.014  1.00 35.49     0.159 C 
ENDROOT
BRANCH   1   2
ATOM      2  CB  ARG D 557     -26.789   1.319 -17.183  1.00 35.49     0.034 C 
BRANCH   2   3
ATOM      3  CG  ARG D 557     -28.236   1.173 -16.986  1.00 35.49     0.027 C 
BRANCH   3   4
ATOM      4  CD  ARG D 557     -28.656  -0.245 -16.912  1.00 35.49     0.116 C 
BRANCH   4   5
ATOM      5  NE  ARG D 557     -27.695  -1.058 -16.213  1.00 35.49    -0.212 N 
ATOM      6  CZ  ARG D 557     -27.608  -2.368 -16.275  1.00 35.49     0.666 C 
ATOM      7  NH1 ARG D 557     -28.433  -3.100 -17.001  1.00 35.49    -0.235 N 
ATOM      8  NH2 ARG D 557     -26.660  -2.940 -15.591  1.00 35.49    -0.235 N 
ATOM      9  HH  ARG D 557     -29.063  -2.745 -17.461  1.00 35.49     0.174 HD
ATOM     10  HH  ARG D 557     -28.327  -3.950 -17.005  1.00 35.49     0.174 HD
ATOM     11  HH  ARG D 557     -26.138  -2.442 -15.137  1.00 35.49     0.174 HD
ATOM     12  HH  ARG D 557     -26.570  -3.783 -15.609  1.00 35.49     0.174 HD
ATOM     13  HE  ARG D 557     -27.171  -0.675 -15.665  1.00 35.49     0.178 HD
ENDBRANCH   4   5
ENDBRANCH   3   4
ENDBRANCH   2   3
ENDBRANCH   1   2
END_RES ARG D 557
BEGIN_RES GLU D 570
REMARK  3 active torsions:
REMARK  status: ('A' for Active; 'I' for Inactive)
REMARK    5  A    between atoms: CA   and  CB  
REMARK    6  A    between atoms: CB   and  CG  
REMARK    7  A    between atoms: CG   and  CD  
ROOT
ATOM     14  CA  GLU D 570     -18.033  -6.348 -13.375  1.00 32.92     0.160 C 
ENDROOT
BRANCH  14  15
ATOM     15  CB  GLU D 570     -19.500  -6.345 -13.794  1.00 32.92     0.043 C 
BRANCH  15  16
ATOM     16  CG  GLU D 570     -19.820  -5.861 -15.162  1.00 32.92     0.100 C 
BRANCH  16  17
ATOM     17  CD  GLU D 570     -21.253  -5.402 -15.304  1.00 32.92     0.185 C 
ATOM     18  OE1 GLU D 570     -21.591  -4.783 -16.331  1.00 32.92    -0.647 OA
ATOM     19  OE2 GLU D 570     -22.041  -5.649 -14.371  1.00 32.92    -0.647 OA
ENDBRANCH  16  17
ENDBRANCH  15  16
ENDBRANCH  14  15
END_RES GLU D 570
ENDMDL
MODEL 7
REMARK VINA RESULT:      -5.1      3.804      5.680
REMARK  11 active torsions:
REMARK  status: ('A' for Active; 'I' for Inactive)
REMARK    1  A    between atoms: C_1  and  C_2 
REMARK    2  A    between atoms: C_1  and  O_12 
REMARK    3  A    between atoms: C_2  and  C_3 
REMARK    4  A    between atoms: C_2  and  O_11 
REMARK    5  A    between atoms: C_3  and  C_4 
REMARK    6  A    between atoms: C_3  and  O_10 
REMARK    7  A    between atoms: C_4  and  C_5 
REMARK    8  A    between atoms: C_4  and  O_9 
REMARK    9  A    between atoms: C_5  and  C_6 
REMARK   10  A    between atoms: C_5  and  O_8 
REMARK   11  A    between atoms: C_6  and  O_7 
ROOT
HETATM    1  C   UNL     1     -27.310  -6.603 -15.931  1.00  0.00     0.180 C 
ENDROOT
BRANCH   1   2
HETATM    2  C   UNL     1     -25.774  -6.816 -16.088  1.00  0.00     0.173 C 
BRANCH   2   3
HETATM    3  C   UNL     1     -24.959  -5.842 -15.214  1.00  0.00     0.198 C 
BRANCH   3   4
HETATM    4  O   UNL     1     -24.146  -6.506 -14.255  1.00  0.00    -0.398 OA
HETATM    5  H   UNL     1     -23.649  -7.200 -14.739  1.00  0.00     0.209 HD
ENDBRANCH   3   4
ENDBRANCH   2   3
BRANCH   2   6
HETATM    6  O   UNL     1     -25.332  -6.685 -17.437  1.00  0.00    -0.391 OA
HETATM    7  H   UNL     1     -24.498  -6.187 -17.449  1.00  0.00     0.210 HD
ENDBRANCH   2   6
ENDBRANCH   1   2
BRANCH   1   8
HETATM    8  C   UNL     1     -28.098  -6.639 -17.273  1.00  0.00     0.180 C 
BRANCH   8   9
HETATM    9  C   UNL     1     -29.515  -7.263 -17.159  1.00  0.00     0.173 C 
BRANCH   9  10
HETATM   10  C   UNL     1     -30.617  -6.199 -17.308  1.00  0.00     0.198 C 
BRANCH  10  11
HETATM   11  O   UNL     1     -30.595  -5.321 -16.180  1.00  0.00    -0.398 OA
HETATM   12  H   UNL     1     -29.655  -5.118 -16.013  1.00  0.00     0.209 HD
ENDBRANCH  10  11
ENDBRANCH   9  10
BRANCH   9  13
HETATM   13  O   UNL     1     -29.772  -8.276 -18.139  1.00  0.00    -0.391 OA
HETATM   14  H   UNL     1     -29.763  -9.141 -17.699  1.00  0.00     0.210 HD
ENDBRANCH   9  13
ENDBRANCH   8   9
BRANCH   8  15
HETATM   15  O   UNL     1     -28.227  -5.332 -17.833  1.00  0.00    -0.390 OA
HETATM   16  H   UNL     1     -28.911  -5.351 -18.525  1.00  0.00     0.210 HD
ENDBRANCH   8  15
ENDBRANCH   1   8
BRANCH   1  17
HETATM   17  O   UNL     1     -27.812  -7.581 -15.010  1.00  0.00    -0.390 OA
HETATM   18  H   UNL     1     -27.051  -8.026 -14.599  1.00  0.00     0.210 HD
ENDBRANCH   1  17
TORSDOF 11
BEGIN_RES ARG D 557
REMARK  4 active torsions:
REMARK  status: ('A' for Active; 'I' for Inactive)
REMARK    1  A    between atoms: CA   and  CB  
REMARK    2  A    between atoms: CB   and  CG  
REMARK    3  A    between atoms: CG   and  CD  
REMARK    4  A    between atoms: CD   and  NE  
REMARK       I    between atoms: NE   and  CZ  
REMARK       I    between atoms: CZ   and  NH1 
REMARK       I    between atoms: CZ   and  NH2 
ROOT
ATOM      1  CA  ARG D 557     -26.217   2.705 -17.014  1.00 35.49     0.159 C 
ENDROOT
BRANCH   1   2
ATOM      2  CB  ARG D 557     -26.789   1.319 -17.183  1.00 35.49     0.034 C 
BRANCH   2   3
ATOM      3  CG  ARG D 557     -28.225   1.228 -17.472  1.00 35.49     0.027 C 
BRANCH   3   4
ATOM      4  CD  ARG D 557     -28.911   0.232 -16.616  1.00 35.49     0.116 C 
BRANCH   4   5
ATOM      5  NE  ARG D 557     -28.042  -0.853 -16.244  1.00 35.49    -0.212 N 
ATOM      6  CZ  ARG D 557     -28.182  -2.108 -16.608  1.00 35.49     0.666 C 
ATOM      7  NH1 ARG D 557     -29.180  -2.519 -17.368  1.00 35.49    -0.235 N 
ATOM      8  NH2 ARG D 557     -27.286  -2.957 -16.194  1.00 35.49    -0.235 N 
ATOM      9  HH  ARG D 557     -29.780  -1.978 -17.653  1.00 35.49     0.174 HD
ATOM     10  HH  ARG D 557     -29.219  -3.350 -17.575  1.00 35.49     0.174 HD
ATOM     11  HH  ARG D 557     -26.648  -2.662 -15.711  1.00 35.49     0.174 HD
ATOM     12  HH  ARG D 557     -27.341  -3.775 -16.411  1.00 35.49     0.174 HD
ATOM     13  HE  ARG D 557     -27.413  -0.691 -15.696  1.00 35.49     0.178 HD
ENDBRANCH   4   5
ENDBRANCH   3   4
ENDBRANCH   2   3
ENDBRANCH   1   2
END_RES ARG D 557
BEGIN_RES GLU D 570
REMARK  3 active torsions:
REMARK  status: ('A' for Active; 'I' for Inactive)
REMARK    5  A    between atoms: CA   and  CB  
REMARK    6  A    between atoms: CB   and  CG  
REMARK    7  A    between atoms: CG   and  CD  
ROOT
ATOM     14  CA  GLU D 570     -18.033  -6.348 -13.375  1.00 32.92     0.160 C 
ENDROOT
BRANCH  14  15
ATOM     15  CB  GLU D 570     -19.500  -6.345 -13.794  1.00 32.92     0.043 C 
BRANCH  15  16
ATOM     16  CG  GLU D 570     -19.798  -6.201 -15.242  1.00 32.92     0.100 C 
BRANCH  16  17
ATOM     17  CD  GLU D 570     -21.046  -5.392 -15.510  1.00 32.92     0.185 C 
ATOM     18  OE1 GLU D 570     -21.677  -4.917 -14.546  1.00 32.92    -0.647 OA
ATOM     19  OE2 GLU D 570     -21.407  -5.248 -16.694  1.00 32.92    -0.647 OA
ENDBRANCH  16  17
ENDBRANCH  15  16
ENDBRANCH  14  15
END_RES GLU D 570
ENDMDL
MODEL 8
REMARK VINA RESULT:      -5.1      2.333      3.558
REMARK  11 active torsions:
REMARK  status: ('A' for Active; 'I' for Inactive)
REMARK    1  A    between atoms: C_1  and  C_2 
REMARK    2  A    between atoms: C_1  and  O_12 
REMARK    3  A    between atoms: C_2  and  C_3 
REMARK    4  A    between atoms: C_2  and  O_11 
REMARK    5  A    between atoms: C_3  and  C_4 
REMARK    6  A    between atoms: C_3  and  O_10 
REMARK    7  A    between atoms: C_4  and  C_5 
REMARK    8  A    between atoms: C_4  and  O_9 
REMARK    9  A    between atoms: C_5  and  C_6 
REMARK   10  A    between atoms: C_5  and  O_8 
REMARK   11  A    between atoms: C_6  and  O_7 
ROOT
HETATM    1  C   UNL     1     -22.942  -3.760  -9.402  1.00  0.00     0.180 C 
ENDROOT
BRANCH   1   2
HETATM    2  C   UNL     1     -24.397  -3.655  -9.950  1.00  0.00     0.173 C 
BRANCH   2   3
HETATM    3  C   UNL     1     -24.432  -3.251 -11.437  1.00  0.00     0.198 C 
BRANCH   3   4
HETATM    4  O   UNL     1     -23.315  -2.460 -11.821  1.00  0.00    -0.398 OA
HETATM    5  H   UNL     1     -23.670  -1.697 -12.327  1.00  0.00     0.209 HD
ENDBRANCH   3   4
ENDBRANCH   2   3
BRANCH   2   6
HETATM    6  O   UNL     1     -25.199  -2.733  -9.216  1.00  0.00    -0.391 OA
HETATM    7  H   UNL     1     -25.367  -3.095  -8.331  1.00  0.00     0.210 HD
ENDBRANCH   2   6
ENDBRANCH   1   2
BRANCH   1   8
HETATM    8  C   UNL     1     -22.833  -4.445  -8.009  1.00  0.00     0.180 C 
BRANCH   8   9
HETATM    9  C   UNL     1     -21.572  -4.038  -7.199  1.00  0.00     0.173 C 
BRANCH   9  10
HETATM   10  C   UNL     1     -21.153  -5.140  -6.211  1.00  0.00     0.198 C 
BRANCH  10  11
HETATM   11  O   UNL     1     -22.312  -5.680  -5.571  1.00  0.00    -0.398 OA
HETATM   12  H   UNL     1     -23.072  -5.429  -6.130  1.00  0.00     0.209 HD
ENDBRANCH  10  11
ENDBRANCH   9  10
BRANCH   9  13
HETATM   13  O   UNL     1     -20.434  -3.756  -8.023  1.00  0.00    -0.391 OA
HETATM   14  H   UNL     1     -19.645  -4.131  -7.599  1.00  0.00     0.210 HD
ENDBRANCH   9  13
ENDBRANCH   8   9
BRANCH   8  15
HETATM   15  O   UNL     1     -23.986  -4.178  -7.209  1.00  0.00    -0.390 OA
HETATM   16  H   UNL     1     -24.446  -3.399  -7.568  1.00  0.00     0.210 HD
ENDBRANCH   8  15
ENDBRANCH   1   8
BRANCH   1  17
HETATM   17  O   UNL     1     -22.137  -4.439 -10.376  1.00  0.00    -0.390 OA
HETATM   18  H   UNL     1     -21.795  -5.253  -9.968  1.00  0.00     0.210 HD
ENDBRANCH   1  17
TORSDOF 11
BEGIN_RES ARG D 557
REMARK  4 active torsions:
REMARK  status: ('A' for Active; 'I' for Inactive)
REMARK    1  A    between atoms: CA   and  CB  
REMARK    2  A    between atoms: CB   and  CG  
REMARK    3  A    between atoms: CG   and  CD  
REMARK    4  A    between atoms: CD   and  NE  
REMARK       I    between atoms: NE   and  CZ  
REMARK       I    between atoms: CZ   and  NH1 
REMARK       I    between atoms: CZ   and  NH2 
ROOT
ATOM      1  CA  ARG D 557     -26.217   2.705 -17.014  1.00 35.49     0.159 C 
ENDROOT
BRANCH   1   2
ATOM      2  CB  ARG D 557     -26.789   1.319 -17.183  1.00 35.49     0.034 C 
BRANCH   2   3
ATOM      3  CG  ARG D 557     -28.236   1.225 -17.409  1.00 35.49     0.027 C 
BRANCH   3   4
ATOM      4  CD  ARG D 557     -28.892   0.276 -16.480  1.00 35.49     0.116 C 
BRANCH   4   5
ATOM      5  NE  ARG D 557     -29.279  -0.945 -17.137  1.00 35.49    -0.212 N 
ATOM      6  CZ  ARG D 557     -28.660  -2.100 -17.037  1.00 35.49     0.666 C 
ATOM      7  NH1 ARG D 557     -27.571  -2.261 -16.308  1.00 35.49    -0.235 N 
ATOM      8  NH2 ARG D 557     -29.164  -3.110 -17.686  1.00 35.49    -0.235 N 
ATOM      9  HH  ARG D 557     -27.223  -1.611 -15.871  1.00 35.49     0.174 HD
ATOM     10  HH  ARG D 557     -27.212  -3.038 -16.278  1.00 35.49     0.174 HD
ATOM     11  HH  ARG D 557     -29.873  -2.978 -18.142  1.00 35.49     0.174 HD
ATOM     12  HH  ARG D 557     -28.795  -3.872 -17.642  1.00 35.49     0.174 HD
ATOM     13  HE  ARG D 557     -29.929  -0.916 -17.684  1.00 35.49     0.178 HD
ENDBRANCH   4   5
ENDBRANCH   3   4
ENDBRANCH   2   3
ENDBRANCH   1   2
END_RES ARG D 557
BEGIN_RES GLU D 570
REMARK  3 active torsions:
REMARK  status: ('A' for Active; 'I' for Inactive)
REMARK    5  A    between atoms: CA   and  CB  
REMARK    6  A    between atoms: CB   and  CG  
REMARK    7  A    between atoms: CG   and  CD  
ROOT
ATOM     14  CA  GLU D 570     -18.033  -6.348 -13.375  1.00 32.92     0.160 C 
ENDROOT
BRANCH  14  15
ATOM     15  CB  GLU D 570     -19.500  -6.345 -13.794  1.00 32.92     0.043 C 
BRANCH  15  16
ATOM     16  CG  GLU D 570     -20.425  -5.458 -13.042  1.00 32.92     0.100 C 
BRANCH  16  17
ATOM     17  CD  GLU D 570     -21.705  -5.171 -13.791  1.00 32.92     0.185 C 
ATOM     18  OE1 GLU D 570     -22.791  -5.251 -13.185  1.00 32.92    -0.647 OA
ATOM     19  OE2 GLU D 570     -21.623  -4.880 -15.001  1.00 32.92    -0.647 OA
ENDBRANCH  16  17
ENDBRANCH  15  16
ENDBRANCH  14  15
END_RES GLU D 570
ENDMDL
MODEL 9
REMARK VINA RESULT:      -5.1      3.671      5.844
REMARK  11 active torsions:
REMARK  status: ('A' for Active; 'I' for Inactive)
REMARK    1  A    between atoms: C_1  and  C_2 
REMARK    2  A    between atoms: C_1  and  O_12 
REMARK    3  A    between atoms: C_2  and  C_3 
REMARK    4  A    between atoms: C_2  and  O_11 
REMARK    5  A    between atoms: C_3  and  C_4 
REMARK    6  A    between atoms: C_3  and  O_10 
REMARK    7  A    between atoms: C_4  and  C_5 
REMARK    8  A    between atoms: C_4  and  O_9 
REMARK    9  A    between atoms: C_5  and  C_6 
REMARK   10  A    between atoms: C_5  and  O_8 
REMARK   11  A    between atoms: C_6  and  O_7 
ROOT
HETATM    1  C   UNL     1     -26.521  -6.422 -15.715  1.00  0.00     0.180 C 
ENDROOT
BRANCH   1   2
HETATM    2  C   UNL     1     -24.967  -6.300 -15.723  1.00  0.00     0.173 C 
BRANCH   2   3
HETATM    3  C   UNL     1     -24.290  -7.526 -16.368  1.00  0.00     0.198 C 
BRANCH   3   4
HETATM    4  O   UNL     1     -24.419  -7.548 -17.783  1.00  0.00    -0.398 OA
HETATM    5  H   UNL     1     -25.063  -8.256 -17.997  1.00  0.00     0.209 HD
ENDBRANCH   3   4
ENDBRANCH   2   3
BRANCH   2   6
HETATM    6  O   UNL     1     -24.420  -6.122 -14.418  1.00  0.00    -0.391 OA
HETATM    7  H   UNL     1     -24.616  -6.909 -13.884  1.00  0.00     0.210 HD
ENDBRANCH   2   6
ENDBRANCH   1   2
BRANCH   1   8
HETATM    8  C   UNL     1     -27.228  -5.623 -16.849  1.00  0.00     0.180 C 
BRANCH   8   9
HETATM    9  C   UNL     1     -28.581  -6.233 -17.305  1.00  0.00     0.173 C 
BRANCH   9  10
HETATM   10  C   UNL     1     -29.616  -5.141 -17.626  1.00  0.00     0.198 C 
BRANCH  10  11
HETATM   11  O   UNL     1     -29.232  -4.447 -18.815  1.00  0.00    -0.398 OA
HETATM   12  H   UNL     1     -28.548  -4.999 -19.242  1.00  0.00     0.209 HD
ENDBRANCH  10  11
ENDBRANCH   9  10
BRANCH   9  13
HETATM   13  O   UNL     1     -28.467  -7.062 -18.468  1.00  0.00    -0.391 OA
HETATM   14  H   UNL     1     -29.246  -7.641 -18.512  1.00  0.00     0.210 HD
ENDBRANCH   9  13
ENDBRANCH   8   9
BRANCH   8  15
HETATM   15  O   UNL     1     -27.454  -4.267 -16.464  1.00  0.00    -0.390 OA
HETATM   16  H   UNL     1     -28.059  -4.252 -15.702  1.00  0.00     0.210 HD
ENDBRANCH   8  15
ENDBRANCH   1   8
BRANCH   1  17
HETATM   17  O   UNL     1     -26.868  -7.813 -15.769  1.00  0.00    -0.390 OA
HETATM   18  H   UNL     1     -26.665  -8.138 -16.663  1.00  0.00     0.210 HD
ENDBRANCH   1  17
TORSDOF 11
BEGIN_RES ARG D 557
REMARK  4 active torsions:
REMARK  status: ('A' for Active; 'I' for Inactive)
REMARK    1  A    between atoms: CA   and  CB  
REMARK    2  A    between atoms: CB   and  CG  
REMARK    3  A    between atoms: CG   and  CD  
REMARK    4  A    between atoms: CD   and  NE  
REMARK       I    between atoms: NE   and  CZ  
REMARK       I    between atoms: CZ   and  NH1 
REMARK       I    between atoms: CZ   and  NH2 
ROOT
ATOM      1  CA  ARG D 557     -26.217   2.705 -17.014  1.00 35.49     0.159 C 
ENDROOT
BRANCH   1   2
ATOM      2  CB  ARG D 557     -26.789   1.319 -17.183  1.00 35.49     0.034 C 
BRANCH   2   3
ATOM      3  CG  ARG D 557     -25.858   0.196 -17.021  1.00 35.49     0.027 C 
BRANCH   3   4
ATOM      4  CD  ARG D 557     -26.241  -0.699 -15.905  1.00 35.49     0.116 C 
BRANCH   4   5
ATOM      5  NE  ARG D 557     -25.172  -0.873 -14.958  1.00 35.49    -0.212 N 
ATOM      6  CZ  ARG D 557     -24.889  -1.983 -14.314  1.00 35.49     0.666 C 
ATOM      7  NH1 ARG D 557     -25.593  -3.090 -14.466  1.00 35.49    -0.235 N 
ATOM      8  NH2 ARG D 557     -23.868  -1.966 -13.507  1.00 35.49    -0.235 N 
ATOM      9  HH  ARG D 557     -26.268  -3.124 -14.993  1.00 35.49     0.174 HD
ATOM     10  HH  ARG D 557     -25.360  -3.784 -14.021  1.00 35.49     0.174 HD
ATOM     11  HH  ARG D 557     -23.427  -1.239 -13.435  1.00 35.49     0.174 HD
ATOM     12  HH  ARG D 557     -23.652  -2.664 -13.077  1.00 35.49     0.174 HD
ATOM     13  HE  ARG D 557     -24.712  -0.190 -14.745  1.00 35.49     0.178 HD
ENDBRANCH   4   5
ENDBRANCH   3   4
ENDBRANCH   2   3
ENDBRANCH   1   2
END_RES ARG D 557
BEGIN_RES GLU D 570
REMARK  3 active torsions:
REMARK  status: ('A' for Active; 'I' for Inactive)
REMARK    5  A    between atoms: CA   and  CB  
REMARK    6  A    between atoms: CB   and  CG  
REMARK    7  A    between atoms: CG   and  CD  
ROOT
ATOM     14  CA  GLU D 570     -18.033  -6.348 -13.375  1.00 32.92     0.160 C 
ENDROOT
BRANCH  14  15
ATOM     15  CB  GLU D 570     -19.500  -6.345 -13.794  1.00 32.92     0.043 C 
BRANCH  15  16
ATOM     16  CG  GLU D 570     -20.458  -5.613 -12.926  1.00 32.92     0.100 C 
BRANCH  16  17
ATOM     17  CD  GLU D 570     -21.615  -5.019 -13.695  1.00 32.92     0.185 C 
ATOM     18  OE1 GLU D 570     -22.551  -4.488 -13.067  1.00 32.92    -0.647 OA
ATOM     19  OE2 GLU D 570     -21.593  -5.101 -14.939  1.00 32.92    -0.647 OA
ENDBRANCH  16  17
ENDBRANCH  15  16
ENDBRANCH  14  15
END_RES GLU D 570
ENDMDL
