MODEL 1
REMARK VINA RESULT:      -6.6      0.000      0.000
REMARK  14 active torsions:
REMARK  status: ('A' for Active; 'I' for Inactive)
REMARK    1  A    between atoms: C_2  and  C_4 
REMARK    2  A    between atoms: C_4  and  C_5 
REMARK    3  A    between atoms: C_5  and  C_6 
REMARK    4  A    between atoms: C_6  and  C_7 
REMARK    5  A    between atoms: C_7  and  C_8 
REMARK    6  A    between atoms: C_8  and  C_9 
REMARK    7  A    between atoms: C_9  and  O_10 
REMARK    8  A    between atoms: O_10  and  C_11 
REMARK    9  A    between atoms: C_11  and  C_13 
REMARK   10  A    between atoms: C_13  and  C_14 
REMARK   11  A    between atoms: C_14  and  C_15 
REMARK   12  A    between atoms: C_15  and  C_16 
REMARK   13  A    between atoms: C_16  and  C_17 
REMARK   14  A    between atoms: C_17  and  C_18 
ROOT
HETATM    1  O   UNL     1     -20.443  -7.160  -5.377  1.00  0.00    -0.321 OA
ENDROOT
BRANCH   1   2
HETATM    2  C   UNL     1     -21.223  -8.364  -5.354  1.00  0.00     0.178 C 
BRANCH   2   3
HETATM    3  C   UNL     1     -21.411  -8.957  -3.961  1.00  0.00     0.027 C 
BRANCH   3   4
HETATM    4  C   UNL     1     -20.213  -8.697  -3.053  1.00  0.00     0.002 C 
BRANCH   4   5
HETATM    5  C   UNL     1     -20.531  -7.596  -2.040  1.00  0.00     0.000 C 
BRANCH   5   6
HETATM    6  C   UNL     1     -22.036  -7.492  -1.814  1.00  0.00     0.000 C 
BRANCH   6   7
HETATM    7  C   UNL     1     -22.362  -7.070  -0.380  1.00  0.00     0.004 C 
BRANCH   7   8
HETATM    8  C   UNL     1     -22.533  -8.263   0.577  1.00  0.00    -0.023 C 
HETATM    9  C   UNL     1     -23.022  -9.486  -0.200  1.00  0.00     0.009 C 
HETATM   10  C   UNL     1     -21.240  -8.609   1.320  1.00  0.00     0.009 C 
ENDBRANCH   7   8
ENDBRANCH   6   7
ENDBRANCH   5   6
ENDBRANCH   4   5
ENDBRANCH   3   4
ENDBRANCH   2   3
ENDBRANCH   1   2
BRANCH   1  11
HETATM   11  C   UNL     1     -21.153  -6.006  -5.474  1.00  0.00     0.258 C 
HETATM   12  O   UNL     1     -22.357  -5.896  -5.281  1.00  0.00    -0.265 OA
BRANCH  11  13
HETATM   13  C   UNL     1     -20.243  -4.832  -5.721  1.00  0.00     0.111 C 
BRANCH  13  14
HETATM   14  C   UNL     1     -20.821  -4.055  -6.899  1.00  0.00     0.010 C 
BRANCH  14  15
HETATM   15  C   UNL     1     -20.259  -4.498  -8.244  1.00  0.00     0.001 C 
BRANCH  15  16
HETATM   16  C   UNL     1     -21.371  -4.475  -9.293  1.00  0.00     0.000 C 
BRANCH  16  17
HETATM   17  C   UNL     1     -22.594  -3.694  -8.813  1.00  0.00     0.004 C 
BRANCH  17  18
HETATM   18  C   UNL     1     -23.922  -4.261  -9.351  1.00  0.00    -0.023 C 
HETATM   19  C   UNL     1     -24.936  -3.164  -9.683  1.00  0.00     0.009 C 
HETATM   20  C   UNL     1     -23.654  -5.111 -10.594  1.00  0.00     0.009 C 
ENDBRANCH  17  18
ENDBRANCH  16  17
ENDBRANCH  15  16
ENDBRANCH  14  15
ENDBRANCH  13  14
ENDBRANCH  11  13
ENDBRANCH   1  11
TORSDOF 14
BEGIN_RES ARG D 557
REMARK  4 active torsions:
REMARK  status: ('A' for Active; 'I' for Inactive)
REMARK    1  A    between atoms: CA   and  CB  
REMARK    2  A    between atoms: CB   and  CG  
REMARK    3  A    between atoms: CG   and  CD  
REMARK    4  A    between atoms: CD   and  NE  
REMARK       I    between atoms: NE   and  CZ  
REMARK       I    between atoms: CZ   and  NH1 
REMARK       I    between atoms: CZ   and  NH2 
ROOT
ATOM      1  CA  ARG D 557     -26.217   2.705 -17.014  1.00 35.49     0.159 C 
ENDROOT
BRANCH   1   2
ATOM      2  CB  ARG D 557     -26.789   1.319 -17.183  1.00 35.49     0.034 C 
BRANCH   2   3
ATOM      3  CG  ARG D 557     -25.880   0.194 -16.932  1.00 35.49     0.027 C 
BRANCH   3   4
ATOM      4  CD  ARG D 557     -26.411  -0.746 -15.919  1.00 35.49     0.116 C 
BRANCH   4   5
ATOM      5  NE  ARG D 557     -25.471  -0.985 -14.856  1.00 35.49    -0.212 N 
ATOM      6  CZ  ARG D 557     -25.195  -2.155 -14.324  1.00 35.49     0.666 C 
ATOM      7  NH1 ARG D 557     -25.785  -3.269 -14.715  1.00 35.49    -0.235 N 
ATOM      8  NH2 ARG D 557     -24.298  -2.189 -13.381  1.00 35.49    -0.235 N 
ATOM      9  HH  ARG D 557     -26.377  -3.270 -15.334  1.00 35.49     0.174 HD
ATOM     10  HH  ARG D 557     -25.563  -4.003 -14.333  1.00 35.49     0.174 HD
ATOM     11  HH  ARG D 557     -23.928  -1.455 -13.154  1.00 35.49     0.174 HD
ATOM     12  HH  ARG D 557     -24.090  -2.926 -13.017  1.00 35.49     0.174 HD
ATOM     13  HE  ARG D 557     -25.097  -0.313 -14.494  1.00 35.49     0.178 HD
ENDBRANCH   4   5
ENDBRANCH   3   4
ENDBRANCH   2   3
ENDBRANCH   1   2
END_RES ARG D 557
BEGIN_RES GLU D 570
REMARK  3 active torsions:
REMARK  status: ('A' for Active; 'I' for Inactive)
REMARK    5  A    between atoms: CA   and  CB  
REMARK    6  A    between atoms: CB   and  CG  
REMARK    7  A    between atoms: CG   and  CD  
ROOT
ATOM     14  CA  GLU D 570     -18.033  -6.348 -13.375  1.00 32.92     0.160 C 
ENDROOT
BRANCH  14  15
ATOM     15  CB  GLU D 570     -19.500  -6.345 -13.794  1.00 32.92     0.043 C 
BRANCH  15  16
ATOM     16  CG  GLU D 570     -20.441  -5.526 -12.987  1.00 32.92     0.100 C 
BRANCH  16  17
ATOM     17  CD  GLU D 570     -21.733  -5.229 -13.710  1.00 32.92     0.185 C 
ATOM     18  OE1 GLU D 570     -22.214  -4.081 -13.644  1.00 32.92    -0.647 OA
ATOM     19  OE2 GLU D 570     -22.280  -6.158 -14.337  1.00 32.92    -0.647 OA
ENDBRANCH  16  17
ENDBRANCH  15  16
ENDBRANCH  14  15
END_RES GLU D 570
ENDMDL
MODEL 2
REMARK VINA RESULT:      -6.5      4.093      7.814
REMARK  14 active torsions:
REMARK  status: ('A' for Active; 'I' for Inactive)
REMARK    1  A    between atoms: C_2  and  C_4 
REMARK    2  A    between atoms: C_4  and  C_5 
REMARK    3  A    between atoms: C_5  and  C_6 
REMARK    4  A    between atoms: C_6  and  C_7 
REMARK    5  A    between atoms: C_7  and  C_8 
REMARK    6  A    between atoms: C_8  and  C_9 
REMARK    7  A    between atoms: C_9  and  O_10 
REMARK    8  A    between atoms: O_10  and  C_11 
REMARK    9  A    between atoms: C_11  and  C_13 
REMARK   10  A    between atoms: C_13  and  C_14 
REMARK   11  A    between atoms: C_14  and  C_15 
REMARK   12  A    between atoms: C_15  and  C_16 
REMARK   13  A    between atoms: C_16  and  C_17 
REMARK   14  A    between atoms: C_17  and  C_18 
ROOT
HETATM    1  O   UNL     1     -23.571  -6.023 -13.081  1.00  0.00    -0.321 OA
ENDROOT
BRANCH   1   2
HETATM    2  C   UNL     1     -23.758  -4.951 -12.145  1.00  0.00     0.178 C 
BRANCH   2   3
HETATM    3  C   UNL     1     -22.604  -4.775 -11.163  1.00  0.00     0.027 C 
BRANCH   3   4
HETATM    4  C   UNL     1     -21.421  -4.040 -11.784  1.00  0.00     0.002 C 
BRANCH   4   5
HETATM    5  C   UNL     1     -20.428  -3.605 -10.705  1.00  0.00     0.000 C 
BRANCH   5   6
HETATM    6  C   UNL     1     -20.491  -4.546  -9.506  1.00  0.00     0.000 C 
BRANCH   6   7
HETATM    7  C   UNL     1     -19.856  -3.917  -8.264  1.00  0.00     0.004 C 
BRANCH   7   8
HETATM    8  C   UNL     1     -20.761  -3.991  -7.021  1.00  0.00    -0.023 C 
HETATM    9  C   UNL     1     -22.204  -4.266  -7.445  1.00  0.00     0.009 C 
HETATM   10  C   UNL     1     -20.304  -5.062  -6.026  1.00  0.00     0.009 C 
ENDBRANCH   7   8
ENDBRANCH   6   7
ENDBRANCH   5   6
ENDBRANCH   4   5
ENDBRANCH   3   4
ENDBRANCH   2   3
ENDBRANCH   1   2
BRANCH   1  11
HETATM   11  C   UNL     1     -23.601  -5.665 -14.391  1.00  0.00     0.258 C 
HETATM   12  O   UNL     1     -23.095  -4.654 -14.863  1.00  0.00    -0.265 OA
BRANCH  11  13
HETATM   13  C   UNL     1     -24.226  -6.748 -15.232  1.00  0.00     0.111 C 
BRANCH  13  14
HETATM   14  C   UNL     1     -25.536  -6.193 -15.779  1.00  0.00     0.010 C 
BRANCH  14  15
HETATM   15  C   UNL     1     -26.705  -7.158 -15.631  1.00  0.00     0.001 C 
BRANCH  15  16
HETATM   16  C   UNL     1     -27.982  -6.495 -16.150  1.00  0.00     0.000 C 
BRANCH  16  17
HETATM   17  C   UNL     1     -27.727  -5.678 -17.416  1.00  0.00     0.004 C 
BRANCH  17  18
HETATM   18  C   UNL     1     -28.954  -5.607 -18.345  1.00  0.00    -0.023 C 
HETATM   19  C   UNL     1     -29.936  -6.757 -18.110  1.00  0.00     0.009 C 
HETATM   20  C   UNL     1     -29.671  -4.269 -18.152  1.00  0.00     0.009 C 
ENDBRANCH  17  18
ENDBRANCH  16  17
ENDBRANCH  15  16
ENDBRANCH  14  15
ENDBRANCH  13  14
ENDBRANCH  11  13
ENDBRANCH   1  11
TORSDOF 14
BEGIN_RES ARG D 557
REMARK  4 active torsions:
REMARK  status: ('A' for Active; 'I' for Inactive)
REMARK    1  A    between atoms: CA   and  CB  
REMARK    2  A    between atoms: CB   and  CG  
REMARK    3  A    between atoms: CG   and  CD  
REMARK    4  A    between atoms: CD   and  NE  
REMARK       I    between atoms: NE   and  CZ  
REMARK       I    between atoms: CZ   and  NH1 
REMARK       I    between atoms: CZ   and  NH2 
ROOT
ATOM      1  CA  ARG D 557     -26.217   2.705 -17.014  1.00 35.49     0.159 C 
ENDROOT
BRANCH   1   2
ATOM      2  CB  ARG D 557     -26.789   1.319 -17.183  1.00 35.49     0.034 C 
BRANCH   2   3
ATOM      3  CG  ARG D 557     -25.854   0.196 -17.040  1.00 35.49     0.027 C 
BRANCH   3   4
ATOM      4  CD  ARG D 557     -26.196  -0.680 -15.896  1.00 35.49     0.116 C 
BRANCH   4   5
ATOM      5  NE  ARG D 557     -25.084  -0.863 -15.001  1.00 35.49    -0.212 N 
ATOM      6  CZ  ARG D 557     -24.885  -1.905 -14.226  1.00 35.49     0.666 C 
ATOM      7  NH1 ARG D 557     -25.724  -2.923 -14.178  1.00 35.49    -0.235 N 
ATOM      8  NH2 ARG D 557     -23.809  -1.912 -13.494  1.00 35.49    -0.235 N 
ATOM      9  HH  ARG D 557     -26.437  -2.941 -14.653  1.00 35.49     0.174 HD
ATOM     10  HH  ARG D 557     -25.540  -3.577 -13.655  1.00 35.49     0.174 HD
ATOM     11  HH  ARG D 557     -23.281  -1.244 -13.551  1.00 35.49     0.174 HD
ATOM     12  HH  ARG D 557     -23.644  -2.569 -12.984  1.00 35.49     0.174 HD
ATOM     13  HE  ARG D 557     -24.531  -0.222 -14.915  1.00 35.49     0.178 HD
ENDBRANCH   4   5
ENDBRANCH   3   4
ENDBRANCH   2   3
ENDBRANCH   1   2
END_RES ARG D 557
BEGIN_RES GLU D 570
REMARK  3 active torsions:
REMARK  status: ('A' for Active; 'I' for Inactive)
REMARK    5  A    between atoms: CA   and  CB  
REMARK    6  A    between atoms: CB   and  CG  
REMARK    7  A    between atoms: CG   and  CD  
ROOT
ATOM     14  CA  GLU D 570     -18.033  -6.348 -13.375  1.00 32.92     0.160 C 
ENDROOT
BRANCH  14  15
ATOM     15  CB  GLU D 570     -19.500  -6.345 -13.794  1.00 32.92     0.043 C 
BRANCH  15  16
ATOM     16  CG  GLU D 570     -20.093  -7.639 -14.218  1.00 32.92     0.100 C 
BRANCH  16  17
ATOM     17  CD  GLU D 570     -20.668  -7.595 -15.615  1.00 32.92     0.185 C 
ATOM     18  OE1 GLU D 570     -21.182  -8.625 -16.091  1.00 32.92    -0.647 OA
ATOM     19  OE2 GLU D 570     -20.588  -6.523 -16.246  1.00 32.92    -0.647 OA
ENDBRANCH  16  17
ENDBRANCH  15  16
ENDBRANCH  14  15
END_RES GLU D 570
ENDMDL
MODEL 3
REMARK VINA RESULT:      -6.5      5.199     10.601
REMARK  14 active torsions:
REMARK  status: ('A' for Active; 'I' for Inactive)
REMARK    1  A    between atoms: C_2  and  C_4 
REMARK    2  A    between atoms: C_4  and  C_5 
REMARK    3  A    between atoms: C_5  and  C_6 
REMARK    4  A    between atoms: C_6  and  C_7 
REMARK    5  A    between atoms: C_7  and  C_8 
REMARK    6  A    between atoms: C_8  and  C_9 
REMARK    7  A    between atoms: C_9  and  O_10 
REMARK    8  A    between atoms: O_10  and  C_11 
REMARK    9  A    between atoms: C_11  and  C_13 
REMARK   10  A    between atoms: C_13  and  C_14 
REMARK   11  A    between atoms: C_14  and  C_15 
REMARK   12  A    between atoms: C_15  and  C_16 
REMARK   13  A    between atoms: C_16  and  C_17 
REMARK   14  A    between atoms: C_17  and  C_18 
ROOT
HETATM    1  O   UNL     1     -25.104  -4.712 -15.111  1.00  0.00    -0.321 OA
ENDROOT
BRANCH   1   2
HETATM    2  C   UNL     1     -26.293  -5.153 -15.783  1.00  0.00     0.178 C 
BRANCH   2   3
HETATM    3  C   UNL     1     -27.523  -4.297 -15.494  1.00  0.00     0.027 C 
BRANCH   3   4
HETATM    4  C   UNL     1     -27.683  -3.156 -16.493  1.00  0.00     0.002 C 
BRANCH   4   5
HETATM    5  C   UNL     1     -29.047  -3.225 -17.180  1.00  0.00     0.000 C 
BRANCH   5   6
HETATM    6  C   UNL     1     -29.074  -4.351 -18.209  1.00  0.00     0.000 C 
BRANCH   6   7
HETATM    7  C   UNL     1     -30.036  -5.467 -17.797  1.00  0.00     0.004 C 
BRANCH   7   8
HETATM    8  C   UNL     1     -29.431  -6.874 -17.949  1.00  0.00    -0.023 C 
HETATM    9  C   UNL     1     -29.076  -7.437 -16.571  1.00  0.00     0.009 C 
HETATM   10  C   UNL     1     -30.369  -7.841 -18.675  1.00  0.00     0.009 C 
ENDBRANCH   7   8
ENDBRANCH   6   7
ENDBRANCH   5   6
ENDBRANCH   4   5
ENDBRANCH   3   4
ENDBRANCH   2   3
ENDBRANCH   1   2
BRANCH   1  11
HETATM   11  C   UNL     1     -24.280  -5.699 -14.674  1.00  0.00     0.258 C 
HETATM   12  O   UNL     1     -24.502  -6.900 -14.765  1.00  0.00    -0.265 OA
BRANCH  11  13
HETATM   13  C   UNL     1     -22.975  -5.134 -14.179  1.00  0.00     0.111 C 
BRANCH  13  14
HETATM   14  C   UNL     1     -23.088  -5.003 -12.664  1.00  0.00     0.010 C 
BRANCH  14  15
HETATM   15  C   UNL     1     -21.917  -4.256 -12.037  1.00  0.00     0.001 C 
BRANCH  15  16
HETATM   16  C   UNL     1     -22.349  -3.667 -10.694  1.00  0.00     0.000 C 
BRANCH  16  17
HETATM   17  C   UNL     1     -22.607  -4.754  -9.650  1.00  0.00     0.004 C 
BRANCH  17  18
HETATM   18  C   UNL     1     -21.532  -4.799  -8.548  1.00  0.00    -0.023 C 
HETATM   19  C   UNL     1     -20.113  -4.661  -9.106  1.00  0.00     0.009 C 
HETATM   20  C   UNL     1     -21.794  -3.693  -7.525  1.00  0.00     0.009 C 
ENDBRANCH  17  18
ENDBRANCH  16  17
ENDBRANCH  15  16
ENDBRANCH  14  15
ENDBRANCH  13  14
ENDBRANCH  11  13
ENDBRANCH   1  11
TORSDOF 14
BEGIN_RES ARG D 557
REMARK  4 active torsions:
REMARK  status: ('A' for Active; 'I' for Inactive)
REMARK    1  A    between atoms: CA   and  CB  
REMARK    2  A    between atoms: CB   and  CG  
REMARK    3  A    between atoms: CG   and  CD  
REMARK    4  A    between atoms: CD   and  NE  
REMARK       I    between atoms: NE   and  CZ  
REMARK       I    between atoms: CZ   and  NH1 
REMARK       I    between atoms: CZ   and  NH2 
ROOT
ATOM      1  CA  ARG D 557     -26.217   2.705 -17.014  1.00 35.49     0.159 C 
ENDROOT
BRANCH   1   2
ATOM      2  CB  ARG D 557     -26.789   1.319 -17.183  1.00 35.49     0.034 C 
BRANCH   2   3
ATOM      3  CG  ARG D 557     -25.833   0.205 -17.177  1.00 35.49     0.027 C 
BRANCH   3   4
ATOM      4  CD  ARG D 557     -24.751   0.395 -16.184  1.00 35.49     0.116 C 
BRANCH   4   5
ATOM      5  NE  ARG D 557     -24.930  -0.434 -15.021  1.00 35.49    -0.212 N 
ATOM      6  CZ  ARG D 557     -24.137  -1.412 -14.646  1.00 35.49     0.666 C 
ATOM      7  NH1 ARG D 557     -23.062  -1.756 -15.331  1.00 35.49    -0.235 N 
ATOM      8  NH2 ARG D 557     -24.441  -2.046 -13.550  1.00 35.49    -0.235 N 
ATOM      9  HH  ARG D 557     -22.841  -1.352 -16.054  1.00 35.49     0.174 HD
ATOM     10  HH  ARG D 557     -22.580  -2.401 -15.036  1.00 35.49     0.174 HD
ATOM     11  HH  ARG D 557     -25.137  -1.797 -13.125  1.00 35.49     0.174 HD
ATOM     12  HH  ARG D 557     -23.951  -2.680 -13.274  1.00 35.49     0.174 HD
ATOM     13  HE  ARG D 557     -25.638  -0.329 -14.561  1.00 35.49     0.178 HD
ENDBRANCH   4   5
ENDBRANCH   3   4
ENDBRANCH   2   3
ENDBRANCH   1   2
END_RES ARG D 557
BEGIN_RES GLU D 570
REMARK  3 active torsions:
REMARK  status: ('A' for Active; 'I' for Inactive)
REMARK    5  A    between atoms: CA   and  CB  
REMARK    6  A    between atoms: CB   and  CG  
REMARK    7  A    between atoms: CG   and  CD  
ROOT
ATOM     14  CA  GLU D 570     -18.033  -6.348 -13.375  1.00 32.92     0.160 C 
ENDROOT
BRANCH  14  15
ATOM     15  CB  GLU D 570     -19.500  -6.345 -13.794  1.00 32.92     0.043 C 
BRANCH  15  16
ATOM     16  CG  GLU D 570     -20.102  -7.645 -14.187  1.00 32.92     0.100 C 
BRANCH  16  17
ATOM     17  CD  GLU D 570     -20.688  -7.626 -15.580  1.00 32.92     0.185 C 
ATOM     18  OE1 GLU D 570     -21.279  -8.639 -16.002  1.00 32.92    -0.647 OA
ATOM     19  OE2 GLU D 570     -20.541  -6.593 -16.262  1.00 32.92    -0.647 OA
ENDBRANCH  16  17
ENDBRANCH  15  16
ENDBRANCH  14  15
END_RES GLU D 570
ENDMDL
MODEL 4
REMARK VINA RESULT:      -6.5      2.026      2.746
REMARK  14 active torsions:
REMARK  status: ('A' for Active; 'I' for Inactive)
REMARK    1  A    between atoms: C_2  and  C_4 
REMARK    2  A    between atoms: C_4  and  C_5 
REMARK    3  A    between atoms: C_5  and  C_6 
REMARK    4  A    between atoms: C_6  and  C_7 
REMARK    5  A    between atoms: C_7  and  C_8 
REMARK    6  A    between atoms: C_8  and  C_9 
REMARK    7  A    between atoms: C_9  and  O_10 
REMARK    8  A    between atoms: O_10  and  C_11 
REMARK    9  A    between atoms: C_11  and  C_13 
REMARK   10  A    between atoms: C_13  and  C_14 
REMARK   11  A    between atoms: C_14  and  C_15 
REMARK   12  A    between atoms: C_15  and  C_16 
REMARK   13  A    between atoms: C_16  and  C_17 
REMARK   14  A    between atoms: C_17  and  C_18 
ROOT
HETATM    1  O   UNL     1     -21.499  -6.222  -5.531  1.00  0.00    -0.321 OA
ENDROOT
BRANCH   1   2
HETATM    2  C   UNL     1     -21.596  -7.557  -5.014  1.00  0.00     0.178 C 
BRANCH   2   3
HETATM    3  C   UNL     1     -21.529  -7.641  -3.492  1.00  0.00     0.027 C 
BRANCH   3   4
HETATM    4  C   UNL     1     -21.796  -6.296  -2.825  1.00  0.00     0.002 C 
BRANCH   4   5
HETATM    5  C   UNL     1     -22.250  -6.491  -1.378  1.00  0.00     0.000 C 
BRANCH   5   6
HETATM    6  C   UNL     1     -21.675  -7.782  -0.804  1.00  0.00     0.000 C 
BRANCH   6   7
HETATM    7  C   UNL     1     -22.748  -8.609  -0.093  1.00  0.00     0.004 C 
BRANCH   7   8
HETATM    8  C   UNL     1     -22.674 -10.110  -0.426  1.00  0.00    -0.023 C 
HETATM    9  C   UNL     1     -21.525 -10.757   0.349  1.00  0.00     0.009 C 
HETATM   10  C   UNL     1     -23.982 -10.844  -0.118  1.00  0.00     0.009 C 
ENDBRANCH   7   8
ENDBRANCH   6   7
ENDBRANCH   5   6
ENDBRANCH   4   5
ENDBRANCH   3   4
ENDBRANCH   2   3
ENDBRANCH   1   2
BRANCH   1  11
HETATM   11  C   UNL     1     -20.389  -5.962  -6.270  1.00  0.00     0.258 C 
HETATM   12  O   UNL     1     -19.674  -6.804  -6.798  1.00  0.00    -0.265 OA
BRANCH  11  13
HETATM   13  C   UNL     1     -20.217  -4.480  -6.481  1.00  0.00     0.111 C 
BRANCH  13  14
HETATM   14  C   UNL     1     -19.829  -4.276  -7.941  1.00  0.00     0.010 C 
BRANCH  14  15
HETATM   15  C   UNL     1     -21.003  -4.428  -8.901  1.00  0.00     0.001 C 
BRANCH  15  16
HETATM   16  C   UNL     1     -20.493  -4.384 -10.342  1.00  0.00     0.000 C 
BRANCH  16  17
HETATM   17  C   UNL     1     -21.295  -3.408 -11.202  1.00  0.00     0.004 C 
BRANCH  17  18
HETATM   18  C   UNL     1     -22.209  -4.113 -12.222  1.00  0.00    -0.023 C 
HETATM   19  C   UNL     1     -23.411  -4.790 -11.561  1.00  0.00     0.009 C 
HETATM   20  C   UNL     1     -22.693  -3.104 -13.265  1.00  0.00     0.009 C 
ENDBRANCH  17  18
ENDBRANCH  16  17
ENDBRANCH  15  16
ENDBRANCH  14  15
ENDBRANCH  13  14
ENDBRANCH  11  13
ENDBRANCH   1  11
TORSDOF 14
BEGIN_RES ARG D 557
REMARK  4 active torsions:
REMARK  status: ('A' for Active; 'I' for Inactive)
REMARK    1  A    between atoms: CA   and  CB  
REMARK    2  A    between atoms: CB   and  CG  
REMARK    3  A    between atoms: CG   and  CD  
REMARK    4  A    between atoms: CD   and  NE  
REMARK       I    between atoms: NE   and  CZ  
REMARK       I    between atoms: CZ   and  NH1 
REMARK       I    between atoms: CZ   and  NH2 
ROOT
ATOM      1  CA  ARG D 557     -26.217   2.705 -17.014  1.00 35.49     0.159 C 
ENDROOT
BRANCH   1   2
ATOM      2  CB  ARG D 557     -26.789   1.319 -17.183  1.00 35.49     0.034 C 
BRANCH   2   3
ATOM      3  CG  ARG D 557     -28.238   1.224 -17.398  1.00 35.49     0.027 C 
BRANCH   3   4
ATOM      4  CD  ARG D 557     -28.887   0.278 -16.461  1.00 35.49     0.116 C 
BRANCH   4   5
ATOM      5  NE  ARG D 557     -29.272  -0.948 -17.108  1.00 35.49    -0.212 N 
ATOM      6  CZ  ARG D 557     -28.639  -2.096 -17.017  1.00 35.49     0.666 C 
ATOM      7  NH1 ARG D 557     -27.536  -2.244 -16.307  1.00 35.49    -0.235 N 
ATOM      8  NH2 ARG D 557     -29.144  -3.112 -17.655  1.00 35.49    -0.235 N 
ATOM      9  HH  ARG D 557     -27.188  -1.589 -15.877  1.00 35.49     0.174 HD
ATOM     10  HH  ARG D 557     -27.168  -3.017 -16.282  1.00 35.49     0.174 HD
ATOM     11  HH  ARG D 557     -29.861  -2.989 -18.100  1.00 35.49     0.174 HD
ATOM     12  HH  ARG D 557     -28.766  -3.870 -17.617  1.00 35.49     0.174 HD
ATOM     13  HE  ARG D 557     -29.931  -0.926 -17.644  1.00 35.49     0.178 HD
ENDBRANCH   4   5
ENDBRANCH   3   4
ENDBRANCH   2   3
ENDBRANCH   1   2
END_RES ARG D 557
BEGIN_RES GLU D 570
REMARK  3 active torsions:
REMARK  status: ('A' for Active; 'I' for Inactive)
REMARK    5  A    between atoms: CA   and  CB  
REMARK    6  A    between atoms: CB   and  CG  
REMARK    7  A    between atoms: CG   and  CD  
ROOT
ATOM     14  CA  GLU D 570     -18.033  -6.348 -13.375  1.00 32.92     0.160 C 
ENDROOT
BRANCH  14  15
ATOM     15  CB  GLU D 570     -19.500  -6.345 -13.794  1.00 32.92     0.043 C 
BRANCH  15  16
ATOM     16  CG  GLU D 570     -19.805  -6.050 -15.218  1.00 32.92     0.100 C 
BRANCH  16  17
ATOM     17  CD  GLU D 570     -21.270  -5.776 -15.463  1.00 32.92     0.185 C 
ATOM     18  OE1 GLU D 570     -22.121  -6.525 -14.945  1.00 32.92    -0.647 OA
ATOM     19  OE2 GLU D 570     -21.571  -4.812 -16.194  1.00 32.92    -0.647 OA
ENDBRANCH  16  17
ENDBRANCH  15  16
ENDBRANCH  14  15
END_RES GLU D 570
ENDMDL
MODEL 5
REMARK VINA RESULT:      -6.5      1.133      1.976
REMARK  14 active torsions:
REMARK  status: ('A' for Active; 'I' for Inactive)
REMARK    1  A    between atoms: C_2  and  C_4 
REMARK    2  A    between atoms: C_4  and  C_5 
REMARK    3  A    between atoms: C_5  and  C_6 
REMARK    4  A    between atoms: C_6  and  C_7 
REMARK    5  A    between atoms: C_7  and  C_8 
REMARK    6  A    between atoms: C_8  and  C_9 
REMARK    7  A    between atoms: C_9  and  O_10 
REMARK    8  A    between atoms: O_10  and  C_11 
REMARK    9  A    between atoms: C_11  and  C_13 
REMARK   10  A    between atoms: C_13  and  C_14 
REMARK   11  A    between atoms: C_14  and  C_15 
REMARK   12  A    between atoms: C_15  and  C_16 
REMARK   13  A    between atoms: C_16  and  C_17 
REMARK   14  A    between atoms: C_17  and  C_18 
ROOT
HETATM    1  O   UNL     1     -22.032  -7.676  -4.075  1.00  0.00    -0.321 OA
ENDROOT
BRANCH   1   2
HETATM    2  C   UNL     1     -20.821  -7.937  -3.351  1.00  0.00     0.178 C 
BRANCH   2   3
HETATM    3  C   UNL     1     -20.771  -7.294  -1.969  1.00  0.00     0.027 C 
BRANCH   3   4
HETATM    4  C   UNL     1     -22.135  -6.781  -1.518  1.00  0.00     0.002 C 
BRANCH   4   5
HETATM    5  C   UNL     1     -22.638  -7.573  -0.311  1.00  0.00     0.000 C 
BRANCH   5   6
HETATM    6  C   UNL     1     -21.525  -8.445   0.262  1.00  0.00     0.000 C 
BRANCH   6   7
HETATM    7  C   UNL     1     -21.878  -9.931   0.182  1.00  0.00     0.004 C 
BRANCH   7   8
HETATM    8  C   UNL     1     -23.083 -10.218  -0.730  1.00  0.00    -0.023 C 
HETATM    9  C   UNL     1     -22.607 -10.867  -2.031  1.00  0.00     0.009 C 
HETATM   10  C   UNL     1     -24.127 -11.115  -0.060  1.00  0.00     0.009 C 
ENDBRANCH   7   8
ENDBRANCH   6   7
ENDBRANCH   5   6
ENDBRANCH   4   5
ENDBRANCH   3   4
ENDBRANCH   2   3
ENDBRANCH   1   2
BRANCH   1  11
HETATM   11  C   UNL     1     -21.964  -6.667  -4.981  1.00  0.00     0.258 C 
HETATM   12  O   UNL     1     -22.873  -5.890  -5.248  1.00  0.00    -0.265 OA
BRANCH  11  13
HETATM   13  C   UNL     1     -20.569  -6.528  -5.531  1.00  0.00     0.111 C 
BRANCH  13  14
HETATM   14  C   UNL     1     -20.256  -5.037  -5.592  1.00  0.00     0.010 C 
BRANCH  14  15
HETATM   15  C   UNL     1     -19.545  -4.625  -6.875  1.00  0.00     0.001 C 
BRANCH  15  16
HETATM   16  C   UNL     1     -20.155  -5.376  -8.060  1.00  0.00     0.000 C 
BRANCH  16  17
HETATM   17  C   UNL     1     -20.437  -4.448  -9.241  1.00  0.00     0.004 C 
BRANCH  17  18
HETATM   18  C   UNL     1     -21.927  -4.401  -9.630  1.00  0.00    -0.023 C 
HETATM   19  C   UNL     1     -22.845  -4.237  -8.416  1.00  0.00     0.009 C 
HETATM   20  C   UNL     1     -22.167  -3.258 -10.617  1.00  0.00     0.009 C 
ENDBRANCH  17  18
ENDBRANCH  16  17
ENDBRANCH  15  16
ENDBRANCH  14  15
ENDBRANCH  13  14
ENDBRANCH  11  13
ENDBRANCH   1  11
TORSDOF 14
BEGIN_RES ARG D 557
REMARK  4 active torsions:
REMARK  status: ('A' for Active; 'I' for Inactive)
REMARK    1  A    between atoms: CA   and  CB  
REMARK    2  A    between atoms: CB   and  CG  
REMARK    3  A    between atoms: CG   and  CD  
REMARK    4  A    between atoms: CD   and  NE  
REMARK       I    between atoms: NE   and  CZ  
REMARK       I    between atoms: CZ   and  NH1 
REMARK       I    between atoms: CZ   and  NH2 
ROOT
ATOM      1  CA  ARG D 557     -26.217   2.705 -17.014  1.00 35.49     0.159 C 
ENDROOT
BRANCH   1   2
ATOM      2  CB  ARG D 557     -26.789   1.319 -17.183  1.00 35.49     0.034 C 
BRANCH   2   3
ATOM      3  CG  ARG D 557     -25.870   0.194 -16.970  1.00 35.49     0.027 C 
BRANCH   3   4
ATOM      4  CD  ARG D 557     -26.265  -0.647 -15.818  1.00 35.49     0.116 C 
BRANCH   4   5
ATOM      5  NE  ARG D 557     -25.134  -1.033 -15.016  1.00 35.49    -0.212 N 
ATOM      6  CZ  ARG D 557     -24.920  -2.230 -14.515  1.00 35.49     0.666 C 
ATOM      7  NH1 ARG D 557     -25.759  -3.233 -14.693  1.00 35.49    -0.235 N 
ATOM      8  NH2 ARG D 557     -23.829  -2.407 -13.829  1.00 35.49    -0.235 N 
ATOM      9  HH  ARG D 557     -26.482  -3.140 -15.143  1.00 35.49     0.174 HD
ATOM     10  HH  ARG D 557     -25.565  -3.992 -14.345  1.00 35.49     0.174 HD
ATOM     11  HH  ARG D 557     -23.302  -1.742 -13.736  1.00 35.49     0.174 HD
ATOM     12  HH  ARG D 557     -23.654  -3.166 -13.493  1.00 35.49     0.174 HD
ATOM     13  HE  ARG D 557     -24.579  -0.429 -14.791  1.00 35.49     0.178 HD
ENDBRANCH   4   5
ENDBRANCH   3   4
ENDBRANCH   2   3
ENDBRANCH   1   2
END_RES ARG D 557
BEGIN_RES GLU D 570
REMARK  3 active torsions:
REMARK  status: ('A' for Active; 'I' for Inactive)
REMARK    5  A    between atoms: CA   and  CB  
REMARK    6  A    between atoms: CB   and  CG  
REMARK    7  A    between atoms: CG   and  CD  
ROOT
ATOM     14  CA  GLU D 570     -18.033  -6.348 -13.375  1.00 32.92     0.160 C 
ENDROOT
BRANCH  14  15
ATOM     15  CB  GLU D 570     -19.500  -6.345 -13.794  1.00 32.92     0.043 C 
BRANCH  15  16
ATOM     16  CG  GLU D 570     -20.435  -5.499 -13.008  1.00 32.92     0.100 C 
BRANCH  16  17
ATOM     17  CD  GLU D 570     -21.703  -5.167 -13.759  1.00 32.92     0.185 C 
ATOM     18  OE1 GLU D 570     -22.803  -5.373 -13.211  1.00 32.92    -0.647 OA
ATOM     19  OE2 GLU D 570     -21.595  -4.711 -14.915  1.00 32.92    -0.647 OA
ENDBRANCH  16  17
ENDBRANCH  15  16
ENDBRANCH  14  15
END_RES GLU D 570
ENDMDL
MODEL 6
REMARK VINA RESULT:      -6.5      5.270     10.151
REMARK  14 active torsions:
REMARK  status: ('A' for Active; 'I' for Inactive)
REMARK    1  A    between atoms: C_2  and  C_4 
REMARK    2  A    between atoms: C_4  and  C_5 
REMARK    3  A    between atoms: C_5  and  C_6 
REMARK    4  A    between atoms: C_6  and  C_7 
REMARK    5  A    between atoms: C_7  and  C_8 
REMARK    6  A    between atoms: C_8  and  C_9 
REMARK    7  A    between atoms: C_9  and  O_10 
REMARK    8  A    between atoms: O_10  and  C_11 
REMARK    9  A    between atoms: C_11  and  C_13 
REMARK   10  A    between atoms: C_13  and  C_14 
REMARK   11  A    between atoms: C_14  and  C_15 
REMARK   12  A    between atoms: C_15  and  C_16 
REMARK   13  A    between atoms: C_16  and  C_17 
REMARK   14  A    between atoms: C_17  and  C_18 
ROOT
HETATM    1  O   UNL     1     -23.400  -5.094 -14.908  1.00  0.00    -0.321 OA
ENDROOT
BRANCH   1   2
HETATM    2  C   UNL     1     -24.031  -6.369 -14.724  1.00  0.00     0.178 C 
BRANCH   2   3
HETATM    3  C   UNL     1     -24.531  -7.007 -16.016  1.00  0.00     0.027 C 
BRANCH   3   4
HETATM    4  C   UNL     1     -25.874  -6.439 -16.462  1.00  0.00     0.002 C 
BRANCH   4   5
HETATM    5  C   UNL     1     -27.021  -7.084 -15.683  1.00  0.00     0.000 C 
BRANCH   5   6
HETATM    6  C   UNL     1     -28.345  -6.402 -16.015  1.00  0.00     0.000 C 
BRANCH   6   7
HETATM    7  C   UNL     1     -28.453  -6.078 -17.506  1.00  0.00     0.004 C 
BRANCH   7   8
HETATM    8  C   UNL     1     -29.893  -6.172 -18.041  1.00  0.00    -0.023 C 
HETATM    9  C   UNL     1     -30.232  -7.627 -18.366  1.00  0.00     0.009 C 
HETATM   10  C   UNL     1     -30.923  -5.610 -17.058  1.00  0.00     0.009 C 
ENDBRANCH   7   8
ENDBRANCH   6   7
ENDBRANCH   5   6
ENDBRANCH   4   5
ENDBRANCH   3   4
ENDBRANCH   2   3
ENDBRANCH   1   2
BRANCH   1  11
HETATM   11  C   UNL     1     -23.979  -4.056 -14.251  1.00  0.00     0.258 C 
HETATM   12  O   UNL     1     -24.710  -3.215 -14.759  1.00  0.00    -0.265 OA
BRANCH  11  13
HETATM   13  C   UNL     1     -23.719  -4.142 -12.770  1.00  0.00     0.111 C 
BRANCH  13  14
HETATM   14  C   UNL     1     -22.208  -4.092 -12.575  1.00  0.00     0.010 C 
BRANCH  14  15
HETATM   15  C   UNL     1     -21.762  -2.998 -11.614  1.00  0.00     0.001 C 
BRANCH  15  16
HETATM   16  C   UNL     1     -20.376  -3.338 -11.061  1.00  0.00     0.000 C 
BRANCH  16  17
HETATM   17  C   UNL     1     -20.428  -4.494 -10.062  1.00  0.00     0.004 C 
BRANCH  17  18
HETATM   18  C   UNL     1     -20.673  -4.029  -8.614  1.00  0.00    -0.023 C 
HETATM   19  C   UNL     1     -22.073  -4.388  -8.112  1.00  0.00     0.009 C 
HETATM   20  C   UNL     1     -19.620  -4.643  -7.690  1.00  0.00     0.009 C 
ENDBRANCH  17  18
ENDBRANCH  16  17
ENDBRANCH  15  16
ENDBRANCH  14  15
ENDBRANCH  13  14
ENDBRANCH  11  13
ENDBRANCH   1  11
TORSDOF 14
BEGIN_RES ARG D 557
REMARK  4 active torsions:
REMARK  status: ('A' for Active; 'I' for Inactive)
REMARK    1  A    between atoms: CA   and  CB  
REMARK    2  A    between atoms: CB   and  CG  
REMARK    3  A    between atoms: CG   and  CD  
REMARK    4  A    between atoms: CD   and  NE  
REMARK       I    between atoms: NE   and  CZ  
REMARK       I    between atoms: CZ   and  NH1 
REMARK       I    between atoms: CZ   and  NH2 
ROOT
ATOM      1  CA  ARG D 557     -26.217   2.705 -17.014  1.00 35.49     0.159 C 
ENDROOT
BRANCH   1   2
ATOM      2  CB  ARG D 557     -26.789   1.319 -17.183  1.00 35.49     0.034 C 
BRANCH   2   3
ATOM      3  CG  ARG D 557     -28.228   1.227 -17.460  1.00 35.49     0.027 C 
BRANCH   3   4
ATOM      4  CD  ARG D 557     -28.911   0.255 -16.577  1.00 35.49     0.116 C 
BRANCH   4   5
ATOM      5  NE  ARG D 557     -28.045  -0.827 -16.188  1.00 35.49    -0.212 N 
ATOM      6  CZ  ARG D 557     -28.143  -2.073 -16.596  1.00 35.49     0.666 C 
ATOM      7  NH1 ARG D 557     -29.089  -2.477 -17.423  1.00 35.49    -0.235 N 
ATOM      8  NH2 ARG D 557     -27.256  -2.919 -16.158  1.00 35.49    -0.235 N 
ATOM      9  HH  ARG D 557     -29.682  -1.936 -17.726  1.00 35.49     0.174 HD
ATOM     10  HH  ARG D 557     -29.101  -3.301 -17.657  1.00 35.49     0.174 HD
ATOM     11  HH  ARG D 557     -26.652  -2.628 -15.630  1.00 35.49     0.174 HD
ATOM     12  HH  ARG D 557     -27.284  -3.731 -16.402  1.00 35.49     0.174 HD
ATOM     13  HE  ARG D 557     -27.451  -0.672 -15.601  1.00 35.49     0.178 HD
ENDBRANCH   4   5
ENDBRANCH   3   4
ENDBRANCH   2   3
ENDBRANCH   1   2
END_RES ARG D 557
BEGIN_RES GLU D 570
REMARK  3 active torsions:
REMARK  status: ('A' for Active; 'I' for Inactive)
REMARK    5  A    between atoms: CA   and  CB  
REMARK    6  A    between atoms: CB   and  CG  
REMARK    7  A    between atoms: CG   and  CD  
ROOT
ATOM     14  CA  GLU D 570     -18.033  -6.348 -13.375  1.00 32.92     0.160 C 
ENDROOT
BRANCH  14  15
ATOM     15  CB  GLU D 570     -19.500  -6.345 -13.794  1.00 32.92     0.043 C 
BRANCH  15  16
ATOM     16  CG  GLU D 570     -20.081  -7.630 -14.261  1.00 32.92     0.100 C 
BRANCH  16  17
ATOM     17  CD  GLU D 570     -20.686  -7.537 -15.642  1.00 32.92     0.185 C 
ATOM     18  OE1 GLU D 570     -20.589  -6.467 -16.274  1.00 32.92    -0.647 OA
ATOM     19  OE2 GLU D 570     -21.279  -8.538 -16.090  1.00 32.92    -0.647 OA
ENDBRANCH  16  17
ENDBRANCH  15  16
ENDBRANCH  14  15
END_RES GLU D 570
ENDMDL
MODEL 7
REMARK VINA RESULT:      -6.5      1.584      1.926
REMARK  14 active torsions:
REMARK  status: ('A' for Active; 'I' for Inactive)
REMARK    1  A    between atoms: C_2  and  C_4 
REMARK    2  A    between atoms: C_4  and  C_5 
REMARK    3  A    between atoms: C_5  and  C_6 
REMARK    4  A    between atoms: C_6  and  C_7 
REMARK    5  A    between atoms: C_7  and  C_8 
REMARK    6  A    between atoms: C_8  and  C_9 
REMARK    7  A    between atoms: C_9  and  O_10 
REMARK    8  A    between atoms: O_10  and  C_11 
REMARK    9  A    between atoms: C_11  and  C_13 
REMARK   10  A    between atoms: C_13  and  C_14 
REMARK   11  A    between atoms: C_14  and  C_15 
REMARK   12  A    between atoms: C_15  and  C_16 
REMARK   13  A    between atoms: C_16  and  C_17 
REMARK   14  A    between atoms: C_17  and  C_18 
ROOT
HETATM    1  O   UNL     1     -21.066  -7.357  -6.071  1.00  0.00    -0.321 OA
ENDROOT
BRANCH   1   2
HETATM    2  C   UNL     1     -20.088  -8.039  -5.274  1.00  0.00     0.178 C 
BRANCH   2   3
HETATM    3  C   UNL     1     -20.683  -8.938  -4.194  1.00  0.00     0.027 C 
BRANCH   3   4
HETATM    4  C   UNL     1     -19.949  -8.811  -2.864  1.00  0.00     0.002 C 
BRANCH   4   5
HETATM    5  C   UNL     1     -20.420  -7.573  -2.101  1.00  0.00     0.000 C 
BRANCH   5   6
HETATM    6  C   UNL     1     -21.931  -7.610  -1.898  1.00  0.00     0.000 C 
BRANCH   6   7
HETATM    7  C   UNL     1     -22.325  -7.104  -0.509  1.00  0.00     0.004 C 
BRANCH   7   8
HETATM    8  C   UNL     1     -22.534  -8.238   0.510  1.00  0.00    -0.023 C 
HETATM    9  C   UNL     1     -23.047  -9.490  -0.204  1.00  0.00     0.009 C 
HETATM   10  C   UNL     1     -21.257  -8.574   1.285  1.00  0.00     0.009 C 
ENDBRANCH   7   8
ENDBRANCH   6   7
ENDBRANCH   5   6
ENDBRANCH   4   5
ENDBRANCH   3   4
ENDBRANCH   2   3
ENDBRANCH   1   2
BRANCH   1  11
HETATM   11  C   UNL     1     -21.632  -6.266  -5.493  1.00  0.00     0.258 C 
HETATM   12  O   UNL     1     -22.770  -6.210  -5.046  1.00  0.00    -0.265 OA
BRANCH  11  13
HETATM   13  C   UNL     1     -20.628  -5.153  -5.343  1.00  0.00     0.111 C 
BRANCH  13  14
HETATM   14  C   UNL     1     -20.322  -4.631  -6.742  1.00  0.00     0.010 C 
BRANCH  14  15
HETATM   15  C   UNL     1     -21.500  -3.909  -7.385  1.00  0.00     0.001 C 
BRANCH  15  16
HETATM   16  C   UNL     1     -21.876  -4.610  -8.691  1.00  0.00     0.000 C 
BRANCH  16  17
HETATM   17  C   UNL     1     -22.443  -3.633  -9.720  1.00  0.00     0.004 C 
BRANCH  17  18
HETATM   18  C   UNL     1     -21.646  -3.617 -11.039  1.00  0.00    -0.023 C 
HETATM   19  C   UNL     1     -20.282  -4.297 -10.908  1.00  0.00     0.009 C 
HETATM   20  C   UNL     1     -22.459  -4.298 -12.142  1.00  0.00     0.009 C 
ENDBRANCH  17  18
ENDBRANCH  16  17
ENDBRANCH  15  16
ENDBRANCH  14  15
ENDBRANCH  13  14
ENDBRANCH  11  13
ENDBRANCH   1  11
TORSDOF 14
BEGIN_RES ARG D 557
REMARK  4 active torsions:
REMARK  status: ('A' for Active; 'I' for Inactive)
REMARK    1  A    between atoms: CA   and  CB  
REMARK    2  A    between atoms: CB   and  CG  
REMARK    3  A    between atoms: CG   and  CD  
REMARK    4  A    between atoms: CD   and  NE  
REMARK       I    between atoms: NE   and  CZ  
REMARK       I    between atoms: CZ   and  NH1 
REMARK       I    between atoms: CZ   and  NH2 
ROOT
ATOM      1  CA  ARG D 557     -26.217   2.705 -17.014  1.00 35.49     0.159 C 
ENDROOT
BRANCH   1   2
ATOM      2  CB  ARG D 557     -26.789   1.319 -17.183  1.00 35.49     0.034 C 
BRANCH   2   3
ATOM      3  CG  ARG D 557     -28.177   1.119 -16.747  1.00 35.49     0.027 C 
BRANCH   3   4
ATOM      4  CD  ARG D 557     -28.577  -0.306 -16.776  1.00 35.49     0.116 C 
BRANCH   4   5
ATOM      5  NE  ARG D 557     -27.638  -1.148 -16.083  1.00 35.49    -0.212 N 
ATOM      6  CZ  ARG D 557     -27.548  -2.454 -16.196  1.00 35.49     0.666 C 
ATOM      7  NH1 ARG D 557     -28.350  -3.155 -16.976  1.00 35.49    -0.235 N 
ATOM      8  NH2 ARG D 557     -26.621  -3.054 -15.507  1.00 35.49    -0.235 N 
ATOM      9  HH  ARG D 557     -28.966  -2.781 -17.440  1.00 35.49     0.174 HD
ATOM     10  HH  ARG D 557     -28.243  -4.004 -17.011  1.00 35.49     0.174 HD
ATOM     11  HH  ARG D 557     -26.113  -2.575 -15.018  1.00 35.49     0.174 HD
ATOM     12  HH  ARG D 557     -26.530  -3.895 -15.557  1.00 35.49     0.174 HD
ATOM     13  HE  ARG D 557     -27.130  -0.787 -15.504  1.00 35.49     0.178 HD
ENDBRANCH   4   5
ENDBRANCH   3   4
ENDBRANCH   2   3
ENDBRANCH   1   2
END_RES ARG D 557
BEGIN_RES GLU D 570
REMARK  3 active torsions:
REMARK  status: ('A' for Active; 'I' for Inactive)
REMARK    5  A    between atoms: CA   and  CB  
REMARK    6  A    between atoms: CB   and  CG  
REMARK    7  A    between atoms: CG   and  CD  
ROOT
ATOM     14  CA  GLU D 570     -18.033  -6.348 -13.375  1.00 32.92     0.160 C 
ENDROOT
BRANCH  14  15
ATOM     15  CB  GLU D 570     -19.500  -6.345 -13.794  1.00 32.92     0.043 C 
BRANCH  15  16
ATOM     16  CG  GLU D 570     -19.815  -5.917 -15.182  1.00 32.92     0.100 C 
BRANCH  16  17
ATOM     17  CD  GLU D 570     -21.291  -5.684 -15.406  1.00 32.92     0.185 C 
ATOM     18  OE1 GLU D 570     -21.654  -4.676 -16.041  1.00 32.92    -0.647 OA
ATOM     19  OE2 GLU D 570     -22.092  -6.511 -14.927  1.00 32.92    -0.647 OA
ENDBRANCH  16  17
ENDBRANCH  15  16
ENDBRANCH  14  15
END_RES GLU D 570
ENDMDL
MODEL 8
REMARK VINA RESULT:      -6.5      1.750      2.633
REMARK  14 active torsions:
REMARK  status: ('A' for Active; 'I' for Inactive)
REMARK    1  A    between atoms: C_2  and  C_4 
REMARK    2  A    between atoms: C_4  and  C_5 
REMARK    3  A    between atoms: C_5  and  C_6 
REMARK    4  A    between atoms: C_6  and  C_7 
REMARK    5  A    between atoms: C_7  and  C_8 
REMARK    6  A    between atoms: C_8  and  C_9 
REMARK    7  A    between atoms: C_9  and  O_10 
REMARK    8  A    between atoms: O_10  and  C_11 
REMARK    9  A    between atoms: C_11  and  C_13 
REMARK   10  A    between atoms: C_13  and  C_14 
REMARK   11  A    between atoms: C_14  and  C_15 
REMARK   12  A    between atoms: C_15  and  C_16 
REMARK   13  A    between atoms: C_16  and  C_17 
REMARK   14  A    between atoms: C_17  and  C_18 
ROOT
HETATM    1  O   UNL     1     -21.696  -7.480  -3.974  1.00  0.00    -0.321 OA
ENDROOT
BRANCH   1   2
HETATM    2  C   UNL     1     -21.175  -7.137  -2.682  1.00  0.00     0.178 C 
BRANCH   2   3
HETATM    3  C   UNL     1     -22.185  -6.451  -1.766  1.00  0.00     0.027 C 
BRANCH   3   4
HETATM    4  C   UNL     1     -22.424  -7.231  -0.478  1.00  0.00     0.002 C 
BRANCH   4   5
HETATM    5  C   UNL     1     -21.366  -8.322  -0.301  1.00  0.00     0.000 C 
BRANCH   5   6
HETATM    6  C   UNL     1     -21.982  -9.571   0.322  1.00  0.00     0.000 C 
BRANCH   6   7
HETATM    7  C   UNL     1     -23.477  -9.675   0.012  1.00  0.00     0.004 C 
BRANCH   7   8
HETATM    8  C   UNL     1     -23.878 -11.040  -0.577  1.00  0.00    -0.023 C 
HETATM    9  C   UNL     1     -23.229 -11.223  -1.950  1.00  0.00     0.009 C 
HETATM   10  C   UNL     1     -23.493 -12.208   0.334  1.00  0.00     0.009 C 
ENDBRANCH   7   8
ENDBRANCH   6   7
ENDBRANCH   5   6
ENDBRANCH   4   5
ENDBRANCH   3   4
ENDBRANCH   2   3
ENDBRANCH   1   2
BRANCH   1  11
HETATM   11  C   UNL     1     -22.026  -6.430  -4.768  1.00  0.00     0.258 C 
HETATM   12  O   UNL     1     -23.160  -6.147  -5.137  1.00  0.00    -0.265 OA
BRANCH  11  13
HETATM   13  C   UNL     1     -20.827  -5.558  -5.035  1.00  0.00     0.111 C 
BRANCH  13  14
HETATM   14  C   UNL     1     -20.444  -5.756  -6.498  1.00  0.00     0.010 C 
BRANCH  14  15
HETATM   15  C   UNL     1     -20.137  -4.450  -7.220  1.00  0.00     0.001 C 
BRANCH  15  16
HETATM   16  C   UNL     1     -21.413  -3.614  -7.327  1.00  0.00     0.000 C 
BRANCH  16  17
HETATM   17  C   UNL     1     -22.534  -4.372  -8.038  1.00  0.00     0.004 C 
BRANCH  17  18
HETATM   18  C   UNL     1     -23.009  -3.676  -9.328  1.00  0.00    -0.023 C 
HETATM   19  C   UNL     1     -21.886  -3.517 -10.355  1.00  0.00     0.009 C 
HETATM   20  C   UNL     1     -24.165  -4.467  -9.945  1.00  0.00     0.009 C 
ENDBRANCH  17  18
ENDBRANCH  16  17
ENDBRANCH  15  16
ENDBRANCH  14  15
ENDBRANCH  13  14
ENDBRANCH  11  13
ENDBRANCH   1  11
TORSDOF 14
BEGIN_RES ARG D 557
REMARK  4 active torsions:
REMARK  status: ('A' for Active; 'I' for Inactive)
REMARK    1  A    between atoms: CA   and  CB  
REMARK    2  A    between atoms: CB   and  CG  
REMARK    3  A    between atoms: CG   and  CD  
REMARK    4  A    between atoms: CD   and  NE  
REMARK       I    between atoms: NE   and  CZ  
REMARK       I    between atoms: CZ   and  NH1 
REMARK       I    between atoms: CZ   and  NH2 
ROOT
ATOM      1  CA  ARG D 557     -26.217   2.705 -17.014  1.00 35.49     0.159 C 
ENDROOT
BRANCH   1   2
ATOM      2  CB  ARG D 557     -26.789   1.319 -17.183  1.00 35.49     0.034 C 
BRANCH   2   3
ATOM      3  CG  ARG D 557     -25.962   0.201 -16.713  1.00 35.49     0.027 C 
BRANCH   3   4
ATOM      4  CD  ARG D 557     -26.761  -0.847 -16.037  1.00 35.49     0.116 C 
BRANCH   4   5
ATOM      5  NE  ARG D 557     -28.012  -1.090 -16.705  1.00 35.49    -0.212 N 
ATOM      6  CZ  ARG D 557     -28.530  -2.271 -16.960  1.00 35.49     0.666 C 
ATOM      7  NH1 ARG D 557     -27.926  -3.397 -16.628  1.00 35.49    -0.235 N 
ATOM      8  NH2 ARG D 557     -29.686  -2.303 -17.556  1.00 35.49    -0.235 N 
ATOM      9  HH  ARG D 557     -27.165  -3.399 -16.232  1.00 35.49     0.174 HD
ATOM     10  HH  ARG D 557     -28.313  -4.138 -16.817  1.00 35.49     0.174 HD
ATOM     11  HH  ARG D 557     -30.056  -1.561 -17.752  1.00 35.49     0.174 HD
ATOM     12  HH  ARG D 557     -30.054  -3.047 -17.734  1.00 35.49     0.174 HD
ATOM     13  HE  ARG D 557     -28.434  -0.422 -17.019  1.00 35.49     0.178 HD
ENDBRANCH   4   5
ENDBRANCH   3   4
ENDBRANCH   2   3
ENDBRANCH   1   2
END_RES ARG D 557
BEGIN_RES GLU D 570
REMARK  3 active torsions:
REMARK  status: ('A' for Active; 'I' for Inactive)
REMARK    5  A    between atoms: CA   and  CB  
REMARK    6  A    between atoms: CB   and  CG  
REMARK    7  A    between atoms: CG   and  CD  
ROOT
ATOM     14  CA  GLU D 570     -18.033  -6.348 -13.375  1.00 32.92     0.160 C 
ENDROOT
BRANCH  14  15
ATOM     15  CB  GLU D 570     -19.500  -6.345 -13.794  1.00 32.92     0.043 C 
BRANCH  15  16
ATOM     16  CG  GLU D 570     -20.432  -5.486 -13.019  1.00 32.92     0.100 C 
BRANCH  16  17
ATOM     17  CD  GLU D 570     -21.713  -5.186 -13.761  1.00 32.92     0.185 C 
ATOM     18  OE1 GLU D 570     -22.800  -5.300 -13.163  1.00 32.92    -0.647 OA
ATOM     19  OE2 GLU D 570     -21.630  -4.849 -14.959  1.00 32.92    -0.647 OA
ENDBRANCH  16  17
ENDBRANCH  15  16
ENDBRANCH  14  15
END_RES GLU D 570
ENDMDL
MODEL 9
REMARK VINA RESULT:      -6.5      5.215     10.110
REMARK  14 active torsions:
REMARK  status: ('A' for Active; 'I' for Inactive)
REMARK    1  A    between atoms: C_2  and  C_4 
REMARK    2  A    between atoms: C_4  and  C_5 
REMARK    3  A    between atoms: C_5  and  C_6 
REMARK    4  A    between atoms: C_6  and  C_7 
REMARK    5  A    between atoms: C_7  and  C_8 
REMARK    6  A    between atoms: C_8  and  C_9 
REMARK    7  A    between atoms: C_9  and  O_10 
REMARK    8  A    between atoms: O_10  and  C_11 
REMARK    9  A    between atoms: C_11  and  C_13 
REMARK   10  A    between atoms: C_13  and  C_14 
REMARK   11  A    between atoms: C_14  and  C_15 
REMARK   12  A    between atoms: C_15  and  C_16 
REMARK   13  A    between atoms: C_16  and  C_17 
REMARK   14  A    between atoms: C_17  and  C_18 
ROOT
HETATM    1  O   UNL     1     -24.014  -5.255 -15.211  1.00  0.00    -0.321 OA
ENDROOT
BRANCH   1   2
HETATM    2  C   UNL     1     -24.427  -6.629 -15.204  1.00  0.00     0.178 C 
BRANCH   2   3
HETATM    3  C   UNL     1     -25.077  -7.089 -16.505  1.00  0.00     0.027 C 
BRANCH   3   4
HETATM    4  C   UNL     1     -26.302  -6.258 -16.867  1.00  0.00     0.002 C 
BRANCH   4   5
HETATM    5  C   UNL     1     -27.319  -6.264 -15.725  1.00  0.00     0.000 C 
BRANCH   5   6
HETATM    6  C   UNL     1     -28.342  -5.148 -15.910  1.00  0.00     0.000 C 
BRANCH   6   7
HETATM    7  C   UNL     1     -29.756  -5.704 -16.086  1.00  0.00     0.004 C 
BRANCH   7   8
HETATM    8  C   UNL     1     -30.204  -5.760 -17.558  1.00  0.00    -0.023 C 
HETATM    9  C   UNL     1     -29.404  -4.750 -18.382  1.00  0.00     0.009 C 
HETATM   10  C   UNL     1     -30.051  -7.157 -18.165  1.00  0.00     0.009 C 
ENDBRANCH   7   8
ENDBRANCH   6   7
ENDBRANCH   5   6
ENDBRANCH   4   5
ENDBRANCH   3   4
ENDBRANCH   2   3
ENDBRANCH   1   2
BRANCH   1  11
HETATM   11  C   UNL     1     -23.071  -4.924 -14.291  1.00  0.00     0.258 C 
HETATM   12  O   UNL     1     -22.174  -4.106 -14.456  1.00  0.00    -0.265 OA
BRANCH  11  13
HETATM   13  C   UNL     1     -23.346  -5.595 -12.971  1.00  0.00     0.111 C 
BRANCH  13  14
HETATM   14  C   UNL     1     -23.373  -4.503 -11.908  1.00  0.00     0.010 C 
BRANCH  14  15
HETATM   15  C   UNL     1     -23.746  -5.020 -10.524  1.00  0.00     0.001 C 
BRANCH  15  16
HETATM   16  C   UNL     1     -23.129  -4.114  -9.457  1.00  0.00     0.000 C 
BRANCH  16  17
HETATM   17  C   UNL     1     -21.939  -4.777  -8.764  1.00  0.00     0.004 C 
BRANCH  17  18
HETATM   18  C   UNL     1     -20.593  -4.111  -9.107  1.00  0.00    -0.023 C 
HETATM   19  C   UNL     1     -19.549  -4.297  -8.004  1.00  0.00     0.009 C 
HETATM   20  C   UNL     1     -20.058  -4.677 -10.424  1.00  0.00     0.009 C 
ENDBRANCH  17  18
ENDBRANCH  16  17
ENDBRANCH  15  16
ENDBRANCH  14  15
ENDBRANCH  13  14
ENDBRANCH  11  13
ENDBRANCH   1  11
TORSDOF 14
BEGIN_RES ARG D 557
REMARK  4 active torsions:
REMARK  status: ('A' for Active; 'I' for Inactive)
REMARK    1  A    between atoms: CA   and  CB  
REMARK    2  A    between atoms: CB   and  CG  
REMARK    3  A    between atoms: CG   and  CD  
REMARK    4  A    between atoms: CD   and  NE  
REMARK       I    between atoms: NE   and  CZ  
REMARK       I    between atoms: CZ   and  NH1 
REMARK       I    between atoms: CZ   and  NH2 
ROOT
ATOM      1  CA  ARG D 557     -26.217   2.705 -17.014  1.00 35.49     0.159 C 
ENDROOT
BRANCH   1   2
ATOM      2  CB  ARG D 557     -26.789   1.319 -17.183  1.00 35.49     0.034 C 
BRANCH   2   3
ATOM      3  CG  ARG D 557     -25.831   0.207 -17.200  1.00 35.49     0.027 C 
BRANCH   3   4
ATOM      4  CD  ARG D 557     -25.296  -0.097 -15.853  1.00 35.49     0.116 C 
BRANCH   4   5
ATOM      5  NE  ARG D 557     -25.853  -1.307 -15.307  1.00 35.49    -0.212 N 
ATOM      6  CZ  ARG D 557     -25.317  -2.038 -14.356  1.00 35.49     0.666 C 
ATOM      7  NH1 ARG D 557     -24.162  -1.734 -13.793  1.00 35.49    -0.235 N 
ATOM      8  NH2 ARG D 557     -25.972  -3.094 -13.969  1.00 35.49    -0.235 N 
ATOM      9  HH  ARG D 557     -23.714  -1.043 -14.031  1.00 35.49     0.174 HD
ATOM     10  HH  ARG D 557     -23.863  -2.247 -13.176  1.00 35.49     0.174 HD
ATOM     11  HH  ARG D 557     -26.719  -3.261 -14.346  1.00 35.49     0.174 HD
ATOM     12  HH  ARG D 557     -25.660  -3.588 -13.355  1.00 35.49     0.174 HD
ATOM     13  HE  ARG D 557     -26.561  -1.616 -15.663  1.00 35.49     0.178 HD
ENDBRANCH   4   5
ENDBRANCH   3   4
ENDBRANCH   2   3
ENDBRANCH   1   2
END_RES ARG D 557
BEGIN_RES GLU D 570
REMARK  3 active torsions:
REMARK  status: ('A' for Active; 'I' for Inactive)
REMARK    5  A    between atoms: CA   and  CB  
REMARK    6  A    between atoms: CB   and  CG  
REMARK    7  A    between atoms: CG   and  CD  
ROOT
ATOM     14  CA  GLU D 570     -18.033  -6.348 -13.375  1.00 32.92     0.160 C 
ENDROOT
BRANCH  14  15
ATOM     15  CB  GLU D 570     -19.500  -6.345 -13.794  1.00 32.92     0.043 C 
BRANCH  15  16
ATOM     16  CG  GLU D 570     -20.087  -7.635 -14.241  1.00 32.92     0.100 C 
BRANCH  16  17
ATOM     17  CD  GLU D 570     -20.742  -7.544 -15.600  1.00 32.92     0.185 C 
ATOM     18  OE1 GLU D 570     -21.368  -8.529 -16.036  1.00 32.92    -0.647 OA
ATOM     19  OE2 GLU D 570     -20.613  -6.483 -16.242  1.00 32.92    -0.647 OA
ENDBRANCH  16  17
ENDBRANCH  15  16
ENDBRANCH  14  15
END_RES GLU D 570
ENDMDL
