MODEL 1
REMARK VINA RESULT:      -7.2      0.000      0.000
REMARK  6 active torsions:
REMARK  status: ('A' for Active; 'I' for Inactive)
REMARK    1  A    between atoms: C_3  and  N_11 
REMARK    2  A    between atoms: C_4  and  N_8 
REMARK    3  A    between atoms: C_6  and  N_7 
REMARK    4  A    between atoms: N_11  and  C_12 
REMARK    5  A    between atoms: C_12  and  C_13 
REMARK    6  A    between atoms: C_13  and  O_14 
ROOT
HETATM    1  C   UNL     1     -20.275  -4.237  -9.626  1.00  0.00     0.025 A 
HETATM    2  C   UNL     1     -20.755  -4.352 -10.937  1.00  0.00     0.028 A 
HETATM    3  C   UNL     1     -22.127  -4.328 -11.245  1.00  0.00     0.041 A 
HETATM    4  C   UNL     1     -22.998  -4.067 -10.157  1.00  0.00     0.125 A 
HETATM    5  C   UNL     1     -22.504  -3.944  -8.834  1.00  0.00     0.061 A 
HETATM    6  C   UNL     1     -21.148  -4.092  -8.559  1.00  0.00     0.008 A 
ENDROOT
BRANCH   3   7
HETATM    7  N   UNL     1     -22.533  -4.414 -12.603  1.00  0.00    -0.289 NA
HETATM    8  H   UNL     1     -23.025  -3.558 -12.892  1.00  0.00     0.127 HD
BRANCH   7   9
HETATM    9  C   UNL     1     -23.259  -5.643 -12.990  1.00  0.00     0.118 C 
BRANCH   9  10
HETATM   10  C   UNL     1     -23.505  -5.709 -14.501  1.00  0.00     0.178 C 
BRANCH  10  11
HETATM   11  O   UNL     1     -22.852  -4.630 -15.164  1.00  0.00    -0.400 OA
HETATM   12  H   UNL     1     -22.682  -4.939 -16.074  1.00  0.00     0.209 HD
ENDBRANCH  10  11
ENDBRANCH   9  10
ENDBRANCH   7   9
ENDBRANCH   3   7
BRANCH   4  13
HETATM   13  N   UNL     1     -24.455  -3.943 -10.329  1.00  0.00    -0.114 N 
HETATM   14  O   UNL     1     -24.886  -3.117 -11.152  1.00  0.00    -0.532 OA
HETATM   15  O   UNL     1     -25.187  -4.696  -9.665  1.00  0.00    -0.532 OA
ENDBRANCH   4  13
BRANCH   6  16
HETATM   16  N   UNL     1     -20.646  -3.850  -7.277  1.00  0.00    -0.303 NA
HETATM   17  H   UNL     1     -19.674  -4.116  -7.146  1.00  0.00     0.124 HD
HETATM   18  H   UNL     1     -20.845  -2.921  -6.919  1.00  0.00     0.124 HD
ENDBRANCH   6  16
TORSDOF 6
BEGIN_RES ARG D 557
REMARK  4 active torsions:
REMARK  status: ('A' for Active; 'I' for Inactive)
REMARK    1  A    between atoms: CA   and  CB  
REMARK    2  A    between atoms: CB   and  CG  
REMARK    3  A    between atoms: CG   and  CD  
REMARK    4  A    between atoms: CD   and  NE  
REMARK       I    between atoms: NE   and  CZ  
REMARK       I    between atoms: CZ   and  NH1 
REMARK       I    between atoms: CZ   and  NH2 
ROOT
ATOM      1  CA  ARG D 557     -26.217   2.705 -17.014  1.00 35.49     0.159 C 
ENDROOT
BRANCH   1   2
ATOM      2  CB  ARG D 557     -26.789   1.319 -17.183  1.00 35.49     0.034 C 
BRANCH   2   3
ATOM      3  CG  ARG D 557     -25.856   0.196 -17.028  1.00 35.49     0.027 C 
BRANCH   3   4
ATOM      4  CD  ARG D 557     -26.191  -0.659 -15.866  1.00 35.49     0.116 C 
BRANCH   4   5
ATOM      5  NE  ARG D 557     -25.063  -0.856 -14.995  1.00 35.49    -0.212 N 
ATOM      6  CZ  ARG D 557     -24.809  -1.942 -14.299  1.00 35.49     0.666 C 
ATOM      7  NH1 ARG D 557     -25.602  -2.998 -14.320  1.00 35.49    -0.235 N 
ATOM      8  NH2 ARG D 557     -23.727  -1.953 -13.577  1.00 35.49    -0.235 N 
ATOM      9  HH  ARG D 557     -26.318  -3.013 -14.790  1.00 35.49     0.174 HD
ATOM     10  HH  ARG D 557     -25.384  -3.679 -13.848  1.00 35.49     0.174 HD
ATOM     11  HH  ARG D 557     -23.230  -1.260 -13.589  1.00 35.49     0.174 HD
ATOM     12  HH  ARG D 557     -23.528  -2.638 -13.118  1.00 35.49     0.174 HD
ATOM     13  HE  ARG D 557     -24.539  -0.199 -14.865  1.00 35.49     0.178 HD
ENDBRANCH   4   5
ENDBRANCH   3   4
ENDBRANCH   2   3
ENDBRANCH   1   2
END_RES ARG D 557
BEGIN_RES GLU D 570
REMARK  3 active torsions:
REMARK  status: ('A' for Active; 'I' for Inactive)
REMARK    5  A    between atoms: CA   and  CB  
REMARK    6  A    between atoms: CB   and  CG  
REMARK    7  A    between atoms: CG   and  CD  
ROOT
ATOM     14  CA  GLU D 570     -18.033  -6.348 -13.375  1.00 32.92     0.160 C 
ENDROOT
BRANCH  14  15
ATOM     15  CB  GLU D 570     -19.500  -6.345 -13.794  1.00 32.92     0.043 C 
BRANCH  15  16
ATOM     16  CG  GLU D 570     -20.091  -7.638 -14.225  1.00 32.92     0.100 C 
BRANCH  16  17
ATOM     17  CD  GLU D 570     -20.548  -7.626 -15.666  1.00 32.92     0.185 C 
ATOM     18  OE1 GLU D 570     -20.791  -8.708 -16.232  1.00 32.92    -0.647 OA
ATOM     19  OE2 GLU D 570     -20.647  -6.523 -16.238  1.00 32.92    -0.647 OA
ENDBRANCH  16  17
ENDBRANCH  15  16
ENDBRANCH  14  15
END_RES GLU D 570
ENDMDL
MODEL 2
REMARK VINA RESULT:      -7.1      2.605      3.404
REMARK  6 active torsions:
REMARK  status: ('A' for Active; 'I' for Inactive)
REMARK    1  A    between atoms: C_3  and  N_11 
REMARK    2  A    between atoms: C_4  and  N_8 
REMARK    3  A    between atoms: C_6  and  N_7 
REMARK    4  A    between atoms: N_11  and  C_12 
REMARK    5  A    between atoms: C_12  and  C_13 
REMARK    6  A    between atoms: C_13  and  O_14 
ROOT
HETATM    1  C   UNL     1     -24.625  -3.587  -9.497  1.00  0.00     0.025 A 
HETATM    2  C   UNL     1     -24.380  -3.230 -10.830  1.00  0.00     0.028 A 
HETATM    3  C   UNL     1     -23.084  -3.172 -11.371  1.00  0.00     0.041 A 
HETATM    4  C   UNL     1     -22.039  -3.604 -10.517  1.00  0.00     0.125 A 
HETATM    5  C   UNL     1     -22.295  -3.970  -9.171  1.00  0.00     0.061 A 
HETATM    6  C   UNL     1     -23.581  -3.901  -8.642  1.00  0.00     0.008 A 
ENDROOT
BRANCH   3   7
HETATM    7  N   UNL     1     -22.921  -2.837 -12.742  1.00  0.00    -0.289 NA
HETATM    8  H   UNL     1     -22.208  -2.104 -12.857  1.00  0.00     0.127 HD
BRANCH   7   9
HETATM    9  C   UNL     1     -24.161  -2.545 -13.494  1.00  0.00     0.118 C 
BRANCH   9  10
HETATM   10  C   UNL     1     -23.917  -1.547 -14.631  1.00  0.00     0.178 C 
BRANCH  10  11
HETATM   11  O   UNL     1     -25.006  -0.635 -14.742  1.00  0.00    -0.400 OA
HETATM   12  H   UNL     1     -25.692  -1.099 -15.260  1.00  0.00     0.209 HD
ENDBRANCH  10  11
ENDBRANCH   9  10
ENDBRANCH   7   9
ENDBRANCH   3   7
BRANCH   4  13
HETATM   13  N   UNL     1     -20.636  -3.666 -10.960  1.00  0.00    -0.114 N 
HETATM   14  O   UNL     1     -20.023  -4.739 -10.836  1.00  0.00    -0.532 OA
HETATM   15  O   UNL     1     -20.140  -2.646 -11.468  1.00  0.00    -0.532 OA
ENDBRANCH   4  13
BRANCH   6  16
HETATM   16  N   UNL     1     -23.853  -4.378  -7.357  1.00  0.00    -0.303 NA
HETATM   17  H   UNL     1     -24.131  -5.354  -7.318  1.00  0.00     0.124 HD
HETATM   18  H   UNL     1     -23.143  -4.150  -6.667  1.00  0.00     0.124 HD
ENDBRANCH   6  16
TORSDOF 6
BEGIN_RES ARG D 557
REMARK  4 active torsions:
REMARK  status: ('A' for Active; 'I' for Inactive)
REMARK    1  A    between atoms: CA   and  CB  
REMARK    2  A    between atoms: CB   and  CG  
REMARK    3  A    between atoms: CG   and  CD  
REMARK    4  A    between atoms: CD   and  NE  
REMARK       I    between atoms: NE   and  CZ  
REMARK       I    between atoms: CZ   and  NH1 
REMARK       I    between atoms: CZ   and  NH2 
ROOT
ATOM      1  CA  ARG D 557     -26.217   2.705 -17.014  1.00 35.49     0.159 C 
ENDROOT
BRANCH   1   2
ATOM      2  CB  ARG D 557     -26.789   1.319 -17.183  1.00 35.49     0.034 C 
BRANCH   2   3
ATOM      3  CG  ARG D 557     -28.213   1.149 -16.868  1.00 35.49     0.027 C 
BRANCH   3   4
ATOM      4  CD  ARG D 557     -28.646  -0.264 -16.962  1.00 35.49     0.116 C 
BRANCH   4   5
ATOM      5  NE  ARG D 557     -27.752  -1.153 -16.269  1.00 35.49    -0.212 N 
ATOM      6  CZ  ARG D 557     -27.741  -2.463 -16.368  1.00 35.49     0.666 C 
ATOM      7  NH1 ARG D 557     -28.591  -3.123 -17.133  1.00 35.49    -0.235 N 
ATOM      8  NH2 ARG D 557     -26.844  -3.110 -15.682  1.00 35.49    -0.235 N 
ATOM      9  HH  ARG D 557     -29.189  -2.718 -17.594  1.00 35.49     0.174 HD
ATOM     10  HH  ARG D 557     -28.535  -3.978 -17.160  1.00 35.49     0.174 HD
ATOM     11  HH  ARG D 557     -26.303  -2.657 -15.203  1.00 35.49     0.174 HD
ATOM     12  HH  ARG D 557     -26.803  -3.956 -15.724  1.00 35.49     0.174 HD
ATOM     13  HE  ARG D 557     -27.217  -0.817 -15.699  1.00 35.49     0.178 HD
ENDBRANCH   4   5
ENDBRANCH   3   4
ENDBRANCH   2   3
ENDBRANCH   1   2
END_RES ARG D 557
BEGIN_RES GLU D 570
REMARK  3 active torsions:
REMARK  status: ('A' for Active; 'I' for Inactive)
REMARK    5  A    between atoms: CA   and  CB  
REMARK    6  A    between atoms: CB   and  CG  
REMARK    7  A    between atoms: CG   and  CD  
ROOT
ATOM     14  CA  GLU D 570     -18.033  -6.348 -13.375  1.00 32.92     0.160 C 
ENDROOT
BRANCH  14  15
ATOM     15  CB  GLU D 570     -19.500  -6.345 -13.794  1.00 32.92     0.043 C 
BRANCH  15  16
ATOM     16  CG  GLU D 570     -19.804  -6.053 -15.219  1.00 32.92     0.100 C 
BRANCH  16  17
ATOM     17  CD  GLU D 570     -21.125  -5.344 -15.406  1.00 32.92     0.185 C 
ATOM     18  OE1 GLU D 570     -21.524  -5.102 -16.561  1.00 32.92    -0.647 OA
ATOM     19  OE2 GLU D 570     -21.760  -5.012 -14.386  1.00 32.92    -0.647 OA
ENDBRANCH  16  17
ENDBRANCH  15  16
ENDBRANCH  14  15
END_RES GLU D 570
ENDMDL
MODEL 3
REMARK VINA RESULT:      -6.9      1.446      1.833
REMARK  6 active torsions:
REMARK  status: ('A' for Active; 'I' for Inactive)
REMARK    1  A    between atoms: C_3  and  N_11 
REMARK    2  A    between atoms: C_4  and  N_8 
REMARK    3  A    between atoms: C_6  and  N_7 
REMARK    4  A    between atoms: N_11  and  C_12 
REMARK    5  A    between atoms: C_12  and  C_13 
REMARK    6  A    between atoms: C_13  and  O_14 
ROOT
HETATM    1  C   UNL     1     -20.618  -4.254 -10.141  1.00  0.00     0.025 A 
HETATM    2  C   UNL     1     -20.959  -3.836 -11.434  1.00  0.00     0.028 A 
HETATM    3  C   UNL     1     -22.281  -3.541 -11.810  1.00  0.00     0.041 A 
HETATM    4  C   UNL     1     -23.242  -3.584 -10.768  1.00  0.00     0.125 A 
HETATM    5  C   UNL     1     -22.888  -4.001  -9.460  1.00  0.00     0.061 A 
HETATM    6  C   UNL     1     -21.588  -4.397  -9.161  1.00  0.00     0.008 A 
ENDROOT
BRANCH   3   7
HETATM    7  N   UNL     1     -22.541  -3.088 -13.131  1.00  0.00    -0.289 NA
HETATM    8  H   UNL     1     -23.464  -2.639 -13.188  1.00  0.00     0.127 HD
BRANCH   7   9
HETATM    9  C   UNL     1     -22.323  -4.073 -14.213  1.00  0.00     0.118 C 
BRANCH   9  10
HETATM   10  C   UNL     1     -23.325  -5.230 -14.143  1.00  0.00     0.178 C 
BRANCH  10  11
HETATM   11  O   UNL     1     -23.629  -5.712 -15.450  1.00  0.00    -0.400 OA
HETATM   12  H   UNL     1     -23.796  -6.668 -15.349  1.00  0.00     0.209 HD
ENDBRANCH  10  11
ENDBRANCH   9  10
ENDBRANCH   7   9
ENDBRANCH   3   7
BRANCH   4  13
HETATM   13  N   UNL     1     -24.656  -3.235 -10.988  1.00  0.00    -0.114 N 
HETATM   14  O   UNL     1     -25.412  -3.182 -10.004  1.00  0.00    -0.532 OA
HETATM   15  O   UNL     1     -25.019  -2.978 -12.148  1.00  0.00    -0.532 OA
ENDBRANCH   4  13
BRANCH   6  16
HETATM   16  N   UNL     1     -21.213  -4.689  -7.847  1.00  0.00    -0.303 NA
HETATM   17  H   UNL     1     -20.757  -3.923  -7.358  1.00  0.00     0.124 HD
HETATM   18  H   UNL     1     -21.942  -5.125  -7.291  1.00  0.00     0.124 HD
ENDBRANCH   6  16
TORSDOF 6
BEGIN_RES ARG D 557
REMARK  4 active torsions:
REMARK  status: ('A' for Active; 'I' for Inactive)
REMARK    1  A    between atoms: CA   and  CB  
REMARK    2  A    between atoms: CB   and  CG  
REMARK    3  A    between atoms: CG   and  CD  
REMARK    4  A    between atoms: CD   and  NE  
REMARK       I    between atoms: NE   and  CZ  
REMARK       I    between atoms: CZ   and  NH1 
REMARK       I    between atoms: CZ   and  NH2 
ROOT
ATOM      1  CA  ARG D 557     -26.217   2.705 -17.014  1.00 35.49     0.159 C 
ENDROOT
BRANCH   1   2
ATOM      2  CB  ARG D 557     -26.789   1.319 -17.183  1.00 35.49     0.034 C 
BRANCH   2   3
ATOM      3  CG  ARG D 557     -28.182   1.123 -16.762  1.00 35.49     0.027 C 
BRANCH   3   4
ATOM      4  CD  ARG D 557     -28.493  -0.298 -16.486  1.00 35.49     0.116 C 
BRANCH   4   5
ATOM      5  NE  ARG D 557     -27.434  -0.956 -15.767  1.00 35.49    -0.212 N 
ATOM      6  CZ  ARG D 557     -27.147  -2.237 -15.825  1.00 35.49     0.666 C 
ATOM      7  NH1 ARG D 557     -27.835  -3.085 -16.566  1.00 35.49    -0.235 N 
ATOM      8  NH2 ARG D 557     -26.137  -2.658 -15.120  1.00 35.49    -0.235 N 
ATOM      9  HH  ARG D 557     -28.502  -2.830 -17.039  1.00 35.49     0.174 HD
ATOM     10  HH  ARG D 557     -27.599  -3.909 -16.566  1.00 35.49     0.174 HD
ATOM     11  HH  ARG D 557     -25.706  -2.086 -14.657  1.00 35.49     0.174 HD
ATOM     12  HH  ARG D 557     -25.918  -3.477 -15.135  1.00 35.49     0.174 HD
ATOM     13  HE  ARG D 557     -26.986  -0.497 -15.209  1.00 35.49     0.178 HD
ENDBRANCH   4   5
ENDBRANCH   3   4
ENDBRANCH   2   3
ENDBRANCH   1   2
END_RES ARG D 557
BEGIN_RES GLU D 570
REMARK  3 active torsions:
REMARK  status: ('A' for Active; 'I' for Inactive)
REMARK    5  A    between atoms: CA   and  CB  
REMARK    6  A    between atoms: CB   and  CG  
REMARK    7  A    between atoms: CG   and  CD  
ROOT
ATOM     14  CA  GLU D 570     -18.033  -6.348 -13.375  1.00 32.92     0.160 C 
ENDROOT
BRANCH  14  15
ATOM     15  CB  GLU D 570     -19.500  -6.345 -13.794  1.00 32.92     0.043 C 
BRANCH  15  16
ATOM     16  CG  GLU D 570     -20.093  -7.639 -14.219  1.00 32.92     0.100 C 
BRANCH  16  17
ATOM     17  CD  GLU D 570     -20.697  -7.585 -15.603  1.00 32.92     0.185 C 
ATOM     18  OE1 GLU D 570     -20.706  -6.501 -16.217  1.00 32.92    -0.647 OA
ATOM     19  OE2 GLU D 570     -21.181  -8.634 -16.071  1.00 32.92    -0.647 OA
ENDBRANCH  16  17
ENDBRANCH  15  16
ENDBRANCH  14  15
END_RES GLU D 570
ENDMDL
MODEL 4
REMARK VINA RESULT:      -6.8      1.892      2.271
REMARK  6 active torsions:
REMARK  status: ('A' for Active; 'I' for Inactive)
REMARK    1  A    between atoms: C_3  and  N_11 
REMARK    2  A    between atoms: C_4  and  N_8 
REMARK    3  A    between atoms: C_6  and  N_7 
REMARK    4  A    between atoms: N_11  and  C_12 
REMARK    5  A    between atoms: C_12  and  C_13 
REMARK    6  A    between atoms: C_13  and  O_14 
ROOT
HETATM    1  C   UNL     1     -20.077  -4.338  -8.566  1.00  0.00     0.025 A 
HETATM    2  C   UNL     1     -20.422  -4.265  -9.922  1.00  0.00     0.028 A 
HETATM    3  C   UNL     1     -21.756  -4.193 -10.361  1.00  0.00     0.041 A 
HETATM    4  C   UNL     1     -22.735  -4.086  -9.341  1.00  0.00     0.125 A 
HETATM    5  C   UNL     1     -22.378  -4.153  -7.971  1.00  0.00     0.061 A 
HETATM    6  C   UNL     1     -21.054  -4.342  -7.583  1.00  0.00     0.008 A 
ENDROOT
BRANCH   3   7
HETATM    7  N   UNL     1     -22.022  -4.085 -11.752  1.00  0.00    -0.289 NA
HETATM    8  H   UNL     1     -21.308  -4.583 -12.300  1.00  0.00     0.127 HD
BRANCH   7   9
HETATM    9  C   UNL     1     -22.281  -2.721 -12.262  1.00  0.00     0.118 C 
BRANCH   9  10
HETATM   10  C   UNL     1     -23.604  -2.641 -13.031  1.00  0.00     0.178 C 
BRANCH  10  11
HETATM   11  O   UNL     1     -24.223  -3.922 -13.102  1.00  0.00    -0.400 OA
HETATM   12  H   UNL     1     -23.524  -4.569 -12.886  1.00  0.00     0.209 HD
ENDBRANCH  10  11
ENDBRANCH   9  10
ENDBRANCH   7   9
ENDBRANCH   3   7
BRANCH   4  13
HETATM   13  N   UNL     1     -24.169  -3.935  -9.641  1.00  0.00    -0.114 N 
HETATM   14  O   UNL     1     -24.715  -2.848  -9.387  1.00  0.00    -0.532 OA
HETATM   15  O   UNL     1     -24.758  -4.894 -10.166  1.00  0.00    -0.532 OA
ENDBRANCH   4  13
BRANCH   6  16
HETATM   16  N   UNL     1     -20.688  -4.286  -6.236  1.00  0.00    -0.303 NA
HETATM   17  H   UNL     1     -20.002  -4.981  -5.955  1.00  0.00     0.124 HD
HETATM   18  H   UNL     1     -20.453  -3.355  -5.905  1.00  0.00     0.124 HD
ENDBRANCH   6  16
TORSDOF 6
BEGIN_RES ARG D 557
REMARK  4 active torsions:
REMARK  status: ('A' for Active; 'I' for Inactive)
REMARK    1  A    between atoms: CA   and  CB  
REMARK    2  A    between atoms: CB   and  CG  
REMARK    3  A    between atoms: CG   and  CD  
REMARK    4  A    between atoms: CD   and  NE  
REMARK       I    between atoms: NE   and  CZ  
REMARK       I    between atoms: CZ   and  NH1 
REMARK       I    between atoms: CZ   and  NH2 
ROOT
ATOM      1  CA  ARG D 557     -26.217   2.705 -17.014  1.00 35.49     0.159 C 
ENDROOT
BRANCH   1   2
ATOM      2  CB  ARG D 557     -26.789   1.319 -17.183  1.00 35.49     0.034 C 
BRANCH   2   3
ATOM      3  CG  ARG D 557     -28.214   1.151 -16.875  1.00 35.49     0.027 C 
BRANCH   3   4
ATOM      4  CD  ARG D 557     -28.582  -0.268 -16.662  1.00 35.49     0.116 C 
BRANCH   4   5
ATOM      5  NE  ARG D 557     -27.560  -0.992 -15.953  1.00 35.49    -0.212 N 
ATOM      6  CZ  ARG D 557     -27.352  -2.288 -16.018  1.00 35.49     0.666 C 
ATOM      7  NH1 ARG D 557     -28.096  -3.090 -16.757  1.00 35.49    -0.235 N 
ATOM      8  NH2 ARG D 557     -26.364  -2.773 -15.322  1.00 35.49    -0.235 N 
ATOM      9  HH  ARG D 557     -28.749  -2.792 -17.224  1.00 35.49     0.174 HD
ATOM     10  HH  ARG D 557     -27.911  -3.927 -16.762  1.00 35.49     0.174 HD
ATOM     11  HH  ARG D 557     -25.896  -2.230 -14.860  1.00 35.49     0.174 HD
ATOM     12  HH  ARG D 557     -26.196  -3.604 -15.342  1.00 35.49     0.174 HD
ATOM     13  HE  ARG D 557     -27.080  -0.564 -15.397  1.00 35.49     0.178 HD
ENDBRANCH   4   5
ENDBRANCH   3   4
ENDBRANCH   2   3
ENDBRANCH   1   2
END_RES ARG D 557
BEGIN_RES GLU D 570
REMARK  3 active torsions:
REMARK  status: ('A' for Active; 'I' for Inactive)
REMARK    5  A    between atoms: CA   and  CB  
REMARK    6  A    between atoms: CB   and  CG  
REMARK    7  A    between atoms: CG   and  CD  
ROOT
ATOM     14  CA  GLU D 570     -18.033  -6.348 -13.375  1.00 32.92     0.160 C 
ENDROOT
BRANCH  14  15
ATOM     15  CB  GLU D 570     -19.500  -6.345 -13.794  1.00 32.92     0.043 C 
BRANCH  15  16
ATOM     16  CG  GLU D 570     -19.813  -5.940 -15.189  1.00 32.92     0.100 C 
BRANCH  16  17
ATOM     17  CD  GLU D 570     -21.226  -5.432 -15.352  1.00 32.92     0.185 C 
ATOM     18  OE1 GLU D 570     -21.558  -4.904 -16.431  1.00 32.92    -0.647 OA
ATOM     19  OE2 GLU D 570     -22.004  -5.547 -14.385  1.00 32.92    -0.647 OA
ENDBRANCH  16  17
ENDBRANCH  15  16
ENDBRANCH  14  15
END_RES GLU D 570
ENDMDL
MODEL 5
REMARK VINA RESULT:      -6.5      8.314     10.650
REMARK  6 active torsions:
REMARK  status: ('A' for Active; 'I' for Inactive)
REMARK    1  A    between atoms: C_3  and  N_11 
REMARK    2  A    between atoms: C_4  and  N_8 
REMARK    3  A    between atoms: C_6  and  N_7 
REMARK    4  A    between atoms: N_11  and  C_12 
REMARK    5  A    between atoms: C_12  and  C_13 
REMARK    6  A    between atoms: C_13  and  O_14 
ROOT
HETATM    1  C   UNL     1     -33.595  -3.230 -10.612  1.00  0.00     0.025 A 
HETATM    2  C   UNL     1     -34.323  -2.058 -10.367  1.00  0.00     0.028 A 
HETATM    3  C   UNL     1     -34.994  -1.357 -11.384  1.00  0.00     0.041 A 
HETATM    4  C   UNL     1     -34.983  -1.968 -12.664  1.00  0.00     0.125 A 
HETATM    5  C   UNL     1     -34.249  -3.158 -12.903  1.00  0.00     0.061 A 
HETATM    6  C   UNL     1     -33.503  -3.755 -11.891  1.00  0.00     0.008 A 
ENDROOT
BRANCH   3   7
HETATM    7  N   UNL     1     -35.741  -0.197 -11.049  1.00  0.00    -0.289 NA
HETATM    8  H   UNL     1     -35.116   0.588 -10.825  1.00  0.00     0.127 HD
BRANCH   7   9
HETATM    9  C   UNL     1     -36.808  -0.378 -10.040  1.00  0.00     0.118 C 
BRANCH   9  10
HETATM   10  C   UNL     1     -37.220   0.952  -9.401  1.00  0.00     0.178 C 
BRANCH  10  11
HETATM   11  O   UNL     1     -36.183   1.448  -8.559  1.00  0.00    -0.400 OA
HETATM   12  H   UNL     1     -36.025   0.752  -7.892  1.00  0.00     0.209 HD
ENDBRANCH  10  11
ENDBRANCH   9  10
ENDBRANCH   7   9
ENDBRANCH   3   7
BRANCH   4  13
HETATM   13  N   UNL     1     -35.696  -1.392 -13.816  1.00  0.00    -0.114 N 
HETATM   14  O   UNL     1     -36.826  -0.909 -13.631  1.00  0.00    -0.532 OA
HETATM   15  O   UNL     1     -35.118  -1.386 -14.916  1.00  0.00    -0.532 OA
ENDBRANCH   4  13
BRANCH   6  16
HETATM   16  N   UNL     1     -32.881  -4.990 -12.094  1.00  0.00    -0.303 NA
HETATM   17  H   UNL     1     -33.385  -5.620 -12.714  1.00  0.00     0.124 HD
HETATM   18  H   UNL     1     -31.894  -4.930 -12.323  1.00  0.00     0.124 HD
ENDBRANCH   6  16
TORSDOF 6
BEGIN_RES ARG D 557
REMARK  4 active torsions:
REMARK  status: ('A' for Active; 'I' for Inactive)
REMARK    1  A    between atoms: CA   and  CB  
REMARK    2  A    between atoms: CB   and  CG  
REMARK    3  A    between atoms: CG   and  CD  
REMARK    4  A    between atoms: CD   and  NE  
REMARK       I    between atoms: NE   and  CZ  
REMARK       I    between atoms: CZ   and  NH1 
REMARK       I    between atoms: CZ   and  NH2 
ROOT
ATOM      1  CA  ARG D 557     -26.217   2.705 -17.014  1.00 35.49     0.159 C 
ENDROOT
BRANCH   1   2
ATOM      2  CB  ARG D 557     -26.789   1.319 -17.183  1.00 35.49     0.034 C 
BRANCH   2   3
ATOM      3  CG  ARG D 557     -28.231   1.226 -17.440  1.00 35.49     0.027 C 
BRANCH   3   4
ATOM      4  CD  ARG D 557     -28.914   0.305 -16.503  1.00 35.49     0.116 C 
BRANCH   4   5
ATOM      5  NE  ARG D 557     -29.277  -0.937 -17.132  1.00 35.49    -0.212 N 
ATOM      6  CZ  ARG D 557     -28.629  -2.075 -17.017  1.00 35.49     0.666 C 
ATOM      7  NH1 ARG D 557     -27.530  -2.195 -16.296  1.00 35.49    -0.235 N 
ATOM      8  NH2 ARG D 557     -29.115  -3.108 -17.641  1.00 35.49    -0.235 N 
ATOM      9  HH  ARG D 557     -27.194  -1.529 -15.875  1.00 35.49     0.174 HD
ATOM     10  HH  ARG D 557     -27.152  -2.963 -16.255  1.00 35.49     0.174 HD
ATOM     11  HH  ARG D 557     -29.831  -3.003 -18.093  1.00 35.49     0.174 HD
ATOM     12  HH  ARG D 557     -28.727  -3.860 -17.587  1.00 35.49     0.174 HD
ATOM     13  HE  ARG D 557     -29.933  -0.934 -17.673  1.00 35.49     0.178 HD
ENDBRANCH   4   5
ENDBRANCH   3   4
ENDBRANCH   2   3
ENDBRANCH   1   2
END_RES ARG D 557
BEGIN_RES GLU D 570
REMARK  3 active torsions:
REMARK  status: ('A' for Active; 'I' for Inactive)
REMARK    5  A    between atoms: CA   and  CB  
REMARK    6  A    between atoms: CB   and  CG  
REMARK    7  A    between atoms: CG   and  CD  
ROOT
ATOM     14  CA  GLU D 570     -18.033  -6.348 -13.375  1.00 32.92     0.160 C 
ENDROOT
BRANCH  14  15
ATOM     15  CB  GLU D 570     -19.500  -6.345 -13.794  1.00 32.92     0.043 C 
BRANCH  15  16
ATOM     16  CG  GLU D 570     -20.443  -5.536 -12.979  1.00 32.92     0.100 C 
BRANCH  16  17
ATOM     17  CD  GLU D 570     -21.708  -5.178 -13.724  1.00 32.92     0.185 C 
ATOM     18  OE1 GLU D 570     -22.782  -5.110 -13.095  1.00 32.92    -0.647 OA
ATOM     19  OE2 GLU D 570     -21.627  -4.981 -14.952  1.00 32.92    -0.647 OA
ENDBRANCH  16  17
ENDBRANCH  15  16
ENDBRANCH  14  15
END_RES GLU D 570
ENDMDL
MODEL 6
REMARK VINA RESULT:      -6.4      8.111     10.418
REMARK  6 active torsions:
REMARK  status: ('A' for Active; 'I' for Inactive)
REMARK    1  A    between atoms: C_3  and  N_11 
REMARK    2  A    between atoms: C_4  and  N_8 
REMARK    3  A    between atoms: C_6  and  N_7 
REMARK    4  A    between atoms: N_11  and  C_12 
REMARK    5  A    between atoms: C_12  and  C_13 
REMARK    6  A    between atoms: C_13  and  O_14 
ROOT
HETATM    1  C   UNL     1     -33.581  -3.213 -10.619  1.00  0.00     0.025 A 
HETATM    2  C   UNL     1     -34.313  -2.044 -10.376  1.00  0.00     0.028 A 
HETATM    3  C   UNL     1     -34.983  -1.345 -11.395  1.00  0.00     0.041 A 
HETATM    4  C   UNL     1     -34.968  -1.957 -12.674  1.00  0.00     0.125 A 
HETATM    5  C   UNL     1     -34.231  -3.145 -12.911  1.00  0.00     0.061 A 
HETATM    6  C   UNL     1     -33.485  -3.740 -11.897  1.00  0.00     0.008 A 
ENDROOT
BRANCH   3   7
HETATM    7  N   UNL     1     -35.734  -0.186 -11.063  1.00  0.00    -0.289 NA
HETATM    8  H   UNL     1     -35.116   0.568 -10.736  1.00  0.00     0.127 HD
BRANCH   7   9
HETATM    9  C   UNL     1     -36.895  -0.396 -10.170  1.00  0.00     0.118 C 
BRANCH   9  10
HETATM   10  C   UNL     1     -37.317   0.900  -9.469  1.00  0.00     0.178 C 
BRANCH  10  11
HETATM   11  O   UNL     1     -36.227   1.454  -8.737  1.00  0.00    -0.400 OA
HETATM   12  H   UNL     1     -36.617   2.124  -8.143  1.00  0.00     0.209 HD
ENDBRANCH  10  11
ENDBRANCH   9  10
ENDBRANCH   7   9
ENDBRANCH   3   7
BRANCH   4  13
HETATM   13  N   UNL     1     -35.680  -1.383 -13.828  1.00  0.00    -0.114 N 
HETATM   14  O   UNL     1     -35.130  -1.422 -14.942  1.00  0.00    -0.532 OA
HETATM   15  O   UNL     1     -36.815  -0.916 -13.638  1.00  0.00    -0.532 OA
ENDBRANCH   4  13
BRANCH   6  16
HETATM   16  N   UNL     1     -32.861  -4.974 -12.097  1.00  0.00    -0.303 NA
HETATM   17  H   UNL     1     -33.042  -5.662 -11.372  1.00  0.00     0.124 HD
HETATM   18  H   UNL     1     -32.978  -5.355 -13.031  1.00  0.00     0.124 HD
ENDBRANCH   6  16
TORSDOF 6
BEGIN_RES ARG D 557
REMARK  4 active torsions:
REMARK  status: ('A' for Active; 'I' for Inactive)
REMARK    1  A    between atoms: CA   and  CB  
REMARK    2  A    between atoms: CB   and  CG  
REMARK    3  A    between atoms: CG   and  CD  
REMARK    4  A    between atoms: CD   and  NE  
REMARK       I    between atoms: NE   and  CZ  
REMARK       I    between atoms: CZ   and  NH1 
REMARK       I    between atoms: CZ   and  NH2 
ROOT
ATOM      1  CA  ARG D 557     -26.217   2.705 -17.014  1.00 35.49     0.159 C 
ENDROOT
BRANCH   1   2
ATOM      2  CB  ARG D 557     -26.789   1.319 -17.183  1.00 35.49     0.034 C 
BRANCH   2   3
ATOM      3  CG  ARG D 557     -25.857   0.196 -17.026  1.00 35.49     0.027 C 
BRANCH   3   4
ATOM      4  CD  ARG D 557     -26.230  -0.694 -15.903  1.00 35.49     0.116 C 
BRANCH   4   5
ATOM      5  NE  ARG D 557     -25.166  -0.834 -14.945  1.00 35.49    -0.212 N 
ATOM      6  CZ  ARG D 557     -24.787  -1.956 -14.375  1.00 35.49     0.666 C 
ATOM      7  NH1 ARG D 557     -25.376  -3.111 -14.623  1.00 35.49    -0.235 N 
ATOM      8  NH2 ARG D 557     -23.787  -1.900 -13.544  1.00 35.49    -0.235 N 
ATOM      9  HH  ARG D 557     -26.035  -3.172 -15.168  1.00 35.49     0.174 HD
ATOM     10  HH  ARG D 557     -25.084  -3.811 -14.224  1.00 35.49     0.174 HD
ATOM     11  HH  ARG D 557     -23.421  -1.142 -13.409  1.00 35.49     0.174 HD
ATOM     12  HH  ARG D 557     -23.512  -2.604 -13.160  1.00 35.49     0.174 HD
ATOM     13  HE  ARG D 557     -24.779  -0.128 -14.672  1.00 35.49     0.178 HD
ENDBRANCH   4   5
ENDBRANCH   3   4
ENDBRANCH   2   3
ENDBRANCH   1   2
END_RES ARG D 557
BEGIN_RES GLU D 570
REMARK  3 active torsions:
REMARK  status: ('A' for Active; 'I' for Inactive)
REMARK    5  A    between atoms: CA   and  CB  
REMARK    6  A    between atoms: CB   and  CG  
REMARK    7  A    between atoms: CG   and  CD  
ROOT
ATOM     14  CA  GLU D 570     -18.033  -6.348 -13.375  1.00 32.92     0.160 C 
ENDROOT
BRANCH  14  15
ATOM     15  CB  GLU D 570     -19.500  -6.345 -13.794  1.00 32.92     0.043 C 
BRANCH  15  16
ATOM     16  CG  GLU D 570     -20.441  -5.528 -12.985  1.00 32.92     0.100 C 
BRANCH  16  17
ATOM     17  CD  GLU D 570     -21.654  -5.079 -13.767  1.00 32.92     0.185 C 
ATOM     18  OE1 GLU D 570     -22.663  -4.690 -13.148  1.00 32.92    -0.647 OA
ATOM     19  OE2 GLU D 570     -21.599  -5.132 -15.012  1.00 32.92    -0.647 OA
ENDBRANCH  16  17
ENDBRANCH  15  16
ENDBRANCH  14  15
END_RES GLU D 570
ENDMDL
MODEL 7
REMARK VINA RESULT:      -6.2      2.633      4.459
REMARK  6 active torsions:
REMARK  status: ('A' for Active; 'I' for Inactive)
REMARK    1  A    between atoms: C_3  and  N_11 
REMARK    2  A    between atoms: C_4  and  N_8 
REMARK    3  A    between atoms: C_6  and  N_7 
REMARK    4  A    between atoms: N_11  and  C_12 
REMARK    5  A    between atoms: C_12  and  C_13 
REMARK    6  A    between atoms: C_13  and  O_14 
ROOT
HETATM    1  C   UNL     1     -24.580  -3.399 -10.766  1.00  0.00     0.025 A 
HETATM    2  C   UNL     1     -24.042  -3.394  -9.473  1.00  0.00     0.028 A 
HETATM    3  C   UNL     1     -22.706  -3.743  -9.208  1.00  0.00     0.041 A 
HETATM    4  C   UNL     1     -21.898  -3.996 -10.345  1.00  0.00     0.125 A 
HETATM    5  C   UNL     1     -22.448  -3.992 -11.652  1.00  0.00     0.061 A 
HETATM    6  C   UNL     1     -23.804  -3.755 -11.858  1.00  0.00     0.008 A 
ENDROOT
BRANCH   3   7
HETATM    7  N   UNL     1     -22.225  -3.677  -7.873  1.00  0.00    -0.289 NA
HETATM    8  H   UNL     1     -21.198  -3.623  -7.857  1.00  0.00     0.127 HD
BRANCH   7   9
HETATM    9  C   UNL     1     -22.754  -4.695  -6.939  1.00  0.00     0.118 C 
BRANCH   9  10
HETATM   10  C   UNL     1     -21.629  -5.463  -6.235  1.00  0.00     0.178 C 
BRANCH  10  11
HETATM   11  O   UNL     1     -21.063  -6.436  -7.109  1.00  0.00    -0.400 OA
HETATM   12  H   UNL     1     -21.462  -6.273  -7.985  1.00  0.00     0.209 HD
ENDBRANCH  10  11
ENDBRANCH   9  10
ENDBRANCH   7   9
ENDBRANCH   3   7
BRANCH   4  13
HETATM   13  N   UNL     1     -20.463  -4.307 -10.236  1.00  0.00    -0.114 N 
HETATM   14  O   UNL     1     -20.038  -4.769  -9.163  1.00  0.00    -0.532 OA
HETATM   15  O   UNL     1     -19.749  -4.123 -11.236  1.00  0.00    -0.532 OA
ENDBRANCH   4  13
BRANCH   6  16
HETATM   16  N   UNL     1     -24.321  -3.631 -13.150  1.00  0.00    -0.303 NA
HETATM   17  H   UNL     1     -23.851  -4.199 -13.850  1.00  0.00     0.124 HD
HETATM   18  H   UNL     1     -25.332  -3.706 -13.206  1.00  0.00     0.124 HD
ENDBRANCH   6  16
TORSDOF 6
BEGIN_RES ARG D 557
REMARK  4 active torsions:
REMARK  status: ('A' for Active; 'I' for Inactive)
REMARK    1  A    between atoms: CA   and  CB  
REMARK    2  A    between atoms: CB   and  CG  
REMARK    3  A    between atoms: CG   and  CD  
REMARK    4  A    between atoms: CD   and  NE  
REMARK       I    between atoms: NE   and  CZ  
REMARK       I    between atoms: CZ   and  NH1 
REMARK       I    between atoms: CZ   and  NH2 
ROOT
ATOM      1  CA  ARG D 557     -26.217   2.705 -17.014  1.00 35.49     0.159 C 
ENDROOT
BRANCH   1   2
ATOM      2  CB  ARG D 557     -26.789   1.319 -17.183  1.00 35.49     0.034 C 
BRANCH   2   3
ATOM      3  CG  ARG D 557     -28.224   1.160 -16.920  1.00 35.49     0.027 C 
BRANCH   3   4
ATOM      4  CD  ARG D 557     -28.604  -0.253 -16.694  1.00 35.49     0.116 C 
BRANCH   4   5
ATOM      5  NE  ARG D 557     -27.586  -0.981 -15.983  1.00 35.49    -0.212 N 
ATOM      6  CZ  ARG D 557     -27.381  -2.277 -16.048  1.00 35.49     0.666 C 
ATOM      7  NH1 ARG D 557     -28.125  -3.076 -16.790  1.00 35.49    -0.235 N 
ATOM      8  NH2 ARG D 557     -26.397  -2.765 -15.350  1.00 35.49    -0.235 N 
ATOM      9  HH  ARG D 557     -28.776  -2.777 -17.259  1.00 35.49     0.174 HD
ATOM     10  HH  ARG D 557     -27.942  -3.914 -16.796  1.00 35.49     0.174 HD
ATOM     11  HH  ARG D 557     -25.929  -2.224 -14.885  1.00 35.49     0.174 HD
ATOM     12  HH  ARG D 557     -26.231  -3.597 -15.370  1.00 35.49     0.174 HD
ATOM     13  HE  ARG D 557     -27.107  -0.554 -15.424  1.00 35.49     0.178 HD
ENDBRANCH   4   5
ENDBRANCH   3   4
ENDBRANCH   2   3
ENDBRANCH   1   2
END_RES ARG D 557
BEGIN_RES GLU D 570
REMARK  3 active torsions:
REMARK  status: ('A' for Active; 'I' for Inactive)
REMARK    5  A    between atoms: CA   and  CB  
REMARK    6  A    between atoms: CB   and  CG  
REMARK    7  A    between atoms: CG   and  CD  
ROOT
ATOM     14  CA  GLU D 570     -18.033  -6.348 -13.375  1.00 32.92     0.160 C 
ENDROOT
BRANCH  14  15
ATOM     15  CB  GLU D 570     -19.500  -6.345 -13.794  1.00 32.92     0.043 C 
BRANCH  15  16
ATOM     16  CG  GLU D 570     -19.797  -6.268 -15.248  1.00 32.92     0.100 C 
BRANCH  16  17
ATOM     17  CD  GLU D 570     -21.078  -5.526 -15.549  1.00 32.92     0.185 C 
ATOM     18  OE1 GLU D 570     -21.325  -5.198 -16.726  1.00 32.92    -0.647 OA
ATOM     19  OE2 GLU D 570     -21.835  -5.255 -14.596  1.00 32.92    -0.647 OA
ENDBRANCH  16  17
ENDBRANCH  15  16
ENDBRANCH  14  15
END_RES GLU D 570
ENDMDL
MODEL 8
REMARK VINA RESULT:      -6.0      3.039      4.942
REMARK  6 active torsions:
REMARK  status: ('A' for Active; 'I' for Inactive)
REMARK    1  A    between atoms: C_3  and  N_11 
REMARK    2  A    between atoms: C_4  and  N_8 
REMARK    3  A    between atoms: C_6  and  N_7 
REMARK    4  A    between atoms: N_11  and  C_12 
REMARK    5  A    between atoms: C_12  and  C_13 
REMARK    6  A    between atoms: C_13  and  O_14 
ROOT
HETATM    1  C   UNL     1     -23.409  -3.947  -8.632  1.00  0.00     0.025 A 
HETATM    2  C   UNL     1     -23.218  -4.422  -7.328  1.00  0.00     0.028 A 
HETATM    3  C   UNL     1     -21.989  -4.942  -6.884  1.00  0.00     0.041 A 
HETATM    4  C   UNL     1     -20.915  -4.856  -7.805  1.00  0.00     0.125 A 
HETATM    5  C   UNL     1     -21.114  -4.368  -9.121  1.00  0.00     0.061 A 
HETATM    6  C   UNL     1     -22.376  -3.971  -9.556  1.00  0.00     0.008 A 
ENDROOT
BRANCH   3   7
HETATM    7  N   UNL     1     -21.865  -5.369  -5.535  1.00  0.00    -0.289 NA
HETATM    8  H   UNL     1     -20.878  -5.389  -5.248  1.00  0.00     0.127 HD
BRANCH   7   9
HETATM    9  C   UNL     1     -22.585  -6.611  -5.176  1.00  0.00     0.118 C 
BRANCH   9  10
HETATM   10  C   UNL     1     -21.620  -7.744  -4.809  1.00  0.00     0.178 C 
BRANCH  10  11
HETATM   11  O   UNL     1     -21.162  -8.414  -5.980  1.00  0.00    -0.400 OA
HETATM   12  H   UNL     1     -21.336  -7.803  -6.722  1.00  0.00     0.209 HD
ENDBRANCH  10  11
ENDBRANCH   9  10
ENDBRANCH   7   9
ENDBRANCH   3   7
BRANCH   4  13
HETATM   13  N   UNL     1     -19.552  -5.296  -7.466  1.00  0.00    -0.114 N 
HETATM   14  O   UNL     1     -19.373  -6.487  -7.160  1.00  0.00    -0.532 OA
HETATM   15  O   UNL     1     -18.636  -4.459  -7.533  1.00  0.00    -0.532 OA
ENDBRANCH   4  13
BRANCH   6  16
HETATM   16  N   UNL     1     -22.548  -3.377 -10.809  1.00  0.00    -0.303 NA
HETATM   17  H   UNL     1     -23.516  -3.289 -11.105  1.00  0.00     0.124 HD
HETATM   18  H   UNL     1     -22.024  -2.517 -10.940  1.00  0.00     0.124 HD
ENDBRANCH   6  16
TORSDOF 6
BEGIN_RES ARG D 557
REMARK  4 active torsions:
REMARK  status: ('A' for Active; 'I' for Inactive)
REMARK    1  A    between atoms: CA   and  CB  
REMARK    2  A    between atoms: CB   and  CG  
REMARK    3  A    between atoms: CG   and  CD  
REMARK    4  A    between atoms: CD   and  NE  
REMARK       I    between atoms: NE   and  CZ  
REMARK       I    between atoms: CZ   and  NH1 
REMARK       I    between atoms: CZ   and  NH2 
ROOT
ATOM      1  CA  ARG D 557     -26.217   2.705 -17.014  1.00 35.49     0.159 C 
ENDROOT
BRANCH   1   2
ATOM      2  CB  ARG D 557     -26.789   1.319 -17.183  1.00 35.49     0.034 C 
BRANCH   2   3
ATOM      3  CG  ARG D 557     -25.867   0.195 -16.982  1.00 35.49     0.027 C 
BRANCH   3   4
ATOM      4  CD  ARG D 557     -26.287  -0.688 -15.870  1.00 35.49     0.116 C 
BRANCH   4   5
ATOM      5  NE  ARG D 557     -25.222  -0.923 -14.931  1.00 35.49    -0.212 N 
ATOM      6  CZ  ARG D 557     -24.943  -2.072 -14.358  1.00 35.49     0.666 C 
ATOM      7  NH1 ARG D 557     -25.647  -3.166 -14.582  1.00 35.49    -0.235 N 
ATOM      8  NH2 ARG D 557     -23.925  -2.107 -13.547  1.00 35.49    -0.235 N 
ATOM      9  HH  ARG D 557     -26.319  -3.167 -15.114  1.00 35.49     0.174 HD
ATOM     10  HH  ARG D 557     -25.416  -3.888 -14.182  1.00 35.49     0.174 HD
ATOM     11  HH  ARG D 557     -23.485  -1.386 -13.427  1.00 35.49     0.174 HD
ATOM     12  HH  ARG D 557     -23.712  -2.831 -13.161  1.00 35.49     0.174 HD
ATOM     13  HE  ARG D 557     -24.763  -0.255 -14.673  1.00 35.49     0.178 HD
ENDBRANCH   4   5
ENDBRANCH   3   4
ENDBRANCH   2   3
ENDBRANCH   1   2
END_RES ARG D 557
BEGIN_RES GLU D 570
REMARK  3 active torsions:
REMARK  status: ('A' for Active; 'I' for Inactive)
REMARK    5  A    between atoms: CA   and  CB  
REMARK    6  A    between atoms: CB   and  CG  
REMARK    7  A    between atoms: CG   and  CD  
ROOT
ATOM     14  CA  GLU D 570     -18.033  -6.348 -13.375  1.00 32.92     0.160 C 
ENDROOT
BRANCH  14  15
ATOM     15  CB  GLU D 570     -19.500  -6.345 -13.794  1.00 32.92     0.043 C 
BRANCH  15  16
ATOM     16  CG  GLU D 570     -20.435  -5.500 -13.007  1.00 32.92     0.100 C 
BRANCH  16  17
ATOM     17  CD  GLU D 570     -21.689  -5.141 -13.769  1.00 32.92     0.185 C 
ATOM     18  OE1 GLU D 570     -22.767  -5.045 -13.151  1.00 32.92    -0.647 OA
ATOM     19  OE2 GLU D 570     -21.596  -4.971 -15.001  1.00 32.92    -0.647 OA
ENDBRANCH  16  17
ENDBRANCH  15  16
ENDBRANCH  14  15
END_RES GLU D 570
ENDMDL
MODEL 9
REMARK VINA RESULT:      -5.9      2.011      2.717
REMARK  6 active torsions:
REMARK  status: ('A' for Active; 'I' for Inactive)
REMARK    1  A    between atoms: C_3  and  N_11 
REMARK    2  A    between atoms: C_4  and  N_8 
REMARK    3  A    between atoms: C_6  and  N_7 
REMARK    4  A    between atoms: N_11  and  C_12 
REMARK    5  A    between atoms: C_12  and  C_13 
REMARK    6  A    between atoms: C_13  and  O_14 
ROOT
HETATM    1  C   UNL     1     -22.259  -4.411  -6.872  1.00  0.00     0.025 A 
HETATM    2  C   UNL     1     -23.051  -4.147  -7.996  1.00  0.00     0.028 A 
HETATM    3  C   UNL     1     -22.502  -3.894  -9.266  1.00  0.00     0.041 A 
HETATM    4  C   UNL     1     -21.094  -4.030  -9.367  1.00  0.00     0.125 A 
HETATM    5  C   UNL     1     -20.300  -4.304  -8.225  1.00  0.00     0.061 A 
HETATM    6  C   UNL     1     -20.876  -4.433  -6.964  1.00  0.00     0.008 A 
ENDROOT
BRANCH   3   7
HETATM    7  N   UNL     1     -23.373  -3.671 -10.365  1.00  0.00    -0.289 NA
HETATM    8  H   UNL     1     -24.078  -2.958 -10.134  1.00  0.00     0.127 HD
BRANCH   7   9
HETATM    9  C   UNL     1     -23.967  -4.877 -10.982  1.00  0.00     0.118 C 
BRANCH   9  10
HETATM   10  C   UNL     1     -23.212  -5.304 -12.245  1.00  0.00     0.178 C 
BRANCH  10  11
HETATM   11  O   UNL     1     -23.842  -4.777 -13.409  1.00  0.00    -0.400 OA
HETATM   12  H   UNL     1     -24.038  -3.842 -13.207  1.00  0.00     0.209 HD
ENDBRANCH  10  11
ENDBRANCH   9  10
ENDBRANCH   7   9
ENDBRANCH   3   7
BRANCH   4  13
HETATM   13  N   UNL     1     -20.378  -3.863 -10.642  1.00  0.00    -0.114 N 
HETATM   14  O   UNL     1     -19.636  -4.782 -11.029  1.00  0.00    -0.532 OA
HETATM   15  O   UNL     1     -20.575  -2.821 -11.289  1.00  0.00    -0.532 OA
ENDBRANCH   4  13
BRANCH   6  16
HETATM   16  N   UNL     1     -20.110  -4.824  -5.863  1.00  0.00    -0.303 NA
HETATM   17  H   UNL     1     -19.796  -5.790  -5.888  1.00  0.00     0.124 HD
HETATM   18  H   UNL     1     -19.362  -4.180  -5.624  1.00  0.00     0.124 HD
ENDBRANCH   6  16
TORSDOF 6
BEGIN_RES ARG D 557
REMARK  4 active torsions:
REMARK  status: ('A' for Active; 'I' for Inactive)
REMARK    1  A    between atoms: CA   and  CB  
REMARK    2  A    between atoms: CB   and  CG  
REMARK    3  A    between atoms: CG   and  CD  
REMARK    4  A    between atoms: CD   and  NE  
REMARK       I    between atoms: NE   and  CZ  
REMARK       I    between atoms: CZ   and  NH1 
REMARK       I    between atoms: CZ   and  NH2 
ROOT
ATOM      1  CA  ARG D 557     -26.217   2.705 -17.014  1.00 35.49     0.159 C 
ENDROOT
BRANCH   1   2
ATOM      2  CB  ARG D 557     -26.789   1.319 -17.183  1.00 35.49     0.034 C 
BRANCH   2   3
ATOM      3  CG  ARG D 557     -25.835   0.204 -17.165  1.00 35.49     0.027 C 
BRANCH   3   4
ATOM      4  CD  ARG D 557     -24.723   0.428 -16.212  1.00 35.49     0.116 C 
BRANCH   4   5
ATOM      5  NE  ARG D 557     -24.832  -0.408 -15.046  1.00 35.49    -0.212 N 
ATOM      6  CZ  ARG D 557     -23.999  -1.367 -14.708  1.00 35.49     0.666 C 
ATOM      7  NH1 ARG D 557     -22.946  -1.682 -15.439  1.00 35.49    -0.235 N 
ATOM      8  NH2 ARG D 557     -24.241  -2.010 -13.602  1.00 35.49    -0.235 N 
ATOM      9  HH  ARG D 557     -22.767  -1.271 -16.169  1.00 35.49     0.174 HD
ATOM     10  HH  ARG D 557     -22.437  -2.315 -15.167  1.00 35.49     0.174 HD
ATOM     11  HH  ARG D 557     -24.924  -1.779 -13.146  1.00 35.49     0.174 HD
ATOM     12  HH  ARG D 557     -23.723  -2.632 -13.349  1.00 35.49     0.174 HD
ATOM     13  HE  ARG D 557     -25.521  -0.322 -14.555  1.00 35.49     0.178 HD
ENDBRANCH   4   5
ENDBRANCH   3   4
ENDBRANCH   2   3
ENDBRANCH   1   2
END_RES ARG D 557
BEGIN_RES GLU D 570
REMARK  3 active torsions:
REMARK  status: ('A' for Active; 'I' for Inactive)
REMARK    5  A    between atoms: CA   and  CB  
REMARK    6  A    between atoms: CB   and  CG  
REMARK    7  A    between atoms: CG   and  CD  
ROOT
ATOM     14  CA  GLU D 570     -18.033  -6.348 -13.375  1.00 32.92     0.160 C 
ENDROOT
BRANCH  14  15
ATOM     15  CB  GLU D 570     -19.500  -6.345 -13.794  1.00 32.92     0.043 C 
BRANCH  15  16
ATOM     16  CG  GLU D 570     -19.824  -5.832 -15.150  1.00 32.92     0.100 C 
BRANCH  16  17
ATOM     17  CD  GLU D 570     -21.306  -5.637 -15.368  1.00 32.92     0.185 C 
ATOM     18  OE1 GLU D 570     -22.065  -6.621 -15.284  1.00 32.92    -0.647 OA
ATOM     19  OE2 GLU D 570     -21.710  -4.490 -15.643  1.00 32.92    -0.647 OA
ENDBRANCH  16  17
ENDBRANCH  15  16
ENDBRANCH  14  15
END_RES GLU D 570
ENDMDL
