MODEL 1
REMARK VINA RESULT:      -9.8      0.000      0.000
REMARK  1 active torsions:
REMARK  status: ('A' for Active; 'I' for Inactive)
REMARK    1  A    between atoms: C_5  and  O_32 
ROOT
HETATM    1  C   UNL     1     -30.404   7.559   5.212  1.00  0.00     0.018 C 
HETATM    2  C   UNL     1     -28.991   8.177   5.171  1.00  0.00     0.062 C 
HETATM    3  C   UNL     1     -28.845   9.124   6.339  1.00  0.00     0.159 C 
HETATM    4  O   UNL     1     -29.774   9.495   7.061  1.00  0.00    -0.295 OA
HETATM    5  C   UNL     1     -27.410   9.656   6.562  1.00  0.00     0.188 C 
HETATM    6  C   UNL     1     -26.989  10.398   5.297  1.00  0.00     0.045 C 
HETATM    7  C   UNL     1     -27.040   9.499   4.042  1.00  0.00     0.006 C 
HETATM    8  C   UNL     1     -28.560   8.928   3.843  1.00  0.00    -0.029 C 
HETATM    9  C   UNL     1     -28.523   7.945   2.662  1.00  0.00     0.011 C 
HETATM   10  C   UNL     1     -27.961   8.640   1.421  1.00  0.00     0.007 C 
HETATM   11  C   UNL     1     -26.459   8.968   1.637  1.00  0.00     0.003 C 
HETATM   12  C   UNL     1     -26.267  10.079   2.740  1.00  0.00    -0.035 C 
HETATM   13  C   UNL     1     -24.703  10.138   2.782  1.00  0.00     0.011 C 
HETATM   14  C   UNL     1     -24.078  10.671   1.389  1.00  0.00     0.011 C 
HETATM   15  C   UNL     1     -23.968   9.468   0.394  1.00  0.00    -0.032 C 
HETATM   16  C   UNL     1     -25.614   9.051   0.294  1.00  0.00    -0.032 C 
HETATM   17  C   UNL     1     -25.754   7.659  -0.381  1.00  0.00     0.011 C 
HETATM   18  C   UNL     1     -25.192   7.606  -1.776  1.00  0.00     0.010 C 
HETATM   19  C   UNL     1     -23.704   7.953  -1.796  1.00  0.00    -0.040 C 
HETATM   20  C   UNL     1     -23.496   9.443  -1.177  1.00  0.00     0.003 C 
HETATM   21  C   UNL     1     -22.176  10.052  -1.801  1.00  0.00     0.015 C 
HETATM   22  C   UNL     1     -22.287  10.151  -3.422  1.00  0.00    -0.047 C 
HETATM   23  C   UNL     1     -23.440   9.248  -3.921  1.00  0.00     0.009 C 
HETATM   24  C   UNL     1     -23.275   7.887  -3.270  1.00  0.00     0.010 C 
HETATM   25  C   UNL     1     -21.037   9.650  -4.186  1.00  0.00     0.015 C 
HETATM   26  C   UNL     1     -22.539  11.603  -3.909  1.00  0.00     0.015 C 
HETATM   27  C   UNL     1     -22.984   6.766  -1.102  1.00  0.00     0.015 C 
HETATM   28  C   UNL     1     -26.425  10.096  -0.587  1.00  0.00     0.016 C 
HETATM   29  C   UNL     1     -22.738   8.786   1.104  1.00  0.00     0.016 C 
HETATM   30  C   UNL     1     -26.635  11.578   2.611  1.00  0.00     0.016 C 
HETATM   31  C   UNL     1     -29.686   9.952   3.499  1.00  0.00     0.016 C 
ENDROOT
BRANCH   5  32
HETATM   32  O   UNL     1     -26.499   8.618   6.908  1.00  0.00    -0.388 OA
HETATM   33  H   UNL     1     -26.362   8.599   7.868  1.00  0.00     0.210 HD
ENDBRANCH   5  32
TORSDOF 1
BEGIN_RES ARG D 557
REMARK  4 active torsions:
REMARK  status: ('A' for Active; 'I' for Inactive)
REMARK    1  A    between atoms: CA   and  CB  
REMARK    2  A    between atoms: CB   and  CG  
REMARK    3  A    between atoms: CG   and  CD  
REMARK    4  A    between atoms: CD   and  NE  
REMARK       I    between atoms: NE   and  CZ  
REMARK       I    between atoms: CZ   and  NH1 
REMARK       I    between atoms: CZ   and  NH2 
ROOT
ATOM      1  CA  ARG D 557     -26.217   2.705 -17.014  1.00 35.49     0.159 C 
ENDROOT
BRANCH   1   2
ATOM      2  CB  ARG D 557     -26.789   1.319 -17.183  1.00 35.49     0.034 C 
BRANCH   2   3
ATOM      3  CG  ARG D 557     -25.839   0.201 -17.130  1.00 35.49     0.027 C 
BRANCH   3   4
ATOM      4  CD  ARG D 557     -24.763   0.422 -16.136  1.00 35.49     0.116 C 
BRANCH   4   5
ATOM      5  NE  ARG D 557     -24.900  -0.437 -14.989  1.00 35.49    -0.212 N 
ATOM      6  CZ  ARG D 557     -24.081  -1.409 -14.656  1.00 35.49     0.666 C 
ATOM      7  NH1 ARG D 557     -23.018  -1.718 -15.374  1.00 35.49    -0.235 N 
ATOM      8  NH2 ARG D 557     -24.349  -2.073 -13.569  1.00 35.49    -0.235 N 
ATOM      9  HH  ARG D 557     -22.821  -1.294 -16.092  1.00 35.49     0.174 HD
ATOM     10  HH  ARG D 557     -22.518  -2.361 -15.106  1.00 35.49     0.174 HD
ATOM     11  HH  ARG D 557     -25.039  -1.846 -13.121  1.00 35.49     0.174 HD
ATOM     12  HH  ARG D 557     -23.841  -2.705 -13.319  1.00 35.49     0.174 HD
ATOM     13  HE  ARG D 557     -25.598  -0.355 -14.510  1.00 35.49     0.178 HD
ENDBRANCH   4   5
ENDBRANCH   3   4
ENDBRANCH   2   3
ENDBRANCH   1   2
END_RES ARG D 557
BEGIN_RES GLU D 570
REMARK  3 active torsions:
REMARK  status: ('A' for Active; 'I' for Inactive)
REMARK    5  A    between atoms: CA   and  CB  
REMARK    6  A    between atoms: CB   and  CG  
REMARK    7  A    between atoms: CG   and  CD  
ROOT
ATOM     14  CA  GLU D 570     -18.033  -6.348 -13.375  1.00 32.92     0.160 C 
ENDROOT
BRANCH  14  15
ATOM     15  CB  GLU D 570     -19.500  -6.345 -13.794  1.00 32.92     0.043 C 
BRANCH  15  16
ATOM     16  CG  GLU D 570     -20.448  -5.560 -12.962  1.00 32.92     0.100 C 
BRANCH  16  17
ATOM     17  CD  GLU D 570     -21.688  -5.141 -13.717  1.00 32.92     0.185 C 
ATOM     18  OE1 GLU D 570     -22.078  -5.837 -14.674  1.00 32.92    -0.647 OA
ATOM     19  OE2 GLU D 570     -22.266  -4.096 -13.359  1.00 32.92    -0.647 OA
ENDBRANCH  16  17
ENDBRANCH  15  16
ENDBRANCH  14  15
END_RES GLU D 570
ENDMDL
MODEL 2
REMARK VINA RESULT:      -9.6     15.609     21.106
REMARK  1 active torsions:
REMARK  status: ('A' for Active; 'I' for Inactive)
REMARK    1  A    between atoms: C_5  and  O_32 
ROOT
HETATM    1  C   UNL     1     -14.898 -16.248  -6.419  1.00  0.00     0.018 C 
HETATM    2  C   UNL     1     -14.945 -14.724  -6.180  1.00  0.00     0.062 C 
HETATM    3  C   UNL     1     -13.551 -14.167  -6.350  1.00  0.00     0.159 C 
HETATM    4  O   UNL     1     -12.529 -14.851  -6.443  1.00  0.00    -0.295 OA
HETATM    5  C   UNL     1     -13.471 -12.622  -6.360  1.00  0.00     0.188 C 
HETATM    6  C   UNL     1     -14.021 -12.121  -5.027  1.00  0.00     0.045 C 
HETATM    7  C   UNL     1     -15.474 -12.583  -4.778  1.00  0.00     0.006 C 
HETATM    8  C   UNL     1     -15.537 -14.217  -4.800  1.00  0.00    -0.029 C 
HETATM    9  C   UNL     1     -17.017 -14.614  -4.676  1.00  0.00     0.011 C 
HETATM   10  C   UNL     1     -17.621 -13.992  -3.417  1.00  0.00     0.007 C 
HETATM   11  C   UNL     1     -17.695 -12.450  -3.575  1.00  0.00     0.003 C 
HETATM   12  C   UNL     1     -16.256 -11.804  -3.591  1.00  0.00    -0.035 C 
HETATM   13  C   UNL     1     -16.645 -10.306  -3.827  1.00  0.00     0.011 C 
HETATM   14  C   UNL     1     -17.479  -9.692  -2.585  1.00  0.00     0.011 C 
HETATM   15  C   UNL     1     -18.988 -10.070  -2.757  1.00  0.00    -0.032 C 
HETATM   16  C   UNL     1     -18.846 -11.765  -2.719  1.00  0.00    -0.032 C 
HETATM   17  C   UNL     1     -20.174 -12.405  -3.204  1.00  0.00     0.011 C 
HETATM   18  C   UNL     1     -21.366 -12.036  -2.362  1.00  0.00     0.010 C 
HETATM   19  C   UNL     1     -21.592 -10.526  -2.342  1.00  0.00    -0.040 C 
HETATM   20  C   UNL     1     -20.261  -9.795  -1.759  1.00  0.00     0.003 C 
HETATM   21  C   UNL     1     -20.700  -8.422  -1.108  1.00  0.00     0.015 C 
HETATM   22  C   UNL     1     -21.760  -8.663   0.105  1.00  0.00    -0.047 C 
HETATM   23  C   UNL     1     -22.356 -10.086  -0.000  1.00  0.00     0.009 C 
HETATM   24  C   UNL     1     -22.809 -10.293  -1.433  1.00  0.00     0.010 C 
HETATM   25  C   UNL     1     -22.988  -7.721   0.084  1.00  0.00     0.015 C 
HETATM   26  C   UNL     1     -21.107  -8.492   1.501  1.00  0.00     0.015 C 
HETATM   27  C   UNL     1     -22.065 -10.149  -3.772  1.00  0.00     0.015 C 
HETATM   28  C   UNL     1     -18.569 -12.291  -1.244  1.00  0.00     0.016 C 
HETATM   29  C   UNL     1     -19.276  -9.052  -3.924  1.00  0.00     0.016 C 
HETATM   30  C   UNL     1     -15.284 -11.692  -2.391  1.00  0.00     0.016 C 
HETATM   31  C   UNL     1     -14.801 -14.992  -3.663  1.00  0.00     0.016 C 
ENDROOT
BRANCH   5  32
HETATM   32  O   UNL     1     -14.152 -12.055  -7.473  1.00  0.00    -0.388 OA
HETATM   33  H   UNL     1     -14.499 -11.178  -7.242  1.00  0.00     0.210 HD
ENDBRANCH   5  32
TORSDOF 1
BEGIN_RES ARG D 557
REMARK  4 active torsions:
REMARK  status: ('A' for Active; 'I' for Inactive)
REMARK    1  A    between atoms: CA   and  CB  
REMARK    2  A    between atoms: CB   and  CG  
REMARK    3  A    between atoms: CG   and  CD  
REMARK    4  A    between atoms: CD   and  NE  
REMARK       I    between atoms: NE   and  CZ  
REMARK       I    between atoms: CZ   and  NH1 
REMARK       I    between atoms: CZ   and  NH2 
ROOT
ATOM      1  CA  ARG D 557     -26.217   2.705 -17.014  1.00 35.49     0.159 C 
ENDROOT
BRANCH   1   2
ATOM      2  CB  ARG D 557     -26.789   1.319 -17.183  1.00 35.49     0.034 C 
BRANCH   2   3
ATOM      3  CG  ARG D 557     -25.837   0.202 -17.144  1.00 35.49     0.027 C 
BRANCH   3   4
ATOM      4  CD  ARG D 557     -24.753   0.419 -16.159  1.00 35.49     0.116 C 
BRANCH   4   5
ATOM      5  NE  ARG D 557     -24.888  -0.433 -15.007  1.00 35.49    -0.212 N 
ATOM      6  CZ  ARG D 557     -24.069  -1.405 -14.671  1.00 35.49     0.666 C 
ATOM      7  NH1 ARG D 557     -23.007  -1.719 -15.390  1.00 35.49    -0.235 N 
ATOM      8  NH2 ARG D 557     -24.334  -2.062 -13.579  1.00 35.49    -0.235 N 
ATOM      9  HH  ARG D 557     -22.812  -1.298 -16.110  1.00 35.49     0.174 HD
ATOM     10  HH  ARG D 557     -22.508  -2.360 -15.119  1.00 35.49     0.174 HD
ATOM     11  HH  ARG D 557     -25.023  -1.832 -13.131  1.00 35.49     0.174 HD
ATOM     12  HH  ARG D 557     -23.827  -2.693 -13.328  1.00 35.49     0.174 HD
ATOM     13  HE  ARG D 557     -25.584  -0.348 -14.527  1.00 35.49     0.178 HD
ENDBRANCH   4   5
ENDBRANCH   3   4
ENDBRANCH   2   3
ENDBRANCH   1   2
END_RES ARG D 557
BEGIN_RES GLU D 570
REMARK  3 active torsions:
REMARK  status: ('A' for Active; 'I' for Inactive)
REMARK    5  A    between atoms: CA   and  CB  
REMARK    6  A    between atoms: CB   and  CG  
REMARK    7  A    between atoms: CG   and  CD  
ROOT
ATOM     14  CA  GLU D 570     -18.033  -6.348 -13.375  1.00 32.92     0.160 C 
ENDROOT
BRANCH  14  15
ATOM     15  CB  GLU D 570     -19.500  -6.345 -13.794  1.00 32.92     0.043 C 
BRANCH  15  16
ATOM     16  CG  GLU D 570     -20.445  -5.547 -12.971  1.00 32.92     0.100 C 
BRANCH  16  17
ATOM     17  CD  GLU D 570     -21.729  -5.221 -13.698  1.00 32.92     0.185 C 
ATOM     18  OE1 GLU D 570     -22.281  -4.124 -13.490  1.00 32.92    -0.647 OA
ATOM     19  OE2 GLU D 570     -22.197  -6.080 -14.471  1.00 32.92    -0.647 OA
ENDBRANCH  16  17
ENDBRANCH  15  16
ENDBRANCH  14  15
END_RES GLU D 570
ENDMDL
MODEL 3
REMARK VINA RESULT:      -9.2      1.851      2.138
REMARK  1 active torsions:
REMARK  status: ('A' for Active; 'I' for Inactive)
REMARK    1  A    between atoms: C_5  and  O_32 
ROOT
HETATM    1  C   UNL     1     -30.391   7.548   5.215  1.00  0.00     0.018 C 
HETATM    2  C   UNL     1     -28.978   8.165   5.171  1.00  0.00     0.062 C 
HETATM    3  C   UNL     1     -28.827   9.109   6.342  1.00  0.00     0.159 C 
HETATM    4  O   UNL     1     -29.753   9.479   7.067  1.00  0.00    -0.295 OA
HETATM    5  C   UNL     1     -27.391   9.639   6.562  1.00  0.00     0.188 C 
HETATM    6  C   UNL     1     -26.973  10.384   5.297  1.00  0.00     0.045 C 
HETATM    7  C   UNL     1     -27.029   9.489   4.040  1.00  0.00     0.006 C 
HETATM    8  C   UNL     1     -28.549   8.920   3.844  1.00  0.00    -0.029 C 
HETATM    9  C   UNL     1     -28.517   7.940   2.660  1.00  0.00     0.011 C 
HETATM   10  C   UNL     1     -27.958   8.637   1.420  1.00  0.00     0.007 C 
HETATM   11  C   UNL     1     -26.456   8.964   1.632  1.00  0.00     0.003 C 
HETATM   12  C   UNL     1     -26.259  10.071   2.738  1.00  0.00    -0.035 C 
HETATM   13  C   UNL     1     -24.695  10.129   2.775  1.00  0.00     0.011 C 
HETATM   14  C   UNL     1     -24.073  10.665   1.382  1.00  0.00     0.011 C 
HETATM   15  C   UNL     1     -23.967   9.464   0.383  1.00  0.00    -0.032 C 
HETATM   16  C   UNL     1     -25.614   9.049   0.287  1.00  0.00    -0.032 C 
HETATM   17  C   UNL     1     -25.757   7.660  -0.392  1.00  0.00     0.011 C 
HETATM   18  C   UNL     1     -25.200   7.610  -1.789  1.00  0.00     0.010 C 
HETATM   19  C   UNL     1     -23.712   7.955  -1.811  1.00  0.00    -0.040 C 
HETATM   20  C   UNL     1     -23.500   9.443  -1.190  1.00  0.00     0.003 C 
HETATM   21  C   UNL     1     -22.182  10.053  -1.815  1.00  0.00     0.015 C 
HETATM   22  C   UNL     1     -22.297  10.157  -3.436  1.00  0.00    -0.047 C 
HETATM   23  C   UNL     1     -23.452   9.256  -3.934  1.00  0.00     0.009 C 
HETATM   24  C   UNL     1     -23.287   7.893  -3.287  1.00  0.00     0.010 C 
HETATM   25  C   UNL     1     -21.050   9.656  -4.205  1.00  0.00     0.015 C 
HETATM   26  C   UNL     1     -22.549  11.609  -3.918  1.00  0.00     0.015 C 
HETATM   27  C   UNL     1     -22.990   6.766  -1.123  1.00  0.00     0.015 C 
HETATM   28  C   UNL     1     -26.427  10.098  -0.589  1.00  0.00     0.016 C 
HETATM   29  C   UNL     1     -22.736   8.780   1.088  1.00  0.00     0.016 C 
HETATM   30  C   UNL     1     -26.626  11.571   2.614  1.00  0.00     0.016 C 
HETATM   31  C   UNL     1     -29.676   9.945   3.506  1.00  0.00     0.016 C 
ENDROOT
BRANCH   5  32
HETATM   32  O   UNL     1     -26.480   8.599   6.902  1.00  0.00    -0.388 OA
HETATM   33  H   UNL     1     -26.790   8.128   7.692  1.00  0.00     0.210 HD
ENDBRANCH   5  32
TORSDOF 1
BEGIN_RES ARG D 557
REMARK  4 active torsions:
REMARK  status: ('A' for Active; 'I' for Inactive)
REMARK    1  A    between atoms: CA   and  CB  
REMARK    2  A    between atoms: CB   and  CG  
REMARK    3  A    between atoms: CG   and  CD  
REMARK    4  A    between atoms: CD   and  NE  
REMARK       I    between atoms: NE   and  CZ  
REMARK       I    between atoms: CZ   and  NH1 
REMARK       I    between atoms: CZ   and  NH2 
ROOT
ATOM      1  CA  ARG D 557     -26.217   2.705 -17.014  1.00 35.49     0.159 C 
ENDROOT
BRANCH   1   2
ATOM      2  CB  ARG D 557     -26.789   1.319 -17.183  1.00 35.49     0.034 C 
BRANCH   2   3
ATOM      3  CG  ARG D 557     -28.148   1.099 -16.674  1.00 35.49     0.027 C 
BRANCH   3   4
ATOM      4  CD  ARG D 557     -28.789  -0.094 -17.274  1.00 35.49     0.116 C 
BRANCH   4   5
ATOM      5  NE  ARG D 557     -28.168  -1.318 -16.843  1.00 35.49    -0.212 N 
ATOM      6  CZ  ARG D 557     -28.639  -2.529 -17.040  1.00 35.49     0.666 C 
ATOM      7  NH1 ARG D 557     -29.780  -2.753 -17.666  1.00 35.49    -0.235 N 
ATOM      8  NH2 ARG D 557     -27.932  -3.528 -16.598  1.00 35.49    -0.235 N 
ATOM      9  HH  ARG D 557     -30.261  -2.111 -17.967  1.00 35.49     0.174 HD
ATOM     10  HH  ARG D 557     -30.036  -3.565 -17.768  1.00 35.49     0.174 HD
ATOM     11  HH  ARG D 557     -27.196  -3.354 -16.204  1.00 35.49     0.174 HD
ATOM     12  HH  ARG D 557     -28.202  -4.324 -16.710  1.00 35.49     0.174 HD
ATOM     13  HE  ARG D 557     -27.465  -1.264 -16.368  1.00 35.49     0.178 HD
ENDBRANCH   4   5
ENDBRANCH   3   4
ENDBRANCH   2   3
ENDBRANCH   1   2
END_RES ARG D 557
BEGIN_RES GLU D 570
REMARK  3 active torsions:
REMARK  status: ('A' for Active; 'I' for Inactive)
REMARK    5  A    between atoms: CA   and  CB  
REMARK    6  A    between atoms: CB   and  CG  
REMARK    7  A    between atoms: CG   and  CD  
ROOT
ATOM     14  CA  GLU D 570     -18.033  -6.348 -13.375  1.00 32.92     0.160 C 
ENDROOT
BRANCH  14  15
ATOM     15  CB  GLU D 570     -19.500  -6.345 -13.794  1.00 32.92     0.043 C 
BRANCH  15  16
ATOM     16  CG  GLU D 570     -20.093  -7.639 -14.219  1.00 32.92     0.100 C 
BRANCH  16  17
ATOM     17  CD  GLU D 570     -20.798  -7.555 -15.553  1.00 32.92     0.185 C 
ATOM     18  OE1 GLU D 570     -21.324  -6.478 -15.892  1.00 32.92    -0.647 OA
ATOM     19  OE2 GLU D 570     -20.838  -8.582 -16.259  1.00 32.92    -0.647 OA
ENDBRANCH  16  17
ENDBRANCH  15  16
ENDBRANCH  14  15
END_RES GLU D 570
ENDMDL
MODEL 4
REMARK VINA RESULT:      -9.1     16.129     21.199
REMARK  1 active torsions:
REMARK  status: ('A' for Active; 'I' for Inactive)
REMARK    1  A    between atoms: C_5  and  O_32 
ROOT
HETATM    1  C   UNL     1     -14.900 -16.252  -6.410  1.00  0.00     0.018 C 
HETATM    2  C   UNL     1     -14.949 -14.728  -6.175  1.00  0.00     0.062 C 
HETATM    3  C   UNL     1     -13.556 -14.168  -6.348  1.00  0.00     0.159 C 
HETATM    4  O   UNL     1     -12.533 -14.851  -6.440  1.00  0.00    -0.295 OA
HETATM    5  C   UNL     1     -13.479 -12.623  -6.361  1.00  0.00     0.188 C 
HETATM    6  C   UNL     1     -14.029 -12.121  -5.028  1.00  0.00     0.045 C 
HETATM    7  C   UNL     1     -15.480 -12.585  -4.777  1.00  0.00     0.006 C 
HETATM    8  C   UNL     1     -15.541 -14.219  -4.795  1.00  0.00    -0.029 C 
HETATM    9  C   UNL     1     -17.019 -14.618  -4.668  1.00  0.00     0.011 C 
HETATM   10  C   UNL     1     -17.623 -13.996  -3.410  1.00  0.00     0.007 C 
HETATM   11  C   UNL     1     -17.701 -12.454  -3.571  1.00  0.00     0.003 C 
HETATM   12  C   UNL     1     -16.263 -11.805  -3.591  1.00  0.00    -0.035 C 
HETATM   13  C   UNL     1     -16.655 -10.308  -3.829  1.00  0.00     0.011 C 
HETATM   14  C   UNL     1     -17.488  -9.693  -2.588  1.00  0.00     0.011 C 
HETATM   15  C   UNL     1     -18.997 -10.075  -2.758  1.00  0.00    -0.032 C 
HETATM   16  C   UNL     1     -18.851 -11.769  -2.715  1.00  0.00    -0.032 C 
HETATM   17  C   UNL     1     -20.179 -12.413  -3.198  1.00  0.00     0.011 C 
HETATM   18  C   UNL     1     -21.370 -12.045  -2.355  1.00  0.00     0.010 C 
HETATM   19  C   UNL     1     -21.599 -10.534  -2.338  1.00  0.00    -0.040 C 
HETATM   20  C   UNL     1     -20.269  -9.800  -1.758  1.00  0.00     0.003 C 
HETATM   21  C   UNL     1     -20.710  -8.427  -1.110  1.00  0.00     0.015 C 
HETATM   22  C   UNL     1     -21.768  -8.666   0.105  1.00  0.00    -0.047 C 
HETATM   23  C   UNL     1     -22.362 -10.091   0.004  1.00  0.00     0.009 C 
HETATM   24  C   UNL     1     -22.816 -10.302  -1.428  1.00  0.00     0.010 C 
HETATM   25  C   UNL     1     -22.998  -7.727   0.084  1.00  0.00     0.015 C 
HETATM   26  C   UNL     1     -21.114  -8.491   1.500  1.00  0.00     0.015 C 
HETATM   27  C   UNL     1     -22.075 -10.162  -3.768  1.00  0.00     0.015 C 
HETATM   28  C   UNL     1     -18.572 -12.291  -1.240  1.00  0.00     0.016 C 
HETATM   29  C   UNL     1     -19.288  -9.059  -3.926  1.00  0.00     0.016 C 
HETATM   30  C   UNL     1     -15.290 -11.688  -2.392  1.00  0.00     0.016 C 
HETATM   31  C   UNL     1     -14.801 -14.990  -3.658  1.00  0.00     0.016 C 
ENDROOT
BRANCH   5  32
HETATM   32  O   UNL     1     -14.163 -12.060  -7.475  1.00  0.00    -0.388 OA
HETATM   33  H   UNL     1     -15.118 -12.211  -7.392  1.00  0.00     0.210 HD
ENDBRANCH   5  32
TORSDOF 1
BEGIN_RES ARG D 557
REMARK  4 active torsions:
REMARK  status: ('A' for Active; 'I' for Inactive)
REMARK    1  A    between atoms: CA   and  CB  
REMARK    2  A    between atoms: CB   and  CG  
REMARK    3  A    between atoms: CG   and  CD  
REMARK    4  A    between atoms: CD   and  NE  
REMARK       I    between atoms: NE   and  CZ  
REMARK       I    between atoms: CZ   and  NH1 
REMARK       I    between atoms: CZ   and  NH2 
ROOT
ATOM      1  CA  ARG D 557     -26.217   2.705 -17.014  1.00 35.49     0.159 C 
ENDROOT
BRANCH   1   2
ATOM      2  CB  ARG D 557     -26.789   1.319 -17.183  1.00 35.49     0.034 C 
BRANCH   2   3
ATOM      3  CG  ARG D 557     -28.237   1.224 -17.407  1.00 35.49     0.027 C 
BRANCH   3   4
ATOM      4  CD  ARG D 557     -28.892   0.282 -16.471  1.00 35.49     0.116 C 
BRANCH   4   5
ATOM      5  NE  ARG D 557     -29.275  -0.945 -17.117  1.00 35.49    -0.212 N 
ATOM      6  CZ  ARG D 557     -28.644  -2.094 -17.020  1.00 35.49     0.666 C 
ATOM      7  NH1 ARG D 557     -27.544  -2.241 -16.304  1.00 35.49    -0.235 N 
ATOM      8  NH2 ARG D 557     -29.146  -3.111 -17.659  1.00 35.49    -0.235 N 
ATOM      9  HH  ARG D 557     -27.197  -1.586 -15.874  1.00 35.49     0.174 HD
ATOM     10  HH  ARG D 557     -27.177  -3.014 -16.276  1.00 35.49     0.174 HD
ATOM     11  HH  ARG D 557     -29.861  -2.988 -18.107  1.00 35.49     0.174 HD
ATOM     12  HH  ARG D 557     -28.768  -3.869 -17.617  1.00 35.49     0.174 HD
ATOM     13  HE  ARG D 557     -29.932  -0.925 -17.657  1.00 35.49     0.178 HD
ENDBRANCH   4   5
ENDBRANCH   3   4
ENDBRANCH   2   3
ENDBRANCH   1   2
END_RES ARG D 557
BEGIN_RES GLU D 570
REMARK  3 active torsions:
REMARK  status: ('A' for Active; 'I' for Inactive)
REMARK    5  A    between atoms: CA   and  CB  
REMARK    6  A    between atoms: CB   and  CG  
REMARK    7  A    between atoms: CG   and  CD  
ROOT
ATOM     14  CA  GLU D 570     -18.033  -6.348 -13.375  1.00 32.92     0.160 C 
ENDROOT
BRANCH  14  15
ATOM     15  CB  GLU D 570     -19.500  -6.345 -13.794  1.00 32.92     0.043 C 
BRANCH  15  16
ATOM     16  CG  GLU D 570     -20.096  -7.641 -14.208  1.00 32.92     0.100 C 
BRANCH  16  17
ATOM     17  CD  GLU D 570     -20.990  -7.518 -15.420  1.00 32.92     0.185 C 
ATOM     18  OE1 GLU D 570     -20.879  -8.350 -16.341  1.00 32.92    -0.647 OA
ATOM     19  OE2 GLU D 570     -21.799  -6.570 -15.456  1.00 32.92    -0.647 OA
ENDBRANCH  16  17
ENDBRANCH  15  16
ENDBRANCH  14  15
END_RES GLU D 570
ENDMDL
MODEL 5
REMARK VINA RESULT:      -8.6     14.893     19.715
REMARK  1 active torsions:
REMARK  status: ('A' for Active; 'I' for Inactive)
REMARK    1  A    between atoms: C_5  and  O_32 
ROOT
HETATM    1  C   UNL     1     -22.433  -6.925  -1.040  1.00  0.00     0.018 C 
HETATM    2  C   UNL     1     -22.268  -8.449  -1.216  1.00  0.00     0.062 C 
HETATM    3  C   UNL     1     -23.127  -9.148  -0.187  1.00  0.00     0.159 C 
HETATM    4  O   UNL     1     -23.682  -8.588   0.761  1.00  0.00    -0.295 OA
HETATM    5  C   UNL     1     -23.240 -10.680  -0.377  1.00  0.00     0.188 C 
HETATM    6  C   UNL     1     -21.832 -11.262  -0.292  1.00  0.00     0.045 C 
HETATM    7  C   UNL     1     -20.880 -10.659  -1.348  1.00  0.00     0.006 C 
HETATM    8  C   UNL     1     -20.798  -9.039  -1.145  1.00  0.00    -0.029 C 
HETATM    9  C   UNL     1     -19.943  -8.481  -2.295  1.00  0.00     0.011 C 
HETATM   10  C   UNL     1     -18.578  -9.168  -2.312  1.00  0.00     0.007 C 
HETATM   11  C   UNL     1     -18.744 -10.660  -2.705  1.00  0.00     0.003 C 
HETATM   12  C   UNL     1     -19.495 -11.470  -1.579  1.00  0.00    -0.035 C 
HETATM   13  C   UNL     1     -19.572 -12.872  -2.273  1.00  0.00     0.011 C 
HETATM   14  C   UNL     1     -18.109 -13.521  -2.495  1.00  0.00     0.011 C 
HETATM   15  C   UNL     1     -17.498 -12.944  -3.816  1.00  0.00    -0.032 C 
HETATM   16  C   UNL     1     -17.462 -11.295  -3.397  1.00  0.00    -0.032 C 
HETATM   17  C   UNL     1     -17.202 -10.445  -4.670  1.00  0.00     0.011 C 
HETATM   18  C   UNL     1     -15.899 -10.762  -5.352  1.00  0.00     0.010 C 
HETATM   19  C   UNL     1     -15.834 -12.226  -5.785  1.00  0.00    -0.040 C 
HETATM   20  C   UNL     1     -16.014 -13.177  -4.477  1.00  0.00     0.003 C 
HETATM   21  C   UNL     1     -15.290 -14.552  -4.768  1.00  0.00     0.015 C 
HETATM   22  C   UNL     1     -13.704 -14.329  -5.059  1.00  0.00    -0.047 C 
HETATM   23  C   UNL     1     -13.441 -12.840  -5.389  1.00  0.00     0.009 C 
HETATM   24  C   UNL     1     -14.453 -12.413  -6.434  1.00  0.00     0.010 C 
HETATM   25  C   UNL     1     -13.156 -15.104  -6.281  1.00  0.00     0.015 C 
HETATM   26  C   UNL     1     -12.819 -14.741  -3.853  1.00  0.00     0.015 C 
HETATM   27  C   UNL     1     -16.859 -12.371  -6.941  1.00  0.00     0.015 C 
HETATM   28  C   UNL     1     -16.295 -10.984  -2.364  1.00  0.00     0.016 C 
HETATM   29  C   UNL     1     -18.413 -13.775  -4.792  1.00  0.00     0.016 C 
HETATM   30  C   UNL     1     -18.936 -11.841  -0.183  1.00  0.00     0.016 C 
HETATM   31  C   UNL     1     -20.140  -8.498   0.163  1.00  0.00     0.016 C 
ENDROOT
BRANCH   5  32
HETATM   32  O   UNL     1     -23.895 -11.025  -1.592  1.00  0.00    -0.388 OA
HETATM   33  H   UNL     1     -23.275 -11.468  -2.192  1.00  0.00     0.210 HD
ENDBRANCH   5  32
TORSDOF 1
BEGIN_RES ARG D 557
REMARK  4 active torsions:
REMARK  status: ('A' for Active; 'I' for Inactive)
REMARK    1  A    between atoms: CA   and  CB  
REMARK    2  A    between atoms: CB   and  CG  
REMARK    3  A    between atoms: CG   and  CD  
REMARK    4  A    between atoms: CD   and  NE  
REMARK       I    between atoms: NE   and  CZ  
REMARK       I    between atoms: CZ   and  NH1 
REMARK       I    between atoms: CZ   and  NH2 
ROOT
ATOM      1  CA  ARG D 557     -26.217   2.705 -17.014  1.00 35.49     0.159 C 
ENDROOT
BRANCH   1   2
ATOM      2  CB  ARG D 557     -26.789   1.319 -17.183  1.00 35.49     0.034 C 
BRANCH   2   3
ATOM      3  CG  ARG D 557     -25.837   0.202 -17.147  1.00 35.49     0.027 C 
BRANCH   3   4
ATOM      4  CD  ARG D 557     -24.757   0.413 -16.156  1.00 35.49     0.116 C 
BRANCH   4   5
ATOM      5  NE  ARG D 557     -24.904  -0.440 -15.005  1.00 35.49    -0.212 N 
ATOM      6  CZ  ARG D 557     -24.092  -1.415 -14.663  1.00 35.49     0.666 C 
ATOM      7  NH1 ARG D 557     -23.026  -1.732 -15.374  1.00 35.49    -0.235 N 
ATOM      8  NH2 ARG D 557     -24.368  -2.072 -13.574  1.00 35.49    -0.235 N 
ATOM      9  HH  ARG D 557     -22.824  -1.311 -16.093  1.00 35.49     0.174 HD
ATOM     10  HH  ARG D 557     -22.531  -2.375 -15.101  1.00 35.49     0.174 HD
ATOM     11  HH  ARG D 557     -25.059  -1.840 -13.131  1.00 35.49     0.174 HD
ATOM     12  HH  ARG D 557     -23.865  -2.705 -13.319  1.00 35.49     0.174 HD
ATOM     13  HE  ARG D 557     -25.604  -0.353 -14.530  1.00 35.49     0.178 HD
ENDBRANCH   4   5
ENDBRANCH   3   4
ENDBRANCH   2   3
ENDBRANCH   1   2
END_RES ARG D 557
BEGIN_RES GLU D 570
REMARK  3 active torsions:
REMARK  status: ('A' for Active; 'I' for Inactive)
REMARK    5  A    between atoms: CA   and  CB  
REMARK    6  A    between atoms: CB   and  CG  
REMARK    7  A    between atoms: CG   and  CD  
ROOT
ATOM     14  CA  GLU D 570     -18.033  -6.348 -13.375  1.00 32.92     0.160 C 
ENDROOT
BRANCH  14  15
ATOM     15  CB  GLU D 570     -19.500  -6.345 -13.794  1.00 32.92     0.043 C 
BRANCH  15  16
ATOM     16  CG  GLU D 570     -20.444  -5.541 -12.975  1.00 32.92     0.100 C 
BRANCH  16  17
ATOM     17  CD  GLU D 570     -21.730  -5.221 -13.702  1.00 32.92     0.185 C 
ATOM     18  OE1 GLU D 570     -22.291  -4.130 -13.487  1.00 32.92    -0.647 OA
ATOM     19  OE2 GLU D 570     -22.188  -6.078 -14.483  1.00 32.92    -0.647 OA
ENDBRANCH  16  17
ENDBRANCH  15  16
ENDBRANCH  14  15
END_RES GLU D 570
ENDMDL
MODEL 6
REMARK VINA RESULT:      -8.1     15.083     20.174
REMARK  1 active torsions:
REMARK  status: ('A' for Active; 'I' for Inactive)
REMARK    1  A    between atoms: C_5  and  O_32 
ROOT
HETATM    1  C   UNL     1     -21.606  -6.866  -1.605  1.00  0.00     0.018 C 
HETATM    2  C   UNL     1     -20.953  -7.260  -2.946  1.00  0.00     0.062 C 
HETATM    3  C   UNL     1     -21.809  -6.730  -4.074  1.00  0.00     0.159 C 
HETATM    4  O   UNL     1     -22.941  -6.261  -3.933  1.00  0.00    -0.295 OA
HETATM    5  C   UNL     1     -21.173  -6.853  -5.478  1.00  0.00     0.188 C 
HETATM    6  C   UNL     1     -20.911  -8.334  -5.740  1.00  0.00     0.045 C 
HETATM    7  C   UNL     1     -19.988  -8.967  -4.675  1.00  0.00     0.006 C 
HETATM    8  C   UNL     1     -20.668  -8.800  -3.197  1.00  0.00    -0.029 C 
HETATM    9  C   UNL     1     -19.654  -9.329  -2.170  1.00  0.00     0.011 C 
HETATM   10  C   UNL     1     -19.270 -10.769  -2.510  1.00  0.00     0.007 C 
HETATM   11  C   UNL     1     -18.459 -10.799  -3.833  1.00  0.00     0.003 C 
HETATM   12  C   UNL     1     -19.361 -10.409  -5.068  1.00  0.00    -0.035 C 
HETATM   13  C   UNL     1     -18.284 -10.456  -6.203  1.00  0.00     0.011 C 
HETATM   14  C   UNL     1     -17.705 -11.949  -6.430  1.00  0.00     0.011 C 
HETATM   15  C   UNL     1     -16.564 -12.209  -5.389  1.00  0.00    -0.032 C 
HETATM   16  C   UNL     1     -17.462 -12.030  -3.956  1.00  0.00    -0.032 C 
HETATM   17  C   UNL     1     -16.491 -11.911  -2.750  1.00  0.00     0.011 C 
HETATM   18  C   UNL     1     -15.599 -13.110  -2.573  1.00  0.00     0.010 C 
HETATM   19  C   UNL     1     -14.733 -13.351  -3.808  1.00  0.00    -0.040 C 
HETATM   20  C   UNL     1     -15.696 -13.571  -5.100  1.00  0.00     0.003 C 
HETATM   21  C   UNL     1     -14.915 -14.461  -6.149  1.00  0.00     0.015 C 
HETATM   22  C   UNL     1     -14.526 -15.908  -5.513  1.00  0.00    -0.047 C 
HETATM   23  C   UNL     1     -14.641 -15.847  -3.971  1.00  0.00     0.009 C 
HETATM   24  C   UNL     1     -13.902 -14.608  -3.502  1.00  0.00     0.010 C 
HETATM   25  C   UNL     1     -13.070 -16.360  -5.780  1.00  0.00     0.015 C 
HETATM   26  C   UNL     1     -15.436 -17.049  -6.040  1.00  0.00     0.015 C 
HETATM   27  C   UNL     1     -13.714 -12.181  -3.847  1.00  0.00     0.015 C 
HETATM   28  C   UNL     1     -18.399 -13.288  -3.697  1.00  0.00     0.016 C 
HETATM   29  C   UNL     1     -15.493 -11.296  -6.096  1.00  0.00     0.016 C 
HETATM   30  C   UNL     1     -20.501 -11.260  -5.680  1.00  0.00     0.016 C 
HETATM   31  C   UNL     1     -21.994  -9.572  -2.911  1.00  0.00     0.016 C 
ENDROOT
BRANCH   5  32
HETATM   32  O   UNL     1     -19.994  -6.065  -5.607  1.00  0.00    -0.388 OA
HETATM   33  H   UNL     1     -19.207  -6.616  -5.470  1.00  0.00     0.210 HD
ENDBRANCH   5  32
TORSDOF 1
BEGIN_RES ARG D 557
REMARK  4 active torsions:
REMARK  status: ('A' for Active; 'I' for Inactive)
REMARK    1  A    between atoms: CA   and  CB  
REMARK    2  A    between atoms: CB   and  CG  
REMARK    3  A    between atoms: CG   and  CD  
REMARK    4  A    between atoms: CD   and  NE  
REMARK       I    between atoms: NE   and  CZ  
REMARK       I    between atoms: CZ   and  NH1 
REMARK       I    between atoms: CZ   and  NH2 
ROOT
ATOM      1  CA  ARG D 557     -26.217   2.705 -17.014  1.00 35.49     0.159 C 
ENDROOT
BRANCH   1   2
ATOM      2  CB  ARG D 557     -26.789   1.319 -17.183  1.00 35.49     0.034 C 
BRANCH   2   3
ATOM      3  CG  ARG D 557     -25.836   0.203 -17.156  1.00 35.49     0.027 C 
BRANCH   3   4
ATOM      4  CD  ARG D 557     -24.756   0.407 -16.163  1.00 35.49     0.116 C 
BRANCH   4   5
ATOM      5  NE  ARG D 557     -24.909  -0.445 -15.013  1.00 35.49    -0.212 N 
ATOM      6  CZ  ARG D 557     -24.096  -1.417 -14.664  1.00 35.49     0.666 C 
ATOM      7  NH1 ARG D 557     -23.024  -1.732 -15.368  1.00 35.49    -0.235 N 
ATOM      8  NH2 ARG D 557     -24.378  -2.074 -13.577  1.00 35.49    -0.235 N 
ATOM      9  HH  ARG D 557     -22.818  -1.312 -16.085  1.00 35.49     0.174 HD
ATOM     10  HH  ARG D 557     -22.530  -2.374 -15.090  1.00 35.49     0.174 HD
ATOM     11  HH  ARG D 557     -25.073  -1.844 -13.139  1.00 35.49     0.174 HD
ATOM     12  HH  ARG D 557     -23.875  -2.706 -13.318  1.00 35.49     0.174 HD
ATOM     13  HE  ARG D 557     -25.612  -0.359 -14.543  1.00 35.49     0.178 HD
ENDBRANCH   4   5
ENDBRANCH   3   4
ENDBRANCH   2   3
ENDBRANCH   1   2
END_RES ARG D 557
BEGIN_RES GLU D 570
REMARK  3 active torsions:
REMARK  status: ('A' for Active; 'I' for Inactive)
REMARK    5  A    between atoms: CA   and  CB  
REMARK    6  A    between atoms: CB   and  CG  
REMARK    7  A    between atoms: CG   and  CD  
ROOT
ATOM     14  CA  GLU D 570     -18.033  -6.348 -13.375  1.00 32.92     0.160 C 
ENDROOT
BRANCH  14  15
ATOM     15  CB  GLU D 570     -19.500  -6.345 -13.794  1.00 32.92     0.043 C 
BRANCH  15  16
ATOM     16  CG  GLU D 570     -20.441  -5.529 -12.985  1.00 32.92     0.100 C 
BRANCH  16  17
ATOM     17  CD  GLU D 570     -21.735  -5.232 -13.707  1.00 32.92     0.185 C 
ATOM     18  OE1 GLU D 570     -22.184  -6.069 -14.513  1.00 32.92    -0.647 OA
ATOM     19  OE2 GLU D 570     -22.296  -4.142 -13.477  1.00 32.92    -0.647 OA
ENDBRANCH  16  17
ENDBRANCH  15  16
ENDBRANCH  14  15
END_RES GLU D 570
ENDMDL
MODEL 7
REMARK VINA RESULT:      -7.8     14.706     19.552
REMARK  1 active torsions:
REMARK  status: ('A' for Active; 'I' for Inactive)
REMARK    1  A    between atoms: C_5  and  O_32 
ROOT
HETATM    1  C   UNL     1     -21.244  -7.258  -6.387  1.00  0.00     0.018 C 
HETATM    2  C   UNL     1     -21.551  -7.357  -4.879  1.00  0.00     0.062 C 
HETATM    3  C   UNL     1     -21.134  -6.064  -4.216  1.00  0.00     0.159 C 
HETATM    4  O   UNL     1     -20.465  -5.183  -4.760  1.00  0.00    -0.295 OA
HETATM    5  C   UNL     1     -21.580  -5.923  -2.742  1.00  0.00     0.188 C 
HETATM    6  C   UNL     1     -20.960  -7.077  -1.958  1.00  0.00     0.045 C 
HETATM    7  C   UNL     1     -21.374  -8.457  -2.515  1.00  0.00     0.006 C 
HETATM    8  C   UNL     1     -20.917  -8.572  -4.081  1.00  0.00    -0.029 C 
HETATM    9  C   UNL     1     -21.464  -9.905  -4.615  1.00  0.00     0.011 C 
HETATM   10  C   UNL     1     -20.968 -11.060  -3.745  1.00  0.00     0.007 C 
HETATM   11  C   UNL     1     -21.611 -10.970  -2.335  1.00  0.00     0.003 C 
HETATM   12  C   UNL     1     -21.077  -9.717  -1.539  1.00  0.00    -0.035 C 
HETATM   13  C   UNL     1     -21.931  -9.853  -0.234  1.00  0.00     0.011 C 
HETATM   14  C   UNL     1     -21.567 -11.192   0.595  1.00  0.00     0.011 C 
HETATM   15  C   UNL     1     -22.370 -12.392  -0.010  1.00  0.00    -0.032 C 
HETATM   16  C   UNL     1     -21.740 -12.368  -1.590  1.00  0.00    -0.032 C 
HETATM   17  C   UNL     1     -22.618 -13.259  -2.510  1.00  0.00     0.011 C 
HETATM   18  C   UNL     1     -22.681 -14.698  -2.075  1.00  0.00     0.010 C 
HETATM   19  C   UNL     1     -23.251 -14.832  -0.664  1.00  0.00    -0.040 C 
HETATM   20  C   UNL     1     -22.322 -13.987   0.370  1.00  0.00     0.003 C 
HETATM   21  C   UNL     1     -22.458 -14.645   1.802  1.00  0.00     0.015 C 
HETATM   22  C   UNL     1     -21.969 -16.197   1.781  1.00  0.00    -0.047 C 
HETATM   23  C   UNL     1     -21.921 -16.708   0.322  1.00  0.00     0.009 C 
HETATM   24  C   UNL     1     -23.232 -16.335  -0.342  1.00  0.00     0.010 C 
HETATM   25  C   UNL     1     -22.916 -17.182   2.510  1.00  0.00     0.015 C 
HETATM   26  C   UNL     1     -20.571 -16.384   2.427  1.00  0.00     0.015 C 
HETATM   27  C   UNL     1     -24.752 -14.452  -0.775  1.00  0.00     0.015 C 
HETATM   28  C   UNL     1     -20.259 -12.945  -1.633  1.00  0.00     0.016 C 
HETATM   29  C   UNL     1     -23.765 -11.967   0.587  1.00  0.00     0.016 C 
HETATM   30  C   UNL     1     -19.651  -9.532  -0.963  1.00  0.00     0.016 C 
HETATM   31  C   UNL     1     -19.389  -8.591  -4.397  1.00  0.00     0.016 C 
ENDROOT
BRANCH   5  32
HETATM   32  O   UNL     1     -22.997  -5.879  -2.609  1.00  0.00    -0.388 OA
HETATM   33  H   UNL     1     -23.258  -5.125  -2.058  1.00  0.00     0.210 HD
ENDBRANCH   5  32
TORSDOF 1
BEGIN_RES ARG D 557
REMARK  4 active torsions:
REMARK  status: ('A' for Active; 'I' for Inactive)
REMARK    1  A    between atoms: CA   and  CB  
REMARK    2  A    between atoms: CB   and  CG  
REMARK    3  A    between atoms: CG   and  CD  
REMARK    4  A    between atoms: CD   and  NE  
REMARK       I    between atoms: NE   and  CZ  
REMARK       I    between atoms: CZ   and  NH1 
REMARK       I    between atoms: CZ   and  NH2 
ROOT
ATOM      1  CA  ARG D 557     -26.217   2.705 -17.014  1.00 35.49     0.159 C 
ENDROOT
BRANCH   1   2
ATOM      2  CB  ARG D 557     -26.789   1.319 -17.183  1.00 35.49     0.034 C 
BRANCH   2   3
ATOM      3  CG  ARG D 557     -28.221   1.229 -17.494  1.00 35.49     0.027 C 
BRANCH   3   4
ATOM      4  CD  ARG D 557     -28.945   0.334 -16.563  1.00 35.49     0.116 C 
BRANCH   4   5
ATOM      5  NE  ARG D 557     -29.191  -0.962 -17.137  1.00 35.49    -0.212 N 
ATOM      6  CZ  ARG D 557     -28.460  -2.038 -16.947  1.00 35.49     0.666 C 
ATOM      7  NH1 ARG D 557     -27.376  -2.034 -16.193  1.00 35.49    -0.235 N 
ATOM      8  NH2 ARG D 557     -28.844  -3.136 -17.530  1.00 35.49    -0.235 N 
ATOM      9  HH  ARG D 557     -27.106  -1.323 -15.798  1.00 35.49     0.174 HD
ATOM     10  HH  ARG D 557     -26.940  -2.766 -16.103  1.00 35.49     0.174 HD
ATOM     11  HH  ARG D 557     -29.552  -3.110 -18.005  1.00 35.49     0.174 HD
ATOM     12  HH  ARG D 557     -28.400  -3.851 -17.428  1.00 35.49     0.174 HD
ATOM     13  HE  ARG D 557     -29.829  -1.038 -17.694  1.00 35.49     0.178 HD
ENDBRANCH   4   5
ENDBRANCH   3   4
ENDBRANCH   2   3
ENDBRANCH   1   2
END_RES ARG D 557
BEGIN_RES GLU D 570
REMARK  3 active torsions:
REMARK  status: ('A' for Active; 'I' for Inactive)
REMARK    5  A    between atoms: CA   and  CB  
REMARK    6  A    between atoms: CB   and  CG  
REMARK    7  A    between atoms: CG   and  CD  
ROOT
ATOM     14  CA  GLU D 570     -18.033  -6.348 -13.375  1.00 32.92     0.160 C 
ENDROOT
BRANCH  14  15
ATOM     15  CB  GLU D 570     -19.500  -6.345 -13.794  1.00 32.92     0.043 C 
BRANCH  15  16
ATOM     16  CG  GLU D 570     -20.446  -5.552 -12.967  1.00 32.92     0.100 C 
BRANCH  16  17
ATOM     17  CD  GLU D 570     -21.730  -5.223 -13.693  1.00 32.92     0.185 C 
ATOM     18  OE1 GLU D 570     -22.139  -5.996 -14.580  1.00 32.92    -0.647 OA
ATOM     19  OE2 GLU D 570     -22.324  -4.171 -13.383  1.00 32.92    -0.647 OA
ENDBRANCH  16  17
ENDBRANCH  15  16
ENDBRANCH  14  15
END_RES GLU D 570
ENDMDL
MODEL 8
REMARK VINA RESULT:      -7.5     17.111     21.131
REMARK  1 active torsions:
REMARK  status: ('A' for Active; 'I' for Inactive)
REMARK    1  A    between atoms: C_5  and  O_32 
ROOT
HETATM    1  C   UNL     1     -17.954 -12.031  -7.036  1.00  0.00     0.018 C 
HETATM    2  C   UNL     1     -18.724 -11.295  -5.919  1.00  0.00     0.062 C 
HETATM    3  C   UNL     1     -18.175  -9.891  -5.801  1.00  0.00     0.159 C 
HETATM    4  O   UNL     1     -17.147  -9.492  -6.352  1.00  0.00    -0.295 OA
HETATM    5  C   UNL     1     -18.990  -8.957  -4.876  1.00  0.00     0.188 C 
HETATM    6  C   UNL     1     -19.001  -9.580  -3.482  1.00  0.00     0.045 C 
HETATM    7  C   UNL     1     -19.604 -11.001  -3.476  1.00  0.00     0.006 C 
HETATM    8  C   UNL     1     -18.743 -11.962  -4.481  1.00  0.00    -0.029 C 
HETATM    9  C   UNL     1     -19.461 -13.321  -4.533  1.00  0.00     0.011 C 
HETATM   10  C   UNL     1     -19.610 -13.887  -3.121  1.00  0.00     0.007 C 
HETATM   11  C   UNL     1     -20.599 -13.012  -2.305  1.00  0.00     0.003 C 
HETATM   12  C   UNL     1     -19.997 -11.583  -2.015  1.00  0.00    -0.035 C 
HETATM   13  C   UNL     1     -21.210 -10.935  -1.268  1.00  0.00     0.011 C 
HETATM   14  C   UNL     1     -21.520 -11.667   0.140  1.00  0.00     0.011 C 
HETATM   15  C   UNL     1     -22.410 -12.926  -0.134  1.00  0.00    -0.032 C 
HETATM   16  C   UNL     1     -21.347 -13.792  -1.140  1.00  0.00    -0.032 C 
HETATM   17  C   UNL     1     -22.119 -14.948  -1.833  1.00  0.00     0.011 C 
HETATM   18  C   UNL     1     -22.725 -15.932  -0.869  1.00  0.00     0.010 C 
HETATM   19  C   UNL     1     -23.713 -15.253   0.079  1.00  0.00    -0.040 C 
HETATM   20  C   UNL     1     -22.943 -14.081   0.903  1.00  0.00     0.003 C 
HETATM   21  C   UNL     1     -23.694 -13.874   2.279  1.00  0.00     0.015 C 
HETATM   22  C   UNL     1     -23.692 -15.244   3.158  1.00  0.00    -0.047 C 
HETATM   23  C   UNL     1     -23.349 -16.446   2.248  1.00  0.00     0.009 C 
HETATM   24  C   UNL     1     -24.228 -16.358   1.015  1.00  0.00     0.010 C 
HETATM   25  C   UNL     1     -25.058 -15.608   3.790  1.00  0.00     0.015 C 
HETATM   26  C   UNL     1     -22.675 -15.192   4.329  1.00  0.00     0.015 C 
HETATM   27  C   UNL     1     -24.931 -14.851  -0.796  1.00  0.00     0.015 C 
HETATM   28  C   UNL     1     -20.157 -14.440  -0.308  1.00  0.00     0.016 C 
HETATM   29  C   UNL     1     -23.735 -12.124  -0.422  1.00  0.00     0.016 C 
HETATM   30  C   UNL     1     -18.826 -11.256  -1.055  1.00  0.00     0.016 C 
HETATM   31  C   UNL     1     -17.266 -12.285  -4.096  1.00  0.00     0.016 C 
ENDROOT
BRANCH   5  32
HETATM   32  O   UNL     1     -20.303  -8.720  -5.371  1.00  0.00    -0.388 OA
HETATM   33  H   UNL     1     -20.758  -9.562  -5.531  1.00  0.00     0.210 HD
ENDBRANCH   5  32
TORSDOF 1
BEGIN_RES ARG D 557
REMARK  4 active torsions:
REMARK  status: ('A' for Active; 'I' for Inactive)
REMARK    1  A    between atoms: CA   and  CB  
REMARK    2  A    between atoms: CB   and  CG  
REMARK    3  A    between atoms: CG   and  CD  
REMARK    4  A    between atoms: CD   and  NE  
REMARK       I    between atoms: NE   and  CZ  
REMARK       I    between atoms: CZ   and  NH1 
REMARK       I    between atoms: CZ   and  NH2 
ROOT
ATOM      1  CA  ARG D 557     -26.217   2.705 -17.014  1.00 35.49     0.159 C 
ENDROOT
BRANCH   1   2
ATOM      2  CB  ARG D 557     -26.789   1.319 -17.183  1.00 35.49     0.034 C 
BRANCH   2   3
ATOM      3  CG  ARG D 557     -25.866   0.195 -16.984  1.00 35.49     0.027 C 
BRANCH   3   4
ATOM      4  CD  ARG D 557     -26.281  -0.685 -15.868  1.00 35.49     0.116 C 
BRANCH   4   5
ATOM      5  NE  ARG D 557     -25.218  -0.900 -14.923  1.00 35.49    -0.212 N 
ATOM      6  CZ  ARG D 557     -24.910  -2.048 -14.361  1.00 35.49     0.666 C 
ATOM      7  NH1 ARG D 557     -25.579  -3.159 -14.605  1.00 35.49    -0.235 N 
ATOM      8  NH2 ARG D 557     -23.899  -2.063 -13.542  1.00 35.49    -0.235 N 
ATOM      9  HH  ARG D 557     -26.247  -3.173 -15.142  1.00 35.49     0.174 HD
ATOM     10  HH  ARG D 557     -25.331  -3.879 -14.211  1.00 35.49     0.174 HD
ATOM     11  HH  ARG D 557     -23.480  -1.332 -13.409  1.00 35.49     0.174 HD
ATOM     12  HH  ARG D 557     -23.668  -2.785 -13.163  1.00 35.49     0.174 HD
ATOM     13  HE  ARG D 557     -24.780  -0.223 -14.653  1.00 35.49     0.178 HD
ENDBRANCH   4   5
ENDBRANCH   3   4
ENDBRANCH   2   3
ENDBRANCH   1   2
END_RES ARG D 557
BEGIN_RES GLU D 570
REMARK  3 active torsions:
REMARK  status: ('A' for Active; 'I' for Inactive)
REMARK    5  A    between atoms: CA   and  CB  
REMARK    6  A    between atoms: CB   and  CG  
REMARK    7  A    between atoms: CG   and  CD  
ROOT
ATOM     14  CA  GLU D 570     -18.033  -6.348 -13.375  1.00 32.92     0.160 C 
ENDROOT
BRANCH  14  15
ATOM     15  CB  GLU D 570     -19.500  -6.345 -13.794  1.00 32.92     0.043 C 
BRANCH  15  16
ATOM     16  CG  GLU D 570     -20.448  -5.558 -12.963  1.00 32.92     0.100 C 
BRANCH  16  17
ATOM     17  CD  GLU D 570     -21.696  -5.157 -13.714  1.00 32.92     0.185 C 
ATOM     18  OE1 GLU D 570     -21.673  -5.135 -14.959  1.00 32.92    -0.647 OA
ATOM     19  OE2 GLU D 570     -22.703  -4.844 -13.048  1.00 32.92    -0.647 OA
ENDBRANCH  16  17
ENDBRANCH  15  16
ENDBRANCH  14  15
END_RES GLU D 570
ENDMDL
MODEL 9
REMARK VINA RESULT:      -7.4     17.010     21.699
REMARK  1 active torsions:
REMARK  status: ('A' for Active; 'I' for Inactive)
REMARK    1  A    between atoms: C_5  and  O_32 
ROOT
HETATM    1  C   UNL     1     -20.497 -11.933  -6.860  1.00  0.00     0.018 C 
HETATM    2  C   UNL     1     -20.185 -11.532  -5.403  1.00  0.00     0.062 C 
HETATM    3  C   UNL     1     -20.759 -10.157  -5.149  1.00  0.00     0.159 C 
HETATM    4  O   UNL     1     -21.200  -9.409  -6.024  1.00  0.00    -0.295 OA
HETATM    5  C   UNL     1     -20.721  -9.707  -3.669  1.00  0.00     0.188 C 
HETATM    6  C   UNL     1     -19.260  -9.700  -3.224  1.00  0.00     0.045 C 
HETATM    7  C   UNL     1     -18.590 -11.082  -3.383  1.00  0.00     0.006 C 
HETATM    8  C   UNL     1     -18.667 -11.548  -4.949  1.00  0.00    -0.029 C 
HETATM    9  C   UNL     1     -18.102 -12.976  -5.024  1.00  0.00     0.011 C 
HETATM   10  C   UNL     1     -16.689 -13.011  -4.442  1.00  0.00     0.007 C 
HETATM   11  C   UNL     1     -16.743 -12.747  -2.913  1.00  0.00     0.003 C 
HETATM   12  C   UNL     1     -17.182 -11.264  -2.601  1.00  0.00    -0.035 C 
HETATM   13  C   UNL     1     -17.213 -11.325  -1.037  1.00  0.00     0.011 C 
HETATM   14  C   UNL     1     -15.745 -11.579  -0.409  1.00  0.00     0.011 C 
HETATM   15  C   UNL     1     -15.451 -13.116  -0.424  1.00  0.00    -0.032 C 
HETATM   16  C   UNL     1     -15.538 -13.390  -2.101  1.00  0.00    -0.032 C 
HETATM   17  C   UNL     1     -15.611 -14.917  -2.372  1.00  0.00     0.011 C 
HETATM   18  C   UNL     1     -14.421 -15.679  -1.855  1.00  0.00     0.010 C 
HETATM   19  C   UNL     1     -14.260 -15.511  -0.345  1.00  0.00    -0.040 C 
HETATM   20  C   UNL     1     -14.091 -13.931   0.001  1.00  0.00     0.003 C 
HETATM   21  C   UNL     1     -13.271 -13.808   1.348  1.00  0.00     0.015 C 
HETATM   22  C   UNL     1     -11.800 -14.489   1.201  1.00  0.00    -0.047 C 
HETATM   23  C   UNL     1     -11.778 -15.420  -0.034  1.00  0.00     0.009 C 
HETATM   24  C   UNL     1     -13.004 -16.311   0.037  1.00  0.00     0.010 C 
HETATM   25  C   UNL     1     -11.388 -15.398   2.384  1.00  0.00     0.015 C 
HETATM   26  C   UNL     1     -10.673 -13.433   1.055  1.00  0.00     0.015 C 
HETATM   27  C   UNL     1     -15.448 -16.276   0.295  1.00  0.00     0.015 C 
HETATM   28  C   UNL     1     -14.252 -12.830  -2.848  1.00  0.00     0.016 C 
HETATM   29  C   UNL     1     -16.419 -13.475   0.765  1.00  0.00     0.016 C 
HETATM   30  C   UNL     1     -16.344  -9.986  -2.850  1.00  0.00     0.016 C 
HETATM   31  C   UNL     1     -17.857 -10.724  -5.998  1.00  0.00     0.016 C 
ENDROOT
BRANCH   5  32
HETATM   32  O   UNL     1     -21.535 -10.525  -2.836  1.00  0.00    -0.388 OA
HETATM   33  H   UNL     1     -22.195  -9.982  -2.376  1.00  0.00     0.210 HD
ENDBRANCH   5  32
TORSDOF 1
BEGIN_RES ARG D 557
REMARK  4 active torsions:
REMARK  status: ('A' for Active; 'I' for Inactive)
REMARK    1  A    between atoms: CA   and  CB  
REMARK    2  A    between atoms: CB   and  CG  
REMARK    3  A    between atoms: CG   and  CD  
REMARK    4  A    between atoms: CD   and  NE  
REMARK       I    between atoms: NE   and  CZ  
REMARK       I    between atoms: CZ   and  NH1 
REMARK       I    between atoms: CZ   and  NH2 
ROOT
ATOM      1  CA  ARG D 557     -26.217   2.705 -17.014  1.00 35.49     0.159 C 
ENDROOT
BRANCH   1   2
ATOM      2  CB  ARG D 557     -26.789   1.319 -17.183  1.00 35.49     0.034 C 
BRANCH   2   3
ATOM      3  CG  ARG D 557     -25.839   0.201 -17.133  1.00 35.49     0.027 C 
BRANCH   3   4
ATOM      4  CD  ARG D 557     -24.765   0.418 -16.137  1.00 35.49     0.116 C 
BRANCH   4   5
ATOM      5  NE  ARG D 557     -24.911  -0.435 -14.987  1.00 35.49    -0.212 N 
ATOM      6  CZ  ARG D 557     -24.118  -1.433 -14.665  1.00 35.49     0.666 C 
ATOM      7  NH1 ARG D 557     -23.075  -1.775 -15.399  1.00 35.49    -0.235 N 
ATOM      8  NH2 ARG D 557     -24.389  -2.087 -13.574  1.00 35.49    -0.235 N 
ATOM      9  HH  ARG D 557     -22.876  -1.357 -16.120  1.00 35.49     0.174 HD
ATOM     10  HH  ARG D 557     -22.592  -2.433 -15.138  1.00 35.49     0.174 HD
ATOM     11  HH  ARG D 557     -25.065  -1.839 -13.116  1.00 35.49     0.174 HD
ATOM     12  HH  ARG D 557     -23.898  -2.735 -13.331  1.00 35.49     0.174 HD
ATOM     13  HE  ARG D 557     -25.599  -0.332 -14.498  1.00 35.49     0.178 HD
ENDBRANCH   4   5
ENDBRANCH   3   4
ENDBRANCH   2   3
ENDBRANCH   1   2
END_RES ARG D 557
BEGIN_RES GLU D 570
REMARK  3 active torsions:
REMARK  status: ('A' for Active; 'I' for Inactive)
REMARK    5  A    between atoms: CA   and  CB  
REMARK    6  A    between atoms: CB   and  CG  
REMARK    7  A    between atoms: CG   and  CD  
ROOT
ATOM     14  CA  GLU D 570     -18.033  -6.348 -13.375  1.00 32.92     0.160 C 
ENDROOT
BRANCH  14  15
ATOM     15  CB  GLU D 570     -19.500  -6.345 -13.794  1.00 32.92     0.043 C 
BRANCH  15  16
ATOM     16  CG  GLU D 570     -20.448  -5.558 -12.963  1.00 32.92     0.100 C 
BRANCH  16  17
ATOM     17  CD  GLU D 570     -21.729  -5.222 -13.689  1.00 32.92     0.185 C 
ATOM     18  OE1 GLU D 570     -22.207  -6.050 -14.489  1.00 32.92    -0.647 OA
ATOM     19  OE2 GLU D 570     -22.253  -4.113 -13.468  1.00 32.92    -0.647 OA
ENDBRANCH  16  17
ENDBRANCH  15  16
ENDBRANCH  14  15
END_RES GLU D 570
ENDMDL
