MODEL 1
REMARK VINA RESULT:      -7.5      0.000      0.000
REMARK  5 active torsions:
REMARK  status: ('A' for Active; 'I' for Inactive)
REMARK    1  A    between atoms: C_2  and  C_4 
REMARK    2  A    between atoms: C_4  and  O_5 
REMARK    3  A    between atoms: O_5  and  C_6 
REMARK    4  A    between atoms: C_6  and  C_8 
REMARK    5  A    between atoms: C_11  and  O_14 
ROOT
HETATM    1  C   UNL     1     -23.840  -3.859 -11.679  1.00  0.00     0.039 A 
HETATM    2  C   UNL     1     -23.536  -5.096 -12.269  1.00  0.00     0.020 A 
HETATM    3  C   UNL     1     -22.927  -5.148 -13.526  1.00  0.00     0.037 A 
HETATM    4  C   UNL     1     -22.625  -3.963 -14.189  1.00  0.00     0.065 A 
HETATM    5  C   UNL     1     -22.912  -2.730 -13.612  1.00  0.00     0.037 A 
HETATM    6  C   UNL     1     -23.514  -2.674 -12.352  1.00  0.00     0.020 A 
ENDROOT
BRANCH   1   7
HETATM    7  C   UNL     1     -24.432  -3.773 -10.313  1.00  0.00     0.293 C 
HETATM    8  O   UNL     1     -25.452  -3.162 -10.053  1.00  0.00    -0.259 OA
BRANCH   7   9
HETATM    9  O   UNL     1     -23.631  -4.423  -9.430  1.00  0.00    -0.317 OA
BRANCH   9  10
HETATM   10  C   UNL     1     -22.503  -3.689  -8.936  1.00  0.00     0.183 C 
BRANCH  10  11
HETATM   11  C   UNL     1     -21.182  -4.455  -9.076  1.00  0.00     0.002 C 
HETATM   12  C   UNL     1     -20.492  -4.176 -10.414  1.00  0.00     0.011 C 
HETATM   13  C   UNL     1     -20.256  -4.066  -7.920  1.00  0.00     0.011 C 
ENDBRANCH  10  11
ENDBRANCH   9  10
ENDBRANCH   7   9
ENDBRANCH   1   7
BRANCH   4  14
HETATM   14  O   UNL     1     -22.034  -3.971 -15.417  1.00  0.00    -0.361 OA
HETATM   15  H   UNL     1     -22.650  -3.589 -16.064  1.00  0.00     0.217 HD
ENDBRANCH   4  14
TORSDOF 5
BEGIN_RES ARG D 557
REMARK  4 active torsions:
REMARK  status: ('A' for Active; 'I' for Inactive)
REMARK    1  A    between atoms: CA   and  CB  
REMARK    2  A    between atoms: CB   and  CG  
REMARK    3  A    between atoms: CG   and  CD  
REMARK    4  A    between atoms: CD   and  NE  
REMARK       I    between atoms: NE   and  CZ  
REMARK       I    between atoms: CZ   and  NH1 
REMARK       I    between atoms: CZ   and  NH2 
ROOT
ATOM      1  CA  ARG D 557     -26.217   2.705 -17.014  1.00 35.49     0.159 C 
ENDROOT
BRANCH   1   2
ATOM      2  CB  ARG D 557     -26.789   1.319 -17.183  1.00 35.49     0.034 C 
BRANCH   2   3
ATOM      3  CG  ARG D 557     -28.222   1.157 -16.906  1.00 35.49     0.027 C 
BRANCH   3   4
ATOM      4  CD  ARG D 557     -28.594  -0.256 -16.669  1.00 35.49     0.116 C 
BRANCH   4   5
ATOM      5  NE  ARG D 557     -27.567  -0.976 -15.963  1.00 35.49    -0.212 N 
ATOM      6  CZ  ARG D 557     -27.357  -2.272 -16.026  1.00 35.49     0.666 C 
ATOM      7  NH1 ARG D 557     -28.103  -3.077 -16.759  1.00 35.49    -0.235 N 
ATOM      8  NH2 ARG D 557     -26.365  -2.753 -15.334  1.00 35.49    -0.235 N 
ATOM      9  HH  ARG D 557     -28.760  -2.782 -17.224  1.00 35.49     0.174 HD
ATOM     10  HH  ARG D 557     -27.917  -3.914 -16.764  1.00 35.49     0.174 HD
ATOM     11  HH  ARG D 557     -25.895  -2.209 -14.876  1.00 35.49     0.174 HD
ATOM     12  HH  ARG D 557     -26.195  -3.584 -15.353  1.00 35.49     0.174 HD
ATOM     13  HE  ARG D 557     -27.085  -0.546 -15.410  1.00 35.49     0.178 HD
ENDBRANCH   4   5
ENDBRANCH   3   4
ENDBRANCH   2   3
ENDBRANCH   1   2
END_RES ARG D 557
BEGIN_RES GLU D 570
REMARK  3 active torsions:
REMARK  status: ('A' for Active; 'I' for Inactive)
REMARK    5  A    between atoms: CA   and  CB  
REMARK    6  A    between atoms: CB   and  CG  
REMARK    7  A    between atoms: CG   and  CD  
ROOT
ATOM     14  CA  GLU D 570     -18.033  -6.348 -13.375  1.00 32.92     0.160 C 
ENDROOT
BRANCH  14  15
ATOM     15  CB  GLU D 570     -19.500  -6.345 -13.794  1.00 32.92     0.043 C 
BRANCH  15  16
ATOM     16  CG  GLU D 570     -20.085  -7.633 -14.249  1.00 32.92     0.100 C 
BRANCH  16  17
ATOM     17  CD  GLU D 570     -20.708  -7.545 -15.622  1.00 32.92     0.185 C 
ATOM     18  OE1 GLU D 570     -21.191  -8.573 -16.135  1.00 32.92    -0.647 OA
ATOM     19  OE2 GLU D 570     -20.698  -6.440 -16.199  1.00 32.92    -0.647 OA
ENDBRANCH  16  17
ENDBRANCH  15  16
ENDBRANCH  14  15
END_RES GLU D 570
ENDMDL
MODEL 2
REMARK VINA RESULT:      -6.8      1.407      3.738
REMARK  5 active torsions:
REMARK  status: ('A' for Active; 'I' for Inactive)
REMARK    1  A    between atoms: C_2  and  C_4 
REMARK    2  A    between atoms: C_4  and  O_5 
REMARK    3  A    between atoms: O_5  and  C_6 
REMARK    4  A    between atoms: C_6  and  C_8 
REMARK    5  A    between atoms: C_11  and  O_14 
ROOT
HETATM    1  C   UNL     1     -22.970  -3.645 -10.139  1.00  0.00     0.039 A 
HETATM    2  C   UNL     1     -21.742  -3.752 -10.810  1.00  0.00     0.020 A 
HETATM    3  C   UNL     1     -20.607  -4.213 -10.137  1.00  0.00     0.037 A 
HETATM    4  C   UNL     1     -20.705  -4.566  -8.795  1.00  0.00     0.065 A 
HETATM    5  C   UNL     1     -21.918  -4.474  -8.120  1.00  0.00     0.037 A 
HETATM    6  C   UNL     1     -23.056  -4.020  -8.792  1.00  0.00     0.020 A 
ENDROOT
BRANCH   1   7
HETATM    7  C   UNL     1     -24.210  -3.215 -10.848  1.00  0.00     0.293 C 
HETATM    8  O   UNL     1     -25.328  -3.298 -10.372  1.00  0.00    -0.259 OA
BRANCH   7   9
HETATM    9  O   UNL     1     -23.892  -2.786 -12.097  1.00  0.00    -0.317 OA
BRANCH   9  10
HETATM   10  C   UNL     1     -24.669  -3.327 -13.172  1.00  0.00     0.183 C 
BRANCH  10  11
HETATM   11  C   UNL     1     -23.831  -4.133 -14.171  1.00  0.00     0.002 C 
HETATM   12  C   UNL     1     -22.516  -3.432 -14.521  1.00  0.00     0.011 C 
HETATM   13  C   UNL     1     -23.544  -5.516 -13.579  1.00  0.00     0.011 C 
ENDBRANCH  10  11
ENDBRANCH   9  10
ENDBRANCH   7   9
ENDBRANCH   1   7
BRANCH   4  14
HETATM   14  O   UNL     1     -19.622  -5.017  -8.102  1.00  0.00    -0.361 OA
HETATM   15  H   UNL     1     -19.926  -5.416  -7.270  1.00  0.00     0.217 HD
ENDBRANCH   4  14
TORSDOF 5
BEGIN_RES ARG D 557
REMARK  4 active torsions:
REMARK  status: ('A' for Active; 'I' for Inactive)
REMARK    1  A    between atoms: CA   and  CB  
REMARK    2  A    between atoms: CB   and  CG  
REMARK    3  A    between atoms: CG   and  CD  
REMARK    4  A    between atoms: CD   and  NE  
REMARK       I    between atoms: NE   and  CZ  
REMARK       I    between atoms: CZ   and  NH1 
REMARK       I    between atoms: CZ   and  NH2 
ROOT
ATOM      1  CA  ARG D 557     -26.217   2.705 -17.014  1.00 35.49     0.159 C 
ENDROOT
BRANCH   1   2
ATOM      2  CB  ARG D 557     -26.789   1.319 -17.183  1.00 35.49     0.034 C 
BRANCH   2   3
ATOM      3  CG  ARG D 557     -28.227   1.227 -17.464  1.00 35.49     0.027 C 
BRANCH   3   4
ATOM      4  CD  ARG D 557     -28.928   0.322 -16.525  1.00 35.49     0.116 C 
BRANCH   4   5
ATOM      5  NE  ARG D 557     -29.290  -0.926 -17.144  1.00 35.49    -0.212 N 
ATOM      6  CZ  ARG D 557     -28.639  -2.061 -17.021  1.00 35.49     0.666 C 
ATOM      7  NH1 ARG D 557     -27.538  -2.173 -16.302  1.00 35.49    -0.235 N 
ATOM      8  NH2 ARG D 557     -29.123  -3.101 -17.637  1.00 35.49    -0.235 N 
ATOM      9  HH  ARG D 557     -27.203  -1.503 -15.886  1.00 35.49     0.174 HD
ATOM     10  HH  ARG D 557     -27.158  -2.940 -16.256  1.00 35.49     0.174 HD
ATOM     11  HH  ARG D 557     -29.840  -3.000 -18.088  1.00 35.49     0.174 HD
ATOM     12  HH  ARG D 557     -28.733  -3.851 -17.578  1.00 35.49     0.174 HD
ATOM     13  HE  ARG D 557     -29.947  -0.929 -17.684  1.00 35.49     0.178 HD
ENDBRANCH   4   5
ENDBRANCH   3   4
ENDBRANCH   2   3
ENDBRANCH   1   2
END_RES ARG D 557
BEGIN_RES GLU D 570
REMARK  3 active torsions:
REMARK  status: ('A' for Active; 'I' for Inactive)
REMARK    5  A    between atoms: CA   and  CB  
REMARK    6  A    between atoms: CB   and  CG  
REMARK    7  A    between atoms: CG   and  CD  
ROOT
ATOM     14  CA  GLU D 570     -18.033  -6.348 -13.375  1.00 32.92     0.160 C 
ENDROOT
BRANCH  14  15
ATOM     15  CB  GLU D 570     -19.500  -6.345 -13.794  1.00 32.92     0.043 C 
BRANCH  15  16
ATOM     16  CG  GLU D 570     -20.082  -7.631 -14.258  1.00 32.92     0.100 C 
BRANCH  16  17
ATOM     17  CD  GLU D 570     -20.768  -7.517 -15.599  1.00 32.92     0.185 C 
ATOM     18  OE1 GLU D 570     -20.949  -6.388 -16.093  1.00 32.92    -0.647 OA
ATOM     19  OE2 GLU D 570     -21.143  -8.569 -16.155  1.00 32.92    -0.647 OA
ENDBRANCH  16  17
ENDBRANCH  15  16
ENDBRANCH  14  15
END_RES GLU D 570
ENDMDL
MODEL 3
REMARK VINA RESULT:      -6.5      3.224      4.798
REMARK  5 active torsions:
REMARK  status: ('A' for Active; 'I' for Inactive)
REMARK    1  A    between atoms: C_2  and  C_4 
REMARK    2  A    between atoms: C_4  and  O_5 
REMARK    3  A    between atoms: O_5  and  C_6 
REMARK    4  A    between atoms: C_6  and  C_8 
REMARK    5  A    between atoms: C_11  and  O_14 
ROOT
HETATM    1  C   UNL     1     -21.553  -4.680  -7.334  1.00  0.00     0.039 A 
HETATM    2  C   UNL     1     -20.736  -4.470  -8.456  1.00  0.00     0.020 A 
HETATM    3  C   UNL     1     -21.290  -4.032  -9.662  1.00  0.00     0.037 A 
HETATM    4  C   UNL     1     -22.660  -3.805  -9.742  1.00  0.00     0.065 A 
HETATM    5  C   UNL     1     -23.481  -3.999  -8.635  1.00  0.00     0.037 A 
HETATM    6  C   UNL     1     -22.928  -4.430  -7.426  1.00  0.00     0.020 A 
ENDROOT
BRANCH   1   7
HETATM    7  C   UNL     1     -20.979  -5.086  -6.020  1.00  0.00     0.293 C 
HETATM    8  O   UNL     1     -19.792  -5.042  -5.753  1.00  0.00    -0.259 OA
BRANCH   7   9
HETATM    9  O   UNL     1     -21.971  -5.556  -5.219  1.00  0.00    -0.317 OA
BRANCH   9  10
HETATM   10  C   UNL     1     -21.737  -6.824  -4.594  1.00  0.00     0.183 C 
BRANCH  10  11
HETATM   11  C   UNL     1     -21.167  -6.699  -3.177  1.00  0.00     0.002 C 
HETATM   12  C   UNL     1     -22.198  -6.152  -2.186  1.00  0.00     0.011 C 
HETATM   13  C   UNL     1     -20.675  -8.073  -2.714  1.00  0.00     0.011 C 
ENDBRANCH  10  11
ENDBRANCH   9  10
ENDBRANCH   7   9
ENDBRANCH   1   7
BRANCH   4  14
HETATM   14  O   UNL     1     -23.241  -3.381 -10.899  1.00  0.00    -0.361 OA
HETATM   15  H   UNL     1     -23.096  -4.051 -11.587  1.00  0.00     0.217 HD
ENDBRANCH   4  14
TORSDOF 5
BEGIN_RES ARG D 557
REMARK  4 active torsions:
REMARK  status: ('A' for Active; 'I' for Inactive)
REMARK    1  A    between atoms: CA   and  CB  
REMARK    2  A    between atoms: CB   and  CG  
REMARK    3  A    between atoms: CG   and  CD  
REMARK    4  A    between atoms: CD   and  NE  
REMARK       I    between atoms: NE   and  CZ  
REMARK       I    between atoms: CZ   and  NH1 
REMARK       I    between atoms: CZ   and  NH2 
ROOT
ATOM      1  CA  ARG D 557     -26.217   2.705 -17.014  1.00 35.49     0.159 C 
ENDROOT
BRANCH   1   2
ATOM      2  CB  ARG D 557     -26.789   1.319 -17.183  1.00 35.49     0.034 C 
BRANCH   2   3
ATOM      3  CG  ARG D 557     -25.865   0.195 -16.990  1.00 35.49     0.027 C 
BRANCH   3   4
ATOM      4  CD  ARG D 557     -26.292  -0.706 -15.895  1.00 35.49     0.116 C 
BRANCH   4   5
ATOM      5  NE  ARG D 557     -25.241  -0.934 -14.940  1.00 35.49    -0.212 N 
ATOM      6  CZ  ARG D 557     -24.965  -2.081 -14.361  1.00 35.49     0.666 C 
ATOM      7  NH1 ARG D 557     -25.660  -3.179 -14.595  1.00 35.49    -0.235 N 
ATOM      8  NH2 ARG D 557     -23.960  -2.111 -13.534  1.00 35.49    -0.235 N 
ATOM      9  HH  ARG D 557     -26.324  -3.184 -15.137  1.00 35.49     0.174 HD
ATOM     10  HH  ARG D 557     -25.432  -3.899 -14.191  1.00 35.49     0.174 HD
ATOM     11  HH  ARG D 557     -23.525  -1.388 -13.408  1.00 35.49     0.174 HD
ATOM     12  HH  ARG D 557     -23.749  -2.833 -13.145  1.00 35.49     0.174 HD
ATOM     13  HE  ARG D 557     -24.788  -0.264 -14.675  1.00 35.49     0.178 HD
ENDBRANCH   4   5
ENDBRANCH   3   4
ENDBRANCH   2   3
ENDBRANCH   1   2
END_RES ARG D 557
BEGIN_RES GLU D 570
REMARK  3 active torsions:
REMARK  status: ('A' for Active; 'I' for Inactive)
REMARK    5  A    between atoms: CA   and  CB  
REMARK    6  A    between atoms: CB   and  CG  
REMARK    7  A    between atoms: CG   and  CD  
ROOT
ATOM     14  CA  GLU D 570     -18.033  -6.348 -13.375  1.00 32.92     0.160 C 
ENDROOT
BRANCH  14  15
ATOM     15  CB  GLU D 570     -19.500  -6.345 -13.794  1.00 32.92     0.043 C 
BRANCH  15  16
ATOM     16  CG  GLU D 570     -20.445  -5.543 -12.974  1.00 32.92     0.100 C 
BRANCH  16  17
ATOM     17  CD  GLU D 570     -21.685  -5.134 -13.734  1.00 32.92     0.185 C 
ATOM     18  OE1 GLU D 570     -21.605  -4.942 -14.963  1.00 32.92    -0.647 OA
ATOM     19  OE2 GLU D 570     -22.743  -4.989 -13.091  1.00 32.92    -0.647 OA
ENDBRANCH  16  17
ENDBRANCH  15  16
ENDBRANCH  14  15
END_RES GLU D 570
ENDMDL
MODEL 4
REMARK VINA RESULT:      -6.4      2.647      3.650
REMARK  5 active torsions:
REMARK  status: ('A' for Active; 'I' for Inactive)
REMARK    1  A    between atoms: C_2  and  C_4 
REMARK    2  A    between atoms: C_4  and  O_5 
REMARK    3  A    between atoms: O_5  and  C_6 
REMARK    4  A    between atoms: C_6  and  C_8 
REMARK    5  A    between atoms: C_11  and  O_14 
ROOT
HETATM    1  C   UNL     1     -21.518  -4.502  -9.243  1.00  0.00     0.039 A 
HETATM    2  C   UNL     1     -22.782  -4.669  -9.828  1.00  0.00     0.020 A 
HETATM    3  C   UNL     1     -22.955  -4.483 -11.202  1.00  0.00     0.037 A 
HETATM    4  C   UNL     1     -21.862  -4.132 -11.987  1.00  0.00     0.065 A 
HETATM    5  C   UNL     1     -20.601  -3.972 -11.422  1.00  0.00     0.037 A 
HETATM    6  C   UNL     1     -20.423  -4.164 -10.049  1.00  0.00     0.020 A 
ENDROOT
BRANCH   1   7
HETATM    7  C   UNL     1     -21.292  -4.754  -7.791  1.00  0.00     0.293 C 
HETATM    8  O   UNL     1     -21.504  -3.932  -6.918  1.00  0.00    -0.259 OA
BRANCH   7   9
HETATM    9  O   UNL     1     -20.771  -5.996  -7.622  1.00  0.00    -0.317 OA
BRANCH   9  10
HETATM   10  C   UNL     1     -20.303  -6.317  -6.306  1.00  0.00     0.183 C 
BRANCH  10  11
HETATM   11  C   UNL     1     -21.164  -7.375  -5.605  1.00  0.00     0.002 C 
HETATM   12  C   UNL     1     -20.327  -8.320  -4.739  1.00  0.00     0.011 C 
HETATM   13  C   UNL     1     -22.215  -6.671  -4.742  1.00  0.00     0.011 C 
ENDBRANCH  10  11
ENDBRANCH   9  10
ENDBRANCH   7   9
ENDBRANCH   1   7
BRANCH   4  14
HETATM   14  O   UNL     1     -21.988  -3.938 -13.330  1.00  0.00    -0.361 OA
HETATM   15  H   UNL     1     -22.822  -3.470 -13.503  1.00  0.00     0.217 HD
ENDBRANCH   4  14
TORSDOF 5
BEGIN_RES ARG D 557
REMARK  4 active torsions:
REMARK  status: ('A' for Active; 'I' for Inactive)
REMARK    1  A    between atoms: CA   and  CB  
REMARK    2  A    between atoms: CB   and  CG  
REMARK    3  A    between atoms: CG   and  CD  
REMARK    4  A    between atoms: CD   and  NE  
REMARK       I    between atoms: NE   and  CZ  
REMARK       I    between atoms: CZ   and  NH1 
REMARK       I    between atoms: CZ   and  NH2 
ROOT
ATOM      1  CA  ARG D 557     -26.217   2.705 -17.014  1.00 35.49     0.159 C 
ENDROOT
BRANCH   1   2
ATOM      2  CB  ARG D 557     -26.789   1.319 -17.183  1.00 35.49     0.034 C 
BRANCH   2   3
ATOM      3  CG  ARG D 557     -25.835   0.204 -17.164  1.00 35.49     0.027 C 
BRANCH   3   4
ATOM      4  CD  ARG D 557     -24.753   0.403 -16.172  1.00 35.49     0.116 C 
BRANCH   4   5
ATOM      5  NE  ARG D 557     -24.908  -0.449 -15.023  1.00 35.49    -0.212 N 
ATOM      6  CZ  ARG D 557     -24.092  -1.417 -14.669  1.00 35.49     0.666 C 
ATOM      7  NH1 ARG D 557     -23.015  -1.727 -15.366  1.00 35.49    -0.235 N 
ATOM      8  NH2 ARG D 557     -24.377  -2.075 -13.583  1.00 35.49    -0.235 N 
ATOM      9  HH  ARG D 557     -22.807  -1.306 -16.083  1.00 35.49     0.174 HD
ATOM     10  HH  ARG D 557     -22.518  -2.366 -15.085  1.00 35.49     0.174 HD
ATOM     11  HH  ARG D 557     -25.075  -1.848 -13.149  1.00 35.49     0.174 HD
ATOM     12  HH  ARG D 557     -23.872  -2.704 -13.321  1.00 35.49     0.174 HD
ATOM     13  HE  ARG D 557     -25.615  -0.367 -14.557  1.00 35.49     0.178 HD
ENDBRANCH   4   5
ENDBRANCH   3   4
ENDBRANCH   2   3
ENDBRANCH   1   2
END_RES ARG D 557
BEGIN_RES GLU D 570
REMARK  3 active torsions:
REMARK  status: ('A' for Active; 'I' for Inactive)
REMARK    5  A    between atoms: CA   and  CB  
REMARK    6  A    between atoms: CB   and  CG  
REMARK    7  A    between atoms: CG   and  CD  
ROOT
ATOM     14  CA  GLU D 570     -18.033  -6.348 -13.375  1.00 32.92     0.160 C 
ENDROOT
BRANCH  14  15
ATOM     15  CB  GLU D 570     -19.500  -6.345 -13.794  1.00 32.92     0.043 C 
BRANCH  15  16
ATOM     16  CG  GLU D 570     -20.061  -7.611 -14.333  1.00 32.92     0.100 C 
BRANCH  16  17
ATOM     17  CD  GLU D 570     -21.203  -7.387 -15.296  1.00 32.92     0.185 C 
ATOM     18  OE1 GLU D 570     -22.047  -6.506 -15.039  1.00 32.92    -0.647 OA
ATOM     19  OE2 GLU D 570     -21.265  -8.111 -16.309  1.00 32.92    -0.647 OA
ENDBRANCH  16  17
ENDBRANCH  15  16
ENDBRANCH  14  15
END_RES GLU D 570
ENDMDL
MODEL 5
REMARK VINA RESULT:      -6.4      1.585      2.001
REMARK  5 active torsions:
REMARK  status: ('A' for Active; 'I' for Inactive)
REMARK    1  A    between atoms: C_2  and  C_4 
REMARK    2  A    between atoms: C_4  and  O_5 
REMARK    3  A    between atoms: O_5  and  C_6 
REMARK    4  A    between atoms: C_6  and  C_8 
REMARK    5  A    between atoms: C_11  and  O_14 
ROOT
HETATM    1  C   UNL     1     -23.060  -3.671 -10.566  1.00  0.00     0.039 A 
HETATM    2  C   UNL     1     -21.955  -3.794 -11.422  1.00  0.00     0.020 A 
HETATM    3  C   UNL     1     -22.087  -3.534 -12.789  1.00  0.00     0.037 A 
HETATM    4  C   UNL     1     -23.324  -3.151 -13.295  1.00  0.00     0.065 A 
HETATM    5  C   UNL     1     -24.427  -3.016 -12.457  1.00  0.00     0.037 A 
HETATM    6  C   UNL     1     -24.296  -3.268 -11.088  1.00  0.00     0.020 A 
ENDROOT
BRANCH   1   7
HETATM    7  C   UNL     1     -22.932  -3.882  -9.096  1.00  0.00     0.293 C 
HETATM    8  O   UNL     1     -23.870  -4.138  -8.362  1.00  0.00    -0.259 OA
BRANCH   7   9
HETATM    9  O   UNL     1     -21.642  -3.686  -8.720  1.00  0.00    -0.317 OA
BRANCH   9  10
HETATM   10  C   UNL     1     -21.380  -3.707  -7.311  1.00  0.00     0.183 C 
BRANCH  10  11
HETATM   11  C   UNL     1     -20.337  -4.756  -6.911  1.00  0.00     0.002 C 
HETATM   12  C   UNL     1     -18.976  -4.496  -7.563  1.00  0.00     0.011 C 
HETATM   13  C   UNL     1     -20.193  -4.761  -5.387  1.00  0.00     0.011 C 
ENDBRANCH  10  11
ENDBRANCH   9  10
ENDBRANCH   7   9
ENDBRANCH   1   7
BRANCH   4  14
HETATM   14  O   UNL     1     -23.497  -2.891 -14.621  1.00  0.00    -0.361 OA
HETATM   15  H   UNL     1     -22.638  -2.966 -15.070  1.00  0.00     0.217 HD
ENDBRANCH   4  14
TORSDOF 5
BEGIN_RES ARG D 557
REMARK  4 active torsions:
REMARK  status: ('A' for Active; 'I' for Inactive)
REMARK    1  A    between atoms: CA   and  CB  
REMARK    2  A    between atoms: CB   and  CG  
REMARK    3  A    between atoms: CG   and  CD  
REMARK    4  A    between atoms: CD   and  NE  
REMARK       I    between atoms: NE   and  CZ  
REMARK       I    between atoms: CZ   and  NH1 
REMARK       I    between atoms: CZ   and  NH2 
ROOT
ATOM      1  CA  ARG D 557     -26.217   2.705 -17.014  1.00 35.49     0.159 C 
ENDROOT
BRANCH   1   2
ATOM      2  CB  ARG D 557     -26.789   1.319 -17.183  1.00 35.49     0.034 C 
BRANCH   2   3
ATOM      3  CG  ARG D 557     -26.224   0.263 -16.334  1.00 35.49     0.027 C 
BRANCH   3   4
ATOM      4  CD  ARG D 557     -27.142  -0.889 -16.181  1.00 35.49     0.116 C 
BRANCH   4   5
ATOM      5  NE  ARG D 557     -26.477  -2.042 -15.633  1.00 35.49    -0.212 N 
ATOM      6  CZ  ARG D 557     -26.869  -3.290 -15.766  1.00 35.49     0.666 C 
ATOM      7  NH1 ARG D 557     -27.962  -3.623 -16.428  1.00 35.49    -0.235 N 
ATOM      8  NH2 ARG D 557     -26.131  -4.212 -15.220  1.00 35.49    -0.235 N 
ATOM      9  HH  ARG D 557     -28.461  -3.033 -16.797  1.00 35.49     0.174 HD
ATOM     10  HH  ARG D 557     -28.166  -4.453 -16.484  1.00 35.49     0.174 HD
ATOM     11  HH  ARG D 557     -25.428  -3.968 -14.805  1.00 35.49     0.174 HD
ATOM     12  HH  ARG D 557     -26.350  -5.029 -15.287  1.00 35.49     0.174 HD
ATOM     13  HE  ARG D 557     -25.804  -1.914 -15.130  1.00 35.49     0.178 HD
ENDBRANCH   4   5
ENDBRANCH   3   4
ENDBRANCH   2   3
ENDBRANCH   1   2
END_RES ARG D 557
BEGIN_RES GLU D 570
REMARK  3 active torsions:
REMARK  status: ('A' for Active; 'I' for Inactive)
REMARK    5  A    between atoms: CA   and  CB  
REMARK    6  A    between atoms: CB   and  CG  
REMARK    7  A    between atoms: CG   and  CD  
ROOT
ATOM     14  CA  GLU D 570     -18.033  -6.348 -13.375  1.00 32.92     0.160 C 
ENDROOT
BRANCH  14  15
ATOM     15  CB  GLU D 570     -19.500  -6.345 -13.794  1.00 32.92     0.043 C 
BRANCH  15  16
ATOM     16  CG  GLU D 570     -19.808  -6.005 -15.207  1.00 32.92     0.100 C 
BRANCH  16  17
ATOM     17  CD  GLU D 570     -21.277  -5.745 -15.444  1.00 32.92     0.185 C 
ATOM     18  OE1 GLU D 570     -22.113  -6.563 -15.014  1.00 32.92    -0.647 OA
ATOM     19  OE2 GLU D 570     -21.595  -4.722 -16.082  1.00 32.92    -0.647 OA
ENDBRANCH  16  17
ENDBRANCH  15  16
ENDBRANCH  14  15
END_RES GLU D 570
ENDMDL
MODEL 6
REMARK VINA RESULT:      -6.2      4.862      7.604
REMARK  5 active torsions:
REMARK  status: ('A' for Active; 'I' for Inactive)
REMARK    1  A    between atoms: C_2  and  C_4 
REMARK    2  A    between atoms: C_4  and  O_5 
REMARK    3  A    between atoms: O_5  and  C_6 
REMARK    4  A    between atoms: C_6  and  C_8 
REMARK    5  A    between atoms: C_11  and  O_14 
ROOT
HETATM    1  C   UNL     1     -21.582  -6.888  -3.120  1.00  0.00     0.039 A 
HETATM    2  C   UNL     1     -20.734  -7.978  -2.870  1.00  0.00     0.020 A 
HETATM    3  C   UNL     1     -20.628  -8.511  -1.583  1.00  0.00     0.037 A 
HETATM    4  C   UNL     1     -21.371  -7.952  -0.548  1.00  0.00     0.065 A 
HETATM    5  C   UNL     1     -22.222  -6.876  -0.782  1.00  0.00     0.037 A 
HETATM    6  C   UNL     1     -22.336  -6.346  -2.070  1.00  0.00     0.020 A 
ENDROOT
BRANCH   1   7
HETATM    7  C   UNL     1     -21.761  -6.339  -4.494  1.00  0.00     0.293 C 
HETATM    8  O   UNL     1     -22.846  -6.142  -5.010  1.00  0.00    -0.259 OA
BRANCH   7   9
HETATM    9  O   UNL     1     -20.546  -6.162  -5.074  1.00  0.00    -0.317 OA
BRANCH   9  10
HETATM   10  C   UNL     1     -20.266  -4.849  -5.574  1.00  0.00     0.183 C 
BRANCH  10  11
HETATM   11  C   UNL     1     -20.505  -4.719  -7.083  1.00  0.00     0.002 C 
HETATM   12  C   UNL     1     -21.611  -3.711  -7.407  1.00  0.00     0.011 C 
HETATM   13  C   UNL     1     -19.199  -4.296  -7.761  1.00  0.00     0.011 C 
ENDBRANCH  10  11
ENDBRANCH   9  10
ENDBRANCH   7   9
ENDBRANCH   1   7
BRANCH   4  14
HETATM   14  O   UNL     1     -21.294  -8.439   0.722  1.00  0.00    -0.361 OA
HETATM   15  H   UNL     1     -20.812  -9.283   0.705  1.00  0.00     0.217 HD
ENDBRANCH   4  14
TORSDOF 5
BEGIN_RES ARG D 557
REMARK  4 active torsions:
REMARK  status: ('A' for Active; 'I' for Inactive)
REMARK    1  A    between atoms: CA   and  CB  
REMARK    2  A    between atoms: CB   and  CG  
REMARK    3  A    between atoms: CG   and  CD  
REMARK    4  A    between atoms: CD   and  NE  
REMARK       I    between atoms: NE   and  CZ  
REMARK       I    between atoms: CZ   and  NH1 
REMARK       I    between atoms: CZ   and  NH2 
ROOT
ATOM      1  CA  ARG D 557     -26.217   2.705 -17.014  1.00 35.49     0.159 C 
ENDROOT
BRANCH   1   2
ATOM      2  CB  ARG D 557     -26.789   1.319 -17.183  1.00 35.49     0.034 C 
BRANCH   2   3
ATOM      3  CG  ARG D 557     -25.865   0.195 -16.991  1.00 35.49     0.027 C 
BRANCH   3   4
ATOM      4  CD  ARG D 557     -26.275  -0.689 -15.876  1.00 35.49     0.116 C 
BRANCH   4   5
ATOM      5  NE  ARG D 557     -25.210  -0.901 -14.931  1.00 35.49    -0.212 N 
ATOM      6  CZ  ARG D 557     -24.908  -2.044 -14.358  1.00 35.49     0.666 C 
ATOM      7  NH1 ARG D 557     -25.585  -3.153 -14.588  1.00 35.49    -0.235 N 
ATOM      8  NH2 ARG D 557     -23.895  -2.056 -13.541  1.00 35.49    -0.235 N 
ATOM      9  HH  ARG D 557     -26.254  -3.169 -15.123  1.00 35.49     0.174 HD
ATOM     10  HH  ARG D 557     -25.341  -3.870 -14.187  1.00 35.49     0.174 HD
ATOM     11  HH  ARG D 557     -23.471  -1.326 -13.418  1.00 35.49     0.174 HD
ATOM     12  HH  ARG D 557     -23.667  -2.776 -13.155  1.00 35.49     0.174 HD
ATOM     13  HE  ARG D 557     -24.768  -0.223 -14.670  1.00 35.49     0.178 HD
ENDBRANCH   4   5
ENDBRANCH   3   4
ENDBRANCH   2   3
ENDBRANCH   1   2
END_RES ARG D 557
BEGIN_RES GLU D 570
REMARK  3 active torsions:
REMARK  status: ('A' for Active; 'I' for Inactive)
REMARK    5  A    between atoms: CA   and  CB  
REMARK    6  A    between atoms: CB   and  CG  
REMARK    7  A    between atoms: CG   and  CD  
ROOT
ATOM     14  CA  GLU D 570     -18.033  -6.348 -13.375  1.00 32.92     0.160 C 
ENDROOT
BRANCH  14  15
ATOM     15  CB  GLU D 570     -19.500  -6.345 -13.794  1.00 32.92     0.043 C 
BRANCH  15  16
ATOM     16  CG  GLU D 570     -20.446  -5.549 -12.969  1.00 32.92     0.100 C 
BRANCH  16  17
ATOM     17  CD  GLU D 570     -21.679  -5.125 -13.732  1.00 32.92     0.185 C 
ATOM     18  OE1 GLU D 570     -22.729  -4.892 -13.103  1.00 32.92    -0.647 OA
ATOM     19  OE2 GLU D 570     -21.599  -5.041 -14.973  1.00 32.92    -0.647 OA
ENDBRANCH  16  17
ENDBRANCH  15  16
ENDBRANCH  14  15
END_RES GLU D 570
ENDMDL
MODEL 7
REMARK VINA RESULT:      -5.9      8.425     11.466
REMARK  5 active torsions:
REMARK  status: ('A' for Active; 'I' for Inactive)
REMARK    1  A    between atoms: C_2  and  C_4 
REMARK    2  A    between atoms: C_4  and  O_5 
REMARK    3  A    between atoms: O_5  and  C_6 
REMARK    4  A    between atoms: C_6  and  C_8 
REMARK    5  A    between atoms: C_11  and  O_14 
ROOT
HETATM    1  C   UNL     1     -37.041   0.309  -9.871  1.00  0.00     0.039 A 
HETATM    2  C   UNL     1     -37.959   1.318  -9.538  1.00  0.00     0.020 A 
HETATM    3  C   UNL     1     -38.075   1.760  -8.217  1.00  0.00     0.037 A 
HETATM    4  C   UNL     1     -37.272   1.192  -7.233  1.00  0.00     0.065 A 
HETATM    5  C   UNL     1     -36.351   0.198  -7.550  1.00  0.00     0.037 A 
HETATM    6  C   UNL     1     -36.228  -0.241  -8.871  1.00  0.00     0.020 A 
ENDROOT
BRANCH   1   7
HETATM    7  C   UNL     1     -36.853  -0.137 -11.280  1.00  0.00     0.293 C 
HETATM    8  O   UNL     1     -37.753  -0.556 -11.986  1.00  0.00    -0.259 OA
BRANCH   7   9
HETATM    9  O   UNL     1     -35.538  -0.056 -11.610  1.00  0.00    -0.317 OA
BRANCH   9  10
HETATM   10  C   UNL     1     -35.044  -1.059 -12.506  1.00  0.00     0.183 C 
BRANCH  10  11
HETATM   11  C   UNL     1     -34.713  -2.380 -11.804  1.00  0.00     0.002 C 
HETATM   12  C   UNL     1     -34.261  -3.461 -12.789  1.00  0.00     0.011 C 
HETATM   13  C   UNL     1     -33.617  -2.131 -10.764  1.00  0.00     0.011 C 
ENDBRANCH  10  11
ENDBRANCH   9  10
ENDBRANCH   7   9
ENDBRANCH   1   7
BRANCH   4  14
HETATM   14  O   UNL     1     -37.356   1.593  -5.934  1.00  0.00    -0.361 OA
HETATM   15  H   UNL     1     -37.037   0.874  -5.363  1.00  0.00     0.217 HD
ENDBRANCH   4  14
TORSDOF 5
BEGIN_RES ARG D 557
REMARK  4 active torsions:
REMARK  status: ('A' for Active; 'I' for Inactive)
REMARK    1  A    between atoms: CA   and  CB  
REMARK    2  A    between atoms: CB   and  CG  
REMARK    3  A    between atoms: CG   and  CD  
REMARK    4  A    between atoms: CD   and  NE  
REMARK       I    between atoms: NE   and  CZ  
REMARK       I    between atoms: CZ   and  NH1 
REMARK       I    between atoms: CZ   and  NH2 
ROOT
ATOM      1  CA  ARG D 557     -26.217   2.705 -17.014  1.00 35.49     0.159 C 
ENDROOT
BRANCH   1   2
ATOM      2  CB  ARG D 557     -26.789   1.319 -17.183  1.00 35.49     0.034 C 
BRANCH   2   3
ATOM      3  CG  ARG D 557     -25.856   0.196 -17.031  1.00 35.49     0.027 C 
BRANCH   3   4
ATOM      4  CD  ARG D 557     -26.224  -0.695 -15.907  1.00 35.49     0.116 C 
BRANCH   4   5
ATOM      5  NE  ARG D 557     -25.165  -0.815 -14.940  1.00 35.49    -0.212 N 
ATOM      6  CZ  ARG D 557     -24.775  -1.929 -14.362  1.00 35.49     0.666 C 
ATOM      7  NH1 ARG D 557     -25.347  -3.093 -14.607  1.00 35.49    -0.235 N 
ATOM      8  NH2 ARG D 557     -23.782  -1.854 -13.524  1.00 35.49    -0.235 N 
ATOM      9  HH  ARG D 557     -26.001  -3.165 -15.156  1.00 35.49     0.174 HD
ATOM     10  HH  ARG D 557     -25.049  -3.786 -14.202  1.00 35.49     0.174 HD
ATOM     11  HH  ARG D 557     -23.427  -1.090 -13.391  1.00 35.49     0.174 HD
ATOM     12  HH  ARG D 557     -23.500  -2.552 -13.134  1.00 35.49     0.174 HD
ATOM     13  HE  ARG D 557     -24.789  -0.102 -14.669  1.00 35.49     0.178 HD
ENDBRANCH   4   5
ENDBRANCH   3   4
ENDBRANCH   2   3
ENDBRANCH   1   2
END_RES ARG D 557
BEGIN_RES GLU D 570
REMARK  3 active torsions:
REMARK  status: ('A' for Active; 'I' for Inactive)
REMARK    5  A    between atoms: CA   and  CB  
REMARK    6  A    between atoms: CB   and  CG  
REMARK    7  A    between atoms: CG   and  CD  
ROOT
ATOM     14  CA  GLU D 570     -18.033  -6.348 -13.375  1.00 32.92     0.160 C 
ENDROOT
BRANCH  14  15
ATOM     15  CB  GLU D 570     -19.500  -6.345 -13.794  1.00 32.92     0.043 C 
BRANCH  15  16
ATOM     16  CG  GLU D 570     -20.436  -5.504 -13.004  1.00 32.92     0.100 C 
BRANCH  16  17
ATOM     17  CD  GLU D 570     -21.764  -5.294 -13.693  1.00 32.92     0.185 C 
ATOM     18  OE1 GLU D 570     -22.055  -6.003 -14.675  1.00 32.92    -0.647 OA
ATOM     19  OE2 GLU D 570     -22.515  -4.400 -13.255  1.00 32.92    -0.647 OA
ENDBRANCH  16  17
ENDBRANCH  15  16
ENDBRANCH  14  15
END_RES GLU D 570
ENDMDL
MODEL 8
REMARK VINA RESULT:      -5.9      4.654      7.458
REMARK  5 active torsions:
REMARK  status: ('A' for Active; 'I' for Inactive)
REMARK    1  A    between atoms: C_2  and  C_4 
REMARK    2  A    between atoms: C_4  and  O_5 
REMARK    3  A    between atoms: O_5  and  C_6 
REMARK    4  A    between atoms: C_6  and  C_8 
REMARK    5  A    between atoms: C_11  and  O_14 
ROOT
HETATM    1  C   UNL     1     -21.128  -7.144  -3.440  1.00  0.00     0.039 A 
HETATM    2  C   UNL     1     -20.643  -8.300  -2.810  1.00  0.00     0.020 A 
HETATM    3  C   UNL     1     -20.953  -8.559  -1.472  1.00  0.00     0.037 A 
HETATM    4  C   UNL     1     -21.749  -7.661  -0.769  1.00  0.00     0.065 A 
HETATM    5  C   UNL     1     -22.245  -6.515  -1.383  1.00  0.00     0.037 A 
HETATM    6  C   UNL     1     -21.942  -6.257  -2.723  1.00  0.00     0.020 A 
ENDROOT
BRANCH   1   7
HETATM    7  C   UNL     1     -20.864  -6.874  -4.883  1.00  0.00     0.293 C 
HETATM    8  O   UNL     1     -20.315  -7.662  -5.632  1.00  0.00    -0.259 OA
BRANCH   7   9
HETATM    9  O   UNL     1     -21.274  -5.617  -5.191  1.00  0.00    -0.317 OA
BRANCH   9  10
HETATM   10  C   UNL     1     -20.274  -4.731  -5.710  1.00  0.00     0.183 C 
BRANCH  10  11
HETATM   11  C   UNL     1     -20.703  -4.038  -7.008  1.00  0.00     0.002 C 
HETATM   12  C   UNL     1     -19.786  -4.389  -8.182  1.00  0.00     0.011 C 
HETATM   13  C   UNL     1     -22.145  -4.438  -7.334  1.00  0.00     0.011 C 
ENDBRANCH  10  11
ENDBRANCH   9  10
ENDBRANCH   7   9
ENDBRANCH   1   7
BRANCH   4  14
HETATM   14  O   UNL     1     -22.072  -7.875   0.537  1.00  0.00    -0.361 OA
HETATM   15  H   UNL     1     -22.229  -8.824   0.670  1.00  0.00     0.217 HD
ENDBRANCH   4  14
TORSDOF 5
BEGIN_RES ARG D 557
REMARK  4 active torsions:
REMARK  status: ('A' for Active; 'I' for Inactive)
REMARK    1  A    between atoms: CA   and  CB  
REMARK    2  A    between atoms: CB   and  CG  
REMARK    3  A    between atoms: CG   and  CD  
REMARK    4  A    between atoms: CD   and  NE  
REMARK       I    between atoms: NE   and  CZ  
REMARK       I    between atoms: CZ   and  NH1 
REMARK       I    between atoms: CZ   and  NH2 
ROOT
ATOM      1  CA  ARG D 557     -26.217   2.705 -17.014  1.00 35.49     0.159 C 
ENDROOT
BRANCH   1   2
ATOM      2  CB  ARG D 557     -26.789   1.319 -17.183  1.00 35.49     0.034 C 
BRANCH   2   3
ATOM      3  CG  ARG D 557     -28.235   1.225 -17.417  1.00 35.49     0.027 C 
BRANCH   3   4
ATOM      4  CD  ARG D 557     -28.899   0.291 -16.479  1.00 35.49     0.116 C 
BRANCH   4   5
ATOM      5  NE  ARG D 557     -29.313  -0.925 -17.127  1.00 35.49    -0.212 N 
ATOM      6  CZ  ARG D 557     -28.704  -2.087 -17.044  1.00 35.49     0.666 C 
ATOM      7  NH1 ARG D 557     -27.599  -2.259 -16.341  1.00 35.49    -0.235 N 
ATOM      8  NH2 ARG D 557     -29.233  -3.090 -17.682  1.00 35.49    -0.235 N 
ATOM      9  HH  ARG D 557     -27.235  -1.613 -15.911  1.00 35.49     0.174 HD
ATOM     10  HH  ARG D 557     -27.247  -3.040 -16.321  1.00 35.49     0.174 HD
ATOM     11  HH  ARG D 557     -29.950  -2.951 -18.122  1.00 35.49     0.174 HD
ATOM     12  HH  ARG D 557     -28.870  -3.856 -17.649  1.00 35.49     0.174 HD
ATOM     13  HE  ARG D 557     -29.975  -0.889 -17.660  1.00 35.49     0.178 HD
ENDBRANCH   4   5
ENDBRANCH   3   4
ENDBRANCH   2   3
ENDBRANCH   1   2
END_RES ARG D 557
BEGIN_RES GLU D 570
REMARK  3 active torsions:
REMARK  status: ('A' for Active; 'I' for Inactive)
REMARK    5  A    between atoms: CA   and  CB  
REMARK    6  A    between atoms: CB   and  CG  
REMARK    7  A    between atoms: CG   and  CD  
ROOT
ATOM     14  CA  GLU D 570     -18.033  -6.348 -13.375  1.00 32.92     0.160 C 
ENDROOT
BRANCH  14  15
ATOM     15  CB  GLU D 570     -19.500  -6.345 -13.794  1.00 32.92     0.043 C 
BRANCH  15  16
ATOM     16  CG  GLU D 570     -20.450  -5.569 -12.955  1.00 32.92     0.100 C 
BRANCH  16  17
ATOM     17  CD  GLU D 570     -21.696  -5.158 -13.704  1.00 32.92     0.185 C 
ATOM     18  OE1 GLU D 570     -21.658  -5.079 -14.946  1.00 32.92    -0.647 OA
ATOM     19  OE2 GLU D 570     -22.718  -4.896 -13.038  1.00 32.92    -0.647 OA
ENDBRANCH  16  17
ENDBRANCH  15  16
ENDBRANCH  14  15
END_RES GLU D 570
ENDMDL
MODEL 9
REMARK VINA RESULT:      -5.8      7.187      9.312
REMARK  5 active torsions:
REMARK  status: ('A' for Active; 'I' for Inactive)
REMARK    1  A    between atoms: C_2  and  C_4 
REMARK    2  A    between atoms: C_4  and  O_5 
REMARK    3  A    between atoms: O_5  and  C_6 
REMARK    4  A    between atoms: C_6  and  C_8 
REMARK    5  A    between atoms: C_11  and  O_14 
ROOT
HETATM    1  C   UNL     1     -21.283  -8.079  -0.859  1.00  0.00     0.039 A 
HETATM    2  C   UNL     1     -22.127  -6.957  -0.845  1.00  0.00     0.020 A 
HETATM    3  C   UNL     1     -22.313  -6.198  -2.003  1.00  0.00     0.037 A 
HETATM    4  C   UNL     1     -21.655  -6.563  -3.173  1.00  0.00     0.065 A 
HETATM    5  C   UNL     1     -20.822  -7.677  -3.205  1.00  0.00     0.037 A 
HETATM    6  C   UNL     1     -20.640  -8.443  -2.050  1.00  0.00     0.020 A 
ENDROOT
BRANCH   1   7
HETATM    7  C   UNL     1     -21.115  -8.942   0.344  1.00  0.00     0.293 C 
HETATM    8  O   UNL     1     -21.246  -8.545   1.488  1.00  0.00    -0.259 OA
BRANCH   7   9
HETATM    9  O   UNL     1     -20.743 -10.190  -0.041  1.00  0.00    -0.317 OA
BRANCH   9  10
HETATM   10  C   UNL     1     -21.498 -11.277   0.509  1.00  0.00     0.183 C 
BRANCH  10  11
HETATM   11  C   UNL     1     -22.943 -11.322  -0.001  1.00  0.00     0.002 C 
HETATM   12  C   UNL     1     -23.015 -11.339  -1.530  1.00  0.00     0.011 C 
HETATM   13  C   UNL     1     -23.634 -12.564   0.568  1.00  0.00     0.011 C 
ENDBRANCH  10  11
ENDBRANCH   9  10
ENDBRANCH   7   9
ENDBRANCH   1   7
BRANCH   4  14
HETATM   14  O   UNL     1     -21.807  -5.848  -4.323  1.00  0.00    -0.361 OA
HETATM   15  H   UNL     1     -20.964  -5.848  -4.806  1.00  0.00     0.217 HD
ENDBRANCH   4  14
TORSDOF 5
BEGIN_RES ARG D 557
REMARK  4 active torsions:
REMARK  status: ('A' for Active; 'I' for Inactive)
REMARK    1  A    between atoms: CA   and  CB  
REMARK    2  A    between atoms: CB   and  CG  
REMARK    3  A    between atoms: CG   and  CD  
REMARK    4  A    between atoms: CD   and  NE  
REMARK       I    between atoms: NE   and  CZ  
REMARK       I    between atoms: CZ   and  NH1 
REMARK       I    between atoms: CZ   and  NH2 
ROOT
ATOM      1  CA  ARG D 557     -26.217   2.705 -17.014  1.00 35.49     0.159 C 
ENDROOT
BRANCH   1   2
ATOM      2  CB  ARG D 557     -26.789   1.319 -17.183  1.00 35.49     0.034 C 
BRANCH   2   3
ATOM      3  CG  ARG D 557     -25.864   0.195 -16.993  1.00 35.49     0.027 C 
BRANCH   3   4
ATOM      4  CD  ARG D 557     -26.285  -0.702 -15.893  1.00 35.49     0.116 C 
BRANCH   4   5
ATOM      5  NE  ARG D 557     -25.230  -0.919 -14.937  1.00 35.49    -0.212 N 
ATOM      6  CZ  ARG D 557     -24.942  -2.063 -14.358  1.00 35.49     0.666 C 
ATOM      7  NH1 ARG D 557     -25.626  -3.168 -14.591  1.00 35.49    -0.235 N 
ATOM      8  NH2 ARG D 557     -23.937  -2.081 -13.531  1.00 35.49    -0.235 N 
ATOM      9  HH  ARG D 557     -26.290  -3.180 -15.133  1.00 35.49     0.174 HD
ATOM     10  HH  ARG D 557     -25.391  -3.885 -14.186  1.00 35.49     0.174 HD
ATOM     11  HH  ARG D 557     -23.509  -1.354 -13.406  1.00 35.49     0.174 HD
ATOM     12  HH  ARG D 557     -23.719  -2.801 -13.141  1.00 35.49     0.174 HD
ATOM     13  HE  ARG D 557     -24.785  -0.244 -14.673  1.00 35.49     0.178 HD
ENDBRANCH   4   5
ENDBRANCH   3   4
ENDBRANCH   2   3
ENDBRANCH   1   2
END_RES ARG D 557
BEGIN_RES GLU D 570
REMARK  3 active torsions:
REMARK  status: ('A' for Active; 'I' for Inactive)
REMARK    5  A    between atoms: CA   and  CB  
REMARK    6  A    between atoms: CB   and  CG  
REMARK    7  A    between atoms: CG   and  CD  
ROOT
ATOM     14  CA  GLU D 570     -18.033  -6.348 -13.375  1.00 32.92     0.160 C 
ENDROOT
BRANCH  14  15
ATOM     15  CB  GLU D 570     -19.500  -6.345 -13.794  1.00 32.92     0.043 C 
BRANCH  15  16
ATOM     16  CG  GLU D 570     -20.449  -5.564 -12.959  1.00 32.92     0.100 C 
BRANCH  16  17
ATOM     17  CD  GLU D 570     -21.680  -5.127 -13.718  1.00 32.92     0.185 C 
ATOM     18  OE1 GLU D 570     -21.621  -5.021 -14.958  1.00 32.92    -0.647 OA
ATOM     19  OE2 GLU D 570     -22.710  -4.871 -13.063  1.00 32.92    -0.647 OA
ENDBRANCH  16  17
ENDBRANCH  15  16
ENDBRANCH  14  15
END_RES GLU D 570
ENDMDL
