MODEL 1
REMARK VINA RESULT:      -5.0      0.000      0.000
REMARK  1 active torsions:
REMARK  status: ('A' for Active; 'I' for Inactive)
REMARK    1  A    between atoms: C_2  and  N_3 
ROOT
HETATM    1  N   UNL     1     -23.746  -3.414 -11.183  1.00  0.00    -0.329 N 
HETATM    2  C   UNL     1     -22.377  -3.775 -10.913  1.00  0.00     0.131 C 
HETATM    3  C   UNL     1     -22.443  -4.516  -9.592  1.00  0.00     0.029 C 
HETATM    4  C   UNL     1     -23.633  -3.892  -8.882  1.00  0.00     0.105 C 
HETATM    5  C   UNL     1     -24.527  -3.467 -10.021  1.00  0.00     0.223 C 
HETATM    6  O   UNL     1     -25.707  -3.169  -9.904  1.00  0.00    -0.273 OA
ENDROOT
BRANCH   1   7
HETATM    7  C   UNL     1     -24.220  -2.951 -12.386  1.00  0.00     0.083 C 
HETATM    8  C   UNL     1     -23.460  -2.479 -13.380  1.00  0.00     0.030 C 
ENDBRANCH   1   7
TORSDOF 1
BEGIN_RES ARG D 557
REMARK  4 active torsions:
REMARK  status: ('A' for Active; 'I' for Inactive)
REMARK    1  A    between atoms: CA   and  CB  
REMARK    2  A    between atoms: CB   and  CG  
REMARK    3  A    between atoms: CG   and  CD  
REMARK    4  A    between atoms: CD   and  NE  
REMARK       I    between atoms: NE   and  CZ  
REMARK       I    between atoms: CZ   and  NH1 
REMARK       I    between atoms: CZ   and  NH2 
ROOT
ATOM      1  CA  ARG D 557     -26.217   2.705 -17.014  1.00 35.49     0.159 C 
ENDROOT
BRANCH   1   2
ATOM      2  CB  ARG D 557     -26.789   1.319 -17.183  1.00 35.49     0.034 C 
BRANCH   2   3
ATOM      3  CG  ARG D 557     -28.235   1.171 -16.977  1.00 35.49     0.027 C 
BRANCH   3   4
ATOM      4  CD  ARG D 557     -28.631  -0.237 -16.747  1.00 35.49     0.116 C 
BRANCH   4   5
ATOM      5  NE  ARG D 557     -27.620  -0.975 -16.038  1.00 35.49    -0.212 N 
ATOM      6  CZ  ARG D 557     -27.432  -2.275 -16.101  1.00 35.49     0.666 C 
ATOM      7  NH1 ARG D 557     -28.189  -3.066 -16.839  1.00 35.49    -0.235 N 
ATOM      8  NH2 ARG D 557     -26.451  -2.774 -15.406  1.00 35.49    -0.235 N 
ATOM      9  HH  ARG D 557     -28.838  -2.759 -17.306  1.00 35.49     0.174 HD
ATOM     10  HH  ARG D 557     -28.017  -3.905 -16.843  1.00 35.49     0.174 HD
ATOM     11  HH  ARG D 557     -25.974  -2.238 -14.945  1.00 35.49     0.174 HD
ATOM     12  HH  ARG D 557     -26.296  -3.607 -15.424  1.00 35.49     0.174 HD
ATOM     13  HE  ARG D 557     -27.133  -0.554 -15.482  1.00 35.49     0.178 HD
ENDBRANCH   4   5
ENDBRANCH   3   4
ENDBRANCH   2   3
ENDBRANCH   1   2
END_RES ARG D 557
BEGIN_RES GLU D 570
REMARK  3 active torsions:
REMARK  status: ('A' for Active; 'I' for Inactive)
REMARK    5  A    between atoms: CA   and  CB  
REMARK    6  A    between atoms: CB   and  CG  
REMARK    7  A    between atoms: CG   and  CD  
ROOT
ATOM     14  CA  GLU D 570     -18.033  -6.348 -13.375  1.00 32.92     0.160 C 
ENDROOT
BRANCH  14  15
ATOM     15  CB  GLU D 570     -19.500  -6.345 -13.794  1.00 32.92     0.043 C 
BRANCH  15  16
ATOM     16  CG  GLU D 570     -19.810  -5.977 -15.200  1.00 32.92     0.100 C 
BRANCH  16  17
ATOM     17  CD  GLU D 570     -21.211  -5.440 -15.373  1.00 32.92     0.185 C 
ATOM     18  OE1 GLU D 570     -21.545  -4.965 -16.476  1.00 32.92    -0.647 OA
ATOM     19  OE2 GLU D 570     -21.978  -5.480 -14.391  1.00 32.92    -0.647 OA
ENDBRANCH  16  17
ENDBRANCH  15  16
ENDBRANCH  14  15
END_RES GLU D 570
ENDMDL
MODEL 2
REMARK VINA RESULT:      -5.0      2.337      3.031
REMARK  1 active torsions:
REMARK  status: ('A' for Active; 'I' for Inactive)
REMARK    1  A    between atoms: C_2  and  N_3 
ROOT
HETATM    1  N   UNL     1     -22.610  -4.252 -10.398  1.00  0.00    -0.329 N 
HETATM    2  C   UNL     1     -21.805  -4.676  -9.280  1.00  0.00     0.131 C 
HETATM    3  C   UNL     1     -20.420  -4.154  -9.602  1.00  0.00     0.029 C 
HETATM    4  C   UNL     1     -20.373  -4.153 -11.121  1.00  0.00     0.105 C 
HETATM    5  C   UNL     1     -21.816  -3.933 -11.508  1.00  0.00     0.223 C 
HETATM    6  O   UNL     1     -22.193  -3.595 -12.620  1.00  0.00    -0.273 OA
ENDROOT
BRANCH   1   7
HETATM    7  C   UNL     1     -23.983  -4.273 -10.439  1.00  0.00     0.083 C 
HETATM    8  C   UNL     1     -24.780  -3.348  -9.894  1.00  0.00     0.030 C 
ENDBRANCH   1   7
TORSDOF 1
BEGIN_RES ARG D 557
REMARK  4 active torsions:
REMARK  status: ('A' for Active; 'I' for Inactive)
REMARK    1  A    between atoms: CA   and  CB  
REMARK    2  A    between atoms: CB   and  CG  
REMARK    3  A    between atoms: CG   and  CD  
REMARK    4  A    between atoms: CD   and  NE  
REMARK       I    between atoms: NE   and  CZ  
REMARK       I    between atoms: CZ   and  NH1 
REMARK       I    between atoms: CZ   and  NH2 
ROOT
ATOM      1  CA  ARG D 557     -26.217   2.705 -17.014  1.00 35.49     0.159 C 
ENDROOT
BRANCH   1   2
ATOM      2  CB  ARG D 557     -26.789   1.319 -17.183  1.00 35.49     0.034 C 
BRANCH   2   3
ATOM      3  CG  ARG D 557     -25.834   0.204 -17.173  1.00 35.49     0.027 C 
BRANCH   3   4
ATOM      4  CD  ARG D 557     -24.779   0.374 -16.148  1.00 35.49     0.116 C 
BRANCH   4   5
ATOM      5  NE  ARG D 557     -24.982  -0.488 -15.013  1.00 35.49    -0.212 N 
ATOM      6  CZ  ARG D 557     -24.191  -1.469 -14.642  1.00 35.49     0.666 C 
ATOM      7  NH1 ARG D 557     -23.094  -1.785 -15.306  1.00 35.49    -0.235 N 
ATOM      8  NH2 ARG D 557     -24.520  -2.134 -13.573  1.00 35.49    -0.235 N 
ATOM      9  HH  ARG D 557     -22.857  -1.359 -16.011  1.00 35.49     0.174 HD
ATOM     10  HH  ARG D 557     -22.615  -2.433 -15.015  1.00 35.49     0.174 HD
ATOM     11  HH  ARG D 557     -25.229  -1.903 -13.160  1.00 35.49     0.174 HD
ATOM     12  HH  ARG D 557     -24.031  -2.771 -13.300  1.00 35.49     0.174 HD
ATOM     13  HE  ARG D 557     -25.703  -0.401 -14.570  1.00 35.49     0.178 HD
ENDBRANCH   4   5
ENDBRANCH   3   4
ENDBRANCH   2   3
ENDBRANCH   1   2
END_RES ARG D 557
BEGIN_RES GLU D 570
REMARK  3 active torsions:
REMARK  status: ('A' for Active; 'I' for Inactive)
REMARK    5  A    between atoms: CA   and  CB  
REMARK    6  A    between atoms: CB   and  CG  
REMARK    7  A    between atoms: CG   and  CD  
ROOT
ATOM     14  CA  GLU D 570     -18.033  -6.348 -13.375  1.00 32.92     0.160 C 
ENDROOT
BRANCH  14  15
ATOM     15  CB  GLU D 570     -19.500  -6.345 -13.794  1.00 32.92     0.043 C 
BRANCH  15  16
ATOM     16  CG  GLU D 570     -19.819  -5.875 -15.167  1.00 32.92     0.100 C 
BRANCH  16  17
ATOM     17  CD  GLU D 570     -21.291  -5.603 -15.370  1.00 32.92     0.185 C 
ATOM     18  OE1 GLU D 570     -22.115  -6.498 -15.099  1.00 32.92    -0.647 OA
ATOM     19  OE2 GLU D 570     -21.623  -4.490 -15.821  1.00 32.92    -0.647 OA
ENDBRANCH  16  17
ENDBRANCH  15  16
ENDBRANCH  14  15
END_RES GLU D 570
ENDMDL
MODEL 3
REMARK VINA RESULT:      -5.0      5.735      7.752
REMARK  1 active torsions:
REMARK  status: ('A' for Active; 'I' for Inactive)
REMARK    1  A    between atoms: C_2  and  N_3 
ROOT
HETATM    1  N   UNL     1     -34.739  -2.071 -12.354  1.00  0.00    -0.329 N 
HETATM    2  C   UNL     1     -34.584  -2.082 -10.921  1.00  0.00     0.131 C 
HETATM    3  C   UNL     1     -33.559  -3.170 -10.669  1.00  0.00     0.029 C 
HETATM    4  C   UNL     1     -33.772  -4.146 -11.813  1.00  0.00     0.105 C 
HETATM    5  C   UNL     1     -34.277  -3.263 -12.928  1.00  0.00     0.223 C 
HETATM    6  O   UNL     1     -34.318  -3.586 -14.106  1.00  0.00    -0.273 OA
ENDROOT
BRANCH   1   7
HETATM    7  C   UNL     1     -35.372  -1.087 -13.075  1.00  0.00     0.083 C 
HETATM    8  C   UNL     1     -35.010   0.200 -13.098  1.00  0.00     0.030 C 
ENDBRANCH   1   7
TORSDOF 1
BEGIN_RES ARG D 557
REMARK  4 active torsions:
REMARK  status: ('A' for Active; 'I' for Inactive)
REMARK    1  A    between atoms: CA   and  CB  
REMARK    2  A    between atoms: CB   and  CG  
REMARK    3  A    between atoms: CG   and  CD  
REMARK    4  A    between atoms: CD   and  NE  
REMARK       I    between atoms: NE   and  CZ  
REMARK       I    between atoms: CZ   and  NH1 
REMARK       I    between atoms: CZ   and  NH2 
ROOT
ATOM      1  CA  ARG D 557     -26.217   2.705 -17.014  1.00 35.49     0.159 C 
ENDROOT
BRANCH   1   2
ATOM      2  CB  ARG D 557     -26.789   1.319 -17.183  1.00 35.49     0.034 C 
BRANCH   2   3
ATOM      3  CG  ARG D 557     -25.835   0.204 -17.163  1.00 35.49     0.027 C 
BRANCH   3   4
ATOM      4  CD  ARG D 557     -24.749   0.408 -16.178  1.00 35.49     0.116 C 
BRANCH   4   5
ATOM      5  NE  ARG D 557     -24.898  -0.438 -15.023  1.00 35.49    -0.212 N 
ATOM      6  CZ  ARG D 557     -24.085  -1.408 -14.670  1.00 35.49     0.666 C 
ATOM      7  NH1 ARG D 557     -23.015  -1.727 -15.374  1.00 35.49    -0.235 N 
ATOM      8  NH2 ARG D 557     -24.364  -2.058 -13.578  1.00 35.49    -0.235 N 
ATOM      9  HH  ARG D 557     -22.810  -1.311 -16.095  1.00 35.49     0.174 HD
ATOM     10  HH  ARG D 557     -22.519  -2.367 -15.094  1.00 35.49     0.174 HD
ATOM     11  HH  ARG D 557     -25.058  -1.826 -13.140  1.00 35.49     0.174 HD
ATOM     12  HH  ARG D 557     -23.860  -2.688 -13.317  1.00 35.49     0.174 HD
ATOM     13  HE  ARG D 557     -25.601  -0.349 -14.551  1.00 35.49     0.178 HD
ENDBRANCH   4   5
ENDBRANCH   3   4
ENDBRANCH   2   3
ENDBRANCH   1   2
END_RES ARG D 557
BEGIN_RES GLU D 570
REMARK  3 active torsions:
REMARK  status: ('A' for Active; 'I' for Inactive)
REMARK    5  A    between atoms: CA   and  CB  
REMARK    6  A    between atoms: CB   and  CG  
REMARK    7  A    between atoms: CG   and  CD  
ROOT
ATOM     14  CA  GLU D 570     -18.033  -6.348 -13.375  1.00 32.92     0.160 C 
ENDROOT
BRANCH  14  15
ATOM     15  CB  GLU D 570     -19.500  -6.345 -13.794  1.00 32.92     0.043 C 
BRANCH  15  16
ATOM     16  CG  GLU D 570     -20.441  -5.527 -12.986  1.00 32.92     0.100 C 
BRANCH  16  17
ATOM     17  CD  GLU D 570     -21.741  -5.245 -13.702  1.00 32.92     0.185 C 
ATOM     18  OE1 GLU D 570     -22.295  -4.141 -13.538  1.00 32.92    -0.647 OA
ATOM     19  OE2 GLU D 570     -22.220  -6.145 -14.420  1.00 32.92    -0.647 OA
ENDBRANCH  16  17
ENDBRANCH  15  16
ENDBRANCH  14  15
END_RES GLU D 570
ENDMDL
MODEL 4
REMARK VINA RESULT:      -5.0      0.718      2.157
REMARK  1 active torsions:
REMARK  status: ('A' for Active; 'I' for Inactive)
REMARK    1  A    between atoms: C_2  and  N_3 
ROOT
HETATM    1  N   UNL     1     -23.116  -3.626  -9.925  1.00  0.00    -0.329 N 
HETATM    2  C   UNL     1     -22.007  -3.599 -10.845  1.00  0.00     0.131 C 
HETATM    3  C   UNL     1     -22.512  -2.774 -12.011  1.00  0.00     0.029 C 
HETATM    4  C   UNL     1     -24.010  -3.029 -12.018  1.00  0.00     0.105 C 
HETATM    5  C   UNL     1     -24.319  -3.298 -10.566  1.00  0.00     0.223 C 
HETATM    6  O   UNL     1     -25.441  -3.284 -10.080  1.00  0.00    -0.273 OA
ENDROOT
BRANCH   1   7
HETATM    7  C   UNL     1     -23.051  -4.040  -8.617  1.00  0.00     0.083 C 
HETATM    8  C   UNL     1     -21.980  -3.916  -7.826  1.00  0.00     0.030 C 
ENDBRANCH   1   7
TORSDOF 1
BEGIN_RES ARG D 557
REMARK  4 active torsions:
REMARK  status: ('A' for Active; 'I' for Inactive)
REMARK    1  A    between atoms: CA   and  CB  
REMARK    2  A    between atoms: CB   and  CG  
REMARK    3  A    between atoms: CG   and  CD  
REMARK    4  A    between atoms: CD   and  NE  
REMARK       I    between atoms: NE   and  CZ  
REMARK       I    between atoms: CZ   and  NH1 
REMARK       I    between atoms: CZ   and  NH2 
ROOT
ATOM      1  CA  ARG D 557     -26.217   2.705 -17.014  1.00 35.49     0.159 C 
ENDROOT
BRANCH   1   2
ATOM      2  CB  ARG D 557     -26.789   1.319 -17.183  1.00 35.49     0.034 C 
BRANCH   2   3
ATOM      3  CG  ARG D 557     -28.214   1.150 -16.872  1.00 35.49     0.027 C 
BRANCH   3   4
ATOM      4  CD  ARG D 557     -28.594  -0.274 -16.724  1.00 35.49     0.116 C 
BRANCH   4   5
ATOM      5  NE  ARG D 557     -27.598  -1.030 -16.011  1.00 35.49    -0.212 N 
ATOM      6  CZ  ARG D 557     -27.427  -2.331 -16.079  1.00 35.49     0.666 C 
ATOM      7  NH1 ARG D 557     -28.190  -3.108 -16.825  1.00 35.49    -0.235 N 
ATOM      8  NH2 ARG D 557     -26.459  -2.847 -15.379  1.00 35.49    -0.235 N 
ATOM      9  HH  ARG D 557     -28.832  -2.790 -17.295  1.00 35.49     0.174 HD
ATOM     10  HH  ARG D 557     -28.030  -3.950 -16.831  1.00 35.49     0.174 HD
ATOM     11  HH  ARG D 557     -25.978  -2.319 -14.912  1.00 35.49     0.174 HD
ATOM     12  HH  ARG D 557     -26.315  -3.682 -15.400  1.00 35.49     0.174 HD
ATOM     13  HE  ARG D 557     -27.109  -0.617 -15.450  1.00 35.49     0.178 HD
ENDBRANCH   4   5
ENDBRANCH   3   4
ENDBRANCH   2   3
ENDBRANCH   1   2
END_RES ARG D 557
BEGIN_RES GLU D 570
REMARK  3 active torsions:
REMARK  status: ('A' for Active; 'I' for Inactive)
REMARK    5  A    between atoms: CA   and  CB  
REMARK    6  A    between atoms: CB   and  CG  
REMARK    7  A    between atoms: CG   and  CD  
ROOT
ATOM     14  CA  GLU D 570     -18.033  -6.348 -13.375  1.00 32.92     0.160 C 
ENDROOT
BRANCH  14  15
ATOM     15  CB  GLU D 570     -19.500  -6.345 -13.794  1.00 32.92     0.043 C 
BRANCH  15  16
ATOM     16  CG  GLU D 570     -19.809  -5.981 -15.201  1.00 32.92     0.100 C 
BRANCH  16  17
ATOM     17  CD  GLU D 570     -21.189  -5.388 -15.366  1.00 32.92     0.185 C 
ATOM     18  OE1 GLU D 570     -21.952  -5.347 -14.382  1.00 32.92    -0.647 OA
ATOM     19  OE2 GLU D 570     -21.516  -4.974 -16.496  1.00 32.92    -0.647 OA
ENDBRANCH  16  17
ENDBRANCH  15  16
ENDBRANCH  14  15
END_RES GLU D 570
ENDMDL
MODEL 5
REMARK VINA RESULT:      -4.8      2.180      2.797
REMARK  1 active torsions:
REMARK  status: ('A' for Active; 'I' for Inactive)
REMARK    1  A    between atoms: C_2  and  N_3 
ROOT
HETATM    1  N   UNL     1     -22.640  -4.293  -9.031  1.00  0.00    -0.329 N 
HETATM    2  C   UNL     1     -21.419  -3.967  -9.723  1.00  0.00     0.131 C 
HETATM    3  C   UNL     1     -20.329  -4.280  -8.718  1.00  0.00     0.029 C 
HETATM    4  C   UNL     1     -20.992  -4.038  -7.372  1.00  0.00     0.105 C 
HETATM    5  C   UNL     1     -22.444  -4.347  -7.644  1.00  0.00     0.223 C 
HETATM    6  O   UNL     1     -23.286  -4.545  -6.781  1.00  0.00    -0.273 OA
ENDROOT
BRANCH   1   7
HETATM    7  C   UNL     1     -23.876  -4.414  -9.619  1.00  0.00     0.083 C 
HETATM    8  C   UNL     1     -24.724  -3.403  -9.835  1.00  0.00     0.030 C 
ENDBRANCH   1   7
TORSDOF 1
BEGIN_RES ARG D 557
REMARK  4 active torsions:
REMARK  status: ('A' for Active; 'I' for Inactive)
REMARK    1  A    between atoms: CA   and  CB  
REMARK    2  A    between atoms: CB   and  CG  
REMARK    3  A    between atoms: CG   and  CD  
REMARK    4  A    between atoms: CD   and  NE  
REMARK       I    between atoms: NE   and  CZ  
REMARK       I    between atoms: CZ   and  NH1 
REMARK       I    between atoms: CZ   and  NH2 
ROOT
ATOM      1  CA  ARG D 557     -26.217   2.705 -17.014  1.00 35.49     0.159 C 
ENDROOT
BRANCH   1   2
ATOM      2  CB  ARG D 557     -26.789   1.319 -17.183  1.00 35.49     0.034 C 
BRANCH   2   3
ATOM      3  CG  ARG D 557     -25.865   0.195 -16.991  1.00 35.49     0.027 C 
BRANCH   3   4
ATOM      4  CD  ARG D 557     -26.300  -0.716 -15.908  1.00 35.49     0.116 C 
BRANCH   4   5
ATOM      5  NE  ARG D 557     -25.262  -0.937 -14.936  1.00 35.49    -0.212 N 
ATOM      6  CZ  ARG D 557     -24.985  -2.084 -14.356  1.00 35.49     0.666 C 
ATOM      7  NH1 ARG D 557     -25.666  -3.187 -14.604  1.00 35.49    -0.235 N 
ATOM      8  NH2 ARG D 557     -23.994  -2.106 -13.513  1.00 35.49    -0.235 N 
ATOM      9  HH  ARG D 557     -26.321  -3.196 -15.157  1.00 35.49     0.174 HD
ATOM     10  HH  ARG D 557     -25.439  -3.906 -14.198  1.00 35.49     0.174 HD
ATOM     11  HH  ARG D 557     -23.567  -1.380 -13.378  1.00 35.49     0.174 HD
ATOM     12  HH  ARG D 557     -23.783  -2.828 -13.122  1.00 35.49     0.174 HD
ATOM     13  HE  ARG D 557     -24.821  -0.264 -14.662  1.00 35.49     0.178 HD
ENDBRANCH   4   5
ENDBRANCH   3   4
ENDBRANCH   2   3
ENDBRANCH   1   2
END_RES ARG D 557
BEGIN_RES GLU D 570
REMARK  3 active torsions:
REMARK  status: ('A' for Active; 'I' for Inactive)
REMARK    5  A    between atoms: CA   and  CB  
REMARK    6  A    between atoms: CB   and  CG  
REMARK    7  A    between atoms: CG   and  CD  
ROOT
ATOM     14  CA  GLU D 570     -18.033  -6.348 -13.375  1.00 32.92     0.160 C 
ENDROOT
BRANCH  14  15
ATOM     15  CB  GLU D 570     -19.500  -6.345 -13.794  1.00 32.92     0.043 C 
BRANCH  15  16
ATOM     16  CG  GLU D 570     -20.453  -5.586 -12.944  1.00 32.92     0.100 C 
BRANCH  16  17
ATOM     17  CD  GLU D 570     -21.677  -5.123 -13.699  1.00 32.92     0.185 C 
ATOM     18  OE1 GLU D 570     -21.618  -5.013 -14.939  1.00 32.92    -0.647 OA
ATOM     19  OE2 GLU D 570     -22.702  -4.852 -13.042  1.00 32.92    -0.647 OA
ENDBRANCH  16  17
ENDBRANCH  15  16
ENDBRANCH  14  15
END_RES GLU D 570
ENDMDL
MODEL 6
REMARK VINA RESULT:      -4.8      5.524      7.516
REMARK  1 active torsions:
REMARK  status: ('A' for Active; 'I' for Inactive)
REMARK    1  A    between atoms: C_2  and  N_3 
ROOT
HETATM    1  N   UNL     1     -34.695  -2.018 -12.393  1.00  0.00    -0.329 N 
HETATM    2  C   UNL     1     -34.569  -2.012 -10.957  1.00  0.00     0.131 C 
HETATM    3  C   UNL     1     -33.614  -3.151 -10.665  1.00  0.00     0.029 C 
HETATM    4  C   UNL     1     -33.860  -4.135 -11.797  1.00  0.00     0.105 C 
HETATM    5  C   UNL     1     -34.292  -3.245 -12.937  1.00  0.00     0.223 C 
HETATM    6  O   UNL     1     -34.328  -3.587 -14.110  1.00  0.00    -0.273 OA
ENDROOT
BRANCH   1   7
HETATM    7  C   UNL     1     -35.257  -1.013 -13.143  1.00  0.00     0.083 C 
HETATM    8  C   UNL     1     -35.004   0.291 -12.990  1.00  0.00     0.030 C 
ENDBRANCH   1   7
TORSDOF 1
BEGIN_RES ARG D 557
REMARK  4 active torsions:
REMARK  status: ('A' for Active; 'I' for Inactive)
REMARK    1  A    between atoms: CA   and  CB  
REMARK    2  A    between atoms: CB   and  CG  
REMARK    3  A    between atoms: CG   and  CD  
REMARK    4  A    between atoms: CD   and  NE  
REMARK       I    between atoms: NE   and  CZ  
REMARK       I    between atoms: CZ   and  NH1 
REMARK       I    between atoms: CZ   and  NH2 
ROOT
ATOM      1  CA  ARG D 557     -26.217   2.705 -17.014  1.00 35.49     0.159 C 
ENDROOT
BRANCH   1   2
ATOM      2  CB  ARG D 557     -26.789   1.319 -17.183  1.00 35.49     0.034 C 
BRANCH   2   3
ATOM      3  CG  ARG D 557     -28.233   1.226 -17.431  1.00 35.49     0.027 C 
BRANCH   3   4
ATOM      4  CD  ARG D 557     -28.907   0.296 -16.497  1.00 35.49     0.116 C 
BRANCH   4   5
ATOM      5  NE  ARG D 557     -29.302  -0.929 -17.141  1.00 35.49    -0.212 N 
ATOM      6  CZ  ARG D 557     -28.683  -2.084 -17.039  1.00 35.49     0.666 C 
ATOM      7  NH1 ARG D 557     -27.586  -2.240 -16.320  1.00 35.49    -0.235 N 
ATOM      8  NH2 ARG D 557     -29.194  -3.097 -17.676  1.00 35.49    -0.235 N 
ATOM      9  HH  ARG D 557     -27.234  -1.588 -15.891  1.00 35.49     0.174 HD
ATOM     10  HH  ARG D 557     -27.228  -3.018 -16.289  1.00 35.49     0.174 HD
ATOM     11  HH  ARG D 557     -29.907  -2.968 -18.127  1.00 35.49     0.174 HD
ATOM     12  HH  ARG D 557     -28.825  -3.859 -17.632  1.00 35.49     0.174 HD
ATOM     13  HE  ARG D 557     -29.957  -0.903 -17.682  1.00 35.49     0.178 HD
ENDBRANCH   4   5
ENDBRANCH   3   4
ENDBRANCH   2   3
ENDBRANCH   1   2
END_RES ARG D 557
BEGIN_RES GLU D 570
REMARK  3 active torsions:
REMARK  status: ('A' for Active; 'I' for Inactive)
REMARK    5  A    between atoms: CA   and  CB  
REMARK    6  A    between atoms: CB   and  CG  
REMARK    7  A    between atoms: CG   and  CD  
ROOT
ATOM     14  CA  GLU D 570     -18.033  -6.348 -13.375  1.00 32.92     0.160 C 
ENDROOT
BRANCH  14  15
ATOM     15  CB  GLU D 570     -19.500  -6.345 -13.794  1.00 32.92     0.043 C 
BRANCH  15  16
ATOM     16  CG  GLU D 570     -20.444  -5.541 -12.976  1.00 32.92     0.100 C 
BRANCH  16  17
ATOM     17  CD  GLU D 570     -21.727  -5.216 -13.705  1.00 32.92     0.185 C 
ATOM     18  OE1 GLU D 570     -22.110  -5.969 -14.620  1.00 32.92    -0.647 OA
ATOM     19  OE2 GLU D 570     -22.347  -4.188 -13.368  1.00 32.92    -0.647 OA
ENDBRANCH  16  17
ENDBRANCH  15  16
ENDBRANCH  14  15
END_RES GLU D 570
ENDMDL
MODEL 7
REMARK VINA RESULT:      -4.5      2.781      4.073
REMARK  1 active torsions:
REMARK  status: ('A' for Active; 'I' for Inactive)
REMARK    1  A    between atoms: C_2  and  N_3 
ROOT
HETATM    1  N   UNL     1     -21.711  -4.638  -7.895  1.00  0.00    -0.329 N 
HETATM    2  C   UNL     1     -23.092  -4.227  -7.869  1.00  0.00     0.131 C 
HETATM    3  C   UNL     1     -23.503  -4.218  -9.328  1.00  0.00     0.029 C 
HETATM    4  C   UNL     1     -22.217  -3.893 -10.068  1.00  0.00     0.105 C 
HETATM    5  C   UNL     1     -21.149  -4.462  -9.166  1.00  0.00     0.223 C 
HETATM    6  O   UNL     1     -19.991  -4.663  -9.502  1.00  0.00    -0.273 OA
ENDROOT
BRANCH   1   7
HETATM    7  C   UNL     1     -20.982  -5.034  -6.800  1.00  0.00     0.083 C 
HETATM    8  C   UNL     1     -20.790  -6.303  -6.424  1.00  0.00     0.030 C 
ENDBRANCH   1   7
TORSDOF 1
BEGIN_RES ARG D 557
REMARK  4 active torsions:
REMARK  status: ('A' for Active; 'I' for Inactive)
REMARK    1  A    between atoms: CA   and  CB  
REMARK    2  A    between atoms: CB   and  CG  
REMARK    3  A    between atoms: CG   and  CD  
REMARK    4  A    between atoms: CD   and  NE  
REMARK       I    between atoms: NE   and  CZ  
REMARK       I    between atoms: CZ   and  NH1 
REMARK       I    between atoms: CZ   and  NH2 
ROOT
ATOM      1  CA  ARG D 557     -26.217   2.705 -17.014  1.00 35.49     0.159 C 
ENDROOT
BRANCH   1   2
ATOM      2  CB  ARG D 557     -26.789   1.319 -17.183  1.00 35.49     0.034 C 
BRANCH   2   3
ATOM      3  CG  ARG D 557     -25.837   0.202 -17.149  1.00 35.49     0.027 C 
BRANCH   3   4
ATOM      4  CD  ARG D 557     -24.751   0.417 -16.164  1.00 35.49     0.116 C 
BRANCH   4   5
ATOM      5  NE  ARG D 557     -24.894  -0.428 -15.008  1.00 35.49    -0.212 N 
ATOM      6  CZ  ARG D 557     -24.082  -1.403 -14.664  1.00 35.49     0.666 C 
ATOM      7  NH1 ARG D 557     -23.021  -1.728 -15.380  1.00 35.49    -0.235 N 
ATOM      8  NH2 ARG D 557     -24.353  -2.053 -13.570  1.00 35.49    -0.235 N 
ATOM      9  HH  ARG D 557     -22.822  -1.313 -16.103  1.00 35.49     0.174 HD
ATOM     10  HH  ARG D 557     -22.527  -2.372 -15.105  1.00 35.49     0.174 HD
ATOM     11  HH  ARG D 557     -25.041  -1.816 -13.124  1.00 35.49     0.174 HD
ATOM     12  HH  ARG D 557     -23.851  -2.686 -13.314  1.00 35.49     0.174 HD
ATOM     13  HE  ARG D 557     -25.590  -0.336 -14.529  1.00 35.49     0.178 HD
ENDBRANCH   4   5
ENDBRANCH   3   4
ENDBRANCH   2   3
ENDBRANCH   1   2
END_RES ARG D 557
BEGIN_RES GLU D 570
REMARK  3 active torsions:
REMARK  status: ('A' for Active; 'I' for Inactive)
REMARK    5  A    between atoms: CA   and  CB  
REMARK    6  A    between atoms: CB   and  CG  
REMARK    7  A    between atoms: CG   and  CD  
ROOT
ATOM     14  CA  GLU D 570     -18.033  -6.348 -13.375  1.00 32.92     0.160 C 
ENDROOT
BRANCH  14  15
ATOM     15  CB  GLU D 570     -19.500  -6.345 -13.794  1.00 32.92     0.043 C 
BRANCH  15  16
ATOM     16  CG  GLU D 570     -20.439  -5.516 -12.994  1.00 32.92     0.100 C 
BRANCH  16  17
ATOM     17  CD  GLU D 570     -21.743  -5.248 -13.708  1.00 32.92     0.185 C 
ATOM     18  OE1 GLU D 570     -22.290  -4.137 -13.573  1.00 32.92    -0.647 OA
ATOM     19  OE2 GLU D 570     -22.232  -6.165 -14.397  1.00 32.92    -0.647 OA
ENDBRANCH  16  17
ENDBRANCH  15  16
ENDBRANCH  14  15
END_RES GLU D 570
ENDMDL
MODEL 8
REMARK VINA RESULT:      -4.5      7.108      8.216
REMARK  1 active torsions:
REMARK  status: ('A' for Active; 'I' for Inactive)
REMARK    1  A    between atoms: C_2  and  N_3 
ROOT
HETATM    1  N   UNL     1     -22.354  -9.217  -0.718  1.00  0.00    -0.329 N 
HETATM    2  C   UNL     1     -21.680  -8.975  -1.969  1.00  0.00     0.131 C 
HETATM    3  C   UNL     1     -21.238  -7.529  -1.877  1.00  0.00     0.029 C 
HETATM    4  C   UNL     1     -22.285  -6.881  -0.987  1.00  0.00     0.105 C 
HETATM    5  C   UNL     1     -22.732  -8.017  -0.100  1.00  0.00     0.223 C 
HETATM    6  O   UNL     1     -23.363  -7.881   0.938  1.00  0.00    -0.273 OA
ENDROOT
BRANCH   1   7
HETATM    7  C   UNL     1     -22.708 -10.453  -0.235  1.00  0.00     0.083 C 
HETATM    8  C   UNL     1     -23.909 -11.020  -0.384  1.00  0.00     0.030 C 
ENDBRANCH   1   7
TORSDOF 1
BEGIN_RES ARG D 557
REMARK  4 active torsions:
REMARK  status: ('A' for Active; 'I' for Inactive)
REMARK    1  A    between atoms: CA   and  CB  
REMARK    2  A    between atoms: CB   and  CG  
REMARK    3  A    between atoms: CG   and  CD  
REMARK    4  A    between atoms: CD   and  NE  
REMARK       I    between atoms: NE   and  CZ  
REMARK       I    between atoms: CZ   and  NH1 
REMARK       I    between atoms: CZ   and  NH2 
ROOT
ATOM      1  CA  ARG D 557     -26.217   2.705 -17.014  1.00 35.49     0.159 C 
ENDROOT
BRANCH   1   2
ATOM      2  CB  ARG D 557     -26.789   1.319 -17.183  1.00 35.49     0.034 C 
BRANCH   2   3
ATOM      3  CG  ARG D 557     -25.836   0.203 -17.156  1.00 35.49     0.027 C 
BRANCH   3   4
ATOM      4  CD  ARG D 557     -24.751   0.411 -16.169  1.00 35.49     0.116 C 
BRANCH   4   5
ATOM      5  NE  ARG D 557     -24.898  -0.437 -15.016  1.00 35.49    -0.212 N 
ATOM      6  CZ  ARG D 557     -24.086  -1.411 -14.670  1.00 35.49     0.666 C 
ATOM      7  NH1 ARG D 557     -23.019  -1.730 -15.379  1.00 35.49    -0.235 N 
ATOM      8  NH2 ARG D 557     -24.362  -2.064 -13.578  1.00 35.49    -0.235 N 
ATOM      9  HH  ARG D 557     -22.817  -1.313 -16.100  1.00 35.49     0.174 HD
ATOM     10  HH  ARG D 557     -22.524  -2.373 -15.103  1.00 35.49     0.174 HD
ATOM     11  HH  ARG D 557     -25.053  -1.830 -13.136  1.00 35.49     0.174 HD
ATOM     12  HH  ARG D 557     -23.858  -2.696 -13.321  1.00 35.49     0.174 HD
ATOM     13  HE  ARG D 557     -25.598  -0.349 -14.541  1.00 35.49     0.178 HD
ENDBRANCH   4   5
ENDBRANCH   3   4
ENDBRANCH   2   3
ENDBRANCH   1   2
END_RES ARG D 557
BEGIN_RES GLU D 570
REMARK  3 active torsions:
REMARK  status: ('A' for Active; 'I' for Inactive)
REMARK    5  A    between atoms: CA   and  CB  
REMARK    6  A    between atoms: CB   and  CG  
REMARK    7  A    between atoms: CG   and  CD  
ROOT
ATOM     14  CA  GLU D 570     -18.033  -6.348 -13.375  1.00 32.92     0.160 C 
ENDROOT
BRANCH  14  15
ATOM     15  CB  GLU D 570     -19.500  -6.345 -13.794  1.00 32.92     0.043 C 
BRANCH  15  16
ATOM     16  CG  GLU D 570     -20.442  -5.534 -12.981  1.00 32.92     0.100 C 
BRANCH  16  17
ATOM     17  CD  GLU D 570     -21.736  -5.233 -13.703  1.00 32.92     0.185 C 
ATOM     18  OE1 GLU D 570     -22.304  -4.143 -13.498  1.00 32.92    -0.647 OA
ATOM     19  OE2 GLU D 570     -22.194  -6.104 -14.468  1.00 32.92    -0.647 OA
ENDBRANCH  16  17
ENDBRANCH  15  16
ENDBRANCH  14  15
END_RES GLU D 570
ENDMDL
MODEL 9
REMARK VINA RESULT:      -4.3      5.809      7.318
REMARK  1 active torsions:
REMARK  status: ('A' for Active; 'I' for Inactive)
REMARK    1  A    between atoms: C_2  and  N_3 
ROOT
HETATM    1  N   UNL     1     -34.292  -2.869 -11.487  1.00  0.00    -0.329 N 
HETATM    2  C   UNL     1     -32.959  -3.411 -11.561  1.00  0.00     0.131 C 
HETATM    3  C   UNL     1     -33.163  -4.909 -11.460  1.00  0.00     0.029 C 
HETATM    4  C   UNL     1     -34.420  -5.052 -10.620  1.00  0.00     0.105 C 
HETATM    5  C   UNL     1     -35.191  -3.795 -10.939  1.00  0.00     0.223 C 
HETATM    6  O   UNL     1     -36.377  -3.626 -10.694  1.00  0.00    -0.273 OA
ENDROOT
BRANCH   1   7
HETATM    7  C   UNL     1     -34.639  -1.574 -11.786  1.00  0.00     0.083 C 
HETATM    8  C   UNL     1     -35.096  -1.157 -12.972  1.00  0.00     0.030 C 
ENDBRANCH   1   7
TORSDOF 1
BEGIN_RES ARG D 557
REMARK  4 active torsions:
REMARK  status: ('A' for Active; 'I' for Inactive)
REMARK    1  A    between atoms: CA   and  CB  
REMARK    2  A    between atoms: CB   and  CG  
REMARK    3  A    between atoms: CG   and  CD  
REMARK    4  A    between atoms: CD   and  NE  
REMARK       I    between atoms: NE   and  CZ  
REMARK       I    between atoms: CZ   and  NH1 
REMARK       I    between atoms: CZ   and  NH2 
ROOT
ATOM      1  CA  ARG D 557     -26.217   2.705 -17.014  1.00 35.49     0.159 C 
ENDROOT
BRANCH   1   2
ATOM      2  CB  ARG D 557     -26.789   1.319 -17.183  1.00 35.49     0.034 C 
BRANCH   2   3
ATOM      3  CG  ARG D 557     -28.231   1.167 -16.955  1.00 35.49     0.027 C 
BRANCH   3   4
ATOM      4  CD  ARG D 557     -28.616  -0.238 -16.693  1.00 35.49     0.116 C 
BRANCH   4   5
ATOM      5  NE  ARG D 557     -27.593  -0.957 -15.981  1.00 35.49    -0.212 N 
ATOM      6  CZ  ARG D 557     -27.377  -2.252 -16.046  1.00 35.49     0.666 C 
ATOM      7  NH1 ARG D 557     -28.114  -3.057 -16.788  1.00 35.49    -0.235 N 
ATOM      8  NH2 ARG D 557     -26.389  -2.731 -15.347  1.00 35.49    -0.235 N 
ATOM      9  HH  ARG D 557     -28.768  -2.763 -17.257  1.00 35.49     0.174 HD
ATOM     10  HH  ARG D 557     -27.924  -3.893 -16.793  1.00 35.49     0.174 HD
ATOM     11  HH  ARG D 557     -25.925  -2.186 -14.883  1.00 35.49     0.174 HD
ATOM     12  HH  ARG D 557     -26.216  -3.561 -15.366  1.00 35.49     0.174 HD
ATOM     13  HE  ARG D 557     -27.117  -0.527 -15.423  1.00 35.49     0.178 HD
ENDBRANCH   4   5
ENDBRANCH   3   4
ENDBRANCH   2   3
ENDBRANCH   1   2
END_RES ARG D 557
BEGIN_RES GLU D 570
REMARK  3 active torsions:
REMARK  status: ('A' for Active; 'I' for Inactive)
REMARK    5  A    between atoms: CA   and  CB  
REMARK    6  A    between atoms: CB   and  CG  
REMARK    7  A    between atoms: CG   and  CD  
ROOT
ATOM     14  CA  GLU D 570     -18.033  -6.348 -13.375  1.00 32.92     0.160 C 
ENDROOT
BRANCH  14  15
ATOM     15  CB  GLU D 570     -19.500  -6.345 -13.794  1.00 32.92     0.043 C 
BRANCH  15  16
ATOM     16  CG  GLU D 570     -20.021  -7.560 -14.472  1.00 32.92     0.100 C 
BRANCH  16  17
ATOM     17  CD  GLU D 570     -20.812  -7.246 -15.720  1.00 32.92     0.185 C 
ATOM     18  OE1 GLU D 570     -21.761  -7.988 -16.038  1.00 32.92    -0.647 OA
ATOM     19  OE2 GLU D 570     -20.470  -6.255 -16.395  1.00 32.92    -0.647 OA
ENDBRANCH  16  17
ENDBRANCH  15  16
ENDBRANCH  14  15
END_RES GLU D 570
ENDMDL
