MODEL 1
REMARK VINA RESULT:      -1.3      0.000      0.000
REMARK  18 active torsions:
REMARK  status: ('A' for Active; 'I' for Inactive)
REMARK    1  A    between atoms: C_2  and  C_3 
REMARK    2  A    between atoms: C_3  and  C_4 
REMARK    3  A    between atoms: C_4  and  C_5 
REMARK    4  A    between atoms: C_5  and  C_6 
REMARK    5  A    between atoms: C_5  and  C_8 
REMARK    6  A    between atoms: C_8  and  O_9 
REMARK    7  A    between atoms: O_9  and  C_10 
REMARK    8  A    between atoms: C_10  and  C_12 
REMARK    9  A    between atoms: C_12  and  C_13 
REMARK   10  A    between atoms: C_13  and  C_14 
REMARK   11  A    between atoms: C_13  and  S_25 
REMARK   12  A    between atoms: C_14  and  O_16 
REMARK   13  A    between atoms: O_16  and  C_17 
REMARK   14  A    between atoms: C_17  and  C_18 
REMARK   15  A    between atoms: C_18  and  C_19 
REMARK   16  A    between atoms: C_18  and  C_21 
REMARK   17  A    between atoms: C_21  and  C_22 
REMARK   18  A    between atoms: C_22  and  C_23 
ROOT
HETATM    1 NA   UNL     2     -32.360  -8.521   4.546  1.00  0.00     0.000 Na
ENDROOT
TORSDOF 18
BEGIN_RES ARG D 557
REMARK  4 active torsions:
REMARK  status: ('A' for Active; 'I' for Inactive)
REMARK    1  A    between atoms: CA   and  CB  
REMARK    2  A    between atoms: CB   and  CG  
REMARK    3  A    between atoms: CG   and  CD  
REMARK    4  A    between atoms: CD   and  NE  
REMARK       I    between atoms: NE   and  CZ  
REMARK       I    between atoms: CZ   and  NH1 
REMARK       I    between atoms: CZ   and  NH2 
ROOT
ATOM      1  CA  ARG D 557     -26.217   2.705 -17.014  1.00 35.49     0.159 C 
ENDROOT
BRANCH   1   2
ATOM      2  CB  ARG D 557     -26.789   1.319 -17.183  1.00 35.49     0.034 C 
BRANCH   2   3
ATOM      3  CG  ARG D 557     -25.835   0.203 -17.161  1.00 35.49     0.027 C 
BRANCH   3   4
ATOM      4  CD  ARG D 557     -24.752   0.407 -16.172  1.00 35.49     0.116 C 
BRANCH   4   5
ATOM      5  NE  ARG D 557     -24.906  -0.438 -15.017  1.00 35.49    -0.212 N 
ATOM      6  CZ  ARG D 557     -24.099  -1.413 -14.665  1.00 35.49     0.666 C 
ATOM      7  NH1 ARG D 557     -23.031  -1.739 -15.370  1.00 35.49    -0.235 N 
ATOM      8  NH2 ARG D 557     -24.382  -2.062 -13.573  1.00 35.49    -0.235 N 
ATOM      9  HH  ARG D 557     -22.824  -1.324 -16.091  1.00 35.49     0.174 HD
ATOM     10  HH  ARG D 557     -22.539  -2.383 -15.090  1.00 35.49     0.174 HD
ATOM     11  HH  ARG D 557     -25.073  -1.825 -13.135  1.00 35.49     0.174 HD
ATOM     12  HH  ARG D 557     -23.882  -2.696 -13.312  1.00 35.49     0.174 HD
ATOM     13  HE  ARG D 557     -25.608  -0.345 -14.546  1.00 35.49     0.178 HD
ENDBRANCH   4   5
ENDBRANCH   3   4
ENDBRANCH   2   3
ENDBRANCH   1   2
END_RES ARG D 557
BEGIN_RES GLU D 570
REMARK  3 active torsions:
REMARK  status: ('A' for Active; 'I' for Inactive)
REMARK    5  A    between atoms: CA   and  CB  
REMARK    6  A    between atoms: CB   and  CG  
REMARK    7  A    between atoms: CG   and  CD  
ROOT
ATOM     14  CA  GLU D 570     -18.033  -6.348 -13.375  1.00 32.92     0.160 C 
ENDROOT
BRANCH  14  15
ATOM     15  CB  GLU D 570     -19.500  -6.345 -13.794  1.00 32.92     0.043 C 
BRANCH  15  16
ATOM     16  CG  GLU D 570     -20.442  -5.531 -12.983  1.00 32.92     0.100 C 
BRANCH  16  17
ATOM     17  CD  GLU D 570     -21.732  -5.226 -13.708  1.00 32.92     0.185 C 
ATOM     18  OE1 GLU D 570     -22.337  -4.168 -13.446  1.00 32.92    -0.647 OA
ATOM     19  OE2 GLU D 570     -22.150  -6.061 -14.533  1.00 32.92    -0.647 OA
ENDBRANCH  16  17
ENDBRANCH  15  16
ENDBRANCH  14  15
END_RES GLU D 570
ENDMDL
MODEL 2
REMARK VINA RESULT:      -1.3      7.087      7.087
REMARK  18 active torsions:
REMARK  status: ('A' for Active; 'I' for Inactive)
REMARK    1  A    between atoms: C_2  and  C_3 
REMARK    2  A    between atoms: C_3  and  C_4 
REMARK    3  A    between atoms: C_4  and  C_5 
REMARK    4  A    between atoms: C_5  and  C_6 
REMARK    5  A    between atoms: C_5  and  C_8 
REMARK    6  A    between atoms: C_8  and  O_9 
REMARK    7  A    between atoms: O_9  and  C_10 
REMARK    8  A    between atoms: C_10  and  C_12 
REMARK    9  A    between atoms: C_12  and  C_13 
REMARK   10  A    between atoms: C_13  and  C_14 
REMARK   11  A    between atoms: C_13  and  S_25 
REMARK   12  A    between atoms: C_14  and  O_16 
REMARK   13  A    between atoms: O_16  and  C_17 
REMARK   14  A    between atoms: C_17  and  C_18 
REMARK   15  A    between atoms: C_18  and  C_19 
REMARK   16  A    between atoms: C_18  and  C_21 
REMARK   17  A    between atoms: C_21  and  C_22 
REMARK   18  A    between atoms: C_22  and  C_23 
ROOT
HETATM    1 NA   UNL     2     -11.254   1.614   2.471  1.00  0.00     0.000 Na
ENDROOT
TORSDOF 18
BEGIN_RES ARG D 557
REMARK  4 active torsions:
REMARK  status: ('A' for Active; 'I' for Inactive)
REMARK    1  A    between atoms: CA   and  CB  
REMARK    2  A    between atoms: CB   and  CG  
REMARK    3  A    between atoms: CG   and  CD  
REMARK    4  A    between atoms: CD   and  NE  
REMARK       I    between atoms: NE   and  CZ  
REMARK       I    between atoms: CZ   and  NH1 
REMARK       I    between atoms: CZ   and  NH2 
ROOT
ATOM      1  CA  ARG D 557     -26.217   2.705 -17.014  1.00 35.49     0.159 C 
ENDROOT
BRANCH   1   2
ATOM      2  CB  ARG D 557     -26.789   1.319 -17.183  1.00 35.49     0.034 C 
BRANCH   2   3
ATOM      3  CG  ARG D 557     -25.835   0.203 -17.162  1.00 35.49     0.027 C 
BRANCH   3   4
ATOM      4  CD  ARG D 557     -24.745   0.412 -16.181  1.00 35.49     0.116 C 
BRANCH   4   5
ATOM      5  NE  ARG D 557     -24.889  -0.429 -15.023  1.00 35.49    -0.212 N 
ATOM      6  CZ  ARG D 557     -24.077  -1.401 -14.673  1.00 35.49     0.666 C 
ATOM      7  NH1 ARG D 557     -23.012  -1.726 -15.384  1.00 35.49    -0.235 N 
ATOM      8  NH2 ARG D 557     -24.350  -2.047 -13.577  1.00 35.49    -0.235 N 
ATOM      9  HH  ARG D 557     -22.812  -1.313 -16.107  1.00 35.49     0.174 HD
ATOM     10  HH  ARG D 557     -22.517  -2.367 -15.105  1.00 35.49     0.174 HD
ATOM     11  HH  ARG D 557     -25.040  -1.811 -13.134  1.00 35.49     0.174 HD
ATOM     12  HH  ARG D 557     -23.847  -2.678 -13.317  1.00 35.49     0.174 HD
ATOM     13  HE  ARG D 557     -25.588  -0.337 -14.547  1.00 35.49     0.178 HD
ENDBRANCH   4   5
ENDBRANCH   3   4
ENDBRANCH   2   3
ENDBRANCH   1   2
END_RES ARG D 557
BEGIN_RES GLU D 570
REMARK  3 active torsions:
REMARK  status: ('A' for Active; 'I' for Inactive)
REMARK    5  A    between atoms: CA   and  CB  
REMARK    6  A    between atoms: CB   and  CG  
REMARK    7  A    between atoms: CG   and  CD  
ROOT
ATOM     14  CA  GLU D 570     -18.033  -6.348 -13.375  1.00 32.92     0.160 C 
ENDROOT
BRANCH  14  15
ATOM     15  CB  GLU D 570     -19.500  -6.345 -13.794  1.00 32.92     0.043 C 
BRANCH  15  16
ATOM     16  CG  GLU D 570     -20.444  -5.539 -12.977  1.00 32.92     0.100 C 
BRANCH  16  17
ATOM     17  CD  GLU D 570     -21.739  -5.240 -13.696  1.00 32.92     0.185 C 
ATOM     18  OE1 GLU D 570     -22.278  -4.129 -13.533  1.00 32.92    -0.647 OA
ATOM     19  OE2 GLU D 570     -22.227  -6.133 -14.416  1.00 32.92    -0.647 OA
ENDBRANCH  16  17
ENDBRANCH  15  16
ENDBRANCH  14  15
END_RES GLU D 570
ENDMDL
MODEL 3
REMARK VINA RESULT:      -1.2      4.494      4.494
REMARK  18 active torsions:
REMARK  status: ('A' for Active; 'I' for Inactive)
REMARK    1  A    between atoms: C_2  and  C_3 
REMARK    2  A    between atoms: C_3  and  C_4 
REMARK    3  A    between atoms: C_4  and  C_5 
REMARK    4  A    between atoms: C_5  and  C_6 
REMARK    5  A    between atoms: C_5  and  C_8 
REMARK    6  A    between atoms: C_8  and  O_9 
REMARK    7  A    between atoms: O_9  and  C_10 
REMARK    8  A    between atoms: C_10  and  C_12 
REMARK    9  A    between atoms: C_12  and  C_13 
REMARK   10  A    between atoms: C_13  and  C_14 
REMARK   11  A    between atoms: C_13  and  S_25 
REMARK   12  A    between atoms: C_14  and  O_16 
REMARK   13  A    between atoms: O_16  and  C_17 
REMARK   14  A    between atoms: C_17  and  C_18 
REMARK   15  A    between atoms: C_18  and  C_19 
REMARK   16  A    between atoms: C_18  and  C_21 
REMARK   17  A    between atoms: C_21  and  C_22 
REMARK   18  A    between atoms: C_22  and  C_23 
ROOT
HETATM    1 NA   UNL     2     -27.296  -5.595  -9.162  1.00  0.00     0.000 Na
ENDROOT
TORSDOF 18
BEGIN_RES ARG D 557
REMARK  4 active torsions:
REMARK  status: ('A' for Active; 'I' for Inactive)
REMARK    1  A    between atoms: CA   and  CB  
REMARK    2  A    between atoms: CB   and  CG  
REMARK    3  A    between atoms: CG   and  CD  
REMARK    4  A    between atoms: CD   and  NE  
REMARK       I    between atoms: NE   and  CZ  
REMARK       I    between atoms: CZ   and  NH1 
REMARK       I    between atoms: CZ   and  NH2 
ROOT
ATOM      1  CA  ARG D 557     -26.217   2.705 -17.014  1.00 35.49     0.159 C 
ENDROOT
BRANCH   1   2
ATOM      2  CB  ARG D 557     -26.789   1.319 -17.183  1.00 35.49     0.034 C 
BRANCH   2   3
ATOM      3  CG  ARG D 557     -25.835   0.203 -17.158  1.00 35.49     0.027 C 
BRANCH   3   4
ATOM      4  CD  ARG D 557     -24.750   0.410 -16.172  1.00 35.49     0.116 C 
BRANCH   4   5
ATOM      5  NE  ARG D 557     -24.899  -0.435 -15.017  1.00 35.49    -0.212 N 
ATOM      6  CZ  ARG D 557     -24.083  -1.403 -14.663  1.00 35.49     0.666 C 
ATOM      7  NH1 ARG D 557     -23.011  -1.720 -15.366  1.00 35.49    -0.235 N 
ATOM      8  NH2 ARG D 557     -24.362  -2.054 -13.572  1.00 35.49    -0.235 N 
ATOM      9  HH  ARG D 557     -22.807  -1.303 -16.087  1.00 35.49     0.174 HD
ATOM     10  HH  ARG D 557     -22.514  -2.359 -15.085  1.00 35.49     0.174 HD
ATOM     11  HH  ARG D 557     -25.056  -1.823 -13.134  1.00 35.49     0.174 HD
ATOM     12  HH  ARG D 557     -23.857  -2.683 -13.309  1.00 35.49     0.174 HD
ATOM     13  HE  ARG D 557     -25.602  -0.349 -14.547  1.00 35.49     0.178 HD
ENDBRANCH   4   5
ENDBRANCH   3   4
ENDBRANCH   2   3
ENDBRANCH   1   2
END_RES ARG D 557
BEGIN_RES GLU D 570
REMARK  3 active torsions:
REMARK  status: ('A' for Active; 'I' for Inactive)
REMARK    5  A    between atoms: CA   and  CB  
REMARK    6  A    between atoms: CB   and  CG  
REMARK    7  A    between atoms: CG   and  CD  
ROOT
ATOM     14  CA  GLU D 570     -18.033  -6.348 -13.375  1.00 32.92     0.160 C 
ENDROOT
BRANCH  14  15
ATOM     15  CB  GLU D 570     -19.500  -6.345 -13.794  1.00 32.92     0.043 C 
BRANCH  15  16
ATOM     16  CG  GLU D 570     -20.437  -5.510 -12.999  1.00 32.92     0.100 C 
BRANCH  16  17
ATOM     17  CD  GLU D 570     -21.742  -5.245 -13.714  1.00 32.92     0.185 C 
ATOM     18  OE1 GLU D 570     -22.330  -4.164 -13.520  1.00 32.92    -0.647 OA
ATOM     19  OE2 GLU D 570     -22.190  -6.136 -14.462  1.00 32.92    -0.647 OA
ENDBRANCH  16  17
ENDBRANCH  15  16
ENDBRANCH  14  15
END_RES GLU D 570
ENDMDL
MODEL 4
REMARK VINA RESULT:      -1.2     10.540     10.581
REMARK  18 active torsions:
REMARK  status: ('A' for Active; 'I' for Inactive)
REMARK    1  A    between atoms: C_2  and  C_3 
REMARK    2  A    between atoms: C_3  and  C_4 
REMARK    3  A    between atoms: C_4  and  C_5 
REMARK    4  A    between atoms: C_5  and  C_6 
REMARK    5  A    between atoms: C_5  and  C_8 
REMARK    6  A    between atoms: C_8  and  O_9 
REMARK    7  A    between atoms: O_9  and  C_10 
REMARK    8  A    between atoms: C_10  and  C_12 
REMARK    9  A    between atoms: C_12  and  C_13 
REMARK   10  A    between atoms: C_13  and  C_14 
REMARK   11  A    between atoms: C_13  and  S_25 
REMARK   12  A    between atoms: C_14  and  O_16 
REMARK   13  A    between atoms: O_16  and  C_17 
REMARK   14  A    between atoms: C_17  and  C_18 
REMARK   15  A    between atoms: C_18  and  C_19 
REMARK   16  A    between atoms: C_18  and  C_21 
REMARK   17  A    between atoms: C_21  and  C_22 
REMARK   18  A    between atoms: C_22  and  C_23 
ROOT
HETATM    1 NA   UNL     2      -9.117   5.891 -17.227  1.00  0.00     0.000 Na
ENDROOT
TORSDOF 18
BEGIN_RES ARG D 557
REMARK  4 active torsions:
REMARK  status: ('A' for Active; 'I' for Inactive)
REMARK    1  A    between atoms: CA   and  CB  
REMARK    2  A    between atoms: CB   and  CG  
REMARK    3  A    between atoms: CG   and  CD  
REMARK    4  A    between atoms: CD   and  NE  
REMARK       I    between atoms: NE   and  CZ  
REMARK       I    between atoms: CZ   and  NH1 
REMARK       I    between atoms: CZ   and  NH2 
ROOT
ATOM      1  CA  ARG D 557     -26.217   2.705 -17.014  1.00 35.49     0.159 C 
ENDROOT
BRANCH   1   2
ATOM      2  CB  ARG D 557     -26.789   1.319 -17.183  1.00 35.49     0.034 C 
BRANCH   2   3
ATOM      3  CG  ARG D 557     -25.836   0.203 -17.152  1.00 35.49     0.027 C 
BRANCH   3   4
ATOM      4  CD  ARG D 557     -24.757   0.409 -16.159  1.00 35.49     0.116 C 
BRANCH   4   5
ATOM      5  NE  ARG D 557     -24.907  -0.444 -15.010  1.00 35.49    -0.212 N 
ATOM      6  CZ  ARG D 557     -24.094  -1.418 -14.666  1.00 35.49     0.666 C 
ATOM      7  NH1 ARG D 557     -23.025  -1.734 -15.374  1.00 35.49    -0.235 N 
ATOM      8  NH2 ARG D 557     -24.373  -2.077 -13.579  1.00 35.49    -0.235 N 
ATOM      9  HH  ARG D 557     -22.821  -1.313 -16.092  1.00 35.49     0.174 HD
ATOM     10  HH  ARG D 557     -22.530  -2.377 -15.099  1.00 35.49     0.174 HD
ATOM     11  HH  ARG D 557     -25.066  -1.846 -13.138  1.00 35.49     0.174 HD
ATOM     12  HH  ARG D 557     -23.870  -2.709 -13.322  1.00 35.49     0.174 HD
ATOM     13  HE  ARG D 557     -25.608  -0.359 -14.538  1.00 35.49     0.178 HD
ENDBRANCH   4   5
ENDBRANCH   3   4
ENDBRANCH   2   3
ENDBRANCH   1   2
END_RES ARG D 557
BEGIN_RES GLU D 570
REMARK  3 active torsions:
REMARK  status: ('A' for Active; 'I' for Inactive)
REMARK    5  A    between atoms: CA   and  CB  
REMARK    6  A    between atoms: CB   and  CG  
REMARK    7  A    between atoms: CG   and  CD  
ROOT
ATOM     14  CA  GLU D 570     -18.033  -6.348 -13.375  1.00 32.92     0.160 C 
ENDROOT
BRANCH  14  15
ATOM     15  CB  GLU D 570     -19.500  -6.345 -13.794  1.00 32.92     0.043 C 
BRANCH  15  16
ATOM     16  CG  GLU D 570     -20.444  -5.539 -12.977  1.00 32.92     0.100 C 
BRANCH  16  17
ATOM     17  CD  GLU D 570     -21.746  -5.255 -13.689  1.00 32.92     0.185 C 
ATOM     18  OE1 GLU D 570     -22.256  -6.146 -14.395  1.00 32.92    -0.647 OA
ATOM     19  OE2 GLU D 570     -22.252  -4.124 -13.552  1.00 32.92    -0.647 OA
ENDBRANCH  16  17
ENDBRANCH  15  16
ENDBRANCH  14  15
END_RES GLU D 570
ENDMDL
MODEL 5
REMARK VINA RESULT:      -1.0      5.849      5.939
REMARK  18 active torsions:
REMARK  status: ('A' for Active; 'I' for Inactive)
REMARK    1  A    between atoms: C_2  and  C_3 
REMARK    2  A    between atoms: C_3  and  C_4 
REMARK    3  A    between atoms: C_4  and  C_5 
REMARK    4  A    between atoms: C_5  and  C_6 
REMARK    5  A    between atoms: C_5  and  C_8 
REMARK    6  A    between atoms: C_8  and  O_9 
REMARK    7  A    between atoms: O_9  and  C_10 
REMARK    8  A    between atoms: C_10  and  C_12 
REMARK    9  A    between atoms: C_12  and  C_13 
REMARK   10  A    between atoms: C_13  and  C_14 
REMARK   11  A    between atoms: C_13  and  S_25 
REMARK   12  A    between atoms: C_14  and  O_16 
REMARK   13  A    between atoms: O_16  and  C_17 
REMARK   14  A    between atoms: C_17  and  C_18 
REMARK   15  A    between atoms: C_18  and  C_19 
REMARK   16  A    between atoms: C_18  and  C_21 
REMARK   17  A    between atoms: C_21  and  C_22 
REMARK   18  A    between atoms: C_22  and  C_23 
ROOT
HETATM    1 NA   UNL     2     -27.110 -13.695 -13.092  1.00  0.00     0.000 Na
ENDROOT
TORSDOF 18
BEGIN_RES ARG D 557
REMARK  4 active torsions:
REMARK  status: ('A' for Active; 'I' for Inactive)
REMARK    1  A    between atoms: CA   and  CB  
REMARK    2  A    between atoms: CB   and  CG  
REMARK    3  A    between atoms: CG   and  CD  
REMARK    4  A    between atoms: CD   and  NE  
REMARK       I    between atoms: NE   and  CZ  
REMARK       I    between atoms: CZ   and  NH1 
REMARK       I    between atoms: CZ   and  NH2 
ROOT
ATOM      1  CA  ARG D 557     -26.217   2.705 -17.014  1.00 35.49     0.159 C 
ENDROOT
BRANCH   1   2
ATOM      2  CB  ARG D 557     -26.789   1.319 -17.183  1.00 35.49     0.034 C 
BRANCH   2   3
ATOM      3  CG  ARG D 557     -25.865   0.195 -16.990  1.00 35.49     0.027 C 
BRANCH   3   4
ATOM      4  CD  ARG D 557     -26.297  -0.711 -15.901  1.00 35.49     0.116 C 
BRANCH   4   5
ATOM      5  NE  ARG D 557     -25.256  -0.930 -14.932  1.00 35.49    -0.212 N 
ATOM      6  CZ  ARG D 557     -24.981  -2.073 -14.346  1.00 35.49     0.666 C 
ATOM      7  NH1 ARG D 557     -25.666  -3.176 -14.586  1.00 35.49    -0.235 N 
ATOM      8  NH2 ARG D 557     -23.986  -2.093 -13.507  1.00 35.49    -0.235 N 
ATOM      9  HH  ARG D 557     -26.323  -3.186 -15.135  1.00 35.49     0.174 HD
ATOM     10  HH  ARG D 557     -25.438  -3.894 -14.176  1.00 35.49     0.174 HD
ATOM     11  HH  ARG D 557     -23.557  -1.368 -13.378  1.00 35.49     0.174 HD
ATOM     12  HH  ARG D 557     -23.775  -2.814 -13.113  1.00 35.49     0.174 HD
ATOM     13  HE  ARG D 557     -24.812  -0.256 -14.665  1.00 35.49     0.178 HD
ENDBRANCH   4   5
ENDBRANCH   3   4
ENDBRANCH   2   3
ENDBRANCH   1   2
END_RES ARG D 557
BEGIN_RES GLU D 570
REMARK  3 active torsions:
REMARK  status: ('A' for Active; 'I' for Inactive)
REMARK    5  A    between atoms: CA   and  CB  
REMARK    6  A    between atoms: CB   and  CG  
REMARK    7  A    between atoms: CG   and  CD  
ROOT
ATOM     14  CA  GLU D 570     -18.033  -6.348 -13.375  1.00 32.92     0.160 C 
ENDROOT
BRANCH  14  15
ATOM     15  CB  GLU D 570     -19.500  -6.345 -13.794  1.00 32.92     0.043 C 
BRANCH  15  16
ATOM     16  CG  GLU D 570     -20.449  -5.565 -12.959  1.00 32.92     0.100 C 
BRANCH  16  17
ATOM     17  CD  GLU D 570     -21.676  -5.119 -13.720  1.00 32.92     0.185 C 
ATOM     18  OE1 GLU D 570     -21.604  -4.981 -14.956  1.00 32.92    -0.647 OA
ATOM     19  OE2 GLU D 570     -22.715  -4.889 -13.071  1.00 32.92    -0.647 OA
ENDBRANCH  16  17
ENDBRANCH  15  16
ENDBRANCH  14  15
END_RES GLU D 570
ENDMDL
MODEL 6
REMARK VINA RESULT:      -1.0      4.954      4.954
REMARK  18 active torsions:
REMARK  status: ('A' for Active; 'I' for Inactive)
REMARK    1  A    between atoms: C_2  and  C_3 
REMARK    2  A    between atoms: C_3  and  C_4 
REMARK    3  A    between atoms: C_4  and  C_5 
REMARK    4  A    between atoms: C_5  and  C_6 
REMARK    5  A    between atoms: C_5  and  C_8 
REMARK    6  A    between atoms: C_8  and  O_9 
REMARK    7  A    between atoms: O_9  and  C_10 
REMARK    8  A    between atoms: C_10  and  C_12 
REMARK    9  A    between atoms: C_12  and  C_13 
REMARK   10  A    between atoms: C_13  and  C_14 
REMARK   11  A    between atoms: C_13  and  S_25 
REMARK   12  A    between atoms: C_14  and  O_16 
REMARK   13  A    between atoms: O_16  and  C_17 
REMARK   14  A    between atoms: C_17  and  C_18 
REMARK   15  A    between atoms: C_18  and  C_19 
REMARK   16  A    between atoms: C_18  and  C_21 
REMARK   17  A    between atoms: C_21  and  C_22 
REMARK   18  A    between atoms: C_22  and  C_23 
ROOT
HETATM    1 NA   UNL     2     -35.099  -8.567 -11.653  1.00  0.00     0.000 Na
ENDROOT
TORSDOF 18
BEGIN_RES ARG D 557
REMARK  4 active torsions:
REMARK  status: ('A' for Active; 'I' for Inactive)
REMARK    1  A    between atoms: CA   and  CB  
REMARK    2  A    between atoms: CB   and  CG  
REMARK    3  A    between atoms: CG   and  CD  
REMARK    4  A    between atoms: CD   and  NE  
REMARK       I    between atoms: NE   and  CZ  
REMARK       I    between atoms: CZ   and  NH1 
REMARK       I    between atoms: CZ   and  NH2 
ROOT
ATOM      1  CA  ARG D 557     -26.217   2.705 -17.014  1.00 35.49     0.159 C 
ENDROOT
BRANCH   1   2
ATOM      2  CB  ARG D 557     -26.789   1.319 -17.183  1.00 35.49     0.034 C 
BRANCH   2   3
ATOM      3  CG  ARG D 557     -25.836   0.203 -17.149  1.00 35.49     0.027 C 
BRANCH   3   4
ATOM      4  CD  ARG D 557     -24.755   0.413 -16.160  1.00 35.49     0.116 C 
BRANCH   4   5
ATOM      5  NE  ARG D 557     -24.899  -0.438 -15.009  1.00 35.49    -0.212 N 
ATOM      6  CZ  ARG D 557     -24.083  -1.410 -14.666  1.00 35.49     0.666 C 
ATOM      7  NH1 ARG D 557     -23.015  -1.724 -15.376  1.00 35.49    -0.235 N 
ATOM      8  NH2 ARG D 557     -24.357  -2.067 -13.576  1.00 35.49    -0.235 N 
ATOM      9  HH  ARG D 557     -22.815  -1.304 -16.095  1.00 35.49     0.174 HD
ATOM     10  HH  ARG D 557     -22.518  -2.366 -15.101  1.00 35.49     0.174 HD
ATOM     11  HH  ARG D 557     -25.049  -1.837 -13.134  1.00 35.49     0.174 HD
ATOM     12  HH  ARG D 557     -23.852  -2.698 -13.320  1.00 35.49     0.174 HD
ATOM     13  HE  ARG D 557     -25.599  -0.353 -14.535  1.00 35.49     0.178 HD
ENDBRANCH   4   5
ENDBRANCH   3   4
ENDBRANCH   2   3
ENDBRANCH   1   2
END_RES ARG D 557
BEGIN_RES GLU D 570
REMARK  3 active torsions:
REMARK  status: ('A' for Active; 'I' for Inactive)
REMARK    5  A    between atoms: CA   and  CB  
REMARK    6  A    between atoms: CB   and  CG  
REMARK    7  A    between atoms: CG   and  CD  
ROOT
ATOM     14  CA  GLU D 570     -18.033  -6.348 -13.375  1.00 32.92     0.160 C 
ENDROOT
BRANCH  14  15
ATOM     15  CB  GLU D 570     -19.500  -6.345 -13.794  1.00 32.92     0.043 C 
BRANCH  15  16
ATOM     16  CG  GLU D 570     -20.444  -5.539 -12.977  1.00 32.92     0.100 C 
BRANCH  16  17
ATOM     17  CD  GLU D 570     -21.736  -5.235 -13.698  1.00 32.92     0.185 C 
ATOM     18  OE1 GLU D 570     -22.290  -4.135 -13.510  1.00 32.92    -0.647 OA
ATOM     19  OE2 GLU D 570     -22.209  -6.114 -14.446  1.00 32.92    -0.647 OA
ENDBRANCH  16  17
ENDBRANCH  15  16
ENDBRANCH  14  15
END_RES GLU D 570
ENDMDL
MODEL 7
REMARK VINA RESULT:      -1.0      2.704      2.704
REMARK  18 active torsions:
REMARK  status: ('A' for Active; 'I' for Inactive)
REMARK    1  A    between atoms: C_2  and  C_3 
REMARK    2  A    between atoms: C_3  and  C_4 
REMARK    3  A    between atoms: C_4  and  C_5 
REMARK    4  A    between atoms: C_5  and  C_6 
REMARK    5  A    between atoms: C_5  and  C_8 
REMARK    6  A    between atoms: C_8  and  O_9 
REMARK    7  A    between atoms: O_9  and  C_10 
REMARK    8  A    between atoms: C_10  and  C_12 
REMARK    9  A    between atoms: C_12  and  C_13 
REMARK   10  A    between atoms: C_13  and  C_14 
REMARK   11  A    between atoms: C_13  and  S_25 
REMARK   12  A    between atoms: C_14  and  O_16 
REMARK   13  A    between atoms: O_16  and  C_17 
REMARK   14  A    between atoms: C_17  and  C_18 
REMARK   15  A    between atoms: C_18  and  C_19 
REMARK   16  A    between atoms: C_18  and  C_21 
REMARK   17  A    between atoms: C_21  and  C_22 
REMARK   18  A    between atoms: C_22  and  C_23 
ROOT
HETATM    1 NA   UNL     2     -33.278  -6.678  -4.177  1.00  0.00     0.000 Na
ENDROOT
TORSDOF 18
BEGIN_RES ARG D 557
REMARK  4 active torsions:
REMARK  status: ('A' for Active; 'I' for Inactive)
REMARK    1  A    between atoms: CA   and  CB  
REMARK    2  A    between atoms: CB   and  CG  
REMARK    3  A    between atoms: CG   and  CD  
REMARK    4  A    between atoms: CD   and  NE  
REMARK       I    between atoms: NE   and  CZ  
REMARK       I    between atoms: CZ   and  NH1 
REMARK       I    between atoms: CZ   and  NH2 
ROOT
ATOM      1  CA  ARG D 557     -26.217   2.705 -17.014  1.00 35.49     0.159 C 
ENDROOT
BRANCH   1   2
ATOM      2  CB  ARG D 557     -26.789   1.319 -17.183  1.00 35.49     0.034 C 
BRANCH   2   3
ATOM      3  CG  ARG D 557     -25.838   0.202 -17.140  1.00 35.49     0.027 C 
BRANCH   3   4
ATOM      4  CD  ARG D 557     -24.762   0.415 -16.145  1.00 35.49     0.116 C 
BRANCH   4   5
ATOM      5  NE  ARG D 557     -24.900  -0.449 -15.003  1.00 35.49    -0.212 N 
ATOM      6  CZ  ARG D 557     -24.076  -1.417 -14.667  1.00 35.49     0.666 C 
ATOM      7  NH1 ARG D 557     -23.005  -1.714 -15.379  1.00 35.49    -0.235 N 
ATOM      8  NH2 ARG D 557     -24.347  -2.087 -13.585  1.00 35.49    -0.235 N 
ATOM      9  HH  ARG D 557     -22.806  -1.285 -16.093  1.00 35.49     0.174 HD
ATOM     10  HH  ARG D 557     -22.502  -2.354 -15.109  1.00 35.49     0.174 HD
ATOM     11  HH  ARG D 557     -25.041  -1.867 -13.141  1.00 35.49     0.174 HD
ATOM     12  HH  ARG D 557     -23.836  -2.716 -13.334  1.00 35.49     0.174 HD
ATOM     13  HE  ARG D 557     -25.602  -0.375 -14.529  1.00 35.49     0.178 HD
ENDBRANCH   4   5
ENDBRANCH   3   4
ENDBRANCH   2   3
ENDBRANCH   1   2
END_RES ARG D 557
BEGIN_RES GLU D 570
REMARK  3 active torsions:
REMARK  status: ('A' for Active; 'I' for Inactive)
REMARK    5  A    between atoms: CA   and  CB  
REMARK    6  A    between atoms: CB   and  CG  
REMARK    7  A    between atoms: CG   and  CD  
ROOT
ATOM     14  CA  GLU D 570     -18.033  -6.348 -13.375  1.00 32.92     0.160 C 
ENDROOT
BRANCH  14  15
ATOM     15  CB  GLU D 570     -19.500  -6.345 -13.794  1.00 32.92     0.043 C 
BRANCH  15  16
ATOM     16  CG  GLU D 570     -20.447  -5.554 -12.966  1.00 32.92     0.100 C 
BRANCH  16  17
ATOM     17  CD  GLU D 570     -21.736  -5.236 -13.687  1.00 32.92     0.185 C 
ATOM     18  OE1 GLU D 570     -22.249  -4.110 -13.542  1.00 32.92    -0.647 OA
ATOM     19  OE2 GLU D 570     -22.248  -6.129 -14.391  1.00 32.92    -0.647 OA
ENDBRANCH  16  17
ENDBRANCH  15  16
ENDBRANCH  14  15
END_RES GLU D 570
ENDMDL
MODEL 8
REMARK VINA RESULT:      -0.9      7.262      7.262
REMARK  18 active torsions:
REMARK  status: ('A' for Active; 'I' for Inactive)
REMARK    1  A    between atoms: C_2  and  C_3 
REMARK    2  A    between atoms: C_3  and  C_4 
REMARK    3  A    between atoms: C_4  and  C_5 
REMARK    4  A    between atoms: C_5  and  C_6 
REMARK    5  A    between atoms: C_5  and  C_8 
REMARK    6  A    between atoms: C_8  and  O_9 
REMARK    7  A    between atoms: O_9  and  C_10 
REMARK    8  A    between atoms: C_10  and  C_12 
REMARK    9  A    between atoms: C_12  and  C_13 
REMARK   10  A    between atoms: C_13  and  C_14 
REMARK   11  A    between atoms: C_13  and  S_25 
REMARK   12  A    between atoms: C_14  and  O_16 
REMARK   13  A    between atoms: O_16  and  C_17 
REMARK   14  A    between atoms: C_17  and  C_18 
REMARK   15  A    between atoms: C_18  and  C_19 
REMARK   16  A    between atoms: C_18  and  C_21 
REMARK   17  A    between atoms: C_21  and  C_22 
REMARK   18  A    between atoms: C_22  and  C_23 
ROOT
HETATM    1 NA   UNL     2     -36.109  -0.326 -17.789  1.00  0.00     0.000 Na
ENDROOT
TORSDOF 18
BEGIN_RES ARG D 557
REMARK  4 active torsions:
REMARK  status: ('A' for Active; 'I' for Inactive)
REMARK    1  A    between atoms: CA   and  CB  
REMARK    2  A    between atoms: CB   and  CG  
REMARK    3  A    between atoms: CG   and  CD  
REMARK    4  A    between atoms: CD   and  NE  
REMARK       I    between atoms: NE   and  CZ  
REMARK       I    between atoms: CZ   and  NH1 
REMARK       I    between atoms: CZ   and  NH2 
ROOT
ATOM      1  CA  ARG D 557     -26.217   2.705 -17.014  1.00 35.49     0.159 C 
ENDROOT
BRANCH   1   2
ATOM      2  CB  ARG D 557     -26.789   1.319 -17.183  1.00 35.49     0.034 C 
BRANCH   2   3
ATOM      3  CG  ARG D 557     -25.835   0.204 -17.164  1.00 35.49     0.027 C 
BRANCH   3   4
ATOM      4  CD  ARG D 557     -24.743   0.412 -16.186  1.00 35.49     0.116 C 
BRANCH   4   5
ATOM      5  NE  ARG D 557     -24.887  -0.426 -15.025  1.00 35.49    -0.212 N 
ATOM      6  CZ  ARG D 557     -24.074  -1.398 -14.674  1.00 35.49     0.666 C 
ATOM      7  NH1 ARG D 557     -23.011  -1.725 -15.384  1.00 35.49    -0.235 N 
ATOM      8  NH2 ARG D 557     -24.348  -2.042 -13.576  1.00 35.49    -0.235 N 
ATOM      9  HH  ARG D 557     -22.811  -1.313 -16.109  1.00 35.49     0.174 HD
ATOM     10  HH  ARG D 557     -22.516  -2.366 -15.104  1.00 35.49     0.174 HD
ATOM     11  HH  ARG D 557     -25.037  -1.804 -13.134  1.00 35.49     0.174 HD
ATOM     12  HH  ARG D 557     -23.845  -2.672 -13.315  1.00 35.49     0.174 HD
ATOM     13  HE  ARG D 557     -25.585  -0.333 -14.549  1.00 35.49     0.178 HD
ENDBRANCH   4   5
ENDBRANCH   3   4
ENDBRANCH   2   3
ENDBRANCH   1   2
END_RES ARG D 557
BEGIN_RES GLU D 570
REMARK  3 active torsions:
REMARK  status: ('A' for Active; 'I' for Inactive)
REMARK    5  A    between atoms: CA   and  CB  
REMARK    6  A    between atoms: CB   and  CG  
REMARK    7  A    between atoms: CG   and  CD  
ROOT
ATOM     14  CA  GLU D 570     -18.033  -6.348 -13.375  1.00 32.92     0.160 C 
ENDROOT
BRANCH  14  15
ATOM     15  CB  GLU D 570     -19.500  -6.345 -13.794  1.00 32.92     0.043 C 
BRANCH  15  16
ATOM     16  CG  GLU D 570     -20.445  -5.547 -12.971  1.00 32.92     0.100 C 
BRANCH  16  17
ATOM     17  CD  GLU D 570     -21.737  -5.237 -13.691  1.00 32.92     0.185 C 
ATOM     18  OE1 GLU D 570     -22.270  -4.123 -13.526  1.00 32.92    -0.647 OA
ATOM     19  OE2 GLU D 570     -22.230  -6.125 -14.415  1.00 32.92    -0.647 OA
ENDBRANCH  16  17
ENDBRANCH  15  16
ENDBRANCH  14  15
END_RES GLU D 570
ENDMDL
MODEL 9
REMARK VINA RESULT:      -0.9      7.255      7.255
REMARK  18 active torsions:
REMARK  status: ('A' for Active; 'I' for Inactive)
REMARK    1  A    between atoms: C_2  and  C_3 
REMARK    2  A    between atoms: C_3  and  C_4 
REMARK    3  A    between atoms: C_4  and  C_5 
REMARK    4  A    between atoms: C_5  and  C_6 
REMARK    5  A    between atoms: C_5  and  C_8 
REMARK    6  A    between atoms: C_8  and  O_9 
REMARK    7  A    between atoms: O_9  and  C_10 
REMARK    8  A    between atoms: C_10  and  C_12 
REMARK    9  A    between atoms: C_12  and  C_13 
REMARK   10  A    between atoms: C_13  and  C_14 
REMARK   11  A    between atoms: C_13  and  S_25 
REMARK   12  A    between atoms: C_14  and  O_16 
REMARK   13  A    between atoms: O_16  and  C_17 
REMARK   14  A    between atoms: C_17  and  C_18 
REMARK   15  A    between atoms: C_18  and  C_19 
REMARK   16  A    between atoms: C_18  and  C_21 
REMARK   17  A    between atoms: C_21  and  C_22 
REMARK   18  A    between atoms: C_22  and  C_23 
ROOT
HETATM    1 NA   UNL     2     -20.929  -9.799 -16.589  1.00  0.00     0.000 Na
ENDROOT
TORSDOF 18
BEGIN_RES ARG D 557
REMARK  4 active torsions:
REMARK  status: ('A' for Active; 'I' for Inactive)
REMARK    1  A    between atoms: CA   and  CB  
REMARK    2  A    between atoms: CB   and  CG  
REMARK    3  A    between atoms: CG   and  CD  
REMARK    4  A    between atoms: CD   and  NE  
REMARK       I    between atoms: NE   and  CZ  
REMARK       I    between atoms: CZ   and  NH1 
REMARK       I    between atoms: CZ   and  NH2 
ROOT
ATOM      1  CA  ARG D 557     -26.217   2.705 -17.014  1.00 35.49     0.159 C 
ENDROOT
BRANCH   1   2
ATOM      2  CB  ARG D 557     -26.789   1.319 -17.183  1.00 35.49     0.034 C 
BRANCH   2   3
ATOM      3  CG  ARG D 557     -25.835   0.203 -17.160  1.00 35.49     0.027 C 
BRANCH   3   4
ATOM      4  CD  ARG D 557     -24.748   0.411 -16.177  1.00 35.49     0.116 C 
BRANCH   4   5
ATOM      5  NE  ARG D 557     -24.894  -0.434 -15.020  1.00 35.49    -0.212 N 
ATOM      6  CZ  ARG D 557     -24.081  -1.405 -14.671  1.00 35.49     0.666 C 
ATOM      7  NH1 ARG D 557     -23.014  -1.726 -15.379  1.00 35.49    -0.235 N 
ATOM      8  NH2 ARG D 557     -24.356  -2.055 -13.577  1.00 35.49    -0.235 N 
ATOM      9  HH  ARG D 557     -22.812  -1.311 -16.101  1.00 35.49     0.174 HD
ATOM     10  HH  ARG D 557     -22.518  -2.367 -15.101  1.00 35.49     0.174 HD
ATOM     11  HH  ARG D 557     -25.048  -1.820 -13.136  1.00 35.49     0.174 HD
ATOM     12  HH  ARG D 557     -23.853  -2.685 -13.317  1.00 35.49     0.174 HD
ATOM     13  HE  ARG D 557     -25.594  -0.344 -14.546  1.00 35.49     0.178 HD
ENDBRANCH   4   5
ENDBRANCH   3   4
ENDBRANCH   2   3
ENDBRANCH   1   2
END_RES ARG D 557
BEGIN_RES GLU D 570
REMARK  3 active torsions:
REMARK  status: ('A' for Active; 'I' for Inactive)
REMARK    5  A    between atoms: CA   and  CB  
REMARK    6  A    between atoms: CB   and  CG  
REMARK    7  A    between atoms: CG   and  CD  
ROOT
ATOM     14  CA  GLU D 570     -18.033  -6.348 -13.375  1.00 32.92     0.160 C 
ENDROOT
BRANCH  14  15
ATOM     15  CB  GLU D 570     -19.500  -6.345 -13.794  1.00 32.92     0.043 C 
BRANCH  15  16
ATOM     16  CG  GLU D 570     -20.443  -5.534 -12.981  1.00 32.92     0.100 C 
BRANCH  16  17
ATOM     17  CD  GLU D 570     -21.741  -5.245 -13.697  1.00 32.92     0.185 C 
ATOM     18  OE1 GLU D 570     -22.307  -4.151 -13.507  1.00 32.92    -0.647 OA
ATOM     19  OE2 GLU D 570     -22.206  -6.128 -14.444  1.00 32.92    -0.647 OA
ENDBRANCH  16  17
ENDBRANCH  15  16
ENDBRANCH  14  15
END_RES GLU D 570
ENDMDL
