MODEL 1
REMARK VINA RESULT:      -8.7      0.000      0.000
REMARK  17 active torsions:
REMARK  status: ('A' for Active; 'I' for Inactive)
REMARK    1  A    between atoms: CA_3  and  C_6 
REMARK       I    between atoms: N_4  and  C_8 
REMARK       I    between atoms: C_6  and  N_14 
REMARK    2  A    between atoms: C_8  and  CA_10 
REMARK    3  A    between atoms: CA_10  and  N_11 
REMARK    4  A    between atoms: N_14  and  CA_15 
REMARK    5  A    between atoms: CA_15  and  CB_16 
REMARK    6  A    between atoms: CA_15  and  C_21 
REMARK    7  A    between atoms: CB_16  and  CG_17 
REMARK    8  A    between atoms: CG_17  and  CD_18 
REMARK       I    between atoms: CD_18  and  NE2_20 
REMARK       I    between atoms: C_21  and  N_26 
REMARK    9  A    between atoms: N_26  and  CA_27 
REMARK   10  A    between atoms: CA_27  and  C_28 
REMARK       I    between atoms: C_28  and  N_31 
REMARK   11  A    between atoms: CA_35  and  C_36 
REMARK       I    between atoms: C_36  and  N_38 
REMARK   12  A    between atoms: N_38  and  CA_39 
REMARK   13  A    between atoms: CA_39  and  CB_40 
REMARK   14  A    between atoms: CA_39  and  C_45 
REMARK   15  A    between atoms: CB_40  and  CG_41 
REMARK   16  A    between atoms: CG_41  and  CD_42 
REMARK       I    between atoms: CD_42  and  NE2_44 
REMARK   17  A    between atoms: C_45  and  OXT_47 
ROOT
ATOM      1  C   GLN A   3     -20.199  -6.268  -6.161  1.00  0.00     0.240 C 
ATOM      2  O   GLN A   3     -19.409  -6.831  -6.916  1.00  0.00    -0.271 OA
ATOM      3  N   GLY A   4     -20.619  -4.969  -6.387  1.00  0.00    -0.351 N 
ATOM      4  H   GLY A   4     -21.451  -4.634  -5.920  1.00  0.00     0.163 HD
ENDROOT
BRANCH   3   5
ATOM      5  CA  GLY A   4     -20.149  -4.188  -7.517  1.00  0.00     0.225 C 
BRANCH   5   6
ATOM      6  C   GLY A   4     -20.770  -4.670  -8.853  1.00  0.00     0.238 C 
ATOM      7  O   GLY A   4     -20.114  -5.354  -9.648  1.00  0.00    -0.272 OA
ATOM      8  N   PRO A   5     -22.066  -4.305  -9.157  1.00  0.00    -0.337 N 
ATOM      9  CD  PRO A   5     -22.939  -3.429  -8.401  1.00  0.00     0.127 C 
ATOM     10  CA  PRO A   5     -22.787  -4.850 -10.322  1.00  0.00     0.179 C 
ATOM     11  CG  PRO A   5     -24.311  -4.042  -8.582  1.00  0.00     0.022 C 
ATOM     12  CB  PRO A   5     -24.279  -4.641  -9.983  1.00  0.00     0.037 C 
BRANCH  10  13
ATOM     13  C   PRO A   5     -22.430  -4.138 -11.657  1.00  0.00     0.241 C 
ATOM     14  O   PRO A   5     -21.718  -3.136 -11.723  1.00  0.00    -0.271 OA
ATOM     15  N   GLN A   6     -22.971  -4.688 -12.801  1.00  0.00    -0.345 N 
ATOM     16  H   GLN A   6     -23.674  -5.417 -12.665  1.00  0.00     0.163 HD
BRANCH  15  17
ATOM     17  CA  GLN A   6     -22.893  -3.970 -14.086  1.00  0.00     0.182 C 
BRANCH  17  18
ATOM     18  CB  GLN A   6     -22.897  -4.983 -15.226  1.00  0.00     0.045 C 
BRANCH  18  19
ATOM     19  CG  GLN A   6     -23.568  -6.331 -14.982  1.00  0.00     0.105 C 
BRANCH  19  20
ATOM     20  CD  GLN A   6     -24.337  -6.799 -16.204  1.00  0.00     0.215 C 
ATOM     21  OE1 GLN A   6     -25.351  -6.261 -16.630  1.00  0.00    -0.274 OA
ATOM     22  NE2 GLN A   6     -23.788  -7.894 -16.806  1.00  0.00    -0.370 N 
ATOM     23 1HE2 GLN A   6     -23.005  -8.402 -16.422  1.00  0.00     0.159 HD
ATOM     24 2HE2 GLN A   6     -24.246  -8.271 -17.628  1.00  0.00     0.159 HD
ENDBRANCH  19  20
ENDBRANCH  18  19
ENDBRANCH  17  18
BRANCH  17  25
ATOM     25  C   GLN A   6     -24.024  -2.945 -14.205  1.00  0.00     0.163 C 
ATOM     26  O   GLN A   6     -25.060  -3.115 -14.839  1.00  0.00    -0.648 OA
BRANCH  25  27
ATOM     27  OXT GLN A   6     -23.774  -1.784 -13.547  1.00  0.00    -0.775 OA
ATOM     28  HXT GLN A   6     -22.899  -1.400 -13.720  1.00  0.00     0.167 HD
ENDBRANCH  25  27
ENDBRANCH  17  25
ENDBRANCH  15  17
ENDBRANCH  10  13
ENDBRANCH   5   6
ENDBRANCH   3   5
BRANCH   1  29
ATOM     29  CA  GLN A   3     -20.803  -6.954  -4.903  1.00  0.00     0.177 C 
BRANCH  29  30
ATOM     30  N   GLN A   3     -19.976  -8.084  -4.483  1.00  0.00    -0.346 N 
ATOM     31  C   PRO A   2     -20.282  -9.375  -4.840  1.00  0.00     0.241 C 
ATOM     32  O   PRO A   2     -21.118  -9.607  -5.714  1.00  0.00    -0.271 OA
ATOM     33  H   GLN A   3     -19.245  -7.916  -3.787  1.00  0.00     0.163 HD
BRANCH  31  34
ATOM     34  CA  PRO A   2     -19.403 -10.507  -4.245  1.00  0.00     0.179 C 
ATOM     35  CB  PRO A   2     -19.338 -10.269  -2.722  1.00  0.00     0.037 C 
ATOM     36  CG  PRO A   2     -18.150 -11.077  -2.248  1.00  0.00     0.022 C 
ATOM     37  CD  PRO A   2     -17.203 -11.078  -3.434  1.00  0.00     0.127 C 
ATOM     38  N   PRO A   2     -17.977 -10.648  -4.590  1.00  0.00    -0.337 N 
ATOM     39  C   GLY A   1     -17.496 -10.797  -5.876  1.00  0.00     0.248 C 
ATOM     40  O   GLY A   1     -18.227 -10.731  -6.866  1.00  0.00    -0.271 OA
BRANCH  39  41
ATOM     41  CA  GLY A   1     -15.974 -10.965  -6.051  1.00  0.00     0.369 C 
BRANCH  41  42
ATOM     42  N   GLY A   1     -15.677 -12.239  -6.719  1.00  0.00     0.087 N 
ATOM     43  H1  GLY A   1     -14.754 -12.161  -7.153  1.00  0.00     0.313 HD
ATOM     44  H2  GLY A   1     -16.334 -12.377  -7.485  1.00  0.00     0.313 HD
ENDBRANCH  41  42
ENDBRANCH  39  41
ENDBRANCH  31  34
ENDBRANCH  29  30
BRANCH  29  45
ATOM     45  CB  GLN A   3     -20.952  -5.992  -3.699  1.00  0.00     0.043 C 
BRANCH  45  46
ATOM     46  CG  GLN A   3     -22.125  -6.254  -2.787  1.00  0.00     0.099 C 
BRANCH  46  47
ATOM     47  CD  GLN A   3     -21.729  -7.037  -1.559  1.00  0.00     0.195 C 
ATOM     48  OE1 GLN A   3     -20.708  -7.670  -1.395  1.00  0.00    -0.280 OA
ATOM     49  NE2 GLN A   3     -22.697  -7.008  -0.606  1.00  0.00    -0.273 NA
ATOM     50 1HE2 GLN A   3     -23.203  -6.136  -0.625  1.00  0.00     0.127 HD
ATOM     51 2HE2 GLN A   3     -22.407  -7.351   0.298  1.00  0.00     0.127 HD
ENDBRANCH  46  47
ENDBRANCH  45  46
ENDBRANCH  29  45
ENDBRANCH   1  29
TORSDOF 17
BEGIN_RES ARG D 557
REMARK  4 active torsions:
REMARK  status: ('A' for Active; 'I' for Inactive)
REMARK    1  A    between atoms: CA   and  CB  
REMARK    2  A    between atoms: CB   and  CG  
REMARK    3  A    between atoms: CG   and  CD  
REMARK    4  A    between atoms: CD   and  NE  
REMARK       I    between atoms: NE   and  CZ  
REMARK       I    between atoms: CZ   and  NH1 
REMARK       I    between atoms: CZ   and  NH2 
ROOT
ATOM      1  CA  ARG D 557     -26.217   2.705 -17.014  1.00 35.49     0.159 C 
ENDROOT
BRANCH   1   2
ATOM      2  CB  ARG D 557     -26.789   1.319 -17.183  1.00 35.49     0.034 C 
BRANCH   2   3
ATOM      3  CG  ARG D 557     -28.230   1.227 -17.445  1.00 35.49     0.027 C 
BRANCH   3   4
ATOM      4  CD  ARG D 557     -28.917   0.313 -16.504  1.00 35.49     0.116 C 
BRANCH   4   5
ATOM      5  NE  ARG D 557     -29.306  -0.922 -17.133  1.00 35.49    -0.212 N 
ATOM      6  CZ  ARG D 557     -28.671  -2.069 -17.032  1.00 35.49     0.666 C 
ATOM      7  NH1 ARG D 557     -27.563  -2.206 -16.327  1.00 35.49    -0.235 N 
ATOM      8  NH2 ARG D 557     -29.179  -3.093 -17.654  1.00 35.49    -0.235 N 
ATOM      9  HH  ARG D 557     -27.213  -1.546 -15.908  1.00 35.49     0.174 HD
ATOM     10  HH  ARG D 557     -27.195  -2.979 -16.295  1.00 35.49     0.174 HD
ATOM     11  HH  ARG D 557     -29.899  -2.976 -18.095  1.00 35.49     0.174 HD
ATOM     12  HH  ARG D 557     -28.800  -3.850 -17.609  1.00 35.49     0.174 HD
ATOM     13  HE  ARG D 557     -29.969  -0.908 -17.665  1.00 35.49     0.178 HD
ENDBRANCH   4   5
ENDBRANCH   3   4
ENDBRANCH   2   3
ENDBRANCH   1   2
END_RES ARG D 557
BEGIN_RES GLU D 570
REMARK  3 active torsions:
REMARK  status: ('A' for Active; 'I' for Inactive)
REMARK    5  A    between atoms: CA   and  CB  
REMARK    6  A    between atoms: CB   and  CG  
REMARK    7  A    between atoms: CG   and  CD  
ROOT
ATOM     14  CA  GLU D 570     -18.033  -6.348 -13.375  1.00 32.92     0.160 C 
ENDROOT
BRANCH  14  15
ATOM     15  CB  GLU D 570     -19.500  -6.345 -13.794  1.00 32.92     0.043 C 
BRANCH  15  16
ATOM     16  CG  GLU D 570     -20.084  -7.633 -14.250  1.00 32.92     0.100 C 
BRANCH  16  17
ATOM     17  CD  GLU D 570     -20.402  -7.645 -15.728  1.00 32.92     0.185 C 
ATOM     18  OE1 GLU D 570     -20.852  -8.687 -16.241  1.00 32.92    -0.647 OA
ATOM     19  OE2 GLU D 570     -20.182  -6.606 -16.381  1.00 32.92    -0.647 OA
ENDBRANCH  16  17
ENDBRANCH  15  16
ENDBRANCH  14  15
END_RES GLU D 570
ENDMDL
MODEL 2
REMARK VINA RESULT:      -8.6      1.764      2.515
REMARK  17 active torsions:
REMARK  status: ('A' for Active; 'I' for Inactive)
REMARK    1  A    between atoms: CA_3  and  C_6 
REMARK       I    between atoms: N_4  and  C_8 
REMARK       I    between atoms: C_6  and  N_14 
REMARK    2  A    between atoms: C_8  and  CA_10 
REMARK    3  A    between atoms: CA_10  and  N_11 
REMARK    4  A    between atoms: N_14  and  CA_15 
REMARK    5  A    between atoms: CA_15  and  CB_16 
REMARK    6  A    between atoms: CA_15  and  C_21 
REMARK    7  A    between atoms: CB_16  and  CG_17 
REMARK    8  A    between atoms: CG_17  and  CD_18 
REMARK       I    between atoms: CD_18  and  NE2_20 
REMARK       I    between atoms: C_21  and  N_26 
REMARK    9  A    between atoms: N_26  and  CA_27 
REMARK   10  A    between atoms: CA_27  and  C_28 
REMARK       I    between atoms: C_28  and  N_31 
REMARK   11  A    between atoms: CA_35  and  C_36 
REMARK       I    between atoms: C_36  and  N_38 
REMARK   12  A    between atoms: N_38  and  CA_39 
REMARK   13  A    between atoms: CA_39  and  CB_40 
REMARK   14  A    between atoms: CA_39  and  C_45 
REMARK   15  A    between atoms: CB_40  and  CG_41 
REMARK   16  A    between atoms: CG_41  and  CD_42 
REMARK       I    between atoms: CD_42  and  NE2_44 
REMARK   17  A    between atoms: C_45  and  OXT_47 
ROOT
ATOM      1  C   GLN A   3     -20.881  -6.170  -5.586  1.00  0.00     0.240 C 
ATOM      2  O   GLN A   3     -20.291  -5.166  -5.191  1.00  0.00    -0.271 OA
ATOM      3  N   GLY A   4     -21.031  -6.442  -6.934  1.00  0.00    -0.351 N 
ATOM      4  H   GLY A   4     -21.272  -7.381  -7.222  1.00  0.00     0.163 HD
ENDROOT
BRANCH   3   5
ATOM      5  CA  GLY A   4     -20.515  -5.559  -7.964  1.00  0.00     0.225 C 
BRANCH   5   6
ATOM      6  C   GLY A   4     -21.649  -4.812  -8.710  1.00  0.00     0.238 C 
ATOM      7  O   GLY A   4     -22.788  -4.746  -8.232  1.00  0.00    -0.272 OA
ATOM      8  N   PRO A   5     -21.376  -4.235  -9.935  1.00  0.00    -0.337 N 
ATOM      9  CD  PRO A   5     -20.140  -4.302 -10.689  1.00  0.00     0.127 C 
ATOM     10  CA  PRO A   5     -22.345  -3.370 -10.634  1.00  0.00     0.179 C 
ATOM     11  CG  PRO A   5     -20.039  -2.940 -11.339  1.00  0.00     0.022 C 
ATOM     12  CB  PRO A   5     -21.484  -2.536 -11.607  1.00  0.00     0.037 C 
BRANCH  10  13
ATOM     13  C   PRO A   5     -23.429  -4.165 -11.415  1.00  0.00     0.241 C 
ATOM     14  O   PRO A   5     -23.969  -5.183 -10.983  1.00  0.00    -0.271 OA
ATOM     15  N   GLN A   6     -23.764  -3.670 -12.659  1.00  0.00    -0.345 N 
ATOM     16  H   GLN A   6     -23.173  -2.920 -13.023  1.00  0.00     0.163 HD
BRANCH  15  17
ATOM     17  CA  GLN A   6     -24.601  -4.462 -13.579  1.00  0.00     0.182 C 
BRANCH  17  18
ATOM     18  CB  GLN A   6     -25.351  -3.517 -14.511  1.00  0.00     0.045 C 
BRANCH  18  19
ATOM     19  CG  GLN A   6     -25.220  -2.017 -14.266  1.00  0.00     0.105 C 
BRANCH  19  20
ATOM     20  CD  GLN A   6     -23.999  -1.444 -14.963  1.00  0.00     0.215 C 
ATOM     21  OE1 GLN A   6     -22.990  -2.085 -15.225  1.00  0.00    -0.274 OA
ATOM     22  NE2 GLN A   6     -24.126  -0.124 -15.284  1.00  0.00    -0.370 N 
ATOM     23 1HE2 GLN A   6     -24.912   0.442 -15.001  1.00  0.00     0.159 HD
ATOM     24 2HE2 GLN A   6     -23.350   0.334 -15.749  1.00  0.00     0.159 HD
ENDBRANCH  19  20
ENDBRANCH  18  19
ENDBRANCH  17  18
BRANCH  17  25
ATOM     25  C   GLN A   6     -23.753  -5.487 -14.338  1.00  0.00     0.163 C 
ATOM     26  O   GLN A   6     -23.911  -6.702 -14.288  1.00  0.00    -0.648 OA
BRANCH  25  27
ATOM     27  OXT GLN A   6     -22.767  -4.927 -15.084  1.00  0.00    -0.775 OA
ATOM     28  HXT GLN A   6     -23.025  -4.698 -15.992  1.00  0.00     0.167 HD
ENDBRANCH  25  27
ENDBRANCH  17  25
ENDBRANCH  15  17
ENDBRANCH  10  13
ENDBRANCH   5   6
ENDBRANCH   3   5
BRANCH   1  29
ATOM     29  CA  GLN A   3     -21.496  -7.223  -4.622  1.00  0.00     0.177 C 
BRANCH  29  30
ATOM     30  N   GLN A   3     -20.457  -8.095  -4.075  1.00  0.00    -0.346 N 
ATOM     31  C   PRO A   2     -20.298  -9.389  -4.506  1.00  0.00     0.241 C 
ATOM     32  O   PRO A   2     -20.862  -9.788  -5.527  1.00  0.00    -0.271 OA
ATOM     33  H   GLN A   3     -19.942  -7.774  -3.251  1.00  0.00     0.163 HD
BRANCH  31  34
ATOM     34  CA  PRO A   2     -19.240 -10.259  -3.779  1.00  0.00     0.179 C 
ATOM     35  CB  PRO A   2     -18.313  -9.290  -3.017  1.00  0.00     0.037 C 
ATOM     36  CG  PRO A   2     -17.070 -10.096  -2.709  1.00  0.00     0.022 C 
ATOM     37  CD  PRO A   2     -16.974 -11.085  -3.855  1.00  0.00     0.127 C 
ATOM     38  N   PRO A   2     -18.270 -11.086  -4.518  1.00  0.00    -0.337 N 
ATOM     39  C   GLY A   1     -18.615 -12.067  -5.428  1.00  0.00     0.248 C 
ATOM     40  O   GLY A   1     -19.782 -12.270  -5.769  1.00  0.00    -0.271 OA
BRANCH  39  41
ATOM     41  CA  GLY A   1     -17.470 -12.860  -6.087  1.00  0.00     0.369 C 
BRANCH  41  42
ATOM     42  N   GLY A   1     -17.403 -12.558  -7.523  1.00  0.00     0.087 N 
ATOM     43  H1  GLY A   1     -18.221 -11.994  -7.766  1.00  0.00     0.313 HD
ATOM     44  H2  GLY A   1     -17.495 -13.424  -8.051  1.00  0.00     0.313 HD
ENDBRANCH  41  42
ENDBRANCH  39  41
ENDBRANCH  31  34
ENDBRANCH  29  30
BRANCH  29  45
ATOM     45  CB  GLN A   3     -22.264  -6.587  -3.437  1.00  0.00     0.043 C 
BRANCH  45  46
ATOM     46  CG  GLN A   3     -21.485  -6.428  -2.155  1.00  0.00     0.099 C 
BRANCH  46  47
ATOM     47  CD  GLN A   3     -21.992  -7.338  -1.063  1.00  0.00     0.195 C 
ATOM     48  OE1 GLN A   3     -23.002  -7.200  -0.408  1.00  0.00    -0.280 OA
ATOM     49  NE2 GLN A   3     -21.140  -8.371  -0.830  1.00  0.00    -0.273 NA
ATOM     50 1HE2 GLN A   3     -20.667  -8.652  -1.674  1.00  0.00     0.127 HD
ATOM     51 2HE2 GLN A   3     -21.520  -9.105  -0.250  1.00  0.00     0.127 HD
ENDBRANCH  46  47
ENDBRANCH  45  46
ENDBRANCH  29  45
ENDBRANCH   1  29
TORSDOF 17
BEGIN_RES ARG D 557
REMARK  4 active torsions:
REMARK  status: ('A' for Active; 'I' for Inactive)
REMARK    1  A    between atoms: CA   and  CB  
REMARK    2  A    between atoms: CB   and  CG  
REMARK    3  A    between atoms: CG   and  CD  
REMARK    4  A    between atoms: CD   and  NE  
REMARK       I    between atoms: NE   and  CZ  
REMARK       I    between atoms: CZ   and  NH1 
REMARK       I    between atoms: CZ   and  NH2 
ROOT
ATOM      1  CA  ARG D 557     -26.217   2.705 -17.014  1.00 35.49     0.159 C 
ENDROOT
BRANCH   1   2
ATOM      2  CB  ARG D 557     -26.789   1.319 -17.183  1.00 35.49     0.034 C 
BRANCH   2   3
ATOM      3  CG  ARG D 557     -28.236   1.173 -16.983  1.00 35.49     0.027 C 
BRANCH   3   4
ATOM      4  CD  ARG D 557     -28.581  -0.058 -16.235  1.00 35.49     0.116 C 
BRANCH   4   5
ATOM      5  NE  ARG D 557     -29.345  -0.981 -17.033  1.00 35.49    -0.212 N 
ATOM      6  CZ  ARG D 557     -29.093  -2.263 -17.177  1.00 35.49     0.666 C 
ATOM      7  NH1 ARG D 557     -28.066  -2.854 -16.595  1.00 35.49    -0.235 N 
ATOM      8  NH2 ARG D 557     -29.906  -2.954 -17.922  1.00 35.49    -0.235 N 
ATOM      9  HH  ARG D 557     -27.520  -2.419 -16.099  1.00 35.49     0.174 HD
ATOM     10  HH  ARG D 557     -27.953  -3.693 -16.723  1.00 35.49     0.174 HD
ATOM     11  HH  ARG D 557     -30.565  -2.547 -18.280  1.00 35.49     0.174 HD
ATOM     12  HH  ARG D 557     -29.778  -3.784 -18.036  1.00 35.49     0.174 HD
ATOM     13  HE  ARG D 557     -29.983  -0.671 -17.501  1.00 35.49     0.178 HD
ENDBRANCH   4   5
ENDBRANCH   3   4
ENDBRANCH   2   3
ENDBRANCH   1   2
END_RES ARG D 557
BEGIN_RES GLU D 570
REMARK  3 active torsions:
REMARK  status: ('A' for Active; 'I' for Inactive)
REMARK    5  A    between atoms: CA   and  CB  
REMARK    6  A    between atoms: CB   and  CG  
REMARK    7  A    between atoms: CG   and  CD  
ROOT
ATOM     14  CA  GLU D 570     -18.033  -6.348 -13.375  1.00 32.92     0.160 C 
ENDROOT
BRANCH  14  15
ATOM     15  CB  GLU D 570     -19.500  -6.345 -13.794  1.00 32.92     0.043 C 
BRANCH  15  16
ATOM     16  CG  GLU D 570     -20.094  -7.640 -14.216  1.00 32.92     0.100 C 
BRANCH  16  17
ATOM     17  CD  GLU D 570     -20.575  -7.629 -15.648  1.00 32.92     0.185 C 
ATOM     18  OE1 GLU D 570     -20.867  -8.709 -16.197  1.00 32.92    -0.647 OA
ATOM     19  OE2 GLU D 570     -20.645  -6.530 -16.233  1.00 32.92    -0.647 OA
ENDBRANCH  16  17
ENDBRANCH  15  16
ENDBRANCH  14  15
END_RES GLU D 570
ENDMDL
MODEL 3
REMARK VINA RESULT:      -8.4      7.246     13.708
REMARK  17 active torsions:
REMARK  status: ('A' for Active; 'I' for Inactive)
REMARK    1  A    between atoms: CA_3  and  C_6 
REMARK       I    between atoms: N_4  and  C_8 
REMARK       I    between atoms: C_6  and  N_14 
REMARK    2  A    between atoms: C_8  and  CA_10 
REMARK    3  A    between atoms: CA_10  and  N_11 
REMARK    4  A    between atoms: N_14  and  CA_15 
REMARK    5  A    between atoms: CA_15  and  CB_16 
REMARK    6  A    between atoms: CA_15  and  C_21 
REMARK    7  A    between atoms: CB_16  and  CG_17 
REMARK    8  A    between atoms: CG_17  and  CD_18 
REMARK       I    between atoms: CD_18  and  NE2_20 
REMARK       I    between atoms: C_21  and  N_26 
REMARK    9  A    between atoms: N_26  and  CA_27 
REMARK   10  A    between atoms: CA_27  and  C_28 
REMARK       I    between atoms: C_28  and  N_31 
REMARK   11  A    between atoms: CA_35  and  C_36 
REMARK       I    between atoms: C_36  and  N_38 
REMARK   12  A    between atoms: N_38  and  CA_39 
REMARK   13  A    between atoms: CA_39  and  CB_40 
REMARK   14  A    between atoms: CA_39  and  C_45 
REMARK   15  A    between atoms: CB_40  and  CG_41 
REMARK   16  A    between atoms: CG_41  and  CD_42 
REMARK       I    between atoms: CD_42  and  NE2_44 
REMARK   17  A    between atoms: C_45  and  OXT_47 
ROOT
ATOM      1  C   GLN A   3     -32.660  -4.252 -17.087  1.00  0.00     0.240 C 
ATOM      2  O   GLN A   3     -32.470  -5.454 -17.263  1.00  0.00    -0.271 OA
ATOM      3  N   GLY A   4     -31.753  -3.301 -17.519  1.00  0.00    -0.351 N 
ATOM      4  H   GLY A   4     -32.052  -2.339 -17.602  1.00  0.00     0.163 HD
ENDROOT
BRANCH   3   5
ATOM      5  CA  GLY A   4     -30.519  -3.659 -18.196  1.00  0.00     0.225 C 
BRANCH   5   6
ATOM      6  C   GLY A   4     -29.422  -4.113 -17.200  1.00  0.00     0.238 C 
ATOM      7  O   GLY A   4     -28.805  -3.288 -16.517  1.00  0.00    -0.272 OA
ATOM      8  N   PRO A   5     -29.124  -5.457 -17.101  1.00  0.00    -0.337 N 
ATOM      9  CD  PRO A   5     -29.667  -6.544 -17.892  1.00  0.00     0.127 C 
ATOM     10  CA  PRO A   5     -28.215  -5.991 -16.069  1.00  0.00     0.179 C 
ATOM     11  CG  PRO A   5     -29.766  -7.691 -16.910  1.00  0.00     0.022 C 
ATOM     12  CB  PRO A   5     -28.591  -7.485 -15.961  1.00  0.00     0.037 C 
BRANCH  10  13
ATOM     13  C   PRO A   5     -26.711  -5.835 -16.433  1.00  0.00     0.241 C 
ATOM     14  O   PRO A   5     -26.036  -4.853 -16.127  1.00  0.00    -0.271 OA
ATOM     15  N   GLN A   6     -26.150  -6.875 -17.145  1.00  0.00    -0.345 N 
ATOM     16  H   GLN A   6     -26.796  -7.583 -17.501  1.00  0.00     0.163 HD
BRANCH  15  17
ATOM     17  CA  GLN A   6     -24.809  -6.736 -17.741  1.00  0.00     0.182 C 
BRANCH  17  18
ATOM     18  CB  GLN A   6     -23.843  -7.670 -17.021  1.00  0.00     0.045 C 
BRANCH  18  19
ATOM     19  CG  GLN A   6     -22.574  -7.066 -16.426  1.00  0.00     0.105 C 
BRANCH  19  20
ATOM     20  CD  GLN A   6     -21.584  -6.674 -17.507  1.00  0.00     0.215 C 
ATOM     21  OE1 GLN A   6     -21.391  -7.315 -18.532  1.00  0.00    -0.274 OA
ATOM     22  NE2 GLN A   6     -20.912  -5.518 -17.236  1.00  0.00    -0.370 N 
ATOM     23 1HE2 GLN A   6     -20.993  -5.023 -16.360  1.00  0.00     0.159 HD
ATOM     24 2HE2 GLN A   6     -20.229  -5.190 -17.909  1.00  0.00     0.159 HD
ENDBRANCH  19  20
ENDBRANCH  18  19
ENDBRANCH  17  18
BRANCH  17  25
ATOM     25  C   GLN A   6     -24.856  -6.989 -19.250  1.00  0.00     0.163 C 
ATOM     26  O   GLN A   6     -25.693  -6.519 -20.014  1.00  0.00    -0.648 OA
BRANCH  25  27
ATOM     27  OXT GLN A   6     -23.875  -7.817 -19.691  1.00  0.00    -0.775 OA
ATOM     28  HXT GLN A   6     -23.422  -8.318 -18.992  1.00  0.00     0.167 HD
ENDBRANCH  25  27
ENDBRANCH  17  25
ENDBRANCH  15  17
ENDBRANCH  10  13
ENDBRANCH   5   6
ENDBRANCH   3   5
BRANCH   1  29
ATOM     29  CA  GLN A   3     -33.927  -3.691 -16.380  1.00  0.00     0.177 C 
BRANCH  29  30
ATOM     30  N   GLN A   3     -33.757  -3.702 -14.928  1.00  0.00    -0.346 N 
ATOM     31  C   PRO A   2     -34.502  -4.524 -14.119  1.00  0.00     0.241 C 
ATOM     32  O   PRO A   2     -35.166  -5.446 -14.596  1.00  0.00    -0.271 OA
ATOM     33  H   GLN A   3     -33.177  -2.973 -14.503  1.00  0.00     0.163 HD
BRANCH  31  34
ATOM     34  CA  PRO A   2     -34.321  -4.373 -12.585  1.00  0.00     0.179 C 
ATOM     35  CB  PRO A   2     -34.757  -5.710 -11.951  1.00  0.00     0.037 C 
ATOM     36  CG  PRO A   2     -35.001  -5.390 -10.492  1.00  0.00     0.022 C 
ATOM     37  CD  PRO A   2     -35.451  -3.941 -10.498  1.00  0.00     0.127 C 
ATOM     38  N   PRO A   2     -35.099  -3.398 -11.802  1.00  0.00    -0.337 N 
ATOM     39  C   GLY A   1     -35.119  -2.038 -12.047  1.00  0.00     0.248 C 
ATOM     40  O   GLY A   1     -34.549  -1.534 -13.016  1.00  0.00    -0.271 OA
BRANCH  39  41
ATOM     41  CA  GLY A   1     -35.965  -1.159 -11.106  1.00  0.00     0.369 C 
BRANCH  41  42
ATOM     42  N   GLY A   1     -37.091  -0.566 -11.840  1.00  0.00     0.087 N 
ATOM     43  H1  GLY A   1     -37.592  -1.321 -12.315  1.00  0.00     0.313 HD
ATOM     44  H2  GLY A   1     -36.730   0.035 -12.579  1.00  0.00     0.313 HD
ENDBRANCH  41  42
ENDBRANCH  39  41
ENDBRANCH  31  34
ENDBRANCH  29  30
BRANCH  29  45
ATOM     45  CB  GLN A   3     -34.275  -2.246 -16.813  1.00  0.00     0.043 C 
BRANCH  45  46
ATOM     46  CG  GLN A   3     -35.722  -1.844 -16.669  1.00  0.00     0.099 C 
BRANCH  46  47
ATOM     47  CD  GLN A   3     -35.875  -0.468 -16.067  1.00  0.00     0.195 C 
ATOM     48  OE1 GLN A   3     -36.837   0.263 -16.153  1.00  0.00    -0.280 OA
ATOM     49  NE2 GLN A   3     -34.750  -0.075 -15.415  1.00  0.00    -0.273 NA
ATOM     50 1HE2 GLN A   3     -34.272  -0.860 -15.003  1.00  0.00     0.127 HD
ATOM     51 2HE2 GLN A   3     -34.865   0.747 -14.839  1.00  0.00     0.127 HD
ENDBRANCH  46  47
ENDBRANCH  45  46
ENDBRANCH  29  45
ENDBRANCH   1  29
TORSDOF 17
BEGIN_RES ARG D 557
REMARK  4 active torsions:
REMARK  status: ('A' for Active; 'I' for Inactive)
REMARK    1  A    between atoms: CA   and  CB  
REMARK    2  A    between atoms: CB   and  CG  
REMARK    3  A    between atoms: CG   and  CD  
REMARK    4  A    between atoms: CD   and  NE  
REMARK       I    between atoms: NE   and  CZ  
REMARK       I    between atoms: CZ   and  NH1 
REMARK       I    between atoms: CZ   and  NH2 
ROOT
ATOM      1  CA  ARG D 557     -26.217   2.705 -17.014  1.00 35.49     0.159 C 
ENDROOT
BRANCH   1   2
ATOM      2  CB  ARG D 557     -26.789   1.319 -17.183  1.00 35.49     0.034 C 
BRANCH   2   3
ATOM      3  CG  ARG D 557     -25.865   0.195 -16.991  1.00 35.49     0.027 C 
BRANCH   3   4
ATOM      4  CD  ARG D 557     -26.194  -0.607 -15.790  1.00 35.49     0.116 C 
BRANCH   4   5
ATOM      5  NE  ARG D 557     -25.022  -0.947 -15.027  1.00 35.49    -0.212 N 
ATOM      6  CZ  ARG D 557     -24.878  -2.015 -14.274  1.00 35.49     0.666 C 
ATOM      7  NH1 ARG D 557     -25.836  -2.911 -14.125  1.00 35.49    -0.235 N 
ATOM      8  NH2 ARG D 557     -23.737  -2.174 -13.670  1.00 35.49    -0.235 N 
ATOM      9  HH  ARG D 557     -26.595  -2.827 -14.515  1.00 35.49     0.174 HD
ATOM     10  HH  ARG D 557     -25.685  -3.589 -13.623  1.00 35.49     0.174 HD
ATOM     11  HH  ARG D 557     -23.134  -1.583 -13.791  1.00 35.49     0.174 HD
ATOM     12  HH  ARG D 557     -23.606  -2.853 -13.179  1.00 35.49     0.174 HD
ATOM     13  HE  ARG D 557     -24.382  -0.388 -15.008  1.00 35.49     0.178 HD
ENDBRANCH   4   5
ENDBRANCH   3   4
ENDBRANCH   2   3
ENDBRANCH   1   2
END_RES ARG D 557
BEGIN_RES GLU D 570
REMARK  3 active torsions:
REMARK  status: ('A' for Active; 'I' for Inactive)
REMARK    5  A    between atoms: CA   and  CB  
REMARK    6  A    between atoms: CB   and  CG  
REMARK    7  A    between atoms: CG   and  CD  
ROOT
ATOM     14  CA  GLU D 570     -18.033  -6.348 -13.375  1.00 32.92     0.160 C 
ENDROOT
BRANCH  14  15
ATOM     15  CB  GLU D 570     -19.500  -6.345 -13.794  1.00 32.92     0.043 C 
BRANCH  15  16
ATOM     16  CG  GLU D 570     -20.459  -5.616 -12.924  1.00 32.92     0.100 C 
BRANCH  16  17
ATOM     17  CD  GLU D 570     -21.658  -5.092 -13.679  1.00 32.92     0.185 C 
ATOM     18  OE1 GLU D 570     -21.476  -4.370 -14.679  1.00 32.92    -0.647 OA
ATOM     19  OE2 GLU D 570     -22.792  -5.391 -13.256  1.00 32.92    -0.647 OA
ENDBRANCH  16  17
ENDBRANCH  15  16
ENDBRANCH  14  15
END_RES GLU D 570
ENDMDL
MODEL 4
REMARK VINA RESULT:      -7.9      6.480     12.699
REMARK  17 active torsions:
REMARK  status: ('A' for Active; 'I' for Inactive)
REMARK    1  A    between atoms: CA_3  and  C_6 
REMARK       I    between atoms: N_4  and  C_8 
REMARK       I    between atoms: C_6  and  N_14 
REMARK    2  A    between atoms: C_8  and  CA_10 
REMARK    3  A    between atoms: CA_10  and  N_11 
REMARK    4  A    between atoms: N_14  and  CA_15 
REMARK    5  A    between atoms: CA_15  and  CB_16 
REMARK    6  A    between atoms: CA_15  and  C_21 
REMARK    7  A    between atoms: CB_16  and  CG_17 
REMARK    8  A    between atoms: CG_17  and  CD_18 
REMARK       I    between atoms: CD_18  and  NE2_20 
REMARK       I    between atoms: C_21  and  N_26 
REMARK    9  A    between atoms: N_26  and  CA_27 
REMARK   10  A    between atoms: CA_27  and  C_28 
REMARK       I    between atoms: C_28  and  N_31 
REMARK   11  A    between atoms: CA_35  and  C_36 
REMARK       I    between atoms: C_36  and  N_38 
REMARK   12  A    between atoms: N_38  and  CA_39 
REMARK   13  A    between atoms: CA_39  and  CB_40 
REMARK   14  A    between atoms: CA_39  and  C_45 
REMARK   15  A    between atoms: CB_40  and  CG_41 
REMARK   16  A    between atoms: CG_41  and  CD_42 
REMARK       I    between atoms: CD_42  and  NE2_44 
REMARK   17  A    between atoms: C_45  and  OXT_47 
ROOT
ATOM      1  C   GLN A   3     -32.403  -5.527 -16.597  1.00  0.00     0.240 C 
ATOM      2  O   GLN A   3     -32.654  -6.611 -17.121  1.00  0.00    -0.271 OA
ATOM      3  N   GLY A   4     -31.110  -5.155 -16.276  1.00  0.00    -0.351 N 
ATOM      4  H   GLY A   4     -30.908  -4.180 -16.103  1.00  0.00     0.163 HD
ENDROOT
BRANCH   3   5
ATOM      5  CA  GLY A   4     -29.971  -6.020 -16.528  1.00  0.00     0.225 C 
BRANCH   5   6
ATOM      6  C   GLY A   4     -28.828  -5.787 -15.508  1.00  0.00     0.238 C 
ATOM      7  O   GLY A   4     -29.069  -5.660 -14.302  1.00  0.00    -0.272 OA
ATOM      8  N   PRO A   5     -27.530  -5.699 -15.969  1.00  0.00    -0.337 N 
ATOM      9  CD  PRO A   5     -27.076  -5.718 -17.346  1.00  0.00     0.127 C 
ATOM     10  CA  PRO A   5     -26.370  -5.642 -15.059  1.00  0.00     0.179 C 
ATOM     11  CG  PRO A   5     -25.763  -6.469 -17.283  1.00  0.00     0.022 C 
ATOM     12  CB  PRO A   5     -25.178  -6.102 -15.925  1.00  0.00     0.037 C 
BRANCH  10  13
ATOM     13  C   PRO A   5     -26.107  -4.221 -14.485  1.00  0.00     0.241 C 
ATOM     14  O   PRO A   5     -26.895  -3.283 -14.603  1.00  0.00    -0.271 OA
ATOM     15  N   GLN A   6     -24.907  -4.047 -13.826  1.00  0.00    -0.345 N 
ATOM     16  H   GLN A   6     -24.234  -4.813 -13.898  1.00  0.00     0.163 HD
BRANCH  15  17
ATOM     17  CA  GLN A   6     -24.450  -2.698 -13.446  1.00  0.00     0.182 C 
BRANCH  17  18
ATOM     18  CB  GLN A   6     -23.446  -2.812 -12.306  1.00  0.00     0.045 C 
BRANCH  18  19
ATOM     19  CG  GLN A   6     -23.646  -3.929 -11.285  1.00  0.00     0.105 C 
BRANCH  19  20
ATOM     20  CD  GLN A   6     -24.471  -3.460 -10.101  1.00  0.00     0.215 C 
ATOM     21  OE1 GLN A   6     -25.655  -3.156 -10.162  1.00  0.00    -0.274 OA
ATOM     22  NE2 GLN A   6     -23.767  -3.408  -8.934  1.00  0.00    -0.370 N 
ATOM     23 1HE2 GLN A   6     -22.772  -3.571  -8.879  1.00  0.00     0.159 HD
ATOM     24 2HE2 GLN A   6     -24.247  -3.100  -8.096  1.00  0.00     0.159 HD
ENDBRANCH  19  20
ENDBRANCH  18  19
ENDBRANCH  17  18
BRANCH  17  25
ATOM     25  C   GLN A   6     -23.881  -1.957 -14.659  1.00  0.00     0.163 C 
ATOM     26  O   GLN A   6     -24.311  -0.895 -15.097  1.00  0.00    -0.648 OA
BRANCH  25  27
ATOM     27  OXT GLN A   6     -22.837  -2.598 -15.245  1.00  0.00    -0.775 OA
ATOM     28  HXT GLN A   6     -22.932  -2.737 -16.202  1.00  0.00     0.167 HD
ENDBRANCH  25  27
ENDBRANCH  17  25
ENDBRANCH  15  17
ENDBRANCH  10  13
ENDBRANCH   5   6
ENDBRANCH   3   5
BRANCH   1  29
ATOM     29  CA  GLN A   3     -33.501  -4.479 -16.257  1.00  0.00     0.177 C 
BRANCH  29  30
ATOM     30  N   GLN A   3     -33.575  -4.256 -14.814  1.00  0.00    -0.346 N 
ATOM     31  C   PRO A   2     -34.577  -4.801 -14.049  1.00  0.00     0.241 C 
ATOM     32  O   PRO A   2     -35.308  -5.683 -14.502  1.00  0.00    -0.271 OA
ATOM     33  H   GLN A   3     -32.952  -3.558 -14.400  1.00  0.00     0.163 HD
BRANCH  31  34
ATOM     34  CA  PRO A   2     -34.625  -4.407 -12.549  1.00  0.00     0.179 C 
ATOM     35  CB  PRO A   2     -33.682  -3.198 -12.375  1.00  0.00     0.037 C 
ATOM     36  CG  PRO A   2     -33.401  -3.131 -10.890  1.00  0.00     0.022 C 
ATOM     37  CD  PRO A   2     -33.486  -4.573 -10.428  1.00  0.00     0.127 C 
ATOM     38  N   PRO A   2     -34.150  -5.316 -11.490  1.00  0.00    -0.337 N 
ATOM     39  C   GLY A   1     -34.632  -6.594 -11.285  1.00  0.00     0.248 C 
ATOM     40  O   GLY A   1     -35.447  -7.122 -12.044  1.00  0.00    -0.271 OA
BRANCH  39  41
ATOM     41  CA  GLY A   1     -34.043  -7.395 -10.107  1.00  0.00     0.369 C 
BRANCH  41  42
ATOM     42  N   GLY A   1     -33.785  -8.782 -10.515  1.00  0.00     0.087 N 
ATOM     43  H1  GLY A   1     -32.986  -9.127  -9.979  1.00  0.00     0.313 HD
ATOM     44  H2  GLY A   1     -33.492  -8.796 -11.491  1.00  0.00     0.313 HD
ENDBRANCH  41  42
ENDBRANCH  39  41
ENDBRANCH  31  34
ENDBRANCH  29  30
BRANCH  29  45
ATOM     45  CB  GLN A   3     -33.268  -3.111 -16.944  1.00  0.00     0.043 C 
BRANCH  45  46
ATOM     46  CG  GLN A   3     -34.497  -2.434 -17.499  1.00  0.00     0.099 C 
BRANCH  46  47
ATOM     47  CD  GLN A   3     -35.201  -1.591 -16.464  1.00  0.00     0.195 C 
ATOM     48  OE1 GLN A   3     -35.024  -1.610 -15.265  1.00  0.00    -0.280 OA
ATOM     49  NE2 GLN A   3     -36.142  -0.786 -17.022  1.00  0.00    -0.273 NA
ATOM     50 1HE2 GLN A   3     -35.874  -0.498 -17.949  1.00  0.00     0.127 HD
ATOM     51 2HE2 GLN A   3     -36.503  -0.073 -16.405  1.00  0.00     0.127 HD
ENDBRANCH  46  47
ENDBRANCH  45  46
ENDBRANCH  29  45
ENDBRANCH   1  29
TORSDOF 17
BEGIN_RES ARG D 557
REMARK  4 active torsions:
REMARK  status: ('A' for Active; 'I' for Inactive)
REMARK    1  A    between atoms: CA   and  CB  
REMARK    2  A    between atoms: CB   and  CG  
REMARK    3  A    between atoms: CG   and  CD  
REMARK    4  A    between atoms: CD   and  NE  
REMARK       I    between atoms: NE   and  CZ  
REMARK       I    between atoms: CZ   and  NH1 
REMARK       I    between atoms: CZ   and  NH2 
ROOT
ATOM      1  CA  ARG D 557     -26.217   2.705 -17.014  1.00 35.49     0.159 C 
ENDROOT
BRANCH   1   2
ATOM      2  CB  ARG D 557     -26.789   1.319 -17.183  1.00 35.49     0.034 C 
BRANCH   2   3
ATOM      3  CG  ARG D 557     -28.202   1.230 -17.572  1.00 35.49     0.027 C 
BRANCH   3   4
ATOM      4  CD  ARG D 557     -29.005   0.449 -16.603  1.00 35.49     0.116 C 
BRANCH   4   5
ATOM      5  NE  ARG D 557     -29.554  -0.744 -17.192  1.00 35.49    -0.212 N 
ATOM      6  CZ  ARG D 557     -28.968  -1.920 -17.233  1.00 35.49     0.666 C 
ATOM      7  NH1 ARG D 557     -27.764  -2.130 -16.733  1.00 35.49    -0.235 N 
ATOM      8  NH2 ARG D 557     -29.622  -2.898 -17.788  1.00 35.49    -0.235 N 
ATOM      9  HH  ARG D 557     -27.316  -1.501 -16.361  1.00 35.49     0.174 HD
ATOM     10  HH  ARG D 557     -27.433  -2.918 -16.786  1.00 35.49     0.174 HD
ATOM     11  HH  ARG D 557     -30.401  -2.734 -18.096  1.00 35.49     0.174 HD
ATOM     12  HH  ARG D 557     -29.278  -3.672 -17.830  1.00 35.49     0.174 HD
ATOM     13  HE  ARG D 557     -30.296  -0.682 -17.602  1.00 35.49     0.178 HD
ENDBRANCH   4   5
ENDBRANCH   3   4
ENDBRANCH   2   3
ENDBRANCH   1   2
END_RES ARG D 557
BEGIN_RES GLU D 570
REMARK  3 active torsions:
REMARK  status: ('A' for Active; 'I' for Inactive)
REMARK    5  A    between atoms: CA   and  CB  
REMARK    6  A    between atoms: CB   and  CG  
REMARK    7  A    between atoms: CG   and  CD  
ROOT
ATOM     14  CA  GLU D 570     -18.033  -6.348 -13.375  1.00 32.92     0.160 C 
ENDROOT
BRANCH  14  15
ATOM     15  CB  GLU D 570     -19.500  -6.345 -13.794  1.00 32.92     0.043 C 
BRANCH  15  16
ATOM     16  CG  GLU D 570     -19.810  -5.973 -15.199  1.00 32.92     0.100 C 
BRANCH  16  17
ATOM     17  CD  GLU D 570     -21.193  -5.387 -15.362  1.00 32.92     0.185 C 
ATOM     18  OE1 GLU D 570     -21.560  -5.007 -16.490  1.00 32.92    -0.647 OA
ATOM     19  OE2 GLU D 570     -21.911  -5.292 -14.347  1.00 32.92    -0.647 OA
ENDBRANCH  16  17
ENDBRANCH  15  16
ENDBRANCH  14  15
END_RES GLU D 570
ENDMDL
MODEL 5
REMARK VINA RESULT:      -7.8      1.759      2.172
REMARK  17 active torsions:
REMARK  status: ('A' for Active; 'I' for Inactive)
REMARK    1  A    between atoms: CA_3  and  C_6 
REMARK       I    between atoms: N_4  and  C_8 
REMARK       I    between atoms: C_6  and  N_14 
REMARK    2  A    between atoms: C_8  and  CA_10 
REMARK    3  A    between atoms: CA_10  and  N_11 
REMARK    4  A    between atoms: N_14  and  CA_15 
REMARK    5  A    between atoms: CA_15  and  CB_16 
REMARK    6  A    between atoms: CA_15  and  C_21 
REMARK    7  A    between atoms: CB_16  and  CG_17 
REMARK    8  A    between atoms: CG_17  and  CD_18 
REMARK       I    between atoms: CD_18  and  NE2_20 
REMARK       I    between atoms: C_21  and  N_26 
REMARK    9  A    between atoms: N_26  and  CA_27 
REMARK   10  A    between atoms: CA_27  and  C_28 
REMARK       I    between atoms: C_28  and  N_31 
REMARK   11  A    between atoms: CA_35  and  C_36 
REMARK       I    between atoms: C_36  and  N_38 
REMARK   12  A    between atoms: N_38  and  CA_39 
REMARK   13  A    between atoms: CA_39  and  CB_40 
REMARK   14  A    between atoms: CA_39  and  C_45 
REMARK   15  A    between atoms: CB_40  and  CG_41 
REMARK   16  A    between atoms: CG_41  and  CD_42 
REMARK       I    between atoms: CD_42  and  NE2_44 
REMARK   17  A    between atoms: C_45  and  OXT_47 
ROOT
ATOM      1  C   GLN A   3     -20.615  -6.464  -5.932  1.00  0.00     0.240 C 
ATOM      2  O   GLN A   3     -20.049  -5.603  -5.260  1.00  0.00    -0.271 OA
ATOM      3  N   GLY A   4     -20.987  -6.233  -7.245  1.00  0.00    -0.351 N 
ATOM      4  H   GLY A   4     -21.197  -7.022  -7.841  1.00  0.00     0.163 HD
ENDROOT
BRANCH   3   5
ATOM      5  CA  GLY A   4     -20.743  -4.964  -7.907  1.00  0.00     0.225 C 
BRANCH   5   6
ATOM      6  C   GLY A   4     -21.930  -4.542  -8.809  1.00  0.00     0.238 C 
ATOM      7  O   GLY A   4     -23.098  -4.682  -8.428  1.00  0.00    -0.272 OA
ATOM      8  N   PRO A   5     -21.666  -4.022 -10.060  1.00  0.00    -0.337 N 
ATOM      9  CD  PRO A   5     -20.376  -3.885 -10.707  1.00  0.00     0.127 C 
ATOM     10  CA  PRO A   5     -22.721  -3.446 -10.915  1.00  0.00     0.179 C 
ATOM     11  CG  PRO A   5     -20.497  -2.590 -11.482  1.00  0.00     0.022 C 
ATOM     12  CB  PRO A   5     -21.961  -2.530 -11.899  1.00  0.00     0.037 C 
BRANCH  10  13
ATOM     13  C   PRO A   5     -23.537  -4.517 -11.693  1.00  0.00     0.241 C 
ATOM     14  O   PRO A   5     -23.820  -5.623 -11.233  1.00  0.00    -0.271 OA
ATOM     15  N   GLN A   6     -23.936  -4.167 -12.966  1.00  0.00    -0.345 N 
ATOM     16  H   GLN A   6     -23.539  -3.304 -13.346  1.00  0.00     0.163 HD
BRANCH  15  17
ATOM     17  CA  GLN A   6     -24.508  -5.176 -13.876  1.00  0.00     0.182 C 
BRANCH  17  18
ATOM     18  CB  GLN A   6     -25.649  -4.547 -14.667  1.00  0.00     0.045 C 
BRANCH  18  19
ATOM     19  CG  GLN A   6     -26.138  -5.272 -15.917  1.00  0.00     0.105 C 
BRANCH  19  20
ATOM     20  CD  GLN A   6     -27.533  -5.837 -15.723  1.00  0.00     0.215 C 
ATOM     21  OE1 GLN A   6     -28.521  -5.163 -15.463  1.00  0.00    -0.274 OA
ATOM     22  NE2 GLN A   6     -27.597  -7.192 -15.870  1.00  0.00    -0.370 N 
ATOM     23 1HE2 GLN A   6     -26.782  -7.774 -15.998  1.00  0.00     0.159 HD
ATOM     24 2HE2 GLN A   6     -28.495  -7.647 -15.752  1.00  0.00     0.159 HD
ENDBRANCH  19  20
ENDBRANCH  18  19
ENDBRANCH  17  18
BRANCH  17  25
ATOM     25  C   GLN A   6     -23.424  -5.771 -14.778  1.00  0.00     0.163 C 
ATOM     26  O   GLN A   6     -23.373  -6.944 -15.134  1.00  0.00    -0.648 OA
BRANCH  25  27
ATOM     27  OXT GLN A   6     -22.478  -4.872 -15.153  1.00  0.00    -0.775 OA
ATOM     28  HXT GLN A   6     -21.880  -4.592 -14.441  1.00  0.00     0.167 HD
ENDBRANCH  25  27
ENDBRANCH  17  25
ENDBRANCH  15  17
ENDBRANCH  10  13
ENDBRANCH   5   6
ENDBRANCH   3   5
BRANCH   1  29
ATOM     29  CA  GLN A   3     -20.955  -7.878  -5.383  1.00  0.00     0.177 C 
BRANCH  29  30
ATOM     30  N   GLN A   3     -19.763  -8.519  -4.830  1.00  0.00    -0.346 N 
ATOM     31  C   PRO A   2     -19.515  -9.858  -5.003  1.00  0.00     0.241 C 
ATOM     32  O   PRO A   2     -20.157 -10.518  -5.822  1.00  0.00    -0.271 OA
ATOM     33  H   GLN A   3     -19.185  -7.983  -4.177  1.00  0.00     0.163 HD
BRANCH  31  34
ATOM     34  CA  PRO A   2     -18.281 -10.456  -4.278  1.00  0.00     0.179 C 
ATOM     35  CB  PRO A   2     -17.897  -9.464  -3.160  1.00  0.00     0.037 C 
ATOM     36  CG  PRO A   2     -16.475  -9.826  -2.786  1.00  0.00     0.022 C 
ATOM     37  CD  PRO A   2     -15.879 -10.367  -4.072  1.00  0.00     0.127 C 
ATOM     38  N   PRO A   2     -16.993 -10.651  -4.965  1.00  0.00    -0.337 N 
ATOM     39  C   GLY A   1     -16.826 -11.406  -6.110  1.00  0.00     0.248 C 
ATOM     40  O   GLY A   1     -17.775 -11.911  -6.712  1.00  0.00    -0.271 OA
BRANCH  39  41
ATOM     41  CA  GLY A   1     -15.398 -11.528  -6.679  1.00  0.00     0.369 C 
BRANCH  41  42
ATOM     42  N   GLY A   1     -14.858 -12.867  -6.409  1.00  0.00     0.087 N 
ATOM     43  H1  GLY A   1     -15.510 -13.354  -5.790  1.00  0.00     0.313 HD
ATOM     44  H2  GLY A   1     -13.989 -12.778  -5.884  1.00  0.00     0.313 HD
ENDBRANCH  41  42
ENDBRANCH  39  41
ENDBRANCH  31  34
ENDBRANCH  29  30
BRANCH  29  45
ATOM     45  CB  GLN A   3     -22.045  -7.859  -4.284  1.00  0.00     0.043 C 
BRANCH  45  46
ATOM     46  CG  GLN A   3     -21.548  -7.912  -2.860  1.00  0.00     0.099 C 
BRANCH  46  47
ATOM     47  CD  GLN A   3     -21.994  -6.716  -2.056  1.00  0.00     0.195 C 
ATOM     48  OE1 GLN A   3     -22.651  -6.725  -1.037  1.00  0.00    -0.280 OA
ATOM     49  NE2 GLN A   3     -21.608  -5.547  -2.631  1.00  0.00    -0.273 NA
ATOM     50 1HE2 GLN A   3     -20.732  -5.651  -3.118  1.00  0.00     0.127 HD
ATOM     51 2HE2 GLN A   3     -21.713  -4.734  -2.042  1.00  0.00     0.127 HD
ENDBRANCH  46  47
ENDBRANCH  45  46
ENDBRANCH  29  45
ENDBRANCH   1  29
TORSDOF 17
BEGIN_RES ARG D 557
REMARK  4 active torsions:
REMARK  status: ('A' for Active; 'I' for Inactive)
REMARK    1  A    between atoms: CA   and  CB  
REMARK    2  A    between atoms: CB   and  CG  
REMARK    3  A    between atoms: CG   and  CD  
REMARK    4  A    between atoms: CD   and  NE  
REMARK       I    between atoms: NE   and  CZ  
REMARK       I    between atoms: CZ   and  NH1 
REMARK       I    between atoms: CZ   and  NH2 
ROOT
ATOM      1  CA  ARG D 557     -26.217   2.705 -17.014  1.00 35.49     0.159 C 
ENDROOT
BRANCH   1   2
ATOM      2  CB  ARG D 557     -26.789   1.319 -17.183  1.00 35.49     0.034 C 
BRANCH   2   3
ATOM      3  CG  ARG D 557     -28.224   1.228 -17.479  1.00 35.49     0.027 C 
BRANCH   3   4
ATOM      4  CD  ARG D 557     -28.941   0.346 -16.530  1.00 35.49     0.116 C 
BRANCH   4   5
ATOM      5  NE  ARG D 557     -29.330  -0.900 -17.135  1.00 35.49    -0.212 N 
ATOM      6  CZ  ARG D 557     -28.685  -2.040 -17.028  1.00 35.49     0.666 C 
ATOM      7  NH1 ARG D 557     -27.564  -2.159 -16.339  1.00 35.49    -0.235 N 
ATOM      8  NH2 ARG D 557     -29.194  -3.077 -17.628  1.00 35.49    -0.235 N 
ATOM      9  HH  ARG D 557     -27.213  -1.490 -15.935  1.00 35.49     0.174 HD
ATOM     10  HH  ARG D 557     -27.189  -2.928 -16.302  1.00 35.49     0.174 HD
ATOM     11  HH  ARG D 557     -29.922  -2.972 -18.059  1.00 35.49     0.174 HD
ATOM     12  HH  ARG D 557     -28.808  -3.830 -17.578  1.00 35.49     0.174 HD
ATOM     13  HE  ARG D 557     -30.001  -0.899 -17.657  1.00 35.49     0.178 HD
ENDBRANCH   4   5
ENDBRANCH   3   4
ENDBRANCH   2   3
ENDBRANCH   1   2
END_RES ARG D 557
BEGIN_RES GLU D 570
REMARK  3 active torsions:
REMARK  status: ('A' for Active; 'I' for Inactive)
REMARK    5  A    between atoms: CA   and  CB  
REMARK    6  A    between atoms: CB   and  CG  
REMARK    7  A    between atoms: CG   and  CD  
ROOT
ATOM     14  CA  GLU D 570     -18.033  -6.348 -13.375  1.00 32.92     0.160 C 
ENDROOT
BRANCH  14  15
ATOM     15  CB  GLU D 570     -19.500  -6.345 -13.794  1.00 32.92     0.043 C 
BRANCH  15  16
ATOM     16  CG  GLU D 570     -20.086  -7.634 -14.243  1.00 32.92     0.100 C 
BRANCH  16  17
ATOM     17  CD  GLU D 570     -20.402  -7.656 -15.720  1.00 32.92     0.185 C 
ATOM     18  OE1 GLU D 570     -20.358  -6.590 -16.364  1.00 32.92    -0.647 OA
ATOM     19  OE2 GLU D 570     -20.713  -8.747 -16.236  1.00 32.92    -0.647 OA
ENDBRANCH  16  17
ENDBRANCH  15  16
ENDBRANCH  14  15
END_RES GLU D 570
ENDMDL
MODEL 6
REMARK VINA RESULT:      -7.8      6.374     13.198
REMARK  17 active torsions:
REMARK  status: ('A' for Active; 'I' for Inactive)
REMARK    1  A    between atoms: CA_3  and  C_6 
REMARK       I    between atoms: N_4  and  C_8 
REMARK       I    between atoms: C_6  and  N_14 
REMARK    2  A    between atoms: C_8  and  CA_10 
REMARK    3  A    between atoms: CA_10  and  N_11 
REMARK    4  A    between atoms: N_14  and  CA_15 
REMARK    5  A    between atoms: CA_15  and  CB_16 
REMARK    6  A    between atoms: CA_15  and  C_21 
REMARK    7  A    between atoms: CB_16  and  CG_17 
REMARK    8  A    between atoms: CG_17  and  CD_18 
REMARK       I    between atoms: CD_18  and  NE2_20 
REMARK       I    between atoms: C_21  and  N_26 
REMARK    9  A    between atoms: N_26  and  CA_27 
REMARK   10  A    between atoms: CA_27  and  C_28 
REMARK       I    between atoms: C_28  and  N_31 
REMARK   11  A    between atoms: CA_35  and  C_36 
REMARK       I    between atoms: C_36  and  N_38 
REMARK   12  A    between atoms: N_38  and  CA_39 
REMARK   13  A    between atoms: CA_39  and  CB_40 
REMARK   14  A    between atoms: CA_39  and  C_45 
REMARK   15  A    between atoms: CB_40  and  CG_41 
REMARK   16  A    between atoms: CG_41  and  CD_42 
REMARK       I    between atoms: CD_42  and  NE2_44 
REMARK   17  A    between atoms: C_45  and  OXT_47 
ROOT
ATOM      1  C   GLN A   3     -32.300  -5.291 -16.883  1.00  0.00     0.240 C 
ATOM      2  O   GLN A   3     -32.523  -6.344 -17.478  1.00  0.00    -0.271 OA
ATOM      3  N   GLY A   4     -31.014  -4.809 -16.715  1.00  0.00    -0.351 N 
ATOM      4  H   GLY A   4     -30.882  -3.837 -16.470  1.00  0.00     0.163 HD
ENDROOT
BRANCH   3   5
ATOM      5  CA  GLY A   4     -29.850  -5.516 -17.220  1.00  0.00     0.225 C 
BRANCH   5   6
ATOM      6  C   GLY A   4     -28.725  -5.614 -16.158  1.00  0.00     0.238 C 
ATOM      7  O   GLY A   4     -28.984  -5.547 -14.951  1.00  0.00    -0.272 OA
ATOM      8  N   PRO A   5     -27.419  -5.756 -16.581  1.00  0.00    -0.337 N 
ATOM      9  CD  PRO A   5     -26.924  -5.747 -17.944  1.00  0.00     0.127 C 
ATOM     10  CA  PRO A   5     -26.310  -6.020 -15.644  1.00  0.00     0.179 C 
ATOM     11  CG  PRO A   5     -25.795  -6.755 -17.924  1.00  0.00     0.022 C 
ATOM     12  CB  PRO A   5     -25.202  -6.638 -16.525  1.00  0.00     0.037 C 
BRANCH  10  13
ATOM     13  C   PRO A   5     -25.786  -4.740 -14.934  1.00  0.00     0.241 C 
ATOM     14  O   PRO A   5     -26.403  -3.676 -14.908  1.00  0.00    -0.271 OA
ATOM     15  N   GLN A   6     -24.554  -4.849 -14.322  1.00  0.00    -0.345 N 
ATOM     16  H   GLN A   6     -24.026  -5.704 -14.512  1.00  0.00     0.163 HD
BRANCH  15  17
ATOM     17  CA  GLN A   6     -23.858  -3.650 -13.822  1.00  0.00     0.182 C 
BRANCH  17  18
ATOM     18  CB  GLN A   6     -23.083  -4.011 -12.560  1.00  0.00     0.045 C 
BRANCH  18  19
ATOM     19  CG  GLN A   6     -23.823  -4.755 -11.453  1.00  0.00     0.105 C 
BRANCH  19  20
ATOM     20  CD  GLN A   6     -24.256  -3.815 -10.343  1.00  0.00     0.215 C 
ATOM     21  OE1 GLN A   6     -25.324  -3.218 -10.321  1.00  0.00    -0.274 OA
ATOM     22  NE2 GLN A   6     -23.333  -3.691  -9.346  1.00  0.00    -0.370 N 
ATOM     23 1HE2 GLN A   6     -22.413  -4.105  -9.387  1.00  0.00     0.159 HD
ATOM     24 2HE2 GLN A   6     -23.545  -3.076  -8.568  1.00  0.00     0.159 HD
ENDBRANCH  19  20
ENDBRANCH  18  19
ENDBRANCH  17  18
BRANCH  17  25
ATOM     25  C   GLN A   6     -22.965  -3.047 -14.909  1.00  0.00     0.163 C 
ATOM     26  O   GLN A   6     -23.084  -1.916 -15.369  1.00  0.00    -0.648 OA
BRANCH  25  27
ATOM     27  OXT GLN A   6     -22.006  -3.899 -15.356  1.00  0.00    -0.775 OA
ATOM     28  HXT GLN A   6     -21.854  -4.673 -14.788  1.00  0.00     0.167 HD
ENDBRANCH  25  27
ENDBRANCH  17  25
ENDBRANCH  15  17
ENDBRANCH  10  13
ENDBRANCH   5   6
ENDBRANCH   3   5
BRANCH   1  29
ATOM     29  CA  GLN A   3     -33.427  -4.406 -16.279  1.00  0.00     0.177 C 
BRANCH  29  30
ATOM     30  N   GLN A   3     -33.205  -4.190 -14.850  1.00  0.00    -0.346 N 
ATOM     31  C   PRO A   2     -34.143  -4.542 -13.911  1.00  0.00     0.241 C 
ATOM     32  O   PRO A   2     -35.095  -5.264 -14.210  1.00  0.00    -0.271 OA
ATOM     33  H   GLN A   3     -32.398  -3.627 -14.566  1.00  0.00     0.163 HD
BRANCH  31  34
ATOM     34  CA  PRO A   2     -33.853  -4.164 -12.435  1.00  0.00     0.179 C 
ATOM     35  CB  PRO A   2     -33.934  -5.469 -11.615  1.00  0.00     0.037 C 
ATOM     36  CG  PRO A   2     -34.100  -5.021 -10.179  1.00  0.00     0.022 C 
ATOM     37  CD  PRO A   2     -34.845  -3.704 -10.284  1.00  0.00     0.127 C 
ATOM     38  N   PRO A   2     -34.742  -3.272 -11.671  1.00  0.00    -0.337 N 
ATOM     39  C   GLY A   1     -35.072  -1.985 -12.053  1.00  0.00     0.248 C 
ATOM     40  O   GLY A   1     -34.716  -1.505 -13.130  1.00  0.00    -0.271 OA
BRANCH  39  41
ATOM     41  CA  GLY A   1     -35.991  -1.179 -11.115  1.00  0.00     0.369 C 
BRANCH  41  42
ATOM     42  N   GLY A   1     -35.817   0.261 -11.346  1.00  0.00     0.087 N 
ATOM     43  H1  GLY A   1     -36.304   0.763 -10.601  1.00  0.00     0.313 HD
ATOM     44  H2  GLY A   1     -36.288   0.520 -12.211  1.00  0.00     0.313 HD
ENDBRANCH  41  42
ENDBRANCH  39  41
ENDBRANCH  31  34
ENDBRANCH  29  30
BRANCH  29  45
ATOM     45  CB  GLN A   3     -33.546  -3.022 -16.963  1.00  0.00     0.043 C 
BRANCH  45  46
ATOM     46  CG  GLN A   3     -34.946  -2.573 -17.303  1.00  0.00     0.099 C 
BRANCH  46  47
ATOM     47  CD  GLN A   3     -35.278  -1.232 -16.695  1.00  0.00     0.195 C 
ATOM     48  OE1 GLN A   3     -34.676  -0.663 -15.809  1.00  0.00    -0.280 OA
ATOM     49  NE2 GLN A   3     -36.408  -0.701 -17.228  1.00  0.00    -0.273 NA
ATOM     50 1HE2 GLN A   3     -36.516  -0.964 -18.195  1.00  0.00     0.127 HD
ATOM     51 2HE2 GLN A   3     -36.566   0.269 -16.996  1.00  0.00     0.127 HD
ENDBRANCH  46  47
ENDBRANCH  45  46
ENDBRANCH  29  45
ENDBRANCH   1  29
TORSDOF 17
BEGIN_RES ARG D 557
REMARK  4 active torsions:
REMARK  status: ('A' for Active; 'I' for Inactive)
REMARK    1  A    between atoms: CA   and  CB  
REMARK    2  A    between atoms: CB   and  CG  
REMARK    3  A    between atoms: CG   and  CD  
REMARK    4  A    between atoms: CD   and  NE  
REMARK       I    between atoms: NE   and  CZ  
REMARK       I    between atoms: CZ   and  NH1 
REMARK       I    between atoms: CZ   and  NH2 
ROOT
ATOM      1  CA  ARG D 557     -26.217   2.705 -17.014  1.00 35.49     0.159 C 
ENDROOT
BRANCH   1   2
ATOM      2  CB  ARG D 557     -26.789   1.319 -17.183  1.00 35.49     0.034 C 
BRANCH   2   3
ATOM      3  CG  ARG D 557     -25.964   0.201 -16.709  1.00 35.49     0.027 C 
BRANCH   3   4
ATOM      4  CD  ARG D 557     -26.718  -0.726 -15.834  1.00 35.49     0.116 C 
BRANCH   4   5
ATOM      5  NE  ARG D 557     -27.621  -1.561 -16.581  1.00 35.49    -0.212 N 
ATOM      6  CZ  ARG D 557     -28.872  -1.278 -16.866  1.00 35.49     0.666 C 
ATOM      7  NH1 ARG D 557     -29.455  -0.161 -16.469  1.00 35.49    -0.235 N 
ATOM      8  NH2 ARG D 557     -29.538  -2.144 -17.573  1.00 35.49    -0.235 N 
ATOM      9  HH  ARG D 557     -29.035   0.424 -16.005  1.00 35.49     0.174 HD
ATOM     10  HH  ARG D 557     -30.273  -0.029 -16.687  1.00 35.49     0.174 HD
ATOM     11  HH  ARG D 557     -29.134  -2.853 -17.822  1.00 35.49     0.174 HD
ATOM     12  HH  ARG D 557     -30.347  -1.994 -17.780  1.00 35.49     0.174 HD
ATOM     13  HE  ARG D 557     -27.351  -2.333 -16.814  1.00 35.49     0.178 HD
ENDBRANCH   4   5
ENDBRANCH   3   4
ENDBRANCH   2   3
ENDBRANCH   1   2
END_RES ARG D 557
BEGIN_RES GLU D 570
REMARK  3 active torsions:
REMARK  status: ('A' for Active; 'I' for Inactive)
REMARK    5  A    between atoms: CA   and  CB  
REMARK    6  A    between atoms: CB   and  CG  
REMARK    7  A    between atoms: CG   and  CD  
ROOT
ATOM     14  CA  GLU D 570     -18.033  -6.348 -13.375  1.00 32.92     0.160 C 
ENDROOT
BRANCH  14  15
ATOM     15  CB  GLU D 570     -19.500  -6.345 -13.794  1.00 32.92     0.043 C 
BRANCH  15  16
ATOM     16  CG  GLU D 570     -19.804  -6.617 -15.223  1.00 32.92     0.100 C 
BRANCH  16  17
ATOM     17  CD  GLU D 570     -21.123  -7.328 -15.419  1.00 32.92     0.185 C 
ATOM     18  OE1 GLU D 570     -21.128  -8.457 -15.947  1.00 32.92    -0.647 OA
ATOM     19  OE2 GLU D 570     -22.162  -6.744 -15.057  1.00 32.92    -0.647 OA
ENDBRANCH  16  17
ENDBRANCH  15  16
ENDBRANCH  14  15
END_RES GLU D 570
ENDMDL
MODEL 7
REMARK VINA RESULT:      -7.6      3.009      8.656
REMARK  17 active torsions:
REMARK  status: ('A' for Active; 'I' for Inactive)
REMARK    1  A    between atoms: CA_3  and  C_6 
REMARK       I    between atoms: N_4  and  C_8 
REMARK       I    between atoms: C_6  and  N_14 
REMARK    2  A    between atoms: C_8  and  CA_10 
REMARK    3  A    between atoms: CA_10  and  N_11 
REMARK    4  A    between atoms: N_14  and  CA_15 
REMARK    5  A    between atoms: CA_15  and  CB_16 
REMARK    6  A    between atoms: CA_15  and  C_21 
REMARK    7  A    between atoms: CB_16  and  CG_17 
REMARK    8  A    between atoms: CG_17  and  CD_18 
REMARK       I    between atoms: CD_18  and  NE2_20 
REMARK       I    between atoms: C_21  and  N_26 
REMARK    9  A    between atoms: N_26  and  CA_27 
REMARK   10  A    between atoms: CA_27  and  C_28 
REMARK       I    between atoms: C_28  and  N_31 
REMARK   11  A    between atoms: CA_35  and  C_36 
REMARK       I    between atoms: C_36  and  N_38 
REMARK   12  A    between atoms: N_38  and  CA_39 
REMARK   13  A    between atoms: CA_39  and  CB_40 
REMARK   14  A    between atoms: CA_39  and  C_45 
REMARK   15  A    between atoms: CB_40  and  CG_41 
REMARK   16  A    between atoms: CG_41  and  CD_42 
REMARK       I    between atoms: CD_42  and  NE2_44 
REMARK   17  A    between atoms: C_45  and  OXT_47 
ROOT
ATOM      1  C   GLN A   3     -20.569 -12.575  -6.597  1.00  0.00     0.240 C 
ATOM      2  O   GLN A   3     -21.684 -12.562  -7.117  1.00  0.00    -0.271 OA
ATOM      3  N   GLY A   4     -20.383 -12.979  -5.287  1.00  0.00    -0.351 N 
ATOM      4  H   GLY A   4     -19.454 -13.233  -4.979  1.00  0.00     0.163 HD
ENDROOT
BRANCH   3   5
ATOM      5  CA  GLY A   4     -21.486 -13.401  -4.442  1.00  0.00     0.225 C 
BRANCH   5   6
ATOM      6  C   GLY A   4     -22.012 -12.245  -3.554  1.00  0.00     0.238 C 
ATOM      7  O   GLY A   4     -22.516 -11.235  -4.060  1.00  0.00    -0.272 OA
ATOM      8  N   PRO A   5     -21.892 -12.348  -2.183  1.00  0.00    -0.337 N 
ATOM      9  CD  PRO A   5     -21.240 -13.401  -1.429  1.00  0.00     0.127 C 
ATOM     10  CA  PRO A   5     -22.509 -11.376  -1.260  1.00  0.00     0.179 C 
ATOM     11  CG  PRO A   5     -22.098 -13.541  -0.190  1.00  0.00     0.022 C 
ATOM     12  CB  PRO A   5     -22.610 -12.132   0.082  1.00  0.00     0.037 C 
BRANCH  10  13
ATOM     13  C   PRO A   5     -21.675 -10.075  -1.088  1.00  0.00     0.241 C 
ATOM     14  O   PRO A   5     -20.863  -9.903  -0.181  1.00  0.00    -0.271 OA
ATOM     15  N   GLN A   6     -21.901  -9.084  -2.021  1.00  0.00    -0.345 N 
ATOM     16  H   GLN A   6     -22.694  -9.225  -2.651  1.00  0.00     0.163 HD
BRANCH  15  17
ATOM     17  CA  GLN A   6     -21.346  -7.732  -1.827  1.00  0.00     0.182 C 
BRANCH  17  18
ATOM     18  CB  GLN A   6     -20.937  -7.160  -3.179  1.00  0.00     0.045 C 
BRANCH  18  19
ATOM     19  CG  GLN A   6     -21.861  -7.404  -4.369  1.00  0.00     0.105 C 
BRANCH  19  20
ATOM     20  CD  GLN A   6     -21.087  -7.867  -5.589  1.00  0.00     0.215 C 
ATOM     21  OE1 GLN A   6     -20.590  -7.115  -6.418  1.00  0.00    -0.274 OA
ATOM     22  NE2 GLN A   6     -20.986  -9.224  -5.687  1.00  0.00    -0.370 N 
ATOM     23 1HE2 GLN A   6     -21.461  -9.861  -5.064  1.00  0.00     0.159 HD
ATOM     24 2HE2 GLN A   6     -20.487  -9.613  -6.479  1.00  0.00     0.159 HD
ENDBRANCH  19  20
ENDBRANCH  18  19
ENDBRANCH  17  18
BRANCH  17  25
ATOM     25  C   GLN A   6     -22.342  -6.837  -1.086  1.00  0.00     0.163 C 
ATOM     26  O   GLN A   6     -23.026  -7.190  -0.130  1.00  0.00    -0.648 OA
BRANCH  25  27
ATOM     27  OXT GLN A   6     -22.429  -5.583  -1.598  1.00  0.00    -0.775 OA
ATOM     28  HXT GLN A   6     -21.739  -5.361  -2.246  1.00  0.00     0.167 HD
ENDBRANCH  25  27
ENDBRANCH  17  25
ENDBRANCH  15  17
ENDBRANCH  10  13
ENDBRANCH   5   6
ENDBRANCH   3   5
BRANCH   1  29
ATOM     29  CA  GLN A   3     -19.278 -12.156  -7.355  1.00  0.00     0.177 C 
BRANCH  29  30
ATOM     30  N   GLN A   3     -18.153 -12.028  -6.429  1.00  0.00    -0.346 N 
ATOM     31  C   PRO A   2     -17.581 -10.811  -6.151  1.00  0.00     0.241 C 
ATOM     32  O   PRO A   2     -18.137  -9.762  -6.481  1.00  0.00    -0.271 OA
ATOM     33  H   GLN A   3     -17.695 -12.883  -6.104  1.00  0.00     0.163 HD
BRANCH  31  34
ATOM     34  CA  PRO A   2     -16.322 -10.804  -5.244  1.00  0.00     0.179 C 
ATOM     35  CB  PRO A   2     -15.276 -11.711  -5.926  1.00  0.00     0.037 C 
ATOM     36  CG  PRO A   2     -14.277 -12.043  -4.840  1.00  0.00     0.022 C 
ATOM     37  CD  PRO A   2     -15.095 -12.024  -3.563  1.00  0.00     0.127 C 
ATOM     38  N   PRO A   2     -16.346 -11.347  -3.875  1.00  0.00    -0.337 N 
ATOM     39  C   GLY A   1     -17.202 -10.917  -2.880  1.00  0.00     0.248 C 
ATOM     40  O   GLY A   1     -18.095 -10.093  -3.088  1.00  0.00    -0.271 OA
BRANCH  39  41
ATOM     41  CA  GLY A   1     -17.067 -11.575  -1.493  1.00  0.00     0.369 C 
BRANCH  41  42
ATOM     42  N   GLY A   1     -18.365 -11.579  -0.804  1.00  0.00     0.087 N 
ATOM     43  H1  GLY A   1     -19.084 -11.837  -1.484  1.00  0.00     0.313 HD
ATOM     44  H2  GLY A   1     -18.589 -10.630  -0.508  1.00  0.00     0.313 HD
ENDBRANCH  41  42
ENDBRANCH  39  41
ENDBRANCH  31  34
ENDBRANCH  29  30
BRANCH  29  45
ATOM     45  CB  GLN A   3     -18.875 -13.154  -8.468  1.00  0.00     0.043 C 
BRANCH  45  46
ATOM     46  CG  GLN A   3     -18.989 -14.617  -8.116  1.00  0.00     0.099 C 
BRANCH  46  47
ATOM     47  CD  GLN A   3     -18.077 -15.001  -6.976  1.00  0.00     0.195 C 
ATOM     48  OE1 GLN A   3     -18.405 -15.305  -5.849  1.00  0.00    -0.280 OA
ATOM     49  NE2 GLN A   3     -16.767 -14.931  -7.331  1.00  0.00    -0.273 NA
ATOM     50 1HE2 GLN A   3     -16.639 -15.157  -8.305  1.00  0.00     0.127 HD
ATOM     51 2HE2 GLN A   3     -16.131 -15.357  -6.673  1.00  0.00     0.127 HD
ENDBRANCH  46  47
ENDBRANCH  45  46
ENDBRANCH  29  45
ENDBRANCH   1  29
TORSDOF 17
BEGIN_RES ARG D 557
REMARK  4 active torsions:
REMARK  status: ('A' for Active; 'I' for Inactive)
REMARK    1  A    between atoms: CA   and  CB  
REMARK    2  A    between atoms: CB   and  CG  
REMARK    3  A    between atoms: CG   and  CD  
REMARK    4  A    between atoms: CD   and  NE  
REMARK       I    between atoms: NE   and  CZ  
REMARK       I    between atoms: CZ   and  NH1 
REMARK       I    between atoms: CZ   and  NH2 
ROOT
ATOM      1  CA  ARG D 557     -26.217   2.705 -17.014  1.00 35.49     0.159 C 
ENDROOT
BRANCH   1   2
ATOM      2  CB  ARG D 557     -26.789   1.319 -17.183  1.00 35.49     0.034 C 
BRANCH   2   3
ATOM      3  CG  ARG D 557     -28.214   1.150 -16.874  1.00 35.49     0.027 C 
BRANCH   3   4
ATOM      4  CD  ARG D 557     -28.574  -0.264 -16.625  1.00 35.49     0.116 C 
BRANCH   4   5
ATOM      5  NE  ARG D 557     -27.547  -0.966 -15.902  1.00 35.49    -0.212 N 
ATOM      6  CZ  ARG D 557     -27.303  -2.256 -15.971  1.00 35.49     0.666 C 
ATOM      7  NH1 ARG D 557     -28.012  -3.072 -16.728  1.00 35.49    -0.235 N 
ATOM      8  NH2 ARG D 557     -26.316  -2.719 -15.260  1.00 35.49    -0.235 N 
ATOM      9  HH  ARG D 557     -28.665  -2.788 -17.206  1.00 35.49     0.174 HD
ATOM     10  HH  ARG D 557     -27.806  -3.904 -16.735  1.00 35.49     0.174 HD
ATOM     11  HH  ARG D 557     -25.871  -2.167 -14.786  1.00 35.49     0.174 HD
ATOM     12  HH  ARG D 557     -26.126  -3.545 -15.281  1.00 35.49     0.174 HD
ATOM     13  HE  ARG D 557     -27.088  -0.529 -15.334  1.00 35.49     0.178 HD
ENDBRANCH   4   5
ENDBRANCH   3   4
ENDBRANCH   2   3
ENDBRANCH   1   2
END_RES ARG D 557
BEGIN_RES GLU D 570
REMARK  3 active torsions:
REMARK  status: ('A' for Active; 'I' for Inactive)
REMARK    5  A    between atoms: CA   and  CB  
REMARK    6  A    between atoms: CB   and  CG  
REMARK    7  A    between atoms: CG   and  CD  
ROOT
ATOM     14  CA  GLU D 570     -18.033  -6.348 -13.375  1.00 32.92     0.160 C 
ENDROOT
BRANCH  14  15
ATOM     15  CB  GLU D 570     -19.500  -6.345 -13.794  1.00 32.92     0.043 C 
BRANCH  15  16
ATOM     16  CG  GLU D 570     -20.448  -5.561 -12.961  1.00 32.92     0.100 C 
BRANCH  16  17
ATOM     17  CD  GLU D 570     -21.708  -5.180 -13.702  1.00 32.92     0.185 C 
ATOM     18  OE1 GLU D 570     -22.633  -4.624 -13.079  1.00 32.92    -0.647 OA
ATOM     19  OE2 GLU D 570     -21.778  -5.456 -14.916  1.00 32.92    -0.647 OA
ENDBRANCH  16  17
ENDBRANCH  15  16
ENDBRANCH  14  15
END_RES GLU D 570
ENDMDL
MODEL 8
REMARK VINA RESULT:      -7.6      2.202      3.676
REMARK  17 active torsions:
REMARK  status: ('A' for Active; 'I' for Inactive)
REMARK    1  A    between atoms: CA_3  and  C_6 
REMARK       I    between atoms: N_4  and  C_8 
REMARK       I    between atoms: C_6  and  N_14 
REMARK    2  A    between atoms: C_8  and  CA_10 
REMARK    3  A    between atoms: CA_10  and  N_11 
REMARK    4  A    between atoms: N_14  and  CA_15 
REMARK    5  A    between atoms: CA_15  and  CB_16 
REMARK    6  A    between atoms: CA_15  and  C_21 
REMARK    7  A    between atoms: CB_16  and  CG_17 
REMARK    8  A    between atoms: CG_17  and  CD_18 
REMARK       I    between atoms: CD_18  and  NE2_20 
REMARK       I    between atoms: C_21  and  N_26 
REMARK    9  A    between atoms: N_26  and  CA_27 
REMARK   10  A    between atoms: CA_27  and  C_28 
REMARK       I    between atoms: C_28  and  N_31 
REMARK   11  A    between atoms: CA_35  and  C_36 
REMARK       I    between atoms: C_36  and  N_38 
REMARK   12  A    between atoms: N_38  and  CA_39 
REMARK   13  A    between atoms: CA_39  and  CB_40 
REMARK   14  A    between atoms: CA_39  and  C_45 
REMARK   15  A    between atoms: CB_40  and  CG_41 
REMARK   16  A    between atoms: CG_41  and  CD_42 
REMARK       I    between atoms: CD_42  and  NE2_44 
REMARK   17  A    between atoms: C_45  and  OXT_47 
ROOT
ATOM      1  C   GLN A   3     -23.231  -5.305  -6.410  1.00  0.00     0.240 C 
ATOM      2  O   GLN A   3     -24.316  -5.377  -5.837  1.00  0.00    -0.271 OA
ATOM      3  N   GLY A   4     -23.114  -4.777  -7.684  1.00  0.00    -0.351 N 
ATOM      4  H   GLY A   4     -22.203  -4.488  -8.013  1.00  0.00     0.163 HD
ENDROOT
BRANCH   3   5
ATOM      5  CA  GLY A   4     -24.260  -4.285  -8.426  1.00  0.00     0.225 C 
BRANCH   5   6
ATOM      6  C   GLY A   4     -23.838  -3.497  -9.691  1.00  0.00     0.238 C 
ATOM      7  O   GLY A   4     -24.582  -2.640 -10.183  1.00  0.00    -0.272 OA
ATOM      8  N   PRO A   5     -22.622  -3.779 -10.279  1.00  0.00    -0.337 N 
ATOM      9  CD  PRO A   5     -21.677  -4.813  -9.906  1.00  0.00     0.127 C 
ATOM     10  CA  PRO A   5     -22.071  -2.969 -11.383  1.00  0.00     0.179 C 
ATOM     11  CG  PRO A   5     -20.327  -4.176 -10.156  1.00  0.00     0.022 C 
ATOM     12  CB  PRO A   5     -20.554  -3.257 -11.350  1.00  0.00     0.037 C 
BRANCH  10  13
ATOM     13  C   PRO A   5     -22.662  -3.338 -12.773  1.00  0.00     0.241 C 
ATOM     14  O   PRO A   5     -22.097  -4.079 -13.577  1.00  0.00    -0.271 OA
ATOM     15  N   GLN A   6     -23.882  -2.772 -13.081  1.00  0.00    -0.345 N 
ATOM     16  H   GLN A   6     -24.221  -2.048 -12.443  1.00  0.00     0.163 HD
BRANCH  15  17
ATOM     17  CA  GLN A   6     -24.425  -2.862 -14.448  1.00  0.00     0.182 C 
BRANCH  17  18
ATOM     18  CB  GLN A   6     -25.353  -4.068 -14.540  1.00  0.00     0.045 C 
BRANCH  18  19
ATOM     19  CG  GLN A   6     -24.720  -5.447 -14.699  1.00  0.00     0.105 C 
BRANCH  19  20
ATOM     20  CD  GLN A   6     -25.343  -6.215 -15.851  1.00  0.00     0.215 C 
ATOM     21  OE1 GLN A   6     -24.722  -6.626 -16.823  1.00  0.00    -0.274 OA
ATOM     22  NE2 GLN A   6     -26.685  -6.417 -15.707  1.00  0.00    -0.370 N 
ATOM     23 1HE2 GLN A   6     -27.229  -6.013 -14.959  1.00  0.00     0.159 HD
ATOM     24 2HE2 GLN A   6     -27.176  -6.920 -16.437  1.00  0.00     0.159 HD
ENDBRANCH  19  20
ENDBRANCH  18  19
ENDBRANCH  17  18
BRANCH  17  25
ATOM     25  C   GLN A   6     -25.117  -1.555 -14.845  1.00  0.00     0.163 C 
ATOM     26  O   GLN A   6     -24.542  -0.492 -15.055  1.00  0.00    -0.648 OA
BRANCH  25  27
ATOM     27  OXT GLN A   6     -26.467  -1.663 -14.932  1.00  0.00    -0.775 OA
ATOM     28  HXT GLN A   6     -26.781  -2.352 -15.540  1.00  0.00     0.167 HD
ENDBRANCH  25  27
ENDBRANCH  17  25
ENDBRANCH  15  17
ENDBRANCH  10  13
ENDBRANCH   5   6
ENDBRANCH   3   5
BRANCH   1  29
ATOM     29  CA  GLN A   3     -21.900  -5.785  -5.764  1.00  0.00     0.177 C 
BRANCH  29  30
ATOM     30  N   GLN A   3     -22.164  -6.700  -4.655  1.00  0.00    -0.346 N 
ATOM     31  C   PRO A   2     -21.665  -6.473  -3.395  1.00  0.00     0.241 C 
ATOM     32  O   PRO A   2     -21.181  -5.380  -3.096  1.00  0.00    -0.271 OA
ATOM     33  H   GLN A   3     -22.603  -7.600  -4.865  1.00  0.00     0.163 HD
BRANCH  31  34
ATOM     34  CA  PRO A   2     -21.911  -7.566  -2.322  1.00  0.00     0.179 C 
ATOM     35  CB  PRO A   2     -22.261  -6.832  -1.011  1.00  0.00     0.037 C 
ATOM     36  CG  PRO A   2     -22.049  -7.858   0.081  1.00  0.00     0.022 C 
ATOM     37  CD  PRO A   2     -20.946  -8.750  -0.455  1.00  0.00     0.127 C 
ATOM     38  N   PRO A   2     -20.842  -8.479  -1.881  1.00  0.00    -0.337 N 
ATOM     39  C   GLY A   1     -20.128  -9.309  -2.724  1.00  0.00     0.248 C 
ATOM     40  O   GLY A   1     -20.268  -9.285  -3.948  1.00  0.00    -0.271 OA
BRANCH  39  41
ATOM     41  CA  GLY A   1     -19.065 -10.225  -2.087  1.00  0.00     0.369 C 
BRANCH  41  42
ATOM     42  N   GLY A   1     -19.465 -11.632  -2.214  1.00  0.00     0.087 N 
ATOM     43  H1  GLY A   1     -18.781 -12.104  -2.811  1.00  0.00     0.313 HD
ATOM     44  H2  GLY A   1     -20.352 -11.685  -2.712  1.00  0.00     0.313 HD
ENDBRANCH  41  42
ENDBRANCH  39  41
ENDBRANCH  31  34
ENDBRANCH  29  30
BRANCH  29  45
ATOM     45  CB  GLN A   3     -20.960  -6.500  -6.765  1.00  0.00     0.043 C 
BRANCH  45  46
ATOM     46  CG  GLN A   3     -19.520  -6.049  -6.757  1.00  0.00     0.099 C 
BRANCH  46  47
ATOM     47  CD  GLN A   3     -19.387  -4.562  -6.979  1.00  0.00     0.195 C 
ATOM     48  OE1 GLN A   3     -20.273  -3.736  -6.938  1.00  0.00    -0.280 OA
ATOM     49  NE2 GLN A   3     -18.113  -4.210  -7.292  1.00  0.00    -0.273 NA
ATOM     50 1HE2 GLN A   3     -17.445  -4.811  -6.837  1.00  0.00     0.127 HD
ATOM     51 2HE2 GLN A   3     -17.933  -3.217  -7.263  1.00  0.00     0.127 HD
ENDBRANCH  46  47
ENDBRANCH  45  46
ENDBRANCH  29  45
ENDBRANCH   1  29
TORSDOF 17
BEGIN_RES ARG D 557
REMARK  4 active torsions:
REMARK  status: ('A' for Active; 'I' for Inactive)
REMARK    1  A    between atoms: CA   and  CB  
REMARK    2  A    between atoms: CB   and  CG  
REMARK    3  A    between atoms: CG   and  CD  
REMARK    4  A    between atoms: CD   and  NE  
REMARK       I    between atoms: NE   and  CZ  
REMARK       I    between atoms: CZ   and  NH1 
REMARK       I    between atoms: CZ   and  NH2 
ROOT
ATOM      1  CA  ARG D 557     -26.217   2.705 -17.014  1.00 35.49     0.159 C 
ENDROOT
BRANCH   1   2
ATOM      2  CB  ARG D 557     -26.789   1.319 -17.183  1.00 35.49     0.034 C 
BRANCH   2   3
ATOM      3  CG  ARG D 557     -28.135   1.089 -16.643  1.00 35.49     0.027 C 
BRANCH   3   4
ATOM      4  CD  ARG D 557     -28.847  -0.001 -17.348  1.00 35.49     0.116 C 
BRANCH   4   5
ATOM      5  NE  ARG D 557     -28.306  -1.296 -17.031  1.00 35.49    -0.212 N 
ATOM      6  CZ  ARG D 557     -28.947  -2.440 -17.122  1.00 35.49     0.666 C 
ATOM      7  NH1 ARG D 557     -30.205  -2.518 -17.515  1.00 35.49    -0.235 N 
ATOM      8  NH2 ARG D 557     -28.293  -3.521 -16.813  1.00 35.49    -0.235 N 
ATOM      9  HH  ARG D 557     -30.654  -1.819 -17.725  1.00 35.49     0.174 HD
ATOM     10  HH  ARG D 557     -30.571  -3.292 -17.558  1.00 35.49     0.174 HD
ATOM     11  HH  ARG D 557     -27.479  -3.441 -16.570  1.00 35.49     0.174 HD
ATOM     12  HH  ARG D 557     -28.672  -4.278 -16.864  1.00 35.49     0.174 HD
ATOM     13  HE  ARG D 557     -27.523  -1.332 -16.700  1.00 35.49     0.178 HD
ENDBRANCH   4   5
ENDBRANCH   3   4
ENDBRANCH   2   3
ENDBRANCH   1   2
END_RES ARG D 557
BEGIN_RES GLU D 570
REMARK  3 active torsions:
REMARK  status: ('A' for Active; 'I' for Inactive)
REMARK    5  A    between atoms: CA   and  CB  
REMARK    6  A    between atoms: CB   and  CG  
REMARK    7  A    between atoms: CG   and  CD  
ROOT
ATOM     14  CA  GLU D 570     -18.033  -6.348 -13.375  1.00 32.92     0.160 C 
ENDROOT
BRANCH  14  15
ATOM     15  CB  GLU D 570     -19.500  -6.345 -13.794  1.00 32.92     0.043 C 
BRANCH  15  16
ATOM     16  CG  GLU D 570     -19.813  -5.939 -15.189  1.00 32.92     0.100 C 
BRANCH  16  17
ATOM     17  CD  GLU D 570     -20.997  -6.678 -15.766  1.00 32.92     0.185 C 
ATOM     18  OE1 GLU D 570     -21.707  -7.369 -15.010  1.00 32.92    -0.647 OA
ATOM     19  OE2 GLU D 570     -21.208  -6.579 -16.991  1.00 32.92    -0.647 OA
ENDBRANCH  16  17
ENDBRANCH  15  16
ENDBRANCH  14  15
END_RES GLU D 570
ENDMDL
MODEL 9
REMARK VINA RESULT:      -7.6      3.338      8.583
REMARK  17 active torsions:
REMARK  status: ('A' for Active; 'I' for Inactive)
REMARK    1  A    between atoms: CA_3  and  C_6 
REMARK       I    between atoms: N_4  and  C_8 
REMARK       I    between atoms: C_6  and  N_14 
REMARK    2  A    between atoms: C_8  and  CA_10 
REMARK    3  A    between atoms: CA_10  and  N_11 
REMARK    4  A    between atoms: N_14  and  CA_15 
REMARK    5  A    between atoms: CA_15  and  CB_16 
REMARK    6  A    between atoms: CA_15  and  C_21 
REMARK    7  A    between atoms: CB_16  and  CG_17 
REMARK    8  A    between atoms: CG_17  and  CD_18 
REMARK       I    between atoms: CD_18  and  NE2_20 
REMARK       I    between atoms: C_21  and  N_26 
REMARK    9  A    between atoms: N_26  and  CA_27 
REMARK   10  A    between atoms: CA_27  and  C_28 
REMARK       I    between atoms: C_28  and  N_31 
REMARK   11  A    between atoms: CA_35  and  C_36 
REMARK       I    between atoms: C_36  and  N_38 
REMARK   12  A    between atoms: N_38  and  CA_39 
REMARK   13  A    between atoms: CA_39  and  CB_40 
REMARK   14  A    between atoms: CA_39  and  C_45 
REMARK   15  A    between atoms: CB_40  and  CG_41 
REMARK   16  A    between atoms: CG_41  and  CD_42 
REMARK       I    between atoms: CD_42  and  NE2_44 
REMARK   17  A    between atoms: C_45  and  OXT_47 
ROOT
ATOM      1  C   GLN A   3     -19.169 -12.822  -0.378  1.00  0.00     0.240 C 
ATOM      2  O   GLN A   3     -18.730 -11.717  -0.063  1.00  0.00    -0.271 OA
ATOM      3  N   GLY A   4     -20.511 -13.133  -0.256  1.00  0.00    -0.351 N 
ATOM      4  H   GLY A   4     -20.879 -13.928  -0.761  1.00  0.00     0.163 HD
ENDROOT
BRANCH   3   5
ATOM      5  CA  GLY A   4     -21.482 -12.184   0.260  1.00  0.00     0.225 C 
BRANCH   5   6
ATOM      6  C   GLY A   4     -21.764 -11.039  -0.744  1.00  0.00     0.238 C 
ATOM      7  O   GLY A   4     -22.054 -11.283  -1.921  1.00  0.00    -0.272 OA
ATOM      8  N   PRO A   5     -21.667  -9.731  -0.311  1.00  0.00    -0.337 N 
ATOM      9  CD  PRO A   5     -21.241  -9.261   0.992  1.00  0.00     0.127 C 
ATOM     10  CA  PRO A   5     -22.076  -8.589  -1.150  1.00  0.00     0.179 C 
ATOM     11  CG  PRO A   5     -22.110  -8.046   1.239  1.00  0.00     0.022 C 
ATOM     12  CB  PRO A   5     -22.327  -7.444  -0.144  1.00  0.00     0.037 C 
BRANCH  10  13
ATOM     13  C   PRO A   5     -20.998  -8.170  -2.189  1.00  0.00     0.241 C 
ATOM     14  O   PRO A   5     -19.898  -7.712  -1.880  1.00  0.00    -0.271 OA
ATOM     15  N   GLN A   6     -21.341  -8.330  -3.515  1.00  0.00    -0.345 N 
ATOM     16  H   GLN A   6     -22.317  -8.564  -3.707  1.00  0.00     0.163 HD
BRANCH  15  17
ATOM     17  CA  GLN A   6     -20.499  -7.756  -4.581  1.00  0.00     0.182 C 
BRANCH  17  18
ATOM     18  CB  GLN A   6     -19.764  -8.883  -5.298  1.00  0.00     0.045 C 
BRANCH  18  19
ATOM     19  CG  GLN A   6     -18.416  -9.327  -4.739  1.00  0.00     0.105 C 
BRANCH  19  20
ATOM     20  CD  GLN A   6     -18.580 -10.396  -3.674  1.00  0.00     0.215 C 
ATOM     21  OE1 GLN A   6     -19.235 -11.420  -3.818  1.00  0.00    -0.274 OA
ATOM     22  NE2 GLN A   6     -17.919 -10.115  -2.514  1.00  0.00    -0.370 N 
ATOM     23 1HE2 GLN A   6     -17.447  -9.238  -2.344  1.00  0.00     0.159 HD
ATOM     24 2HE2 GLN A   6     -17.983 -10.779  -1.750  1.00  0.00     0.159 HD
ENDBRANCH  19  20
ENDBRANCH  18  19
ENDBRANCH  17  18
BRANCH  17  25
ATOM     25  C   GLN A   6     -21.337  -6.900  -5.534  1.00  0.00     0.163 C 
ATOM     26  O   GLN A   6     -21.135  -6.789  -6.739  1.00  0.00    -0.648 OA
BRANCH  25  27
ATOM     27  OXT GLN A   6     -22.347  -6.235  -4.917  1.00  0.00    -0.775 OA
ATOM     28  HXT GLN A   6     -23.199  -6.267  -5.384  1.00  0.00     0.167 HD
ENDBRANCH  25  27
ENDBRANCH  17  25
ENDBRANCH  15  17
ENDBRANCH  10  13
ENDBRANCH   5   6
ENDBRANCH   3   5
BRANCH   1  29
ATOM     29  CA  GLN A   3     -18.272 -13.957  -0.948  1.00  0.00     0.177 C 
BRANCH  29  30
ATOM     30  N   GLN A   3     -17.469 -13.470  -2.069  1.00  0.00    -0.346 N 
ATOM     31  C   PRO A   2     -17.111 -14.288  -3.111  1.00  0.00     0.241 C 
ATOM     32  O   PRO A   2     -17.643 -15.389  -3.262  1.00  0.00    -0.271 OA
ATOM     33  H   GLN A   3     -17.046 -12.541  -1.992  1.00  0.00     0.163 HD
BRANCH  31  34
ATOM     34  CA  PRO A   2     -16.164 -13.699  -4.190  1.00  0.00     0.179 C 
ATOM     35  CB  PRO A   2     -15.238 -12.696  -3.470  1.00  0.00     0.037 C 
ATOM     36  CG  PRO A   2     -14.663 -11.832  -4.571  1.00  0.00     0.022 C 
ATOM     37  CD  PRO A   2     -15.749 -11.809  -5.631  1.00  0.00     0.127 C 
ATOM     38  N   PRO A   2     -16.670 -12.890  -5.312  1.00  0.00    -0.337 N 
ATOM     39  C   GLY A   1     -17.617 -13.323  -6.220  1.00  0.00     0.248 C 
ATOM     40  O   GLY A   1     -18.193 -14.406  -6.108  1.00  0.00    -0.271 OA
BRANCH  39  41
ATOM     41  CA  GLY A   1     -18.008 -12.355  -7.355  1.00  0.00     0.369 C 
BRANCH  41  42
ATOM     42  N   GLY A   1     -19.367 -11.842  -7.138  1.00  0.00     0.087 N 
ATOM     43  H1  GLY A   1     -19.807 -11.711  -8.053  1.00  0.00     0.313 HD
ATOM     44  H2  GLY A   1     -19.312 -10.914  -6.721  1.00  0.00     0.313 HD
ENDBRANCH  41  42
ENDBRANCH  39  41
ENDBRANCH  31  34
ENDBRANCH  29  30
BRANCH  29  45
ATOM     45  CB  GLN A   3     -17.311 -14.560   0.106  1.00  0.00     0.043 C 
BRANCH  45  46
ATOM     46  CG  GLN A   3     -15.980 -13.866   0.259  1.00  0.00     0.099 C 
BRANCH  46  47
ATOM     47  CD  GLN A   3     -15.895 -13.072   1.539  1.00  0.00     0.195 C 
ATOM     48  OE1 GLN A   3     -15.738 -13.507   2.660  1.00  0.00    -0.280 OA
ATOM     49  NE2 GLN A   3     -16.063 -11.741   1.320  1.00  0.00    -0.273 NA
ATOM     50 1HE2 GLN A   3     -15.701 -11.470   0.420  1.00  0.00     0.127 HD
ATOM     51 2HE2 GLN A   3     -15.827 -11.154   2.107  1.00  0.00     0.127 HD
ENDBRANCH  46  47
ENDBRANCH  45  46
ENDBRANCH  29  45
ENDBRANCH   1  29
TORSDOF 17
BEGIN_RES ARG D 557
REMARK  4 active torsions:
REMARK  status: ('A' for Active; 'I' for Inactive)
REMARK    1  A    between atoms: CA   and  CB  
REMARK    2  A    between atoms: CB   and  CG  
REMARK    3  A    between atoms: CG   and  CD  
REMARK    4  A    between atoms: CD   and  NE  
REMARK       I    between atoms: NE   and  CZ  
REMARK       I    between atoms: CZ   and  NH1 
REMARK       I    between atoms: CZ   and  NH2 
ROOT
ATOM      1  CA  ARG D 557     -26.217   2.705 -17.014  1.00 35.49     0.159 C 
ENDROOT
BRANCH   1   2
ATOM      2  CB  ARG D 557     -26.789   1.319 -17.183  1.00 35.49     0.034 C 
BRANCH   2   3
ATOM      3  CG  ARG D 557     -25.839   0.201 -17.133  1.00 35.49     0.027 C 
BRANCH   3   4
ATOM      4  CD  ARG D 557     -24.773   0.412 -16.127  1.00 35.49     0.116 C 
BRANCH   4   5
ATOM      5  NE  ARG D 557     -24.900  -0.483 -15.007  1.00 35.49    -0.212 N 
ATOM      6  CZ  ARG D 557     -24.066  -1.451 -14.698  1.00 35.49     0.666 C 
ATOM      7  NH1 ARG D 557     -22.993  -1.719 -15.418  1.00 35.49    -0.235 N 
ATOM      8  NH2 ARG D 557     -24.327  -2.151 -13.633  1.00 35.49    -0.235 N 
ATOM      9  HH  ARG D 557     -22.800  -1.269 -16.122  1.00 35.49     0.174 HD
ATOM     10  HH  ARG D 557     -22.483  -2.360 -15.167  1.00 35.49     0.174 HD
ATOM     11  HH  ARG D 557     -25.023  -1.951 -13.182  1.00 35.49     0.174 HD
ATOM     12  HH  ARG D 557     -23.810  -2.781 -13.399  1.00 35.49     0.174 HD
ATOM     13  HE  ARG D 557     -25.602  -0.429 -14.530  1.00 35.49     0.178 HD
ENDBRANCH   4   5
ENDBRANCH   3   4
ENDBRANCH   2   3
ENDBRANCH   1   2
END_RES ARG D 557
BEGIN_RES GLU D 570
REMARK  3 active torsions:
REMARK  status: ('A' for Active; 'I' for Inactive)
REMARK    5  A    between atoms: CA   and  CB  
REMARK    6  A    between atoms: CB   and  CG  
REMARK    7  A    between atoms: CG   and  CD  
ROOT
ATOM     14  CA  GLU D 570     -18.033  -6.348 -13.375  1.00 32.92     0.160 C 
ENDROOT
BRANCH  14  15
ATOM     15  CB  GLU D 570     -19.500  -6.345 -13.794  1.00 32.92     0.043 C 
BRANCH  15  16
ATOM     16  CG  GLU D 570     -20.445  -5.546 -12.972  1.00 32.92     0.100 C 
BRANCH  16  17
ATOM     17  CD  GLU D 570     -21.635  -5.047 -13.759  1.00 32.92     0.185 C 
ATOM     18  OE1 GLU D 570     -21.498  -4.802 -14.973  1.00 32.92    -0.647 OA
ATOM     19  OE2 GLU D 570     -22.711  -4.884 -13.151  1.00 32.92    -0.647 OA
ENDBRANCH  16  17
ENDBRANCH  15  16
ENDBRANCH  14  15
END_RES GLU D 570
ENDMDL
