MODEL 1
REMARK VINA RESULT:      -9.2      0.000      0.000
REMARK  4 active torsions:
REMARK  status: ('A' for Active; 'I' for Inactive)
REMARK    1  A    between atoms: C_2  and  C_14 
REMARK    2  A    between atoms: C_6  and  O_13 
REMARK    3  A    between atoms: C_8  and  O_12 
REMARK    4  A    between atoms: C_17  and  O_20 
ROOT
HETATM    1  C   UNL     1     -22.763  -5.642 -13.894  1.00  0.00     0.121 C 
HETATM    2  C   UNL     1     -22.137  -4.586 -12.998  1.00  0.00     0.169 C 
HETATM    3  O   UNL     1     -22.131  -3.314 -13.676  1.00  0.00    -0.340 OA
HETATM    4  C   UNL     1     -23.360  -2.918 -14.139  1.00  0.00     0.089 A 
HETATM    5  C   UNL     1     -23.494  -1.547 -14.377  1.00  0.00     0.074 A 
HETATM    6  C   UNL     1     -24.721  -1.046 -14.793  1.00  0.00     0.071 A 
HETATM    7  C   UNL     1     -25.813  -1.889 -14.971  1.00  0.00     0.074 A 
HETATM    8  C   UNL     1     -25.669  -3.262 -14.762  1.00  0.00     0.085 A 
HETATM    9  C   UNL     1     -24.432  -3.790 -14.371  1.00  0.00     0.076 A 
HETATM   10  C   UNL     1     -24.176  -5.247 -14.224  1.00  0.00     0.167 C 
HETATM   11  O   UNL     1     -25.030  -6.108 -14.408  1.00  0.00    -0.292 OA
ENDROOT
BRANCH   2  12
HETATM   12  C   UNL     1     -22.655  -4.454 -11.566  1.00  0.00    -0.028 A 
HETATM   13  C   UNL     1     -23.869  -5.016 -11.135  1.00  0.00     0.012 A 
HETATM   14  C   UNL     1     -24.285  -4.902  -9.804  1.00  0.00     0.037 A 
HETATM   15  C   UNL     1     -23.485  -4.230  -8.891  1.00  0.00     0.065 A 
HETATM   16  C   UNL     1     -22.282  -3.665  -9.287  1.00  0.00     0.037 A 
HETATM   17  C   UNL     1     -21.868  -3.776 -10.617  1.00  0.00     0.012 A 
BRANCH  15  18
HETATM   18  O   UNL     1     -23.850  -4.110  -7.583  1.00  0.00    -0.361 OA
HETATM   19  H   UNL     1     -23.047  -4.114  -7.037  1.00  0.00     0.217 HD
ENDBRANCH  15  18
ENDBRANCH   2  12
BRANCH   8  20
HETATM   20  O   UNL     1     -26.754  -4.070 -14.943  1.00  0.00    -0.360 OA
HETATM   21  H   UNL     1     -27.530  -3.539 -15.182  1.00  0.00     0.217 HD
ENDBRANCH   8  20
BRANCH   6  22
HETATM   22  O   UNL     1     -24.903   0.283 -15.032  1.00  0.00    -0.361 OA
HETATM   23  H   UNL     1     -25.057   0.738 -14.186  1.00  0.00     0.217 HD
ENDBRANCH   6  22
TORSDOF 4
BEGIN_RES ARG D 557
REMARK  4 active torsions:
REMARK  status: ('A' for Active; 'I' for Inactive)
REMARK    1  A    between atoms: CA   and  CB  
REMARK    2  A    between atoms: CB   and  CG  
REMARK    3  A    between atoms: CG   and  CD  
REMARK    4  A    between atoms: CD   and  NE  
REMARK       I    between atoms: NE   and  CZ  
REMARK       I    between atoms: CZ   and  NH1 
REMARK       I    between atoms: CZ   and  NH2 
ROOT
ATOM      1  CA  ARG D 557     -26.217   2.705 -17.014  1.00 35.49     0.159 C 
ENDROOT
BRANCH   1   2
ATOM      2  CB  ARG D 557     -26.789   1.319 -17.183  1.00 35.49     0.034 C 
BRANCH   2   3
ATOM      3  CG  ARG D 557     -28.097   1.064 -16.567  1.00 35.49     0.027 C 
BRANCH   3   4
ATOM      4  CD  ARG D 557     -28.891   0.066 -17.320  1.00 35.49     0.116 C 
BRANCH   4   5
ATOM      5  NE  ARG D 557     -28.357  -1.264 -17.186  1.00 35.49    -0.212 N 
ATOM      6  CZ  ARG D 557     -29.048  -2.379 -17.259  1.00 35.49     0.666 C 
ATOM      7  NH1 ARG D 557     -30.354  -2.393 -17.457  1.00 35.49    -0.235 N 
ATOM      8  NH2 ARG D 557     -28.396  -3.498 -17.136  1.00 35.49    -0.235 N 
ATOM      9  HH  ARG D 557     -30.803  -1.668 -17.543  1.00 35.49     0.174 HD
ATOM     10  HH  ARG D 557     -30.751  -3.151 -17.499  1.00 35.49     0.174 HD
ATOM     11  HH  ARG D 557     -27.553  -3.459 -17.016  1.00 35.49     0.174 HD
ATOM     12  HH  ARG D 557     -28.807  -4.239 -17.181  1.00 35.49     0.174 HD
ATOM     13  HE  ARG D 557     -27.535  -1.346 -16.984  1.00 35.49     0.178 HD
ENDBRANCH   4   5
ENDBRANCH   3   4
ENDBRANCH   2   3
ENDBRANCH   1   2
END_RES ARG D 557
BEGIN_RES GLU D 570
REMARK  3 active torsions:
REMARK  status: ('A' for Active; 'I' for Inactive)
REMARK    5  A    between atoms: CA   and  CB  
REMARK    6  A    between atoms: CB   and  CG  
REMARK    7  A    between atoms: CG   and  CD  
ROOT
ATOM     14  CA  GLU D 570     -18.033  -6.348 -13.375  1.00 32.92     0.160 C 
ENDROOT
BRANCH  14  15
ATOM     15  CB  GLU D 570     -19.500  -6.345 -13.794  1.00 32.92     0.043 C 
BRANCH  15  16
ATOM     16  CG  GLU D 570     -20.018  -7.555 -14.483  1.00 32.92     0.100 C 
BRANCH  16  17
ATOM     17  CD  GLU D 570     -20.626  -7.251 -15.832  1.00 32.92     0.185 C 
ATOM     18  OE1 GLU D 570     -20.281  -6.215 -16.432  1.00 32.92    -0.647 OA
ATOM     19  OE2 GLU D 570     -21.470  -8.048 -16.286  1.00 32.92    -0.647 OA
ENDBRANCH  16  17
ENDBRANCH  15  16
ENDBRANCH  14  15
END_RES GLU D 570
ENDMDL
MODEL 2
REMARK VINA RESULT:      -8.4      2.849      4.844
REMARK  4 active torsions:
REMARK  status: ('A' for Active; 'I' for Inactive)
REMARK    1  A    between atoms: C_2  and  C_14 
REMARK    2  A    between atoms: C_6  and  O_13 
REMARK    3  A    between atoms: C_8  and  O_12 
REMARK    4  A    between atoms: C_17  and  O_20 
ROOT
HETATM    1  C   UNL     1     -19.680  -3.733  -8.467  1.00  0.00     0.121 C 
HETATM    2  C   UNL     1     -20.568  -3.852  -7.239  1.00  0.00     0.169 C 
HETATM    3  O   UNL     1     -21.811  -3.160  -7.469  1.00  0.00    -0.340 OA
HETATM    4  C   UNL     1     -22.470  -3.551  -8.607  1.00  0.00     0.089 A 
HETATM    5  C   UNL     1     -23.838  -3.265  -8.632  1.00  0.00     0.074 A 
HETATM    6  C   UNL     1     -24.599  -3.675  -9.720  1.00  0.00     0.071 A 
HETATM    7  C   UNL     1     -24.017  -4.366 -10.777  1.00  0.00     0.074 A 
HETATM    8  C   UNL     1     -22.644  -4.623 -10.764  1.00  0.00     0.085 A 
HETATM    9  C   UNL     1     -21.856  -4.192  -9.691  1.00  0.00     0.076 A 
HETATM   10  C   UNL     1     -20.377  -4.343  -9.651  1.00  0.00     0.167 C 
HETATM   11  O   UNL     1     -19.726  -4.879 -10.542  1.00  0.00    -0.292 OA
ENDROOT
BRANCH   2  12
HETATM   12  C   UNL     1     -20.803  -5.242  -6.649  1.00  0.00    -0.028 A 
HETATM   13  C   UNL     1     -19.842  -6.266  -6.694  1.00  0.00     0.012 A 
HETATM   14  C   UNL     1     -20.088  -7.512  -6.107  1.00  0.00     0.037 A 
HETATM   15  C   UNL     1     -21.294  -7.740  -5.461  1.00  0.00     0.065 A 
HETATM   16  C   UNL     1     -22.262  -6.749  -5.400  1.00  0.00     0.037 A 
HETATM   17  C   UNL     1     -22.018  -5.505  -5.990  1.00  0.00     0.012 A 
BRANCH  15  18
HETATM   18  O   UNL     1     -21.564  -8.936  -4.865  1.00  0.00    -0.361 OA
HETATM   19  H   UNL     1     -22.473  -9.194  -5.089  1.00  0.00     0.217 HD
ENDBRANCH  15  18
ENDBRANCH   2  12
BRANCH   8  20
HETATM   20  O   UNL     1     -22.095  -5.303 -11.813  1.00  0.00    -0.360 OA
HETATM   21  H   UNL     1     -21.841  -6.198 -11.535  1.00  0.00     0.217 HD
ENDBRANCH   8  20
BRANCH   6  22
HETATM   22  O   UNL     1     -25.936  -3.426  -9.788  1.00  0.00    -0.361 OA
HETATM   23  H   UNL     1     -26.257  -3.660 -10.675  1.00  0.00     0.217 HD
ENDBRANCH   6  22
TORSDOF 4
BEGIN_RES ARG D 557
REMARK  4 active torsions:
REMARK  status: ('A' for Active; 'I' for Inactive)
REMARK    1  A    between atoms: CA   and  CB  
REMARK    2  A    between atoms: CB   and  CG  
REMARK    3  A    between atoms: CG   and  CD  
REMARK    4  A    between atoms: CD   and  NE  
REMARK       I    between atoms: NE   and  CZ  
REMARK       I    between atoms: CZ   and  NH1 
REMARK       I    between atoms: CZ   and  NH2 
ROOT
ATOM      1  CA  ARG D 557     -26.217   2.705 -17.014  1.00 35.49     0.159 C 
ENDROOT
BRANCH   1   2
ATOM      2  CB  ARG D 557     -26.789   1.319 -17.183  1.00 35.49     0.034 C 
BRANCH   2   3
ATOM      3  CG  ARG D 557     -28.233   1.226 -17.430  1.00 35.49     0.027 C 
BRANCH   3   4
ATOM      4  CD  ARG D 557     -28.907   0.297 -16.494  1.00 35.49     0.116 C 
BRANCH   4   5
ATOM      5  NE  ARG D 557     -29.296  -0.932 -17.135  1.00 35.49    -0.212 N 
ATOM      6  CZ  ARG D 557     -28.670  -2.083 -17.033  1.00 35.49     0.666 C 
ATOM      7  NH1 ARG D 557     -27.572  -2.232 -16.316  1.00 35.49    -0.235 N 
ATOM      8  NH2 ARG D 557     -29.177  -3.100 -17.667  1.00 35.49    -0.235 N 
ATOM      9  HH  ARG D 557     -27.222  -1.577 -15.888  1.00 35.49     0.174 HD
ATOM     10  HH  ARG D 557     -27.209  -3.007 -16.284  1.00 35.49     0.174 HD
ATOM     11  HH  ARG D 557     -29.891  -2.976 -18.116  1.00 35.49     0.174 HD
ATOM     12  HH  ARG D 557     -28.804  -3.860 -17.622  1.00 35.49     0.174 HD
ATOM     13  HE  ARG D 557     -29.952  -0.910 -17.675  1.00 35.49     0.178 HD
ENDBRANCH   4   5
ENDBRANCH   3   4
ENDBRANCH   2   3
ENDBRANCH   1   2
END_RES ARG D 557
BEGIN_RES GLU D 570
REMARK  3 active torsions:
REMARK  status: ('A' for Active; 'I' for Inactive)
REMARK    5  A    between atoms: CA   and  CB  
REMARK    6  A    between atoms: CB   and  CG  
REMARK    7  A    between atoms: CG   and  CD  
ROOT
ATOM     14  CA  GLU D 570     -18.033  -6.348 -13.375  1.00 32.92     0.160 C 
ENDROOT
BRANCH  14  15
ATOM     15  CB  GLU D 570     -19.500  -6.345 -13.794  1.00 32.92     0.043 C 
BRANCH  15  16
ATOM     16  CG  GLU D 570     -19.810  -5.969 -15.198  1.00 32.92     0.100 C 
BRANCH  16  17
ATOM     17  CD  GLU D 570     -21.269  -5.635 -15.410  1.00 32.92     0.185 C 
ATOM     18  OE1 GLU D 570     -21.584  -4.858 -16.331  1.00 32.92    -0.647 OA
ATOM     19  OE2 GLU D 570     -22.103  -6.144 -14.636  1.00 32.92    -0.647 OA
ENDBRANCH  16  17
ENDBRANCH  15  16
ENDBRANCH  14  15
END_RES GLU D 570
ENDMDL
MODEL 3
REMARK VINA RESULT:      -8.1      3.152      5.175
REMARK  4 active torsions:
REMARK  status: ('A' for Active; 'I' for Inactive)
REMARK    1  A    between atoms: C_2  and  C_14 
REMARK    2  A    between atoms: C_6  and  O_13 
REMARK    3  A    between atoms: C_8  and  O_12 
REMARK    4  A    between atoms: C_17  and  O_20 
ROOT
HETATM    1  C   UNL     1     -19.690  -3.724  -8.495  1.00  0.00     0.121 C 
HETATM    2  C   UNL     1     -20.572  -3.843  -7.263  1.00  0.00     0.169 C 
HETATM    3  O   UNL     1     -21.818  -3.156  -7.488  1.00  0.00    -0.340 OA
HETATM    4  C   UNL     1     -22.481  -3.551  -8.622  1.00  0.00     0.089 A 
HETATM    5  C   UNL     1     -23.850  -3.270  -8.642  1.00  0.00     0.074 A 
HETATM    6  C   UNL     1     -24.614  -3.685  -9.725  1.00  0.00     0.071 A 
HETATM    7  C   UNL     1     -24.035  -4.376 -10.784  1.00  0.00     0.074 A 
HETATM    8  C   UNL     1     -22.662  -4.628 -10.777  1.00  0.00     0.085 A 
HETATM    9  C   UNL     1     -21.870  -4.193  -9.708  1.00  0.00     0.076 A 
HETATM   10  C   UNL     1     -20.390  -4.338  -9.675  1.00  0.00     0.167 C 
HETATM   11  O   UNL     1     -19.741  -4.873 -10.568  1.00  0.00    -0.292 OA
ENDROOT
BRANCH   2  12
HETATM   12  C   UNL     1     -20.799  -5.233  -6.669  1.00  0.00    -0.028 A 
HETATM   13  C   UNL     1     -19.834  -6.254  -6.716  1.00  0.00     0.012 A 
HETATM   14  C   UNL     1     -20.073  -7.500  -6.125  1.00  0.00     0.037 A 
HETATM   15  C   UNL     1     -21.276  -7.731  -5.475  1.00  0.00     0.065 A 
HETATM   16  C   UNL     1     -22.247  -6.743  -5.412  1.00  0.00     0.037 A 
HETATM   17  C   UNL     1     -22.011  -5.499  -6.004  1.00  0.00     0.012 A 
BRANCH  15  18
HETATM   18  O   UNL     1     -21.539  -8.927  -4.876  1.00  0.00    -0.361 OA
HETATM   19  H   UNL     1     -20.786  -9.159  -4.308  1.00  0.00     0.217 HD
ENDBRANCH  15  18
ENDBRANCH   2  12
BRANCH   8  20
HETATM   20  O   UNL     1     -22.115  -5.308 -11.827  1.00  0.00    -0.360 OA
HETATM   21  H   UNL     1     -21.335  -5.806 -11.533  1.00  0.00     0.217 HD
ENDBRANCH   8  20
BRANCH   6  22
HETATM   22  O   UNL     1     -25.953  -3.441  -9.787  1.00  0.00    -0.361 OA
HETATM   23  H   UNL     1     -26.278  -3.678 -10.672  1.00  0.00     0.217 HD
ENDBRANCH   6  22
TORSDOF 4
BEGIN_RES ARG D 557
REMARK  4 active torsions:
REMARK  status: ('A' for Active; 'I' for Inactive)
REMARK    1  A    between atoms: CA   and  CB  
REMARK    2  A    between atoms: CB   and  CG  
REMARK    3  A    between atoms: CG   and  CD  
REMARK    4  A    between atoms: CD   and  NE  
REMARK       I    between atoms: NE   and  CZ  
REMARK       I    between atoms: CZ   and  NH1 
REMARK       I    between atoms: CZ   and  NH2 
ROOT
ATOM      1  CA  ARG D 557     -26.217   2.705 -17.014  1.00 35.49     0.159 C 
ENDROOT
BRANCH   1   2
ATOM      2  CB  ARG D 557     -26.789   1.319 -17.183  1.00 35.49     0.034 C 
BRANCH   2   3
ATOM      3  CG  ARG D 557     -25.865   0.195 -16.988  1.00 35.49     0.027 C 
BRANCH   3   4
ATOM      4  CD  ARG D 557     -26.275  -0.685 -15.869  1.00 35.49     0.116 C 
BRANCH   4   5
ATOM      5  NE  ARG D 557     -25.210  -0.891 -14.924  1.00 35.49    -0.212 N 
ATOM      6  CZ  ARG D 557     -24.902  -2.032 -14.350  1.00 35.49     0.666 C 
ATOM      7  NH1 ARG D 557     -25.573  -3.146 -14.581  1.00 35.49    -0.235 N 
ATOM      8  NH2 ARG D 557     -23.890  -2.039 -13.532  1.00 35.49    -0.235 N 
ATOM      9  HH  ARG D 557     -26.241  -3.164 -15.117  1.00 35.49     0.174 HD
ATOM     10  HH  ARG D 557     -25.325  -3.861 -14.180  1.00 35.49     0.174 HD
ATOM     11  HH  ARG D 557     -23.470  -1.307 -13.408  1.00 35.49     0.174 HD
ATOM     12  HH  ARG D 557     -23.658  -2.758 -13.146  1.00 35.49     0.174 HD
ATOM     13  HE  ARG D 557     -24.771  -0.211 -14.662  1.00 35.49     0.178 HD
ENDBRANCH   4   5
ENDBRANCH   3   4
ENDBRANCH   2   3
ENDBRANCH   1   2
END_RES ARG D 557
BEGIN_RES GLU D 570
REMARK  3 active torsions:
REMARK  status: ('A' for Active; 'I' for Inactive)
REMARK    5  A    between atoms: CA   and  CB  
REMARK    6  A    between atoms: CB   and  CG  
REMARK    7  A    between atoms: CG   and  CD  
ROOT
ATOM     14  CA  GLU D 570     -18.033  -6.348 -13.375  1.00 32.92     0.160 C 
ENDROOT
BRANCH  14  15
ATOM     15  CB  GLU D 570     -19.500  -6.345 -13.794  1.00 32.92     0.043 C 
BRANCH  15  16
ATOM     16  CG  GLU D 570     -20.086  -7.634 -14.243  1.00 32.92     0.100 C 
BRANCH  16  17
ATOM     17  CD  GLU D 570     -21.180  -7.458 -15.270  1.00 32.92     0.185 C 
ATOM     18  OE1 GLU D 570     -21.105  -8.082 -16.347  1.00 32.92    -0.647 OA
ATOM     19  OE2 GLU D 570     -22.113  -6.676 -15.003  1.00 32.92    -0.647 OA
ENDBRANCH  16  17
ENDBRANCH  15  16
ENDBRANCH  14  15
END_RES GLU D 570
ENDMDL
MODEL 4
REMARK VINA RESULT:      -7.5      8.732     11.872
REMARK  4 active torsions:
REMARK  status: ('A' for Active; 'I' for Inactive)
REMARK    1  A    between atoms: C_2  and  C_14 
REMARK    2  A    between atoms: C_6  and  O_13 
REMARK    3  A    between atoms: C_8  and  O_12 
REMARK    4  A    between atoms: C_17  and  O_20 
ROOT
HETATM    1  C   UNL     1     -19.425 -11.059   0.129  1.00  0.00     0.121 C 
HETATM    2  C   UNL     1     -20.795 -10.898   0.768  1.00  0.00     0.169 C 
HETATM    3  O   UNL     1     -21.156  -9.503   0.800  1.00  0.00    -0.340 OA
HETATM    4  C   UNL     1     -21.092  -8.877  -0.419  1.00  0.00     0.089 A 
HETATM    5  C   UNL     1     -21.844  -7.705  -0.528  1.00  0.00     0.074 A 
HETATM    6  C   UNL     1     -21.886  -7.034  -1.744  1.00  0.00     0.071 A 
HETATM    7  C   UNL     1     -21.193  -7.516  -2.849  1.00  0.00     0.074 A 
HETATM    8  C   UNL     1     -20.417  -8.671  -2.730  1.00  0.00     0.085 A 
HETATM    9  C   UNL     1     -20.339  -9.345  -1.505  1.00  0.00     0.076 A 
HETATM   10  C   UNL     1     -19.460 -10.522  -1.275  1.00  0.00     0.167 C 
HETATM   11  O   UNL     1     -18.748 -11.017  -2.143  1.00  0.00    -0.292 OA
ENDROOT
BRANCH   2  12
HETATM   12  C   UNL     1     -21.942 -11.761   0.243  1.00  0.00    -0.028 A 
HETATM   13  C   UNL     1     -23.164 -11.226  -0.197  1.00  0.00     0.012 A 
HETATM   14  C   UNL     1     -24.173 -12.052  -0.705  1.00  0.00     0.037 A 
HETATM   15  C   UNL     1     -23.963 -13.421  -0.784  1.00  0.00     0.065 A 
HETATM   16  C   UNL     1     -22.767 -13.979  -0.357  1.00  0.00     0.037 A 
HETATM   17  C   UNL     1     -21.760 -13.154   0.153  1.00  0.00     0.012 A 
BRANCH  15  18
HETATM   18  O   UNL     1     -24.916 -14.256  -1.286  1.00  0.00    -0.361 OA
HETATM   19  H   UNL     1     -24.992 -14.099  -2.241  1.00  0.00     0.217 HD
ENDBRANCH  15  18
ENDBRANCH   2  12
BRANCH   8  20
HETATM   20  O   UNL     1     -19.745  -9.125  -3.827  1.00  0.00    -0.360 OA
HETATM   21  H   UNL     1     -20.095  -8.707  -4.630  1.00  0.00     0.217 HD
ENDBRANCH   8  20
BRANCH   6  22
HETATM   22  O   UNL     1     -22.610  -5.890  -1.901  1.00  0.00    -0.361 OA
HETATM   23  H   UNL     1     -22.553  -5.364  -1.086  1.00  0.00     0.217 HD
ENDBRANCH   6  22
TORSDOF 4
BEGIN_RES ARG D 557
REMARK  4 active torsions:
REMARK  status: ('A' for Active; 'I' for Inactive)
REMARK    1  A    between atoms: CA   and  CB  
REMARK    2  A    between atoms: CB   and  CG  
REMARK    3  A    between atoms: CG   and  CD  
REMARK    4  A    between atoms: CD   and  NE  
REMARK       I    between atoms: NE   and  CZ  
REMARK       I    between atoms: CZ   and  NH1 
REMARK       I    between atoms: CZ   and  NH2 
ROOT
ATOM      1  CA  ARG D 557     -26.217   2.705 -17.014  1.00 35.49     0.159 C 
ENDROOT
BRANCH   1   2
ATOM      2  CB  ARG D 557     -26.789   1.319 -17.183  1.00 35.49     0.034 C 
BRANCH   2   3
ATOM      3  CG  ARG D 557     -25.835   0.204 -17.166  1.00 35.49     0.027 C 
BRANCH   3   4
ATOM      4  CD  ARG D 557     -24.745   0.409 -16.185  1.00 35.49     0.116 C 
BRANCH   4   5
ATOM      5  NE  ARG D 557     -24.893  -0.433 -15.027  1.00 35.49    -0.212 N 
ATOM      6  CZ  ARG D 557     -24.078  -1.402 -14.672  1.00 35.49     0.666 C 
ATOM      7  NH1 ARG D 557     -23.009  -1.723 -15.377  1.00 35.49    -0.235 N 
ATOM      8  NH2 ARG D 557     -24.356  -2.048 -13.577  1.00 35.49    -0.235 N 
ATOM      9  HH  ARG D 557     -22.806  -1.309 -16.099  1.00 35.49     0.174 HD
ATOM     10  HH  ARG D 557     -22.513  -2.362 -15.095  1.00 35.49     0.174 HD
ATOM     11  HH  ARG D 557     -25.049  -1.814 -13.139  1.00 35.49     0.174 HD
ATOM     12  HH  ARG D 557     -23.852  -2.677 -13.314  1.00 35.49     0.174 HD
ATOM     13  HE  ARG D 557     -25.594  -0.343 -14.555  1.00 35.49     0.178 HD
ENDBRANCH   4   5
ENDBRANCH   3   4
ENDBRANCH   2   3
ENDBRANCH   1   2
END_RES ARG D 557
BEGIN_RES GLU D 570
REMARK  3 active torsions:
REMARK  status: ('A' for Active; 'I' for Inactive)
REMARK    5  A    between atoms: CA   and  CB  
REMARK    6  A    between atoms: CB   and  CG  
REMARK    7  A    between atoms: CG   and  CD  
ROOT
ATOM     14  CA  GLU D 570     -18.033  -6.348 -13.375  1.00 32.92     0.160 C 
ENDROOT
BRANCH  14  15
ATOM     15  CB  GLU D 570     -19.500  -6.345 -13.794  1.00 32.92     0.043 C 
BRANCH  15  16
ATOM     16  CG  GLU D 570     -20.441  -5.526 -12.987  1.00 32.92     0.100 C 
BRANCH  16  17
ATOM     17  CD  GLU D 570     -21.743  -5.250 -13.701  1.00 32.92     0.185 C 
ATOM     18  OE1 GLU D 570     -22.320  -4.162 -13.508  1.00 32.92    -0.647 OA
ATOM     19  OE2 GLU D 570     -22.201  -6.137 -14.448  1.00 32.92    -0.647 OA
ENDBRANCH  16  17
ENDBRANCH  15  16
ENDBRANCH  14  15
END_RES GLU D 570
ENDMDL
MODEL 5
REMARK VINA RESULT:      -7.4     12.091     13.720
REMARK  4 active torsions:
REMARK  status: ('A' for Active; 'I' for Inactive)
REMARK    1  A    between atoms: C_2  and  C_14 
REMARK    2  A    between atoms: C_6  and  O_13 
REMARK    3  A    between atoms: C_8  and  O_12 
REMARK    4  A    between atoms: C_17  and  O_20 
ROOT
HETATM    1  C   UNL     1     -24.679   6.355  -2.707  1.00  0.00     0.121 C 
HETATM    2  C   UNL     1     -23.660   6.811  -1.676  1.00  0.00     0.169 C 
HETATM    3  O   UNL     1     -22.537   7.424  -2.340  1.00  0.00    -0.340 OA
HETATM    4  C   UNL     1     -22.876   8.440  -3.198  1.00  0.00     0.089 A 
HETATM    5  C   UNL     1     -21.847   9.336  -3.497  1.00  0.00     0.074 A 
HETATM    6  C   UNL     1     -22.113  10.430  -4.311  1.00  0.00     0.071 A 
HETATM    7  C   UNL     1     -23.387  10.642  -4.827  1.00  0.00     0.074 A 
HETATM    8  C   UNL     1     -24.406   9.729  -4.552  1.00  0.00     0.085 A 
HETATM    9  C   UNL     1     -24.151   8.605  -3.757  1.00  0.00     0.076 A 
HETATM   10  C   UNL     1     -25.156   7.540  -3.501  1.00  0.00     0.167 C 
HETATM   11  O   UNL     1     -26.300   7.567  -3.942  1.00  0.00    -0.292 OA
ENDROOT
BRANCH   2  12
HETATM   12  C   UNL     1     -24.149   7.663  -0.505  1.00  0.00    -0.028 A 
HETATM   13  C   UNL     1     -25.510   7.863  -0.218  1.00  0.00     0.012 A 
HETATM   14  C   UNL     1     -25.911   8.620   0.888  1.00  0.00     0.037 A 
HETATM   15  C   UNL     1     -24.952   9.176   1.723  1.00  0.00     0.065 A 
HETATM   16  C   UNL     1     -23.601   8.996   1.465  1.00  0.00     0.037 A 
HETATM   17  C   UNL     1     -23.200   8.242   0.358  1.00  0.00     0.012 A 
BRANCH  15  18
HETATM   18  O   UNL     1     -25.304   9.908   2.817  1.00  0.00    -0.361 OA
HETATM   19  H   UNL     1     -24.528  10.412   3.113  1.00  0.00     0.217 HD
ENDBRANCH  15  18
ENDBRANCH   2  12
BRANCH   8  20
HETATM   20  O   UNL     1     -25.649   9.957  -5.069  1.00  0.00    -0.360 OA
HETATM   21  H   UNL     1     -25.614  10.679  -5.716  1.00  0.00     0.217 HD
ENDBRANCH   8  20
BRANCH   6  22
HETATM   22  O   UNL     1     -21.144  11.335  -4.626  1.00  0.00    -0.361 OA
HETATM   23  H   UNL     1     -20.589  10.970  -5.336  1.00  0.00     0.217 HD
ENDBRANCH   6  22
TORSDOF 4
BEGIN_RES ARG D 557
REMARK  4 active torsions:
REMARK  status: ('A' for Active; 'I' for Inactive)
REMARK    1  A    between atoms: CA   and  CB  
REMARK    2  A    between atoms: CB   and  CG  
REMARK    3  A    between atoms: CG   and  CD  
REMARK    4  A    between atoms: CD   and  NE  
REMARK       I    between atoms: NE   and  CZ  
REMARK       I    between atoms: CZ   and  NH1 
REMARK       I    between atoms: CZ   and  NH2 
ROOT
ATOM      1  CA  ARG D 557     -26.217   2.705 -17.014  1.00 35.49     0.159 C 
ENDROOT
BRANCH   1   2
ATOM      2  CB  ARG D 557     -26.789   1.319 -17.183  1.00 35.49     0.034 C 
BRANCH   2   3
ATOM      3  CG  ARG D 557     -25.835   0.204 -17.166  1.00 35.49     0.027 C 
BRANCH   3   4
ATOM      4  CD  ARG D 557     -24.749   0.405 -16.179  1.00 35.49     0.116 C 
BRANCH   4   5
ATOM      5  NE  ARG D 557     -24.901  -0.441 -15.025  1.00 35.49    -0.212 N 
ATOM      6  CZ  ARG D 557     -24.090  -1.414 -14.674  1.00 35.49     0.666 C 
ATOM      7  NH1 ARG D 557     -23.020  -1.734 -15.378  1.00 35.49    -0.235 N 
ATOM      8  NH2 ARG D 557     -24.371  -2.066 -13.583  1.00 35.49    -0.235 N 
ATOM      9  HH  ARG D 557     -22.815  -1.317 -16.098  1.00 35.49     0.174 HD
ATOM     10  HH  ARG D 557     -22.526  -2.376 -15.099  1.00 35.49     0.174 HD
ATOM     11  HH  ARG D 557     -25.064  -1.832 -13.144  1.00 35.49     0.174 HD
ATOM     12  HH  ARG D 557     -23.868  -2.697 -13.322  1.00 35.49     0.174 HD
ATOM     13  HE  ARG D 557     -25.603  -0.352 -14.554  1.00 35.49     0.178 HD
ENDBRANCH   4   5
ENDBRANCH   3   4
ENDBRANCH   2   3
ENDBRANCH   1   2
END_RES ARG D 557
BEGIN_RES GLU D 570
REMARK  3 active torsions:
REMARK  status: ('A' for Active; 'I' for Inactive)
REMARK    5  A    between atoms: CA   and  CB  
REMARK    6  A    between atoms: CB   and  CG  
REMARK    7  A    between atoms: CG   and  CD  
ROOT
ATOM     14  CA  GLU D 570     -18.033  -6.348 -13.375  1.00 32.92     0.160 C 
ENDROOT
BRANCH  14  15
ATOM     15  CB  GLU D 570     -19.500  -6.345 -13.794  1.00 32.92     0.043 C 
BRANCH  15  16
ATOM     16  CG  GLU D 570     -20.441  -5.527 -12.986  1.00 32.92     0.100 C 
BRANCH  16  17
ATOM     17  CD  GLU D 570     -21.746  -5.255 -13.698  1.00 32.92     0.185 C 
ATOM     18  OE1 GLU D 570     -22.311  -4.158 -13.527  1.00 32.92    -0.647 OA
ATOM     19  OE2 GLU D 570     -22.216  -6.155 -14.420  1.00 32.92    -0.647 OA
ENDBRANCH  16  17
ENDBRANCH  15  16
ENDBRANCH  14  15
END_RES GLU D 570
ENDMDL
MODEL 6
REMARK VINA RESULT:      -7.4      6.676      9.831
REMARK  4 active torsions:
REMARK  status: ('A' for Active; 'I' for Inactive)
REMARK    1  A    between atoms: C_2  and  C_14 
REMARK    2  A    between atoms: C_6  and  O_13 
REMARK    3  A    between atoms: C_8  and  O_12 
REMARK    4  A    between atoms: C_17  and  O_20 
ROOT
HETATM    1  C   UNL     1     -18.871  -8.979  -5.190  1.00  0.00     0.121 C 
HETATM    2  C   UNL     1     -19.277 -10.110  -4.260  1.00  0.00     0.169 C 
HETATM    3  O   UNL     1     -19.458  -9.601  -2.923  1.00  0.00    -0.340 OA
HETATM    4  C   UNL     1     -20.326  -8.542  -2.838  1.00  0.00     0.089 A 
HETATM    5  C   UNL     1     -20.874  -8.321  -1.572  1.00  0.00     0.074 A 
HETATM    6  C   UNL     1     -21.807  -7.306  -1.402  1.00  0.00     0.071 A 
HETATM    7  C   UNL     1     -22.203  -6.514  -2.475  1.00  0.00     0.074 A 
HETATM    8  C   UNL     1     -21.632  -6.717  -3.733  1.00  0.00     0.085 A 
HETATM    9  C   UNL     1     -20.668  -7.716  -3.917  1.00  0.00     0.076 A 
HETATM   10  C   UNL     1     -19.946  -7.927  -5.200  1.00  0.00     0.167 C 
HETATM   11  O   UNL     1     -20.150  -7.263  -6.210  1.00  0.00    -0.292 OA
ENDROOT
BRANCH   2  12
HETATM   12  C   UNL     1     -20.441 -11.007  -4.678  1.00  0.00    -0.028 A 
HETATM   13  C   UNL     1     -21.387 -11.510  -3.769  1.00  0.00     0.012 A 
HETATM   14  C   UNL     1     -22.459 -12.297  -4.205  1.00  0.00     0.037 A 
HETATM   15  C   UNL     1     -22.598 -12.580  -5.556  1.00  0.00     0.065 A 
HETATM   16  C   UNL     1     -21.681 -12.098  -6.477  1.00  0.00     0.037 A 
HETATM   17  C   UNL     1     -20.608 -11.314  -6.042  1.00  0.00     0.012 A 
BRANCH  15  18
HETATM   18  O   UNL     1     -23.637 -13.331  -6.019  1.00  0.00    -0.361 OA
HETATM   19  H   UNL     1     -23.277 -14.063  -6.545  1.00  0.00     0.217 HD
ENDBRANCH  15  18
ENDBRANCH   2  12
BRANCH   8  20
HETATM   20  O   UNL     1     -22.035  -5.928  -4.771  1.00  0.00    -0.360 OA
HETATM   21  H   UNL     1     -22.625  -5.228  -4.449  1.00  0.00     0.217 HD
ENDBRANCH   8  20
BRANCH   6  22
HETATM   22  O   UNL     1     -22.374  -7.056  -0.189  1.00  0.00    -0.361 OA
HETATM   23  H   UNL     1     -23.106  -6.426  -0.305  1.00  0.00     0.217 HD
ENDBRANCH   6  22
TORSDOF 4
BEGIN_RES ARG D 557
REMARK  4 active torsions:
REMARK  status: ('A' for Active; 'I' for Inactive)
REMARK    1  A    between atoms: CA   and  CB  
REMARK    2  A    between atoms: CB   and  CG  
REMARK    3  A    between atoms: CG   and  CD  
REMARK    4  A    between atoms: CD   and  NE  
REMARK       I    between atoms: NE   and  CZ  
REMARK       I    between atoms: CZ   and  NH1 
REMARK       I    between atoms: CZ   and  NH2 
ROOT
ATOM      1  CA  ARG D 557     -26.217   2.705 -17.014  1.00 35.49     0.159 C 
ENDROOT
BRANCH   1   2
ATOM      2  CB  ARG D 557     -26.789   1.319 -17.183  1.00 35.49     0.034 C 
BRANCH   2   3
ATOM      3  CG  ARG D 557     -25.836   0.203 -17.157  1.00 35.49     0.027 C 
BRANCH   3   4
ATOM      4  CD  ARG D 557     -24.755   0.407 -16.166  1.00 35.49     0.116 C 
BRANCH   4   5
ATOM      5  NE  ARG D 557     -24.907  -0.443 -15.015  1.00 35.49    -0.212 N 
ATOM      6  CZ  ARG D 557     -24.095  -1.415 -14.665  1.00 35.49     0.666 C 
ATOM      7  NH1 ARG D 557     -23.024  -1.732 -15.368  1.00 35.49    -0.235 N 
ATOM      8  NH2 ARG D 557     -24.377  -2.070 -13.576  1.00 35.49    -0.235 N 
ATOM      9  HH  ARG D 557     -22.818  -1.313 -16.087  1.00 35.49     0.174 HD
ATOM     10  HH  ARG D 557     -22.529  -2.374 -15.090  1.00 35.49     0.174 HD
ATOM     11  HH  ARG D 557     -25.071  -1.838 -13.138  1.00 35.49     0.174 HD
ATOM     12  HH  ARG D 557     -23.874  -2.701 -13.316  1.00 35.49     0.174 HD
ATOM     13  HE  ARG D 557     -25.610  -0.356 -14.545  1.00 35.49     0.178 HD
ENDBRANCH   4   5
ENDBRANCH   3   4
ENDBRANCH   2   3
ENDBRANCH   1   2
END_RES ARG D 557
BEGIN_RES GLU D 570
REMARK  3 active torsions:
REMARK  status: ('A' for Active; 'I' for Inactive)
REMARK    5  A    between atoms: CA   and  CB  
REMARK    6  A    between atoms: CB   and  CG  
REMARK    7  A    between atoms: CG   and  CD  
ROOT
ATOM     14  CA  GLU D 570     -18.033  -6.348 -13.375  1.00 32.92     0.160 C 
ENDROOT
BRANCH  14  15
ATOM     15  CB  GLU D 570     -19.500  -6.345 -13.794  1.00 32.92     0.043 C 
BRANCH  15  16
ATOM     16  CG  GLU D 570     -20.441  -5.525 -12.987  1.00 32.92     0.100 C 
BRANCH  16  17
ATOM     17  CD  GLU D 570     -21.728  -5.218 -13.715  1.00 32.92     0.185 C 
ATOM     18  OE1 GLU D 570     -22.315  -4.145 -13.480  1.00 32.92    -0.647 OA
ATOM     19  OE2 GLU D 570     -22.164  -6.068 -14.517  1.00 32.92    -0.647 OA
ENDBRANCH  16  17
ENDBRANCH  15  16
ENDBRANCH  14  15
END_RES GLU D 570
ENDMDL
MODEL 7
REMARK VINA RESULT:      -7.3      8.468     12.076
REMARK  4 active torsions:
REMARK  status: ('A' for Active; 'I' for Inactive)
REMARK    1  A    between atoms: C_2  and  C_14 
REMARK    2  A    between atoms: C_6  and  O_13 
REMARK    3  A    between atoms: C_8  and  O_12 
REMARK    4  A    between atoms: C_17  and  O_20 
ROOT
HETATM    1  C   UNL     1     -23.542  -9.613   0.362  1.00  0.00     0.121 C 
HETATM    2  C   UNL     1     -22.252  -8.809   0.380  1.00  0.00     0.169 C 
HETATM    3  O   UNL     1     -21.171  -9.633   0.859  1.00  0.00    -0.340 OA
HETATM    4  C   UNL     1     -21.019 -10.814   0.177  1.00  0.00     0.089 A 
HETATM    5  C   UNL     1     -19.759 -11.408   0.286  1.00  0.00     0.074 A 
HETATM    6  C   UNL     1     -19.495 -12.576  -0.417  1.00  0.00     0.071 A 
HETATM    7  C   UNL     1     -20.465 -13.157  -1.226  1.00  0.00     0.074 A 
HETATM    8  C   UNL     1     -21.733 -12.579  -1.310  1.00  0.00     0.085 A 
HETATM    9  C   UNL     1     -22.028 -11.417  -0.586  1.00  0.00     0.076 A 
HETATM   10  C   UNL     1     -23.381 -10.800  -0.547  1.00  0.00     0.167 C 
HETATM   11  O   UNL     1     -24.345 -11.240  -1.165  1.00  0.00    -0.292 OA
ENDROOT
BRANCH   2  12
HETATM   12  C   UNL     1     -21.857  -8.049  -0.886  1.00  0.00    -0.028 A 
HETATM   13  C   UNL     1     -21.001  -8.582  -1.865  1.00  0.00     0.012 A 
HETATM   14  C   UNL     1     -20.697  -7.864  -3.026  1.00  0.00     0.037 A 
HETATM   15  C   UNL     1     -21.254  -6.609  -3.222  1.00  0.00     0.065 A 
HETATM   16  C   UNL     1     -22.102  -6.056  -2.274  1.00  0.00     0.037 A 
HETATM   17  C   UNL     1     -22.404  -6.772  -1.112  1.00  0.00     0.012 A 
BRANCH  15  18
HETATM   18  O   UNL     1     -20.992  -5.886  -4.347  1.00  0.00    -0.361 OA
HETATM   19  H   UNL     1     -21.685  -6.071  -5.001  1.00  0.00     0.217 HD
ENDBRANCH  15  18
ENDBRANCH   2  12
BRANCH   8  20
HETATM   20  O   UNL     1     -22.670 -13.166  -2.110  1.00  0.00    -0.360 OA
HETATM   21  H   UNL     1     -23.476 -12.625  -2.134  1.00  0.00     0.217 HD
ENDBRANCH   8  20
BRANCH   6  22
HETATM   22  O   UNL     1     -18.280 -13.189  -0.348  1.00  0.00    -0.361 OA
HETATM   23  H   UNL     1     -17.585 -12.538  -0.542  1.00  0.00     0.217 HD
ENDBRANCH   6  22
TORSDOF 4
BEGIN_RES ARG D 557
REMARK  4 active torsions:
REMARK  status: ('A' for Active; 'I' for Inactive)
REMARK    1  A    between atoms: CA   and  CB  
REMARK    2  A    between atoms: CB   and  CG  
REMARK    3  A    between atoms: CG   and  CD  
REMARK    4  A    between atoms: CD   and  NE  
REMARK       I    between atoms: NE   and  CZ  
REMARK       I    between atoms: CZ   and  NH1 
REMARK       I    between atoms: CZ   and  NH2 
ROOT
ATOM      1  CA  ARG D 557     -26.217   2.705 -17.014  1.00 35.49     0.159 C 
ENDROOT
BRANCH   1   2
ATOM      2  CB  ARG D 557     -26.789   1.319 -17.183  1.00 35.49     0.034 C 
BRANCH   2   3
ATOM      3  CG  ARG D 557     -25.835   0.203 -17.158  1.00 35.49     0.027 C 
BRANCH   3   4
ATOM      4  CD  ARG D 557     -24.750   0.410 -16.172  1.00 35.49     0.116 C 
BRANCH   4   5
ATOM      5  NE  ARG D 557     -24.900  -0.435 -15.016  1.00 35.49    -0.212 N 
ATOM      6  CZ  ARG D 557     -24.089  -1.408 -14.666  1.00 35.49     0.666 C 
ATOM      7  NH1 ARG D 557     -23.023  -1.732 -15.374  1.00 35.49    -0.235 N 
ATOM      8  NH2 ARG D 557     -24.368  -2.058 -13.574  1.00 35.49    -0.235 N 
ATOM      9  HH  ARG D 557     -22.819  -1.316 -16.095  1.00 35.49     0.174 HD
ATOM     10  HH  ARG D 557     -22.529  -2.374 -15.095  1.00 35.49     0.174 HD
ATOM     11  HH  ARG D 557     -25.059  -1.822 -13.133  1.00 35.49     0.174 HD
ATOM     12  HH  ARG D 557     -23.866  -2.690 -13.313  1.00 35.49     0.174 HD
ATOM     13  HE  ARG D 557     -25.601  -0.344 -14.543  1.00 35.49     0.178 HD
ENDBRANCH   4   5
ENDBRANCH   3   4
ENDBRANCH   2   3
ENDBRANCH   1   2
END_RES ARG D 557
BEGIN_RES GLU D 570
REMARK  3 active torsions:
REMARK  status: ('A' for Active; 'I' for Inactive)
REMARK    5  A    between atoms: CA   and  CB  
REMARK    6  A    between atoms: CB   and  CG  
REMARK    7  A    between atoms: CG   and  CD  
ROOT
ATOM     14  CA  GLU D 570     -18.033  -6.348 -13.375  1.00 32.92     0.160 C 
ENDROOT
BRANCH  14  15
ATOM     15  CB  GLU D 570     -19.500  -6.345 -13.794  1.00 32.92     0.043 C 
BRANCH  15  16
ATOM     16  CG  GLU D 570     -20.440  -5.524 -12.989  1.00 32.92     0.100 C 
BRANCH  16  17
ATOM     17  CD  GLU D 570     -21.751  -5.266 -13.695  1.00 32.92     0.185 C 
ATOM     18  OE1 GLU D 570     -22.231  -6.155 -14.424  1.00 32.92    -0.647 OA
ATOM     19  OE2 GLU D 570     -22.295  -4.156 -13.530  1.00 32.92    -0.647 OA
ENDBRANCH  16  17
ENDBRANCH  15  16
ENDBRANCH  14  15
END_RES GLU D 570
ENDMDL
MODEL 8
REMARK VINA RESULT:      -7.3      7.693     10.914
REMARK  4 active torsions:
REMARK  status: ('A' for Active; 'I' for Inactive)
REMARK    1  A    between atoms: C_2  and  C_14 
REMARK    2  A    between atoms: C_6  and  O_13 
REMARK    3  A    between atoms: C_8  and  O_12 
REMARK    4  A    between atoms: C_17  and  O_20 
ROOT
HETATM    1  C   UNL     1     -20.226 -10.676  -5.447  1.00  0.00     0.121 C 
HETATM    2  C   UNL     1     -20.879 -10.572  -4.078  1.00  0.00     0.169 C 
HETATM    3  O   UNL     1     -20.145 -11.366  -3.126  1.00  0.00    -0.340 OA
HETATM    4  C   UNL     1     -18.804 -11.078  -3.068  1.00  0.00     0.089 A 
HETATM    5  C   UNL     1     -18.161 -11.468  -1.891  1.00  0.00     0.074 A 
HETATM    6  C   UNL     1     -16.816 -11.166  -1.718  1.00  0.00     0.071 A 
HETATM    7  C   UNL     1     -16.108 -10.480  -2.699  1.00  0.00     0.074 A 
HETATM    8  C   UNL     1     -16.745 -10.118  -3.888  1.00  0.00     0.085 A 
HETATM    9  C   UNL     1     -18.092 -10.440  -4.092  1.00  0.00     0.076 A 
HETATM   10  C   UNL     1     -18.810 -10.175  -5.367  1.00  0.00     0.167 C 
HETATM   11  O   UNL     1     -18.293  -9.631  -6.337  1.00  0.00    -0.292 OA
ENDROOT
BRANCH   2  12
HETATM   12  C   UNL     1     -21.183  -9.179  -3.528  1.00  0.00    -0.028 A 
HETATM   13  C   UNL     1     -21.320  -8.044  -4.345  1.00  0.00     0.012 A 
HETATM   14  C   UNL     1     -21.636  -6.795  -3.799  1.00  0.00     0.037 A 
HETATM   15  C   UNL     1     -21.826  -6.673  -2.430  1.00  0.00     0.065 A 
HETATM   16  C   UNL     1     -21.698  -7.775  -1.598  1.00  0.00     0.037 A 
HETATM   17  C   UNL     1     -21.379  -9.022  -2.143  1.00  0.00     0.012 A 
BRANCH  15  18
HETATM   18  O   UNL     1     -22.149  -5.476  -1.864  1.00  0.00    -0.361 OA
HETATM   19  H   UNL     1     -22.654  -5.646  -1.052  1.00  0.00     0.217 HD
ENDBRANCH  15  18
ENDBRANCH   2  12
BRANCH   8  20
HETATM   20  O   UNL     1     -16.030  -9.446  -4.836  1.00  0.00    -0.360 OA
HETATM   21  H   UNL     1     -16.403  -9.613  -5.716  1.00  0.00     0.217 HD
ENDBRANCH   8  20
BRANCH   6  22
HETATM   22  O   UNL     1     -16.146 -11.519  -0.585  1.00  0.00    -0.361 OA
HETATM   23  H   UNL     1     -15.192 -11.516  -0.768  1.00  0.00     0.217 HD
ENDBRANCH   6  22
TORSDOF 4
BEGIN_RES ARG D 557
REMARK  4 active torsions:
REMARK  status: ('A' for Active; 'I' for Inactive)
REMARK    1  A    between atoms: CA   and  CB  
REMARK    2  A    between atoms: CB   and  CG  
REMARK    3  A    between atoms: CG   and  CD  
REMARK    4  A    between atoms: CD   and  NE  
REMARK       I    between atoms: NE   and  CZ  
REMARK       I    between atoms: CZ   and  NH1 
REMARK       I    between atoms: CZ   and  NH2 
ROOT
ATOM      1  CA  ARG D 557     -26.217   2.705 -17.014  1.00 35.49     0.159 C 
ENDROOT
BRANCH   1   2
ATOM      2  CB  ARG D 557     -26.789   1.319 -17.183  1.00 35.49     0.034 C 
BRANCH   2   3
ATOM      3  CG  ARG D 557     -25.835   0.203 -17.158  1.00 35.49     0.027 C 
BRANCH   3   4
ATOM      4  CD  ARG D 557     -24.755   0.406 -16.166  1.00 35.49     0.116 C 
BRANCH   4   5
ATOM      5  NE  ARG D 557     -24.910  -0.443 -15.015  1.00 35.49    -0.212 N 
ATOM      6  CZ  ARG D 557     -24.102  -1.419 -14.666  1.00 35.49     0.666 C 
ATOM      7  NH1 ARG D 557     -23.033  -1.741 -15.371  1.00 35.49    -0.235 N 
ATOM      8  NH2 ARG D 557     -24.385  -2.073 -13.577  1.00 35.49    -0.235 N 
ATOM      9  HH  ARG D 557     -22.826  -1.323 -16.090  1.00 35.49     0.174 HD
ATOM     10  HH  ARG D 557     -22.541  -2.386 -15.094  1.00 35.49     0.174 HD
ATOM     11  HH  ARG D 557     -25.077  -1.838 -13.138  1.00 35.49     0.174 HD
ATOM     12  HH  ARG D 557     -23.885  -2.707 -13.318  1.00 35.49     0.174 HD
ATOM     13  HE  ARG D 557     -25.612  -0.353 -14.543  1.00 35.49     0.178 HD
ENDBRANCH   4   5
ENDBRANCH   3   4
ENDBRANCH   2   3
ENDBRANCH   1   2
END_RES ARG D 557
BEGIN_RES GLU D 570
REMARK  3 active torsions:
REMARK  status: ('A' for Active; 'I' for Inactive)
REMARK    5  A    between atoms: CA   and  CB  
REMARK    6  A    between atoms: CB   and  CG  
REMARK    7  A    between atoms: CG   and  CD  
ROOT
ATOM     14  CA  GLU D 570     -18.033  -6.348 -13.375  1.00 32.92     0.160 C 
ENDROOT
BRANCH  14  15
ATOM     15  CB  GLU D 570     -19.500  -6.345 -13.794  1.00 32.92     0.043 C 
BRANCH  15  16
ATOM     16  CG  GLU D 570     -20.442  -5.530 -12.983  1.00 32.92     0.100 C 
BRANCH  16  17
ATOM     17  CD  GLU D 570     -21.733  -5.229 -13.707  1.00 32.92     0.185 C 
ATOM     18  OE1 GLU D 570     -22.319  -4.153 -13.478  1.00 32.92    -0.647 OA
ATOM     19  OE2 GLU D 570     -22.173  -6.085 -14.499  1.00 32.92    -0.647 OA
ENDBRANCH  16  17
ENDBRANCH  15  16
ENDBRANCH  14  15
END_RES GLU D 570
ENDMDL
MODEL 9
REMARK VINA RESULT:      -7.3      4.236      6.852
REMARK  4 active torsions:
REMARK  status: ('A' for Active; 'I' for Inactive)
REMARK    1  A    between atoms: C_2  and  C_14 
REMARK    2  A    between atoms: C_6  and  O_13 
REMARK    3  A    between atoms: C_8  and  O_12 
REMARK    4  A    between atoms: C_17  and  O_20 
ROOT
HETATM    1  C   UNL     1     -19.654  -4.528  -5.481  1.00  0.00     0.121 C 
HETATM    2  C   UNL     1     -20.845  -5.335  -4.989  1.00  0.00     0.169 C 
HETATM    3  O   UNL     1     -22.061  -4.797  -5.545  1.00  0.00    -0.340 OA
HETATM    4  C   UNL     1     -22.055  -4.691  -6.913  1.00  0.00     0.089 A 
HETATM    5  C   UNL     1     -23.316  -4.621  -7.512  1.00  0.00     0.074 A 
HETATM    6  C   UNL     1     -23.410  -4.571  -8.897  1.00  0.00     0.071 A 
HETATM    7  C   UNL     1     -22.268  -4.592  -9.690  1.00  0.00     0.074 A 
HETATM    8  C   UNL     1     -21.008  -4.631  -9.090  1.00  0.00     0.085 A 
HETATM    9  C   UNL     1     -20.892  -4.653  -7.694  1.00  0.00     0.076 A 
HETATM   10  C   UNL     1     -19.588  -4.597  -6.982  1.00  0.00     0.167 C 
HETATM   11  O   UNL     1     -18.504  -4.552  -7.554  1.00  0.00    -0.292 OA
ENDROOT
BRANCH   2  12
HETATM   12  C   UNL     1     -20.793  -6.856  -5.125  1.00  0.00    -0.028 A 
HETATM   13  C   UNL     1     -19.641  -7.551  -5.529  1.00  0.00     0.012 A 
HETATM   14  C   UNL     1     -19.629  -8.948  -5.603  1.00  0.00     0.037 A 
HETATM   15  C   UNL     1     -20.769  -9.662  -5.265  1.00  0.00     0.065 A 
HETATM   16  C   UNL     1     -21.922  -9.004  -4.862  1.00  0.00     0.037 A 
HETATM   17  C   UNL     1     -21.935  -7.608  -4.791  1.00  0.00     0.012 A 
BRANCH  15  18
HETATM   18  O   UNL     1     -20.792 -11.024  -5.311  1.00  0.00    -0.361 OA
HETATM   19  H   UNL     1     -21.679 -11.309  -5.585  1.00  0.00     0.217 HD
ENDBRANCH  15  18
ENDBRANCH   2  12
BRANCH   8  20
HETATM   20  O   UNL     1     -19.901  -4.652  -9.888  1.00  0.00    -0.360 OA
HETATM   21  H   UNL     1     -20.001  -4.015 -10.614  1.00  0.00     0.217 HD
ENDBRANCH   8  20
BRANCH   6  22
HETATM   22  O   UNL     1     -24.616  -4.508  -9.527  1.00  0.00    -0.361 OA
HETATM   23  H   UNL     1     -25.324  -4.554  -8.861  1.00  0.00     0.217 HD
ENDBRANCH   6  22
TORSDOF 4
BEGIN_RES ARG D 557
REMARK  4 active torsions:
REMARK  status: ('A' for Active; 'I' for Inactive)
REMARK    1  A    between atoms: CA   and  CB  
REMARK    2  A    between atoms: CB   and  CG  
REMARK    3  A    between atoms: CG   and  CD  
REMARK    4  A    between atoms: CD   and  NE  
REMARK       I    between atoms: NE   and  CZ  
REMARK       I    between atoms: CZ   and  NH1 
REMARK       I    between atoms: CZ   and  NH2 
ROOT
ATOM      1  CA  ARG D 557     -26.217   2.705 -17.014  1.00 35.49     0.159 C 
ENDROOT
BRANCH   1   2
ATOM      2  CB  ARG D 557     -26.789   1.319 -17.183  1.00 35.49     0.034 C 
BRANCH   2   3
ATOM      3  CG  ARG D 557     -25.836   0.203 -17.153  1.00 35.49     0.027 C 
BRANCH   3   4
ATOM      4  CD  ARG D 557     -24.752   0.413 -16.166  1.00 35.49     0.116 C 
BRANCH   4   5
ATOM      5  NE  ARG D 557     -24.897  -0.435 -15.012  1.00 35.49    -0.212 N 
ATOM      6  CZ  ARG D 557     -24.084  -1.408 -14.667  1.00 35.49     0.666 C 
ATOM      7  NH1 ARG D 557     -23.019  -1.728 -15.378  1.00 35.49    -0.235 N 
ATOM      8  NH2 ARG D 557     -24.359  -2.061 -13.575  1.00 35.49    -0.235 N 
ATOM      9  HH  ARG D 557     -22.818  -1.310 -16.098  1.00 35.49     0.174 HD
ATOM     10  HH  ARG D 557     -22.523  -2.370 -15.102  1.00 35.49     0.174 HD
ATOM     11  HH  ARG D 557     -25.049  -1.828 -13.132  1.00 35.49     0.174 HD
ATOM     12  HH  ARG D 557     -23.855  -2.693 -13.318  1.00 35.49     0.174 HD
ATOM     13  HE  ARG D 557     -25.597  -0.347 -14.537  1.00 35.49     0.178 HD
ENDBRANCH   4   5
ENDBRANCH   3   4
ENDBRANCH   2   3
ENDBRANCH   1   2
END_RES ARG D 557
BEGIN_RES GLU D 570
REMARK  3 active torsions:
REMARK  status: ('A' for Active; 'I' for Inactive)
REMARK    5  A    between atoms: CA   and  CB  
REMARK    6  A    between atoms: CB   and  CG  
REMARK    7  A    between atoms: CG   and  CD  
ROOT
ATOM     14  CA  GLU D 570     -18.033  -6.348 -13.375  1.00 32.92     0.160 C 
ENDROOT
BRANCH  14  15
ATOM     15  CB  GLU D 570     -19.500  -6.345 -13.794  1.00 32.92     0.043 C 
BRANCH  15  16
ATOM     16  CG  GLU D 570     -20.441  -5.528 -12.985  1.00 32.92     0.100 C 
BRANCH  16  17
ATOM     17  CD  GLU D 570     -21.740  -5.243 -13.702  1.00 32.92     0.185 C 
ATOM     18  OE1 GLU D 570     -22.309  -4.151 -13.513  1.00 32.92    -0.647 OA
ATOM     19  OE2 GLU D 570     -22.203  -6.129 -14.448  1.00 32.92    -0.647 OA
ENDBRANCH  16  17
ENDBRANCH  15  16
ENDBRANCH  14  15
END_RES GLU D 570
ENDMDL
