MODEL 1
REMARK VINA RESULT:      -7.1      0.000      0.000
REMARK  26 active torsions:
REMARK  status: ('A' for Active; 'I' for Inactive)
REMARK    1  A    between atoms: C_2  and  C_3 
REMARK    2  A    between atoms: C_3  and  C_4 
REMARK    3  A    between atoms: C_4  and  C_5 
REMARK    4  A    between atoms: C_5  and  C_6 
REMARK    5  A    between atoms: C_6  and  C_7 
REMARK    6  A    between atoms: C_7  and  C_8 
REMARK    7  A    between atoms: C_8  and  C_9 
REMARK    8  A    between atoms: C_9  and  C_10 
REMARK    9  A    between atoms: C_10  and  C_11 
REMARK   10  A    between atoms: C_11  and  C_12 
REMARK   11  A    between atoms: C_12  and  C_13 
REMARK   12  A    between atoms: C_13  and  C_14 
REMARK   13  A    between atoms: C_14  and  C_15 
REMARK   14  A    between atoms: C_15  and  C_16 
REMARK   15  A    between atoms: C_16  and  C_17 
REMARK   16  A    between atoms: C_17  and  C_18 
REMARK   17  A    between atoms: C_18  and  C_19 
REMARK   18  A    between atoms: C_19  and  C_20 
REMARK   19  A    between atoms: C_20  and  C_21 
REMARK   20  A    between atoms: C_21  and  C_22 
REMARK   21  A    between atoms: C_22  and  O_24 
REMARK   22  A    between atoms: O_24  and  C_25 
REMARK   23  A    between atoms: C_25  and  C_26 
REMARK   24  A    between atoms: C_26  and  C_27 
REMARK   25  A    between atoms: C_26  and  O_29 
REMARK   26  A    between atoms: C_27  and  O_28 
ROOT
HETATM    1  C   UNL     1     -20.015  -4.978  -8.231  1.00  0.00     0.000 C 
ENDROOT
BRANCH   1   2
HETATM    2  C   UNL     1     -20.473  -4.151  -7.042  1.00  0.00     0.000 C 
BRANCH   2   3
HETATM    3  C   UNL     1     -20.201  -4.902  -5.750  1.00  0.00     0.000 C 
BRANCH   3   4
HETATM    4  C   UNL     1     -20.709  -6.327  -5.863  1.00  0.00     0.000 C 
BRANCH   4   5
HETATM    5  C   UNL     1     -22.030  -6.464  -5.130  1.00  0.00     0.000 C 
BRANCH   5   6
HETATM    6  C   UNL     1     -21.784  -6.945  -3.712  1.00  0.00     0.000 C 
BRANCH   6   7
HETATM    7  C   UNL     1     -20.892  -8.173  -3.731  1.00  0.00     0.000 C 
BRANCH   7   8
HETATM    8  C   UNL     1     -20.373  -8.453  -2.334  1.00  0.00     0.000 C 
BRANCH   8   9
HETATM    9  C   UNL     1     -21.076  -7.554  -1.334  1.00  0.00     0.000 C 
BRANCH   9  10
HETATM   10  C   UNL     1     -21.359  -8.324  -0.059  1.00  0.00     0.000 C 
BRANCH  10  11
HETATM   11  C   UNL     1     -22.840  -8.260   0.265  1.00  0.00     0.000 C 
BRANCH  11  12
HETATM   12  C   UNL     1     -23.486  -9.610   0.008  1.00  0.00     0.000 C 
BRANCH  12  13
HETATM   13  C   UNL     1     -22.426 -10.699  -0.007  1.00  0.00     0.000 C 
BRANCH  13  14
HETATM   14  C   UNL     1     -22.761 -11.739  -1.062  1.00  0.00    -0.000 C 
BRANCH  14  15
HETATM   15  C   UNL     1     -23.123 -11.065  -2.378  1.00  0.00    -0.005 C 
HETATM   16  C   UNL     1     -22.319 -11.663  -3.516  1.00  0.00     0.005 C 
ENDBRANCH  14  15
ENDBRANCH  13  14
ENDBRANCH  12  13
ENDBRANCH  11  12
ENDBRANCH  10  11
ENDBRANCH   9  10
ENDBRANCH   8   9
ENDBRANCH   7   8
ENDBRANCH   6   7
ENDBRANCH   5   6
ENDBRANCH   4   5
ENDBRANCH   3   4
ENDBRANCH   2   3
ENDBRANCH   1   2
BRANCH   1  17
HETATM   17  C   UNL     1     -20.570  -4.390  -9.519  1.00  0.00     0.000 C 
BRANCH  17  18
HETATM   18  C   UNL     1     -22.053  -4.091  -9.365  1.00  0.00     0.000 C 
BRANCH  18  19
HETATM   19  C   UNL     1     -22.797  -4.413 -10.658  1.00  0.00     0.000 C 
BRANCH  19  20
HETATM   20  C   UNL     1     -22.109  -3.740 -11.835  1.00  0.00     0.010 C 
BRANCH  20  21
HETATM   21  C   UNL     1     -22.321  -4.497 -13.145  1.00  0.00     0.111 C 
BRANCH  21  22
HETATM   22  C   UNL     1     -23.383  -3.792 -13.964  1.00  0.00     0.258 C 
HETATM   23  O   UNL     1     -23.797  -2.674 -13.736  1.00  0.00    -0.265 OA
BRANCH  22  24
HETATM   24  O   UNL     1     -23.856  -4.624 -14.942  1.00  0.00    -0.319 OA
BRANCH  24  25
HETATM   25  C   UNL     1     -23.944  -5.998 -14.534  1.00  0.00     0.212 C 
BRANCH  25  26
HETATM   26  C   UNL     1     -24.467  -6.911 -15.647  1.00  0.00     0.166 C 
BRANCH  26  27
HETATM   27  C   UNL     1     -25.970  -6.743 -15.884  1.00  0.00     0.198 C 
BRANCH  27  28
HETATM   28  O   UNL     1     -26.232  -5.517 -16.553  1.00  0.00    -0.398 OA
HETATM   29  H   UNL     1     -26.821  -4.971 -16.004  1.00  0.00     0.209 HD
ENDBRANCH  27  28
ENDBRANCH  26  27
BRANCH  26  30
HETATM   30  O   UNL     1     -23.714  -6.674 -16.831  1.00  0.00    -0.391 OA
HETATM   31  H   UNL     1     -22.885  -6.209 -16.611  1.00  0.00     0.210 HD
ENDBRANCH  26  30
ENDBRANCH  25  26
ENDBRANCH  24  25
ENDBRANCH  22  24
ENDBRANCH  21  22
ENDBRANCH  20  21
ENDBRANCH  19  20
ENDBRANCH  18  19
ENDBRANCH  17  18
ENDBRANCH   1  17
TORSDOF 26
BEGIN_RES ARG D 557
REMARK  4 active torsions:
REMARK  status: ('A' for Active; 'I' for Inactive)
REMARK    1  A    between atoms: CA   and  CB  
REMARK    2  A    between atoms: CB   and  CG  
REMARK    3  A    between atoms: CG   and  CD  
REMARK    4  A    between atoms: CD   and  NE  
REMARK       I    between atoms: NE   and  CZ  
REMARK       I    between atoms: CZ   and  NH1 
REMARK       I    between atoms: CZ   and  NH2 
ROOT
ATOM      1  CA  ARG D 557     -26.217   2.705 -17.014  1.00 35.49     0.159 C 
ENDROOT
BRANCH   1   2
ATOM      2  CB  ARG D 557     -26.789   1.319 -17.183  1.00 35.49     0.034 C 
BRANCH   2   3
ATOM      3  CG  ARG D 557     -28.210   1.146 -16.857  1.00 35.49     0.027 C 
BRANCH   3   4
ATOM      4  CD  ARG D 557     -28.581  -0.277 -16.689  1.00 35.49     0.116 C 
BRANCH   4   5
ATOM      5  NE  ARG D 557     -27.569  -1.023 -15.989  1.00 35.49    -0.212 N 
ATOM      6  CZ  ARG D 557     -27.390  -2.323 -16.052  1.00 35.49     0.666 C 
ATOM      7  NH1 ARG D 557     -28.160  -3.110 -16.782  1.00 35.49    -0.235 N 
ATOM      8  NH2 ARG D 557     -26.407  -2.829 -15.366  1.00 35.49    -0.235 N 
ATOM      9  HH  ARG D 557     -28.812  -2.798 -17.243  1.00 35.49     0.174 HD
ATOM     10  HH  ARG D 557     -27.995  -3.950 -16.787  1.00 35.49     0.174 HD
ATOM     11  HH  ARG D 557     -25.922  -2.296 -14.910  1.00 35.49     0.174 HD
ATOM     12  HH  ARG D 557     -26.258  -3.663 -15.385  1.00 35.49     0.174 HD
ATOM     13  HE  ARG D 557     -27.073  -0.604 -15.439  1.00 35.49     0.178 HD
ENDBRANCH   4   5
ENDBRANCH   3   4
ENDBRANCH   2   3
ENDBRANCH   1   2
END_RES ARG D 557
BEGIN_RES GLU D 570
REMARK  3 active torsions:
REMARK  status: ('A' for Active; 'I' for Inactive)
REMARK    5  A    between atoms: CA   and  CB  
REMARK    6  A    between atoms: CB   and  CG  
REMARK    7  A    between atoms: CG   and  CD  
ROOT
ATOM     14  CA  GLU D 570     -18.033  -6.348 -13.375  1.00 32.92     0.160 C 
ENDROOT
BRANCH  14  15
ATOM     15  CB  GLU D 570     -19.500  -6.345 -13.794  1.00 32.92     0.043 C 
BRANCH  15  16
ATOM     16  CG  GLU D 570     -20.072  -7.622 -14.292  1.00 32.92     0.100 C 
BRANCH  16  17
ATOM     17  CD  GLU D 570     -20.753  -7.480 -15.634  1.00 32.92     0.185 C 
ATOM     18  OE1 GLU D 570     -20.787  -6.360 -16.179  1.00 32.92    -0.647 OA
ATOM     19  OE2 GLU D 570     -21.273  -8.495 -16.136  1.00 32.92    -0.647 OA
ENDBRANCH  16  17
ENDBRANCH  15  16
ENDBRANCH  14  15
END_RES GLU D 570
ENDMDL
MODEL 2
REMARK VINA RESULT:      -7.1      1.884      2.816
REMARK  26 active torsions:
REMARK  status: ('A' for Active; 'I' for Inactive)
REMARK    1  A    between atoms: C_2  and  C_3 
REMARK    2  A    between atoms: C_3  and  C_4 
REMARK    3  A    between atoms: C_4  and  C_5 
REMARK    4  A    between atoms: C_5  and  C_6 
REMARK    5  A    between atoms: C_6  and  C_7 
REMARK    6  A    between atoms: C_7  and  C_8 
REMARK    7  A    between atoms: C_8  and  C_9 
REMARK    8  A    between atoms: C_9  and  C_10 
REMARK    9  A    between atoms: C_10  and  C_11 
REMARK   10  A    between atoms: C_11  and  C_12 
REMARK   11  A    between atoms: C_12  and  C_13 
REMARK   12  A    between atoms: C_13  and  C_14 
REMARK   13  A    between atoms: C_14  and  C_15 
REMARK   14  A    between atoms: C_15  and  C_16 
REMARK   15  A    between atoms: C_16  and  C_17 
REMARK   16  A    between atoms: C_17  and  C_18 
REMARK   17  A    between atoms: C_18  and  C_19 
REMARK   18  A    between atoms: C_19  and  C_20 
REMARK   19  A    between atoms: C_20  and  C_21 
REMARK   20  A    between atoms: C_21  and  C_22 
REMARK   21  A    between atoms: C_22  and  O_24 
REMARK   22  A    between atoms: O_24  and  C_25 
REMARK   23  A    between atoms: C_25  and  C_26 
REMARK   24  A    between atoms: C_26  and  C_27 
REMARK   25  A    between atoms: C_26  and  O_29 
REMARK   26  A    between atoms: C_27  and  O_28 
ROOT
HETATM    1  C   UNL     1     -20.136  -4.806  -5.831  1.00  0.00     0.000 C 
ENDROOT
BRANCH   1   2
HETATM    2  C   UNL     1     -20.795  -5.873  -4.973  1.00  0.00     0.000 C 
BRANCH   2   3
HETATM    3  C   UNL     1     -21.251  -7.032  -5.843  1.00  0.00     0.000 C 
BRANCH   3   4
HETATM    4  C   UNL     1     -21.415  -8.279  -4.995  1.00  0.00     0.000 C 
BRANCH   4   5
HETATM    5  C   UNL     1     -20.178  -8.492  -4.145  1.00  0.00     0.000 C 
BRANCH   5   6
HETATM    6  C   UNL     1     -20.577  -8.988  -2.768  1.00  0.00     0.000 C 
BRANCH   6   7
HETATM    7  C   UNL     1     -20.499  -7.849  -1.767  1.00  0.00     0.000 C 
BRANCH   7   8
HETATM    8  C   UNL     1     -21.891  -7.318  -1.482  1.00  0.00     0.000 C 
BRANCH   8   9
HETATM    9  C   UNL     1     -22.201  -7.458  -0.003  1.00  0.00     0.000 C 
BRANCH   9  10
HETATM   10  C   UNL     1     -22.191  -8.924   0.389  1.00  0.00     0.000 C 
BRANCH  10  11
HETATM   11  C   UNL     1     -23.531  -9.556   0.060  1.00  0.00     0.000 C 
BRANCH  11  12
HETATM   12  C   UNL     1     -23.319 -10.882  -0.647  1.00  0.00     0.000 C 
BRANCH  12  13
HETATM   13  C   UNL     1     -21.955 -11.450  -0.289  1.00  0.00     0.000 C 
BRANCH  13  14
HETATM   14  C   UNL     1     -22.064 -12.943  -0.030  1.00  0.00    -0.000 C 
BRANCH  14  15
HETATM   15  C   UNL     1     -22.085 -13.224   1.466  1.00  0.00    -0.005 C 
HETATM   16  C   UNL     1     -23.420 -13.816   1.874  1.00  0.00     0.005 C 
ENDBRANCH  14  15
ENDBRANCH  13  14
ENDBRANCH  12  13
ENDBRANCH  11  12
ENDBRANCH  10  11
ENDBRANCH   9  10
ENDBRANCH   8   9
ENDBRANCH   7   8
ENDBRANCH   6   7
ENDBRANCH   5   6
ENDBRANCH   4   5
ENDBRANCH   3   4
ENDBRANCH   2   3
ENDBRANCH   1   2
BRANCH   1  17
HETATM   17  C   UNL     1     -20.404  -5.082  -7.302  1.00  0.00     0.000 C 
BRANCH  17  18
HETATM   18  C   UNL     1     -20.718  -3.787  -8.033  1.00  0.00     0.000 C 
BRANCH  18  19
HETATM   19  C   UNL     1     -21.075  -4.071  -9.489  1.00  0.00     0.000 C 
BRANCH  19  20
HETATM   20  C   UNL     1     -22.545  -4.443  -9.601  1.00  0.00     0.010 C 
BRANCH  20  21
HETATM   21  C   UNL     1     -23.079  -4.285 -11.023  1.00  0.00     0.111 C 
BRANCH  21  22
HETATM   22  C   UNL     1     -24.196  -3.262 -11.028  1.00  0.00     0.258 C 
HETATM   23  O   UNL     1     -24.871  -2.976 -10.060  1.00  0.00    -0.265 OA
BRANCH  22  24
HETATM   24  O   UNL     1     -24.381  -2.768 -12.291  1.00  0.00    -0.319 OA
BRANCH  24  25
HETATM   25  C   UNL     1     -23.214  -2.867 -13.122  1.00  0.00     0.212 C 
BRANCH  25  26
HETATM   26  C   UNL     1     -23.515  -2.576 -14.596  1.00  0.00     0.166 C 
BRANCH  26  27
HETATM   27  C   UNL     1     -24.210  -1.227 -14.796  1.00  0.00     0.198 C 
BRANCH  27  28
HETATM   28  O   UNL     1     -25.558  -1.293 -14.350  1.00  0.00    -0.398 OA
HETATM   29  H   UNL     1     -25.628  -1.948 -13.635  1.00  0.00     0.209 HD
ENDBRANCH  27  28
ENDBRANCH  26  27
BRANCH  26  30
HETATM   30  O   UNL     1     -22.307  -2.665 -15.342  1.00  0.00    -0.391 OA
HETATM   31  H   UNL     1     -22.453  -2.343 -16.251  1.00  0.00     0.210 HD
ENDBRANCH  26  30
ENDBRANCH  25  26
ENDBRANCH  24  25
ENDBRANCH  22  24
ENDBRANCH  21  22
ENDBRANCH  20  21
ENDBRANCH  19  20
ENDBRANCH  18  19
ENDBRANCH  17  18
ENDBRANCH   1  17
TORSDOF 26
BEGIN_RES ARG D 557
REMARK  4 active torsions:
REMARK  status: ('A' for Active; 'I' for Inactive)
REMARK    1  A    between atoms: CA   and  CB  
REMARK    2  A    between atoms: CB   and  CG  
REMARK    3  A    between atoms: CG   and  CD  
REMARK    4  A    between atoms: CD   and  NE  
REMARK       I    between atoms: NE   and  CZ  
REMARK       I    between atoms: CZ   and  NH1 
REMARK       I    between atoms: CZ   and  NH2 
ROOT
ATOM      1  CA  ARG D 557     -26.217   2.705 -17.014  1.00 35.49     0.159 C 
ENDROOT
BRANCH   1   2
ATOM      2  CB  ARG D 557     -26.789   1.319 -17.183  1.00 35.49     0.034 C 
BRANCH   2   3
ATOM      3  CG  ARG D 557     -28.234   1.225 -17.423  1.00 35.49     0.027 C 
BRANCH   3   4
ATOM      4  CD  ARG D 557     -28.885   0.214 -16.559  1.00 35.49     0.116 C 
BRANCH   4   5
ATOM      5  NE  ARG D 557     -27.994  -0.863 -16.219  1.00 35.49    -0.212 N 
ATOM      6  CZ  ARG D 557     -28.107  -2.110 -16.621  1.00 35.49     0.666 C 
ATOM      7  NH1 ARG D 557     -29.096  -2.519 -17.394  1.00 35.49    -0.235 N 
ATOM      8  NH2 ARG D 557     -27.194  -2.951 -16.231  1.00 35.49    -0.235 N 
ATOM      9  HH  ARG D 557     -29.706  -1.982 -17.664  1.00 35.49     0.174 HD
ATOM     10  HH  ARG D 557     -29.116  -3.343 -17.627  1.00 35.49     0.174 HD
ATOM     11  HH  ARG D 557     -26.563  -2.657 -15.738  1.00 35.49     0.174 HD
ATOM     12  HH  ARG D 557     -27.231  -3.763 -16.473  1.00 35.49     0.174 HD
ATOM     13  HE  ARG D 557     -27.369  -0.705 -15.665  1.00 35.49     0.178 HD
ENDBRANCH   4   5
ENDBRANCH   3   4
ENDBRANCH   2   3
ENDBRANCH   1   2
END_RES ARG D 557
BEGIN_RES GLU D 570
REMARK  3 active torsions:
REMARK  status: ('A' for Active; 'I' for Inactive)
REMARK    5  A    between atoms: CA   and  CB  
REMARK    6  A    between atoms: CB   and  CG  
REMARK    7  A    between atoms: CG   and  CD  
ROOT
ATOM     14  CA  GLU D 570     -18.033  -6.348 -13.375  1.00 32.92     0.160 C 
ENDROOT
BRANCH  14  15
ATOM     15  CB  GLU D 570     -19.500  -6.345 -13.794  1.00 32.92     0.043 C 
BRANCH  15  16
ATOM     16  CG  GLU D 570     -19.797  -6.245 -15.246  1.00 32.92     0.100 C 
BRANCH  16  17
ATOM     17  CD  GLU D 570     -21.176  -5.697 -15.530  1.00 32.92     0.185 C 
ATOM     18  OE1 GLU D 570     -21.410  -5.194 -16.646  1.00 32.92    -0.647 OA
ATOM     19  OE2 GLU D 570     -22.026  -5.755 -14.620  1.00 32.92    -0.647 OA
ENDBRANCH  16  17
ENDBRANCH  15  16
ENDBRANCH  14  15
END_RES GLU D 570
ENDMDL
MODEL 3
REMARK VINA RESULT:      -7.1      1.713      2.981
REMARK  26 active torsions:
REMARK  status: ('A' for Active; 'I' for Inactive)
REMARK    1  A    between atoms: C_2  and  C_3 
REMARK    2  A    between atoms: C_3  and  C_4 
REMARK    3  A    between atoms: C_4  and  C_5 
REMARK    4  A    between atoms: C_5  and  C_6 
REMARK    5  A    between atoms: C_6  and  C_7 
REMARK    6  A    between atoms: C_7  and  C_8 
REMARK    7  A    between atoms: C_8  and  C_9 
REMARK    8  A    between atoms: C_9  and  C_10 
REMARK    9  A    between atoms: C_10  and  C_11 
REMARK   10  A    between atoms: C_11  and  C_12 
REMARK   11  A    between atoms: C_12  and  C_13 
REMARK   12  A    between atoms: C_13  and  C_14 
REMARK   13  A    between atoms: C_14  and  C_15 
REMARK   14  A    between atoms: C_15  and  C_16 
REMARK   15  A    between atoms: C_16  and  C_17 
REMARK   16  A    between atoms: C_17  and  C_18 
REMARK   17  A    between atoms: C_18  and  C_19 
REMARK   18  A    between atoms: C_19  and  C_20 
REMARK   19  A    between atoms: C_20  and  C_21 
REMARK   20  A    between atoms: C_21  and  C_22 
REMARK   21  A    between atoms: C_22  and  O_24 
REMARK   22  A    between atoms: O_24  and  C_25 
REMARK   23  A    between atoms: C_25  and  C_26 
REMARK   24  A    between atoms: C_26  and  C_27 
REMARK   25  A    between atoms: C_26  and  O_29 
REMARK   26  A    between atoms: C_27  and  O_28 
ROOT
HETATM    1  C   UNL     1     -19.741  -4.079  -7.629  1.00  0.00     0.000 C 
ENDROOT
BRANCH   1   2
HETATM    2  C   UNL     1     -19.816  -4.717  -6.252  1.00  0.00     0.000 C 
BRANCH   2   3
HETATM    3  C   UNL     1     -21.029  -5.627  -6.165  1.00  0.00     0.000 C 
BRANCH   3   4
HETATM    4  C   UNL     1     -21.065  -6.310  -4.811  1.00  0.00     0.000 C 
BRANCH   4   5
HETATM    5  C   UNL     1     -21.922  -7.560  -4.887  1.00  0.00     0.000 C 
BRANCH   5   6
HETATM    6  C   UNL     1     -21.036  -8.789  -4.965  1.00  0.00     0.000 C 
BRANCH   6   7
HETATM    7  C   UNL     1     -21.331  -9.713  -3.799  1.00  0.00     0.000 C 
BRANCH   7   8
HETATM    8  C   UNL     1     -22.280 -10.811  -4.240  1.00  0.00     0.000 C 
BRANCH   8   9
HETATM    9  C   UNL     1     -22.642 -11.685  -3.053  1.00  0.00     0.000 C 
BRANCH   9  10
HETATM   10  C   UNL     1     -21.909 -11.203  -1.816  1.00  0.00     0.000 C 
BRANCH  10  11
HETATM   11  C   UNL     1     -22.793 -11.372  -0.594  1.00  0.00     0.000 C 
BRANCH  11  12
HETATM   12  C   UNL     1     -23.464 -10.054  -0.253  1.00  0.00     0.000 C 
BRANCH  12  13
HETATM   13  C   UNL     1     -22.444  -9.083   0.320  1.00  0.00     0.000 C 
BRANCH  13  14
HETATM   14  C   UNL     1     -22.877  -7.652   0.049  1.00  0.00    -0.000 C 
BRANCH  14  15
HETATM   15  C   UNL     1     -22.130  -7.089  -1.153  1.00  0.00    -0.005 C 
HETATM   16  C   UNL     1     -20.734  -7.675  -1.229  1.00  0.00     0.005 C 
ENDBRANCH  14  15
ENDBRANCH  13  14
ENDBRANCH  12  13
ENDBRANCH  11  12
ENDBRANCH  10  11
ENDBRANCH   9  10
ENDBRANCH   8   9
ENDBRANCH   7   8
ENDBRANCH   6   7
ENDBRANCH   5   6
ENDBRANCH   4   5
ENDBRANCH   3   4
ENDBRANCH   2   3
ENDBRANCH   1   2
BRANCH   1  17
HETATM   17  C   UNL     1     -19.946  -5.134  -8.704  1.00  0.00     0.000 C 
BRANCH  17  18
HETATM   18  C   UNL     1     -20.365  -4.481 -10.011  1.00  0.00     0.000 C 
BRANCH  18  19
HETATM   19  C   UNL     1     -21.680  -3.728  -9.833  1.00  0.00     0.000 C 
BRANCH  19  20
HETATM   20  C   UNL     1     -22.799  -4.707  -9.512  1.00  0.00     0.010 C 
BRANCH  20  21
HETATM   21  C   UNL     1     -23.879  -4.732 -10.592  1.00  0.00     0.111 C 
BRANCH  21  22
HETATM   22  C   UNL     1     -24.696  -3.459 -10.513  1.00  0.00     0.258 C 
HETATM   23  O   UNL     1     -25.031  -2.921  -9.478  1.00  0.00    -0.265 OA
BRANCH  22  24
HETATM   24  O   UNL     1     -25.063  -3.054 -11.768  1.00  0.00    -0.319 OA
BRANCH  24  25
HETATM   25  C   UNL     1     -23.953  -2.884 -12.663  1.00  0.00     0.212 C 
BRANCH  25  26
HETATM   26  C   UNL     1     -24.390  -2.780 -14.128  1.00  0.00     0.166 C 
BRANCH  26  27
HETATM   27  C   UNL     1     -23.766  -1.577 -14.841  1.00  0.00     0.198 C 
BRANCH  27  28
HETATM   28  O   UNL     1     -22.653  -1.989 -15.624  1.00  0.00    -0.398 OA
HETATM   29  H   UNL     1     -21.916  -2.225 -15.035  1.00  0.00     0.209 HD
ENDBRANCH  27  28
ENDBRANCH  26  27
BRANCH  26  30
HETATM   30  O   UNL     1     -24.089  -4.003 -14.789  1.00  0.00    -0.391 OA
HETATM   31  H   UNL     1     -23.280  -4.396 -14.409  1.00  0.00     0.210 HD
ENDBRANCH  26  30
ENDBRANCH  25  26
ENDBRANCH  24  25
ENDBRANCH  22  24
ENDBRANCH  21  22
ENDBRANCH  20  21
ENDBRANCH  19  20
ENDBRANCH  18  19
ENDBRANCH  17  18
ENDBRANCH   1  17
TORSDOF 26
BEGIN_RES ARG D 557
REMARK  4 active torsions:
REMARK  status: ('A' for Active; 'I' for Inactive)
REMARK    1  A    between atoms: CA   and  CB  
REMARK    2  A    between atoms: CB   and  CG  
REMARK    3  A    between atoms: CG   and  CD  
REMARK    4  A    between atoms: CD   and  NE  
REMARK       I    between atoms: NE   and  CZ  
REMARK       I    between atoms: CZ   and  NH1 
REMARK       I    between atoms: CZ   and  NH2 
ROOT
ATOM      1  CA  ARG D 557     -26.217   2.705 -17.014  1.00 35.49     0.159 C 
ENDROOT
BRANCH   1   2
ATOM      2  CB  ARG D 557     -26.789   1.319 -17.183  1.00 35.49     0.034 C 
BRANCH   2   3
ATOM      3  CG  ARG D 557     -28.192   1.230 -17.605  1.00 35.49     0.027 C 
BRANCH   3   4
ATOM      4  CD  ARG D 557     -29.008   0.407 -16.683  1.00 35.49     0.116 C 
BRANCH   4   5
ATOM      5  NE  ARG D 557     -29.263  -0.907 -17.212  1.00 35.49    -0.212 N 
ATOM      6  CZ  ARG D 557     -28.536  -1.979 -16.989  1.00 35.49     0.666 C 
ATOM      7  NH1 ARG D 557     -27.448  -1.956 -16.242  1.00 35.49    -0.235 N 
ATOM      8  NH2 ARG D 557     -28.929  -3.094 -17.533  1.00 35.49    -0.235 N 
ATOM      9  HH  ARG D 557     -27.172  -1.233 -15.872  1.00 35.49     0.174 HD
ATOM     10  HH  ARG D 557     -27.015  -2.686 -16.130  1.00 35.49     0.174 HD
ATOM     11  HH  ARG D 557     -29.639  -3.081 -18.005  1.00 35.49     0.174 HD
ATOM     12  HH  ARG D 557     -28.487  -3.808 -17.410  1.00 35.49     0.174 HD
ATOM     13  HE  ARG D 557     -29.904  -0.998 -17.763  1.00 35.49     0.178 HD
ENDBRANCH   4   5
ENDBRANCH   3   4
ENDBRANCH   2   3
ENDBRANCH   1   2
END_RES ARG D 557
BEGIN_RES GLU D 570
REMARK  3 active torsions:
REMARK  status: ('A' for Active; 'I' for Inactive)
REMARK    5  A    between atoms: CA   and  CB  
REMARK    6  A    between atoms: CB   and  CG  
REMARK    7  A    between atoms: CG   and  CD  
ROOT
ATOM     14  CA  GLU D 570     -18.033  -6.348 -13.375  1.00 32.92     0.160 C 
ENDROOT
BRANCH  14  15
ATOM     15  CB  GLU D 570     -19.500  -6.345 -13.794  1.00 32.92     0.043 C 
BRANCH  15  16
ATOM     16  CG  GLU D 570     -19.806  -6.030 -15.213  1.00 32.92     0.100 C 
BRANCH  16  17
ATOM     17  CD  GLU D 570     -21.256  -5.671 -15.438  1.00 32.92     0.185 C 
ATOM     18  OE1 GLU D 570     -21.533  -4.687 -16.150  1.00 32.92    -0.647 OA
ATOM     19  OE2 GLU D 570     -22.125  -6.373 -14.882  1.00 32.92    -0.647 OA
ENDBRANCH  16  17
ENDBRANCH  15  16
ENDBRANCH  14  15
END_RES GLU D 570
ENDMDL
MODEL 4
REMARK VINA RESULT:      -6.9      1.736      3.143
REMARK  26 active torsions:
REMARK  status: ('A' for Active; 'I' for Inactive)
REMARK    1  A    between atoms: C_2  and  C_3 
REMARK    2  A    between atoms: C_3  and  C_4 
REMARK    3  A    between atoms: C_4  and  C_5 
REMARK    4  A    between atoms: C_5  and  C_6 
REMARK    5  A    between atoms: C_6  and  C_7 
REMARK    6  A    between atoms: C_7  and  C_8 
REMARK    7  A    between atoms: C_8  and  C_9 
REMARK    8  A    between atoms: C_9  and  C_10 
REMARK    9  A    between atoms: C_10  and  C_11 
REMARK   10  A    between atoms: C_11  and  C_12 
REMARK   11  A    between atoms: C_12  and  C_13 
REMARK   12  A    between atoms: C_13  and  C_14 
REMARK   13  A    between atoms: C_14  and  C_15 
REMARK   14  A    between atoms: C_15  and  C_16 
REMARK   15  A    between atoms: C_16  and  C_17 
REMARK   16  A    between atoms: C_17  and  C_18 
REMARK   17  A    between atoms: C_18  and  C_19 
REMARK   18  A    between atoms: C_19  and  C_20 
REMARK   19  A    between atoms: C_20  and  C_21 
REMARK   20  A    between atoms: C_21  and  C_22 
REMARK   21  A    between atoms: C_22  and  O_24 
REMARK   22  A    between atoms: O_24  and  C_25 
REMARK   23  A    between atoms: C_25  and  C_26 
REMARK   24  A    between atoms: C_26  and  C_27 
REMARK   25  A    between atoms: C_26  and  O_29 
REMARK   26  A    between atoms: C_27  and  O_28 
ROOT
HETATM    1  C   UNL     1     -20.748  -6.035  -6.211  1.00  0.00     0.000 C 
ENDROOT
BRANCH   1   2
HETATM    2  C   UNL     1     -21.976  -6.321  -5.363  1.00  0.00     0.000 C 
BRANCH   2   3
HETATM    3  C   UNL     1     -21.586  -7.131  -4.139  1.00  0.00     0.000 C 
BRANCH   3   4
HETATM    4  C   UNL     1     -21.151  -6.200  -3.022  1.00  0.00     0.000 C 
BRANCH   4   5
HETATM    5  C   UNL     1     -22.163  -6.242  -1.893  1.00  0.00     0.000 C 
BRANCH   5   6
HETATM    6  C   UNL     1     -22.114  -7.593  -1.205  1.00  0.00     0.000 C 
BRANCH   6   7
HETATM    7  C   UNL     1     -22.702  -7.484   0.189  1.00  0.00     0.000 C 
BRANCH   7   8
HETATM    8  C   UNL     1     -23.465  -8.751   0.527  1.00  0.00     0.000 C 
BRANCH   8   9
HETATM    9  C   UNL     1     -23.107  -9.845  -0.462  1.00  0.00     0.000 C 
BRANCH   9  10
HETATM   10  C   UNL     1     -23.807 -11.135  -0.078  1.00  0.00     0.000 C 
BRANCH  10  11
HETATM   11  C   UNL     1     -22.783 -12.170   0.351  1.00  0.00     0.000 C 
BRANCH  11  12
HETATM   12  C   UNL     1     -21.400 -11.545   0.390  1.00  0.00     0.000 C 
BRANCH  12  13
HETATM   13  C   UNL     1     -20.418 -12.407  -0.387  1.00  0.00     0.000 C 
BRANCH  13  14
HETATM   14  C   UNL     1     -20.107 -11.764  -1.727  1.00  0.00    -0.000 C 
BRANCH  14  15
HETATM   15  C   UNL     1     -19.697 -10.310  -1.538  1.00  0.00    -0.005 C 
HETATM   16  C   UNL     1     -19.228  -9.718  -2.852  1.00  0.00     0.005 C 
ENDBRANCH  14  15
ENDBRANCH  13  14
ENDBRANCH  12  13
ENDBRANCH  11  12
ENDBRANCH  10  11
ENDBRANCH   9  10
ENDBRANCH   8   9
ENDBRANCH   7   8
ENDBRANCH   6   7
ENDBRANCH   5   6
ENDBRANCH   4   5
ENDBRANCH   3   4
ENDBRANCH   2   3
ENDBRANCH   1   2
BRANCH   1  17
HETATM   17  C   UNL     1     -20.462  -4.542  -6.227  1.00  0.00     0.000 C 
BRANCH  17  18
HETATM   18  C   UNL     1     -21.248  -3.866  -7.339  1.00  0.00     0.000 C 
BRANCH  18  19
HETATM   19  C   UNL     1     -20.843  -4.431  -8.697  1.00  0.00     0.000 C 
BRANCH  19  20
HETATM   20  C   UNL     1     -21.870  -4.042  -9.749  1.00  0.00     0.010 C 
BRANCH  20  21
HETATM   21  C   UNL     1     -23.269  -3.871  -9.162  1.00  0.00     0.111 C 
BRANCH  21  22
HETATM   22  C   UNL     1     -24.244  -3.552 -10.277  1.00  0.00     0.258 C 
HETATM   23  O   UNL     1     -25.399  -3.217 -10.105  1.00  0.00    -0.265 OA
BRANCH  22  24
HETATM   24  O   UNL     1     -23.659  -3.771 -11.494  1.00  0.00    -0.319 OA
BRANCH  24  25
HETATM   25  C   UNL     1     -24.115  -2.875 -12.519  1.00  0.00     0.212 C 
BRANCH  25  26
HETATM   26  C   UNL     1     -23.124  -2.758 -13.682  1.00  0.00     0.166 C 
BRANCH  26  27
HETATM   27  C   UNL     1     -22.518  -4.108 -14.072  1.00  0.00     0.198 C 
BRANCH  27  28
HETATM   28  O   UNL     1     -21.963  -4.042 -15.380  1.00  0.00    -0.398 OA
HETATM   29  H   UNL     1     -21.384  -4.811 -15.521  1.00  0.00     0.209 HD
ENDBRANCH  27  28
ENDBRANCH  26  27
BRANCH  26  30
HETATM   30  O   UNL     1     -23.773  -2.130 -14.782  1.00  0.00    -0.391 OA
HETATM   31  H   UNL     1     -24.468  -2.717 -15.137  1.00  0.00     0.210 HD
ENDBRANCH  26  30
ENDBRANCH  25  26
ENDBRANCH  24  25
ENDBRANCH  22  24
ENDBRANCH  21  22
ENDBRANCH  20  21
ENDBRANCH  19  20
ENDBRANCH  18  19
ENDBRANCH  17  18
ENDBRANCH   1  17
TORSDOF 26
BEGIN_RES ARG D 557
REMARK  4 active torsions:
REMARK  status: ('A' for Active; 'I' for Inactive)
REMARK    1  A    between atoms: CA   and  CB  
REMARK    2  A    between atoms: CB   and  CG  
REMARK    3  A    between atoms: CG   and  CD  
REMARK    4  A    between atoms: CD   and  NE  
REMARK       I    between atoms: NE   and  CZ  
REMARK       I    between atoms: CZ   and  NH1 
REMARK       I    between atoms: CZ   and  NH2 
ROOT
ATOM      1  CA  ARG D 557     -26.217   2.705 -17.014  1.00 35.49     0.159 C 
ENDROOT
BRANCH   1   2
ATOM      2  CB  ARG D 557     -26.789   1.319 -17.183  1.00 35.49     0.034 C 
BRANCH   2   3
ATOM      3  CG  ARG D 557     -26.224   0.263 -16.334  1.00 35.49     0.027 C 
BRANCH   3   4
ATOM      4  CD  ARG D 557     -27.162  -0.866 -16.138  1.00 35.49     0.116 C 
BRANCH   4   5
ATOM      5  NE  ARG D 557     -26.514  -2.016 -15.565  1.00 35.49    -0.212 N 
ATOM      6  CZ  ARG D 557     -26.873  -3.268 -15.742  1.00 35.49     0.666 C 
ATOM      7  NH1 ARG D 557     -27.912  -3.610 -16.482  1.00 35.49    -0.235 N 
ATOM      8  NH2 ARG D 557     -26.156  -4.186 -15.161  1.00 35.49    -0.235 N 
ATOM      9  HH  ARG D 557     -28.397  -3.022 -16.875  1.00 35.49     0.174 HD
ATOM     10  HH  ARG D 557     -28.097  -4.442 -16.563  1.00 35.49     0.174 HD
ATOM     11  HH  ARG D 557     -25.487  -3.936 -14.696  1.00 35.49     0.174 HD
ATOM     12  HH  ARG D 557     -26.355  -5.005 -15.256  1.00 35.49     0.174 HD
ATOM     13  HE  ARG D 557     -25.879  -1.884 -15.015  1.00 35.49     0.178 HD
ENDBRANCH   4   5
ENDBRANCH   3   4
ENDBRANCH   2   3
ENDBRANCH   1   2
END_RES ARG D 557
BEGIN_RES GLU D 570
REMARK  3 active torsions:
REMARK  status: ('A' for Active; 'I' for Inactive)
REMARK    5  A    between atoms: CA   and  CB  
REMARK    6  A    between atoms: CB   and  CG  
REMARK    7  A    between atoms: CG   and  CD  
ROOT
ATOM     14  CA  GLU D 570     -18.033  -6.348 -13.375  1.00 32.92     0.160 C 
ENDROOT
BRANCH  14  15
ATOM     15  CB  GLU D 570     -19.500  -6.345 -13.794  1.00 32.92     0.043 C 
BRANCH  15  16
ATOM     16  CG  GLU D 570     -20.133  -7.658 -14.080  1.00 32.92     0.100 C 
BRANCH  16  17
ATOM     17  CD  GLU D 570     -20.702  -7.747 -15.477  1.00 32.92     0.185 C 
ATOM     18  OE1 GLU D 570     -21.399  -6.808 -15.907  1.00 32.92    -0.647 OA
ATOM     19  OE2 GLU D 570     -20.462  -8.774 -16.141  1.00 32.92    -0.647 OA
ENDBRANCH  16  17
ENDBRANCH  15  16
ENDBRANCH  14  15
END_RES GLU D 570
ENDMDL
MODEL 5
REMARK VINA RESULT:      -6.8      1.725      2.879
REMARK  26 active torsions:
REMARK  status: ('A' for Active; 'I' for Inactive)
REMARK    1  A    between atoms: C_2  and  C_3 
REMARK    2  A    between atoms: C_3  and  C_4 
REMARK    3  A    between atoms: C_4  and  C_5 
REMARK    4  A    between atoms: C_5  and  C_6 
REMARK    5  A    between atoms: C_6  and  C_7 
REMARK    6  A    between atoms: C_7  and  C_8 
REMARK    7  A    between atoms: C_8  and  C_9 
REMARK    8  A    between atoms: C_9  and  C_10 
REMARK    9  A    between atoms: C_10  and  C_11 
REMARK   10  A    between atoms: C_11  and  C_12 
REMARK   11  A    between atoms: C_12  and  C_13 
REMARK   12  A    between atoms: C_13  and  C_14 
REMARK   13  A    between atoms: C_14  and  C_15 
REMARK   14  A    between atoms: C_15  and  C_16 
REMARK   15  A    between atoms: C_16  and  C_17 
REMARK   16  A    between atoms: C_17  and  C_18 
REMARK   17  A    between atoms: C_18  and  C_19 
REMARK   18  A    between atoms: C_19  and  C_20 
REMARK   19  A    between atoms: C_20  and  C_21 
REMARK   20  A    between atoms: C_21  and  C_22 
REMARK   21  A    between atoms: C_22  and  O_24 
REMARK   22  A    between atoms: O_24  and  C_25 
REMARK   23  A    between atoms: C_25  and  C_26 
REMARK   24  A    between atoms: C_26  and  C_27 
REMARK   25  A    between atoms: C_26  and  O_29 
REMARK   26  A    between atoms: C_27  and  O_28 
ROOT
HETATM    1  C   UNL     1     -20.592  -4.489  -6.278  1.00  0.00     0.000 C 
ENDROOT
BRANCH   1   2
HETATM    2  C   UNL     1     -20.537  -5.659  -5.312  1.00  0.00     0.000 C 
BRANCH   2   3
HETATM    3  C   UNL     1     -21.917  -6.274  -5.159  1.00  0.00     0.000 C 
BRANCH   3   4
HETATM    4  C   UNL     1     -22.153  -6.659  -3.710  1.00  0.00     0.000 C 
BRANCH   4   5
HETATM    5  C   UNL     1     -21.077  -7.623  -3.250  1.00  0.00     0.000 C 
BRANCH   5   6
HETATM    6  C   UNL     1     -20.925  -7.545  -1.743  1.00  0.00     0.000 C 
BRANCH   6   7
HETATM    7  C   UNL     1     -22.167  -6.925  -1.131  1.00  0.00     0.000 C 
BRANCH   7   8
HETATM    8  C   UNL     1     -22.727  -7.843  -0.061  1.00  0.00     0.000 C 
BRANCH   8   9
HETATM    9  C   UNL     1     -21.614  -8.695   0.520  1.00  0.00     0.000 C 
BRANCH   9  10
HETATM   10  C   UNL     1     -21.851 -10.154   0.179  1.00  0.00     0.000 C 
BRANCH  10  11
HETATM   11  C   UNL     1     -23.320 -10.381  -0.124  1.00  0.00     0.000 C 
BRANCH  11  12
HETATM   12  C   UNL     1     -23.494 -10.778  -1.579  1.00  0.00     0.000 C 
BRANCH  12  13
HETATM   13  C   UNL     1     -22.496 -11.865  -1.944  1.00  0.00     0.000 C 
BRANCH  13  14
HETATM   14  C   UNL     1     -21.629 -11.407  -3.104  1.00  0.00    -0.000 C 
BRANCH  14  15
HETATM   15  C   UNL     1     -21.484 -12.521  -4.132  1.00  0.00    -0.005 C 
HETATM   16  C   UNL     1     -21.935 -12.041  -5.498  1.00  0.00     0.005 C 
ENDBRANCH  14  15
ENDBRANCH  13  14
ENDBRANCH  12  13
ENDBRANCH  11  12
ENDBRANCH  10  11
ENDBRANCH   9  10
ENDBRANCH   8   9
ENDBRANCH   7   8
ENDBRANCH   6   7
ENDBRANCH   5   6
ENDBRANCH   4   5
ENDBRANCH   3   4
ENDBRANCH   2   3
ENDBRANCH   1   2
BRANCH   1  17
HETATM   17  C   UNL     1     -19.386  -4.521  -7.204  1.00  0.00     0.000 C 
BRANCH  17  18
HETATM   18  C   UNL     1     -19.825  -4.344  -8.648  1.00  0.00     0.000 C 
BRANCH  18  19
HETATM   19  C   UNL     1     -21.242  -4.874  -8.843  1.00  0.00     0.000 C 
BRANCH  19  20
HETATM   20  C   UNL     1     -22.087  -3.841  -9.573  1.00  0.00     0.010 C 
BRANCH  20  21
HETATM   21  C   UNL     1     -23.551  -3.874  -9.138  1.00  0.00     0.111 C 
BRANCH  21  22
HETATM   22  C   UNL     1     -24.420  -3.360 -10.268  1.00  0.00     0.258 C 
HETATM   23  O   UNL     1     -25.624  -3.221 -10.199  1.00  0.00    -0.265 OA
BRANCH  22  24
HETATM   24  O   UNL     1     -23.665  -3.152 -11.390  1.00  0.00    -0.319 OA
BRANCH  24  25
HETATM   25  C   UNL     1     -24.445  -2.873 -12.563  1.00  0.00     0.212 C 
BRANCH  25  26
HETATM   26  C   UNL     1     -23.605  -2.887 -13.844  1.00  0.00     0.166 C 
BRANCH  26  27
HETATM   27  C   UNL     1     -23.756  -1.599 -14.658  1.00  0.00     0.198 C 
BRANCH  27  28
HETATM   28  O   UNL     1     -25.078  -1.091 -14.539  1.00  0.00    -0.398 OA
HETATM   29  H   UNL     1     -25.671  -1.601 -15.117  1.00  0.00     0.209 HD
ENDBRANCH  27  28
ENDBRANCH  26  27
BRANCH  26  30
HETATM   30  O   UNL     1     -22.247  -3.144 -13.505  1.00  0.00    -0.391 OA
HETATM   31  H   UNL     1     -22.126  -4.094 -13.318  1.00  0.00     0.210 HD
ENDBRANCH  26  30
ENDBRANCH  25  26
ENDBRANCH  24  25
ENDBRANCH  22  24
ENDBRANCH  21  22
ENDBRANCH  20  21
ENDBRANCH  19  20
ENDBRANCH  18  19
ENDBRANCH  17  18
ENDBRANCH   1  17
TORSDOF 26
BEGIN_RES ARG D 557
REMARK  4 active torsions:
REMARK  status: ('A' for Active; 'I' for Inactive)
REMARK    1  A    between atoms: CA   and  CB  
REMARK    2  A    between atoms: CB   and  CG  
REMARK    3  A    between atoms: CG   and  CD  
REMARK    4  A    between atoms: CD   and  NE  
REMARK       I    between atoms: NE   and  CZ  
REMARK       I    between atoms: CZ   and  NH1 
REMARK       I    between atoms: CZ   and  NH2 
ROOT
ATOM      1  CA  ARG D 557     -26.217   2.705 -17.014  1.00 35.49     0.159 C 
ENDROOT
BRANCH   1   2
ATOM      2  CB  ARG D 557     -26.789   1.319 -17.183  1.00 35.49     0.034 C 
BRANCH   2   3
ATOM      3  CG  ARG D 557     -28.226   1.162 -16.928  1.00 35.49     0.027 C 
BRANCH   3   4
ATOM      4  CD  ARG D 557     -28.657  -0.254 -16.981  1.00 35.49     0.116 C 
BRANCH   4   5
ATOM      5  NE  ARG D 557     -27.728  -1.129 -16.315  1.00 35.49    -0.212 N 
ATOM      6  CZ  ARG D 557     -27.729  -2.441 -16.377  1.00 35.49     0.666 C 
ATOM      7  NH1 ARG D 557     -28.625  -3.117 -17.073  1.00 35.49    -0.235 N 
ATOM      8  NH2 ARG D 557     -26.798  -3.074 -15.725  1.00 35.49    -0.235 N 
ATOM      9  HH  ARG D 557     -29.246  -2.721 -17.511  1.00 35.49     0.174 HD
ATOM     10  HH  ARG D 557     -28.574  -3.973 -17.079  1.00 35.49     0.174 HD
ATOM     11  HH  ARG D 557     -26.228  -2.611 -15.291  1.00 35.49     0.174 HD
ATOM     12  HH  ARG D 557     -26.763  -3.921 -15.745  1.00 35.49     0.174 HD
ATOM     13  HE  ARG D 557     -27.161  -0.780 -15.786  1.00 35.49     0.178 HD
ENDBRANCH   4   5
ENDBRANCH   3   4
ENDBRANCH   2   3
ENDBRANCH   1   2
END_RES ARG D 557
BEGIN_RES GLU D 570
REMARK  3 active torsions:
REMARK  status: ('A' for Active; 'I' for Inactive)
REMARK    5  A    between atoms: CA   and  CB  
REMARK    6  A    between atoms: CB   and  CG  
REMARK    7  A    between atoms: CG   and  CD  
ROOT
ATOM     14  CA  GLU D 570     -18.033  -6.348 -13.375  1.00 32.92     0.160 C 
ENDROOT
BRANCH  14  15
ATOM     15  CB  GLU D 570     -19.500  -6.345 -13.794  1.00 32.92     0.043 C 
BRANCH  15  16
ATOM     16  CG  GLU D 570     -19.803  -6.084 -15.225  1.00 32.92     0.100 C 
BRANCH  16  17
ATOM     17  CD  GLU D 570     -21.264  -5.791 -15.475  1.00 32.92     0.185 C 
ATOM     18  OE1 GLU D 570     -22.119  -6.615 -15.099  1.00 32.92    -0.647 OA
ATOM     19  OE2 GLU D 570     -21.555  -4.733 -16.067  1.00 32.92    -0.647 OA
ENDBRANCH  16  17
ENDBRANCH  15  16
ENDBRANCH  14  15
END_RES GLU D 570
ENDMDL
MODEL 6
REMARK VINA RESULT:      -6.8      1.951      3.581
REMARK  26 active torsions:
REMARK  status: ('A' for Active; 'I' for Inactive)
REMARK    1  A    between atoms: C_2  and  C_3 
REMARK    2  A    between atoms: C_3  and  C_4 
REMARK    3  A    between atoms: C_4  and  C_5 
REMARK    4  A    between atoms: C_5  and  C_6 
REMARK    5  A    between atoms: C_6  and  C_7 
REMARK    6  A    between atoms: C_7  and  C_8 
REMARK    7  A    between atoms: C_8  and  C_9 
REMARK    8  A    between atoms: C_9  and  C_10 
REMARK    9  A    between atoms: C_10  and  C_11 
REMARK   10  A    between atoms: C_11  and  C_12 
REMARK   11  A    between atoms: C_12  and  C_13 
REMARK   12  A    between atoms: C_13  and  C_14 
REMARK   13  A    between atoms: C_14  and  C_15 
REMARK   14  A    between atoms: C_15  and  C_16 
REMARK   15  A    between atoms: C_16  and  C_17 
REMARK   16  A    between atoms: C_17  and  C_18 
REMARK   17  A    between atoms: C_18  and  C_19 
REMARK   18  A    between atoms: C_19  and  C_20 
REMARK   19  A    between atoms: C_20  and  C_21 
REMARK   20  A    between atoms: C_21  and  C_22 
REMARK   21  A    between atoms: C_22  and  O_24 
REMARK   22  A    between atoms: O_24  and  C_25 
REMARK   23  A    between atoms: C_25  and  C_26 
REMARK   24  A    between atoms: C_26  and  C_27 
REMARK   25  A    between atoms: C_26  and  O_29 
REMARK   26  A    between atoms: C_27  and  O_28 
ROOT
HETATM    1  C   UNL     1     -21.852  -6.305  -5.469  1.00  0.00     0.000 C 
ENDROOT
BRANCH   1   2
HETATM    2  C   UNL     1     -20.570  -7.104  -5.623  1.00  0.00     0.000 C 
BRANCH   2   3
HETATM    3  C   UNL     1     -20.407  -8.057  -4.451  1.00  0.00     0.000 C 
BRANCH   3   4
HETATM    4  C   UNL     1     -21.745  -8.684  -4.106  1.00  0.00     0.000 C 
BRANCH   4   5
HETATM    5  C   UNL     1     -21.532  -9.907  -3.234  1.00  0.00     0.000 C 
BRANCH   5   6
HETATM    6  C   UNL     1     -22.745 -10.814  -3.313  1.00  0.00     0.000 C 
BRANCH   6   7
HETATM    7  C   UNL     1     -23.289 -11.070  -1.919  1.00  0.00     0.000 C 
BRANCH   7   8
HETATM    8  C   UNL     1     -22.589 -12.268  -1.306  1.00  0.00     0.000 C 
BRANCH   8   9
HETATM    9  C   UNL     1     -22.567 -12.132   0.205  1.00  0.00     0.000 C 
BRANCH   9  10
HETATM   10  C   UNL     1     -21.137 -12.193   0.708  1.00  0.00     0.000 C 
BRANCH  10  11
HETATM   11  C   UNL     1     -20.420 -10.896   0.381  1.00  0.00     0.000 C 
BRANCH  11  12
HETATM   12  C   UNL     1     -20.699  -9.864   1.459  1.00  0.00     0.000 C 
BRANCH  12  13
HETATM   13  C   UNL     1     -20.965  -8.509   0.824  1.00  0.00     0.000 C 
BRANCH  13  14
HETATM   14  C   UNL     1     -22.425  -8.128   1.000  1.00  0.00    -0.000 C 
BRANCH  14  15
HETATM   15  C   UNL     1     -23.034  -7.719  -0.334  1.00  0.00    -0.005 C 
HETATM   16  C   UNL     1     -22.113  -6.760  -1.063  1.00  0.00     0.005 C 
ENDBRANCH  14  15
ENDBRANCH  13  14
ENDBRANCH  12  13
ENDBRANCH  11  12
ENDBRANCH  10  11
ENDBRANCH   9  10
ENDBRANCH   8   9
ENDBRANCH   7   8
ENDBRANCH   6   7
ENDBRANCH   5   6
ENDBRANCH   4   5
ENDBRANCH   3   4
ENDBRANCH   2   3
ENDBRANCH   1   2
BRANCH   1  17
HETATM   17  C   UNL     1     -21.885  -5.172  -6.484  1.00  0.00     0.000 C 
BRANCH  17  18
HETATM   18  C   UNL     1     -20.655  -5.227  -7.375  1.00  0.00     0.000 C 
BRANCH  18  19
HETATM   19  C   UNL     1     -20.937  -4.553  -8.714  1.00  0.00     0.000 C 
BRANCH  19  20
HETATM   20  C   UNL     1     -22.409  -4.183  -8.810  1.00  0.00     0.010 C 
BRANCH  20  21
HETATM   21  C   UNL     1     -22.892  -4.083 -10.255  1.00  0.00     0.111 C 
BRANCH  21  22
HETATM   22  C   UNL     1     -24.247  -3.407 -10.285  1.00  0.00     0.258 C 
HETATM   23  O   UNL     1     -24.798  -2.929  -9.315  1.00  0.00    -0.265 OA
BRANCH  22  24
HETATM   24  O   UNL     1     -24.787  -3.484 -11.541  1.00  0.00    -0.319 OA
BRANCH  24  25
HETATM   25  C   UNL     1     -24.016  -2.798 -12.540  1.00  0.00     0.212 C 
BRANCH  25  26
HETATM   26  C   UNL     1     -24.779  -2.627 -13.857  1.00  0.00     0.166 C 
BRANCH  26  27
HETATM   27  C   UNL     1     -24.278  -1.433 -14.673  1.00  0.00     0.198 C 
BRANCH  27  28
HETATM   28  O   UNL     1     -25.350  -0.842 -15.396  1.00  0.00    -0.398 OA
HETATM   29  H   UNL     1     -24.991  -0.321 -16.134  1.00  0.00     0.209 HD
ENDBRANCH  27  28
ENDBRANCH  26  27
BRANCH  26  30
HETATM   30  O   UNL     1     -24.707  -3.841 -14.595  1.00  0.00    -0.391 OA
HETATM   31  H   UNL     1     -24.071  -3.747 -15.329  1.00  0.00     0.210 HD
ENDBRANCH  26  30
ENDBRANCH  25  26
ENDBRANCH  24  25
ENDBRANCH  22  24
ENDBRANCH  21  22
ENDBRANCH  20  21
ENDBRANCH  19  20
ENDBRANCH  18  19
ENDBRANCH  17  18
ENDBRANCH   1  17
TORSDOF 26
BEGIN_RES ARG D 557
REMARK  4 active torsions:
REMARK  status: ('A' for Active; 'I' for Inactive)
REMARK    1  A    between atoms: CA   and  CB  
REMARK    2  A    between atoms: CB   and  CG  
REMARK    3  A    between atoms: CG   and  CD  
REMARK    4  A    between atoms: CD   and  NE  
REMARK       I    between atoms: NE   and  CZ  
REMARK       I    between atoms: CZ   and  NH1 
REMARK       I    between atoms: CZ   and  NH2 
ROOT
ATOM      1  CA  ARG D 557     -26.217   2.705 -17.014  1.00 35.49     0.159 C 
ENDROOT
BRANCH   1   2
ATOM      2  CB  ARG D 557     -26.789   1.319 -17.183  1.00 35.49     0.034 C 
BRANCH   2   3
ATOM      3  CG  ARG D 557     -28.214   1.150 -16.873  1.00 35.49     0.027 C 
BRANCH   3   4
ATOM      4  CD  ARG D 557     -28.712  -0.199 -17.227  1.00 35.49     0.116 C 
BRANCH   4   5
ATOM      5  NE  ARG D 557     -27.959  -1.242 -16.582  1.00 35.49    -0.212 N 
ATOM      6  CZ  ARG D 557     -28.142  -2.533 -16.744  1.00 35.49     0.666 C 
ATOM      7  NH1 ARG D 557     -29.080  -3.023 -17.533  1.00 35.49    -0.235 N 
ATOM      8  NH2 ARG D 557     -27.351  -3.338 -16.095  1.00 35.49    -0.235 N 
ATOM      9  HH  ARG D 557     -29.611  -2.513 -17.971  1.00 35.49     0.174 HD
ATOM     10  HH  ARG D 557     -29.151  -3.875 -17.601  1.00 35.49     0.174 HD
ATOM     11  HH  ARG D 557     -26.750  -2.993 -15.598  1.00 35.49     0.174 HD
ATOM     12  HH  ARG D 557     -27.436  -4.177 -16.177  1.00 35.49     0.174 HD
ATOM     13  HE  ARG D 557     -27.382  -1.016 -16.001  1.00 35.49     0.178 HD
ENDBRANCH   4   5
ENDBRANCH   3   4
ENDBRANCH   2   3
ENDBRANCH   1   2
END_RES ARG D 557
BEGIN_RES GLU D 570
REMARK  3 active torsions:
REMARK  status: ('A' for Active; 'I' for Inactive)
REMARK    5  A    between atoms: CA   and  CB  
REMARK    6  A    between atoms: CB   and  CG  
REMARK    7  A    between atoms: CG   and  CD  
ROOT
ATOM     14  CA  GLU D 570     -18.033  -6.348 -13.375  1.00 32.92     0.160 C 
ENDROOT
BRANCH  14  15
ATOM     15  CB  GLU D 570     -19.500  -6.345 -13.794  1.00 32.92     0.043 C 
BRANCH  15  16
ATOM     16  CG  GLU D 570     -20.432  -5.485 -13.019  1.00 32.92     0.100 C 
BRANCH  16  17
ATOM     17  CD  GLU D 570     -21.736  -5.232 -13.738  1.00 32.92     0.185 C 
ATOM     18  OE1 GLU D 570     -22.776  -5.769 -13.311  1.00 32.92    -0.647 OA
ATOM     19  OE2 GLU D 570     -21.715  -4.503 -14.748  1.00 32.92    -0.647 OA
ENDBRANCH  16  17
ENDBRANCH  15  16
ENDBRANCH  14  15
END_RES GLU D 570
ENDMDL
MODEL 7
REMARK VINA RESULT:      -6.7      1.285      1.863
REMARK  26 active torsions:
REMARK  status: ('A' for Active; 'I' for Inactive)
REMARK    1  A    between atoms: C_2  and  C_3 
REMARK    2  A    between atoms: C_3  and  C_4 
REMARK    3  A    between atoms: C_4  and  C_5 
REMARK    4  A    between atoms: C_5  and  C_6 
REMARK    5  A    between atoms: C_6  and  C_7 
REMARK    6  A    between atoms: C_7  and  C_8 
REMARK    7  A    between atoms: C_8  and  C_9 
REMARK    8  A    between atoms: C_9  and  C_10 
REMARK    9  A    between atoms: C_10  and  C_11 
REMARK   10  A    between atoms: C_11  and  C_12 
REMARK   11  A    between atoms: C_12  and  C_13 
REMARK   12  A    between atoms: C_13  and  C_14 
REMARK   13  A    between atoms: C_14  and  C_15 
REMARK   14  A    between atoms: C_15  and  C_16 
REMARK   15  A    between atoms: C_16  and  C_17 
REMARK   16  A    between atoms: C_17  and  C_18 
REMARK   17  A    between atoms: C_18  and  C_19 
REMARK   18  A    between atoms: C_19  and  C_20 
REMARK   19  A    between atoms: C_20  and  C_21 
REMARK   20  A    between atoms: C_21  and  C_22 
REMARK   21  A    between atoms: C_22  and  O_24 
REMARK   22  A    between atoms: O_24  and  C_25 
REMARK   23  A    between atoms: C_25  and  C_26 
REMARK   24  A    between atoms: C_26  and  C_27 
REMARK   25  A    between atoms: C_26  and  O_29 
REMARK   26  A    between atoms: C_27  and  O_28 
ROOT
HETATM    1  C   UNL     1     -20.411  -3.891  -9.594  1.00  0.00     0.000 C 
ENDROOT
BRANCH   1   2
HETATM    2  C   UNL     1     -21.586  -4.225  -8.692  1.00  0.00     0.000 C 
BRANCH   2   3
HETATM    3  C   UNL     1     -21.335  -3.695  -7.290  1.00  0.00     0.000 C 
BRANCH   3   4
HETATM    4  C   UNL     1     -20.548  -4.714  -6.487  1.00  0.00     0.000 C 
BRANCH   4   5
HETATM    5  C   UNL     1     -21.191  -6.081  -6.617  1.00  0.00     0.000 C 
BRANCH   5   6
HETATM    6  C   UNL     1     -21.824  -6.482  -5.297  1.00  0.00     0.000 C 
BRANCH   6   7
HETATM    7  C   UNL     1     -21.020  -5.909  -4.145  1.00  0.00     0.000 C 
BRANCH   7   8
HETATM    8  C   UNL     1     -21.774  -6.104  -2.844  1.00  0.00     0.000 C 
BRANCH   8   9
HETATM    9  C   UNL     1     -21.679  -7.554  -2.407  1.00  0.00     0.000 C 
BRANCH   9  10
HETATM   10  C   UNL     1     -22.036  -7.674  -0.937  1.00  0.00     0.000 C 
BRANCH  10  11
HETATM   11  C   UNL     1     -21.137  -8.697  -0.270  1.00  0.00     0.000 C 
BRANCH  11  12
HETATM   12  C   UNL     1     -21.977  -9.700   0.501  1.00  0.00     0.000 C 
BRANCH  12  13
HETATM   13  C   UNL     1     -23.366  -9.792  -0.108  1.00  0.00     0.000 C 
BRANCH  13  14
HETATM   14  C   UNL     1     -23.721 -11.243  -0.383  1.00  0.00    -0.000 C 
BRANCH  14  15
HETATM   15  C   UNL     1     -22.783 -11.831  -1.428  1.00  0.00    -0.005 C 
HETATM   16  C   UNL     1     -22.949 -11.111  -2.752  1.00  0.00     0.005 C 
ENDBRANCH  14  15
ENDBRANCH  13  14
ENDBRANCH  12  13
ENDBRANCH  11  12
ENDBRANCH  10  11
ENDBRANCH   9  10
ENDBRANCH   8   9
ENDBRANCH   7   8
ENDBRANCH   6   7
ENDBRANCH   5   6
ENDBRANCH   4   5
ENDBRANCH   3   4
ENDBRANCH   2   3
ENDBRANCH   1   2
BRANCH   1  17
HETATM   17  C   UNL     1     -20.673  -4.402 -11.002  1.00  0.00     0.000 C 
BRANCH  17  18
HETATM   18  C   UNL     1     -22.142  -4.238 -11.357  1.00  0.00     0.000 C 
BRANCH  18  19
HETATM   19  C   UNL     1     -22.373  -2.906 -12.065  1.00  0.00     0.000 C 
BRANCH  19  20
HETATM   20  C   UNL     1     -22.896  -3.149 -13.472  1.00  0.00     0.010 C 
BRANCH  20  21
HETATM   21  C   UNL     1     -24.043  -2.209 -13.837  1.00  0.00     0.111 C 
BRANCH  21  22
HETATM   22  C   UNL     1     -25.110  -2.987 -14.581  1.00  0.00     0.258 C 
HETATM   23  O   UNL     1     -26.225  -2.569 -14.819  1.00  0.00    -0.265 OA
BRANCH  22  24
HETATM   24  O   UNL     1     -24.661  -4.246 -14.873  1.00  0.00    -0.319 OA
BRANCH  24  25
HETATM   25  C   UNL     1     -25.696  -5.134 -15.325  1.00  0.00     0.212 C 
BRANCH  25  26
HETATM   26  C   UNL     1     -25.231  -6.592 -15.392  1.00  0.00     0.166 C 
BRANCH  26  27
HETATM   27  C   UNL     1     -24.929  -7.046 -16.822  1.00  0.00     0.198 C 
BRANCH  27  28
HETATM   28  O   UNL     1     -23.825  -7.941 -16.835  1.00  0.00    -0.398 OA
HETATM   29  H   UNL     1     -24.151  -8.854 -16.754  1.00  0.00     0.209 HD
ENDBRANCH  27  28
ENDBRANCH  26  27
BRANCH  26  30
HETATM   30  O   UNL     1     -24.108  -6.761 -14.534  1.00  0.00    -0.391 OA
HETATM   31  H   UNL     1     -23.687  -7.624 -14.704  1.00  0.00     0.210 HD
ENDBRANCH  26  30
ENDBRANCH  25  26
ENDBRANCH  24  25
ENDBRANCH  22  24
ENDBRANCH  21  22
ENDBRANCH  20  21
ENDBRANCH  19  20
ENDBRANCH  18  19
ENDBRANCH  17  18
ENDBRANCH   1  17
TORSDOF 26
BEGIN_RES ARG D 557
REMARK  4 active torsions:
REMARK  status: ('A' for Active; 'I' for Inactive)
REMARK    1  A    between atoms: CA   and  CB  
REMARK    2  A    between atoms: CB   and  CG  
REMARK    3  A    between atoms: CG   and  CD  
REMARK    4  A    between atoms: CD   and  NE  
REMARK       I    between atoms: NE   and  CZ  
REMARK       I    between atoms: CZ   and  NH1 
REMARK       I    between atoms: CZ   and  NH2 
ROOT
ATOM      1  CA  ARG D 557     -26.217   2.705 -17.014  1.00 35.49     0.159 C 
ENDROOT
BRANCH   1   2
ATOM      2  CB  ARG D 557     -26.789   1.319 -17.183  1.00 35.49     0.034 C 
BRANCH   2   3
ATOM      3  CG  ARG D 557     -28.097   1.064 -16.566  1.00 35.49     0.027 C 
BRANCH   3   4
ATOM      4  CD  ARG D 557     -28.853   0.002 -17.267  1.00 35.49     0.116 C 
BRANCH   4   5
ATOM      5  NE  ARG D 557     -28.311  -1.307 -17.014  1.00 35.49    -0.212 N 
ATOM      6  CZ  ARG D 557     -28.960  -2.444 -17.134  1.00 35.49     0.666 C 
ATOM      7  NH1 ARG D 557     -30.227  -2.502 -17.499  1.00 35.49    -0.235 N 
ATOM      8  NH2 ARG D 557     -28.303  -3.539 -16.884  1.00 35.49    -0.235 N 
ATOM      9  HH  ARG D 557     -30.678  -1.794 -17.671  1.00 35.49     0.174 HD
ATOM     10  HH  ARG D 557     -30.598  -3.272 -17.563  1.00 35.49     0.174 HD
ATOM     11  HH  ARG D 557     -27.484  -3.472 -16.658  1.00 35.49     0.174 HD
ATOM     12  HH  ARG D 557     -28.687  -4.292 -16.955  1.00 35.49     0.174 HD
ATOM     13  HE  ARG D 557     -27.521  -1.359 -16.705  1.00 35.49     0.178 HD
ENDBRANCH   4   5
ENDBRANCH   3   4
ENDBRANCH   2   3
ENDBRANCH   1   2
END_RES ARG D 557
BEGIN_RES GLU D 570
REMARK  3 active torsions:
REMARK  status: ('A' for Active; 'I' for Inactive)
REMARK    5  A    between atoms: CA   and  CB  
REMARK    6  A    between atoms: CB   and  CG  
REMARK    7  A    between atoms: CG   and  CD  
ROOT
ATOM     14  CA  GLU D 570     -18.033  -6.348 -13.375  1.00 32.92     0.160 C 
ENDROOT
BRANCH  14  15
ATOM     15  CB  GLU D 570     -19.500  -6.345 -13.794  1.00 32.92     0.043 C 
BRANCH  15  16
ATOM     16  CG  GLU D 570     -19.834  -5.745 -15.111  1.00 32.92     0.100 C 
BRANCH  16  17
ATOM     17  CD  GLU D 570     -21.114  -6.292 -15.700  1.00 32.92     0.185 C 
ATOM     18  OE1 GLU D 570     -21.849  -5.533 -16.361  1.00 32.92    -0.647 OA
ATOM     19  OE2 GLU D 570     -21.392  -7.487 -15.485  1.00 32.92    -0.647 OA
ENDBRANCH  16  17
ENDBRANCH  15  16
ENDBRANCH  14  15
END_RES GLU D 570
ENDMDL
MODEL 8
REMARK VINA RESULT:      -6.5      2.509      4.020
REMARK  26 active torsions:
REMARK  status: ('A' for Active; 'I' for Inactive)
REMARK    1  A    between atoms: C_2  and  C_3 
REMARK    2  A    between atoms: C_3  and  C_4 
REMARK    3  A    between atoms: C_4  and  C_5 
REMARK    4  A    between atoms: C_5  and  C_6 
REMARK    5  A    between atoms: C_6  and  C_7 
REMARK    6  A    between atoms: C_7  and  C_8 
REMARK    7  A    between atoms: C_8  and  C_9 
REMARK    8  A    between atoms: C_9  and  C_10 
REMARK    9  A    between atoms: C_10  and  C_11 
REMARK   10  A    between atoms: C_11  and  C_12 
REMARK   11  A    between atoms: C_12  and  C_13 
REMARK   12  A    between atoms: C_13  and  C_14 
REMARK   13  A    between atoms: C_14  and  C_15 
REMARK   14  A    between atoms: C_15  and  C_16 
REMARK   15  A    between atoms: C_16  and  C_17 
REMARK   16  A    between atoms: C_17  and  C_18 
REMARK   17  A    between atoms: C_18  and  C_19 
REMARK   18  A    between atoms: C_19  and  C_20 
REMARK   19  A    between atoms: C_20  and  C_21 
REMARK   20  A    between atoms: C_21  and  C_22 
REMARK   21  A    between atoms: C_22  and  O_24 
REMARK   22  A    between atoms: O_24  and  C_25 
REMARK   23  A    between atoms: C_25  and  C_26 
REMARK   24  A    between atoms: C_26  and  C_27 
REMARK   25  A    between atoms: C_26  and  O_29 
REMARK   26  A    between atoms: C_27  and  O_28 
ROOT
HETATM    1  C   UNL     1     -19.691  -4.289  -7.257  1.00  0.00     0.000 C 
ENDROOT
BRANCH   1   2
HETATM    2  C   UNL     1     -20.131  -4.689  -5.860  1.00  0.00     0.000 C 
BRANCH   2   3
HETATM    3  C   UNL     1     -21.252  -5.711  -5.939  1.00  0.00     0.000 C 
BRANCH   3   4
HETATM    4  C   UNL     1     -21.433  -6.384  -4.592  1.00  0.00     0.000 C 
BRANCH   4   5
HETATM    5  C   UNL     1     -21.728  -7.859  -4.787  1.00  0.00     0.000 C 
BRANCH   5   6
HETATM    6  C   UNL     1     -20.790  -8.690  -3.933  1.00  0.00     0.000 C 
BRANCH   6   7
HETATM    7  C   UNL     1     -19.955  -9.597  -4.817  1.00  0.00     0.000 C 
BRANCH   7   8
HETATM    8  C   UNL     1     -18.710  -8.863  -5.277  1.00  0.00     0.000 C 
BRANCH   8   9
HETATM    9  C   UNL     1     -17.775  -9.828  -5.982  1.00  0.00     0.000 C 
BRANCH   9  10
HETATM   10  C   UNL     1     -18.185 -11.257  -5.678  1.00  0.00     0.000 C 
BRANCH  10  11
HETATM   11  C   UNL     1     -17.904 -12.141  -6.878  1.00  0.00     0.000 C 
BRANCH  11  12
HETATM   12  C   UNL     1     -19.162 -12.297  -7.713  1.00  0.00     0.000 C 
BRANCH  12  13
HETATM   13  C   UNL     1     -20.241 -12.996  -6.903  1.00  0.00     0.000 C 
BRANCH  13  14
HETATM   14  C   UNL     1     -21.516 -12.172  -6.912  1.00  0.00    -0.000 C 
BRANCH  14  15
HETATM   15  C   UNL     1     -22.275 -12.350  -5.604  1.00  0.00    -0.005 C 
HETATM   16  C   UNL     1     -22.785 -13.772  -5.479  1.00  0.00     0.005 C 
ENDBRANCH  14  15
ENDBRANCH  13  14
ENDBRANCH  12  13
ENDBRANCH  11  12
ENDBRANCH  10  11
ENDBRANCH   9  10
ENDBRANCH   8   9
ENDBRANCH   7   8
ENDBRANCH   6   7
ENDBRANCH   5   6
ENDBRANCH   4   5
ENDBRANCH   3   4
ENDBRANCH   2   3
ENDBRANCH   1   2
BRANCH   1  17
HETATM   17  C   UNL     1     -20.139  -5.336  -8.264  1.00  0.00     0.000 C 
BRANCH  17  18
HETATM   18  C   UNL     1     -20.231  -4.726  -9.654  1.00  0.00     0.000 C 
BRANCH  18  19
HETATM   19  C   UNL     1     -21.461  -3.831  -9.762  1.00  0.00     0.000 C 
BRANCH  19  20
HETATM   20  C   UNL     1     -22.705  -4.604  -9.350  1.00  0.00     0.010 C 
BRANCH  20  21
HETATM   21  C   UNL     1     -23.748  -4.666 -10.463  1.00  0.00     0.111 C 
BRANCH  21  22
HETATM   22  C   UNL     1     -24.655  -3.457 -10.368  1.00  0.00     0.258 C 
HETATM   23  O   UNL     1     -25.017  -2.950  -9.325  1.00  0.00    -0.265 OA
BRANCH  22  24
HETATM   24  O   UNL     1     -25.065  -3.073 -11.616  1.00  0.00    -0.319 OA
BRANCH  24  25
HETATM   25  C   UNL     1     -24.016  -3.095 -12.596  1.00  0.00     0.212 C 
BRANCH  25  26
HETATM   26  C   UNL     1     -24.533  -2.840 -14.016  1.00  0.00     0.166 C 
BRANCH  26  27
HETATM   27  C   UNL     1     -23.750  -1.739 -14.735  1.00  0.00     0.198 C 
BRANCH  27  28
HETATM   28  O   UNL     1     -22.697  -2.304 -15.507  1.00  0.00    -0.398 OA
HETATM   29  H   UNL     1     -21.890  -1.777 -15.381  1.00  0.00     0.209 HD
ENDBRANCH  27  28
ENDBRANCH  26  27
BRANCH  26  30
HETATM   30  O   UNL     1     -24.516  -4.064 -14.742  1.00  0.00    -0.391 OA
HETATM   31  H   UNL     1     -25.428  -4.385 -14.874  1.00  0.00     0.210 HD
ENDBRANCH  26  30
ENDBRANCH  25  26
ENDBRANCH  24  25
ENDBRANCH  22  24
ENDBRANCH  21  22
ENDBRANCH  20  21
ENDBRANCH  19  20
ENDBRANCH  18  19
ENDBRANCH  17  18
ENDBRANCH   1  17
TORSDOF 26
BEGIN_RES ARG D 557
REMARK  4 active torsions:
REMARK  status: ('A' for Active; 'I' for Inactive)
REMARK    1  A    between atoms: CA   and  CB  
REMARK    2  A    between atoms: CB   and  CG  
REMARK    3  A    between atoms: CG   and  CD  
REMARK    4  A    between atoms: CD   and  NE  
REMARK       I    between atoms: NE   and  CZ  
REMARK       I    between atoms: CZ   and  NH1 
REMARK       I    between atoms: CZ   and  NH2 
ROOT
ATOM      1  CA  ARG D 557     -26.217   2.705 -17.014  1.00 35.49     0.159 C 
ENDROOT
BRANCH   1   2
ATOM      2  CB  ARG D 557     -26.789   1.319 -17.183  1.00 35.49     0.034 C 
BRANCH   2   3
ATOM      3  CG  ARG D 557     -28.236   1.225 -17.411  1.00 35.49     0.027 C 
BRANCH   3   4
ATOM      4  CD  ARG D 557     -28.895   0.286 -16.475  1.00 35.49     0.116 C 
BRANCH   4   5
ATOM      5  NE  ARG D 557     -29.274  -0.945 -17.118  1.00 35.49    -0.212 N 
ATOM      6  CZ  ARG D 557     -28.636  -2.090 -17.020  1.00 35.49     0.666 C 
ATOM      7  NH1 ARG D 557     -27.534  -2.230 -16.307  1.00 35.49    -0.235 N 
ATOM      8  NH2 ARG D 557     -29.135  -3.111 -17.656  1.00 35.49    -0.235 N 
ATOM      9  HH  ARG D 557     -27.190  -1.572 -15.879  1.00 35.49     0.174 HD
ATOM     10  HH  ARG D 557     -27.163  -3.002 -16.278  1.00 35.49     0.174 HD
ATOM     11  HH  ARG D 557     -29.852  -2.993 -18.103  1.00 35.49     0.174 HD
ATOM     12  HH  ARG D 557     -28.754  -3.867 -17.614  1.00 35.49     0.174 HD
ATOM     13  HE  ARG D 557     -29.932  -0.928 -17.656  1.00 35.49     0.178 HD
ENDBRANCH   4   5
ENDBRANCH   3   4
ENDBRANCH   2   3
ENDBRANCH   1   2
END_RES ARG D 557
BEGIN_RES GLU D 570
REMARK  3 active torsions:
REMARK  status: ('A' for Active; 'I' for Inactive)
REMARK    5  A    between atoms: CA   and  CB  
REMARK    6  A    between atoms: CB   and  CG  
REMARK    7  A    between atoms: CG   and  CD  
ROOT
ATOM     14  CA  GLU D 570     -18.033  -6.348 -13.375  1.00 32.92     0.160 C 
ENDROOT
BRANCH  14  15
ATOM     15  CB  GLU D 570     -19.500  -6.345 -13.794  1.00 32.92     0.043 C 
BRANCH  15  16
ATOM     16  CG  GLU D 570     -19.804  -6.066 -15.221  1.00 32.92     0.100 C 
BRANCH  16  17
ATOM     17  CD  GLU D 570     -21.103  -5.318 -15.412  1.00 32.92     0.185 C 
ATOM     18  OE1 GLU D 570     -21.442  -4.978 -16.562  1.00 32.92    -0.647 OA
ATOM     19  OE2 GLU D 570     -21.781  -5.056 -14.399  1.00 32.92    -0.647 OA
ENDBRANCH  16  17
ENDBRANCH  15  16
ENDBRANCH  14  15
END_RES GLU D 570
ENDMDL
MODEL 9
REMARK VINA RESULT:      -6.4      2.556      3.858
REMARK  26 active torsions:
REMARK  status: ('A' for Active; 'I' for Inactive)
REMARK    1  A    between atoms: C_2  and  C_3 
REMARK    2  A    between atoms: C_3  and  C_4 
REMARK    3  A    between atoms: C_4  and  C_5 
REMARK    4  A    between atoms: C_5  and  C_6 
REMARK    5  A    between atoms: C_6  and  C_7 
REMARK    6  A    between atoms: C_7  and  C_8 
REMARK    7  A    between atoms: C_8  and  C_9 
REMARK    8  A    between atoms: C_9  and  C_10 
REMARK    9  A    between atoms: C_10  and  C_11 
REMARK   10  A    between atoms: C_11  and  C_12 
REMARK   11  A    between atoms: C_12  and  C_13 
REMARK   12  A    between atoms: C_13  and  C_14 
REMARK   13  A    between atoms: C_14  and  C_15 
REMARK   14  A    between atoms: C_15  and  C_16 
REMARK   15  A    between atoms: C_16  and  C_17 
REMARK   16  A    between atoms: C_17  and  C_18 
REMARK   17  A    between atoms: C_18  and  C_19 
REMARK   18  A    between atoms: C_19  and  C_20 
REMARK   19  A    between atoms: C_20  and  C_21 
REMARK   20  A    between atoms: C_21  and  C_22 
REMARK   21  A    between atoms: C_22  and  O_24 
REMARK   22  A    between atoms: O_24  and  C_25 
REMARK   23  A    between atoms: C_25  and  C_26 
REMARK   24  A    between atoms: C_26  and  C_27 
REMARK   25  A    between atoms: C_26  and  O_29 
REMARK   26  A    between atoms: C_27  and  O_28 
ROOT
HETATM    1  C   UNL     1     -19.681  -4.382  -7.198  1.00  0.00     0.000 C 
ENDROOT
BRANCH   1   2
HETATM    2  C   UNL     1     -20.186  -4.950  -5.883  1.00  0.00     0.000 C 
BRANCH   2   3
HETATM    3  C   UNL     1     -20.732  -6.351  -6.096  1.00  0.00     0.000 C 
BRANCH   3   4
HETATM    4  C   UNL     1     -21.407  -6.840  -4.829  1.00  0.00     0.000 C 
BRANCH   4   5
HETATM    5  C   UNL     1     -21.401  -8.357  -4.794  1.00  0.00     0.000 C 
BRANCH   5   6
HETATM    6  C   UNL     1     -21.457  -8.840  -3.357  1.00  0.00     0.000 C 
BRANCH   6   7
HETATM    7  C   UNL     1     -20.351  -9.849  -3.108  1.00  0.00     0.000 C 
BRANCH   7   8
HETATM    8  C   UNL     1     -19.969  -9.844  -1.640  1.00  0.00     0.000 C 
BRANCH   8   9
HETATM    9  C   UNL     1     -19.611 -11.250  -1.197  1.00  0.00     0.000 C 
BRANCH   9  10
HETATM   10  C   UNL     1     -18.628 -11.863  -2.177  1.00  0.00     0.000 C 
BRANCH  10  11
HETATM   11  C   UNL     1     -17.482 -12.511  -1.421  1.00  0.00     0.000 C 
BRANCH  11  12
HETATM   12  C   UNL     1     -16.384 -11.493  -1.175  1.00  0.00     0.000 C 
BRANCH  12  13
HETATM   13  C   UNL     1     -15.697 -11.142  -2.484  1.00  0.00     0.000 C 
BRANCH  13  14
HETATM   14  C   UNL     1     -15.926  -9.678  -2.817  1.00  0.00    -0.000 C 
BRANCH  14  15
HETATM   15  C   UNL     1     -16.743  -9.544  -4.095  1.00  0.00    -0.005 C 
HETATM   16  C   UNL     1     -15.947 -10.042  -5.285  1.00  0.00     0.005 C 
ENDBRANCH  14  15
ENDBRANCH  13  14
ENDBRANCH  12  13
ENDBRANCH  11  12
ENDBRANCH  10  11
ENDBRANCH   9  10
ENDBRANCH   8   9
ENDBRANCH   7   8
ENDBRANCH   6   7
ENDBRANCH   5   6
ENDBRANCH   4   5
ENDBRANCH   3   4
ENDBRANCH   2   3
ENDBRANCH   1   2
BRANCH   1  17
HETATM   17  C   UNL     1     -20.076  -5.297  -8.347  1.00  0.00     0.000 C 
BRANCH  17  18
HETATM   18  C   UNL     1     -20.226  -4.496  -9.631  1.00  0.00     0.000 C 
BRANCH  18  19
HETATM   19  C   UNL     1     -21.519  -3.688  -9.606  1.00  0.00     0.000 C 
BRANCH  19  20
HETATM   20  C   UNL     1     -22.708  -4.615  -9.398  1.00  0.00     0.010 C 
BRANCH  20  21
HETATM   21  C   UNL     1     -23.656  -4.623 -10.595  1.00  0.00     0.111 C 
BRANCH  21  22
HETATM   22  C   UNL     1     -24.614  -3.456 -10.483  1.00  0.00     0.258 C 
HETATM   23  O   UNL     1     -25.039  -3.013  -9.435  1.00  0.00    -0.265 OA
BRANCH  22  24
HETATM   24  O   UNL     1     -24.987  -3.027 -11.729  1.00  0.00    -0.319 OA
BRANCH  24  25
HETATM   25  C   UNL     1     -23.931  -3.100 -12.700  1.00  0.00     0.212 C 
BRANCH  25  26
HETATM   26  C   UNL     1     -24.422  -2.825 -14.124  1.00  0.00     0.166 C 
BRANCH  26  27
HETATM   27  C   UNL     1     -23.538  -1.819 -14.865  1.00  0.00     0.198 C 
BRANCH  27  28
HETATM   28  O   UNL     1     -22.399  -2.471 -15.412  1.00  0.00    -0.398 OA
HETATM   29  H   UNL     1     -21.609  -1.928 -15.247  1.00  0.00     0.209 HD
ENDBRANCH  27  28
ENDBRANCH  26  27
BRANCH  26  30
HETATM   30  O   UNL     1     -24.523  -4.059 -14.825  1.00  0.00    -0.391 OA
HETATM   31  H   UNL     1     -23.909  -4.712 -14.439  1.00  0.00     0.210 HD
ENDBRANCH  26  30
ENDBRANCH  25  26
ENDBRANCH  24  25
ENDBRANCH  22  24
ENDBRANCH  21  22
ENDBRANCH  20  21
ENDBRANCH  19  20
ENDBRANCH  18  19
ENDBRANCH  17  18
ENDBRANCH   1  17
TORSDOF 26
BEGIN_RES ARG D 557
REMARK  4 active torsions:
REMARK  status: ('A' for Active; 'I' for Inactive)
REMARK    1  A    between atoms: CA   and  CB  
REMARK    2  A    between atoms: CB   and  CG  
REMARK    3  A    between atoms: CG   and  CD  
REMARK    4  A    between atoms: CD   and  NE  
REMARK       I    between atoms: NE   and  CZ  
REMARK       I    between atoms: CZ   and  NH1 
REMARK       I    between atoms: CZ   and  NH2 
ROOT
ATOM      1  CA  ARG D 557     -26.217   2.705 -17.014  1.00 35.49     0.159 C 
ENDROOT
BRANCH   1   2
ATOM      2  CB  ARG D 557     -26.789   1.319 -17.183  1.00 35.49     0.034 C 
BRANCH   2   3
ATOM      3  CG  ARG D 557     -28.239   1.223 -17.390  1.00 35.49     0.027 C 
BRANCH   3   4
ATOM      4  CD  ARG D 557     -28.882   0.276 -16.451  1.00 35.49     0.116 C 
BRANCH   4   5
ATOM      5  NE  ARG D 557     -29.251  -0.958 -17.094  1.00 35.49    -0.212 N 
ATOM      6  CZ  ARG D 557     -28.608  -2.099 -16.993  1.00 35.49     0.666 C 
ATOM      7  NH1 ARG D 557     -27.507  -2.232 -16.275  1.00 35.49    -0.235 N 
ATOM      8  NH2 ARG D 557     -29.098  -3.123 -17.629  1.00 35.49    -0.235 N 
ATOM      9  HH  ARG D 557     -27.168  -1.572 -15.847  1.00 35.49     0.174 HD
ATOM     10  HH  ARG D 557     -27.132  -3.001 -16.244  1.00 35.49     0.174 HD
ATOM     11  HH  ARG D 557     -29.814  -3.010 -18.078  1.00 35.49     0.174 HD
ATOM     12  HH  ARG D 557     -28.713  -3.877 -17.584  1.00 35.49     0.174 HD
ATOM     13  HE  ARG D 557     -29.908  -0.946 -17.634  1.00 35.49     0.178 HD
ENDBRANCH   4   5
ENDBRANCH   3   4
ENDBRANCH   2   3
ENDBRANCH   1   2
END_RES ARG D 557
BEGIN_RES GLU D 570
REMARK  3 active torsions:
REMARK  status: ('A' for Active; 'I' for Inactive)
REMARK    5  A    between atoms: CA   and  CB  
REMARK    6  A    between atoms: CB   and  CG  
REMARK    7  A    between atoms: CG   and  CD  
ROOT
ATOM     14  CA  GLU D 570     -18.033  -6.348 -13.375  1.00 32.92     0.160 C 
ENDROOT
BRANCH  14  15
ATOM     15  CB  GLU D 570     -19.500  -6.345 -13.794  1.00 32.92     0.043 C 
BRANCH  15  16
ATOM     16  CG  GLU D 570     -19.801  -6.122 -15.232  1.00 32.92     0.100 C 
BRANCH  16  17
ATOM     17  CD  GLU D 570     -21.154  -5.489 -15.460  1.00 32.92     0.185 C 
ATOM     18  OE1 GLU D 570     -21.463  -5.118 -16.608  1.00 32.92    -0.647 OA
ATOM     19  OE2 GLU D 570     -21.906  -5.347 -14.475  1.00 32.92    -0.647 OA
ENDBRANCH  16  17
ENDBRANCH  15  16
ENDBRANCH  14  15
END_RES GLU D 570
ENDMDL
