MODEL 1
REMARK VINA RESULT:      -7.1      0.000      0.000
REMARK  6 active torsions:
REMARK  status: ('A' for Active; 'I' for Inactive)
REMARK    1  A    between atoms: C_2  and  C_3 
REMARK    2  A    between atoms: C_3  and  C_4 
REMARK    3  A    between atoms: C_4  and  O_5 
REMARK    4  A    between atoms: O_5  and  C_6 
REMARK    5  A    between atoms: C_6  and  C_8 
REMARK    6  A    between atoms: C_11  and  O_14 
ROOT
HETATM    1  C   UNL     1     -23.918  -3.881 -11.797  1.00  0.00     0.039 A 
HETATM    2  C   UNL     1     -23.750  -2.684 -12.513  1.00  0.00     0.020 A 
HETATM    3  C   UNL     1     -23.119  -2.694 -13.760  1.00  0.00     0.037 A 
HETATM    4  C   UNL     1     -22.652  -3.898 -14.284  1.00  0.00     0.065 A 
HETATM    5  C   UNL     1     -22.825  -5.092 -13.597  1.00  0.00     0.037 A 
HETATM    6  C   UNL     1     -23.461  -5.087 -12.355  1.00  0.00     0.020 A 
ENDROOT
BRANCH   1   7
HETATM    7  C   UNL     1     -24.442  -3.814 -10.406  1.00  0.00     0.293 C 
HETATM    8  O   UNL     1     -25.410  -3.158 -10.067  1.00  0.00    -0.259 OA
BRANCH   7   9
HETATM    9  O   UNL     1     -23.580  -4.449  -9.576  1.00  0.00    -0.318 OA
BRANCH   9  10
HETATM   10  C   UNL     1     -22.442  -3.667  -9.213  1.00  0.00     0.179 C 
BRANCH  10  11
HETATM   11  C   UNL     1     -21.218  -4.539  -8.985  1.00  0.00     0.026 C 
BRANCH  11  12
HETATM   12  C   UNL     1     -20.370  -4.575 -10.255  1.00  0.00    -0.002 C 
HETATM   13  C   UNL     1     -20.460  -3.280 -11.039  1.00  0.00     0.005 C 
ENDBRANCH  11  12
ENDBRANCH  10  11
ENDBRANCH   9  10
ENDBRANCH   7   9
ENDBRANCH   1   7
BRANCH   4  14
HETATM   14  O   UNL     1     -21.998  -3.951 -15.477  1.00  0.00    -0.361 OA
HETATM   15  H   UNL     1     -21.816  -4.880 -15.695  1.00  0.00     0.217 HD
ENDBRANCH   4  14
TORSDOF 6
BEGIN_RES ARG D 557
REMARK  4 active torsions:
REMARK  status: ('A' for Active; 'I' for Inactive)
REMARK    1  A    between atoms: CA   and  CB  
REMARK    2  A    between atoms: CB   and  CG  
REMARK    3  A    between atoms: CG   and  CD  
REMARK    4  A    between atoms: CD   and  NE  
REMARK       I    between atoms: NE   and  CZ  
REMARK       I    between atoms: CZ   and  NH1 
REMARK       I    between atoms: CZ   and  NH2 
ROOT
ATOM      1  CA  ARG D 557     -26.217   2.705 -17.014  1.00 35.49     0.159 C 
ENDROOT
BRANCH   1   2
ATOM      2  CB  ARG D 557     -26.789   1.319 -17.183  1.00 35.49     0.034 C 
BRANCH   2   3
ATOM      3  CG  ARG D 557     -28.214   1.150 -16.872  1.00 35.49     0.027 C 
BRANCH   3   4
ATOM      4  CD  ARG D 557     -28.590  -0.273 -16.708  1.00 35.49     0.116 C 
BRANCH   4   5
ATOM      5  NE  ARG D 557     -27.590  -1.020 -15.992  1.00 35.49    -0.212 N 
ATOM      6  CZ  ARG D 557     -27.402  -2.319 -16.065  1.00 35.49     0.666 C 
ATOM      7  NH1 ARG D 557     -28.149  -3.102 -16.821  1.00 35.49    -0.235 N 
ATOM      8  NH2 ARG D 557     -26.432  -2.825 -15.361  1.00 35.49    -0.235 N 
ATOM      9  HH  ARG D 557     -28.792  -2.789 -17.294  1.00 35.49     0.174 HD
ATOM     10  HH  ARG D 557     -27.978  -3.941 -16.831  1.00 35.49     0.174 HD
ATOM     11  HH  ARG D 557     -25.961  -2.295 -14.888  1.00 35.49     0.174 HD
ATOM     12  HH  ARG D 557     -26.277  -3.659 -15.386  1.00 35.49     0.174 HD
ATOM     13  HE  ARG D 557     -27.110  -0.604 -15.426  1.00 35.49     0.178 HD
ENDBRANCH   4   5
ENDBRANCH   3   4
ENDBRANCH   2   3
ENDBRANCH   1   2
END_RES ARG D 557
BEGIN_RES GLU D 570
REMARK  3 active torsions:
REMARK  status: ('A' for Active; 'I' for Inactive)
REMARK    5  A    between atoms: CA   and  CB  
REMARK    6  A    between atoms: CB   and  CG  
REMARK    7  A    between atoms: CG   and  CD  
ROOT
ATOM     14  CA  GLU D 570     -18.033  -6.348 -13.375  1.00 32.92     0.160 C 
ENDROOT
BRANCH  14  15
ATOM     15  CB  GLU D 570     -19.500  -6.345 -13.794  1.00 32.92     0.043 C 
BRANCH  15  16
ATOM     16  CG  GLU D 570     -20.082  -7.631 -14.258  1.00 32.92     0.100 C 
BRANCH  16  17
ATOM     17  CD  GLU D 570     -20.717  -7.531 -15.625  1.00 32.92     0.185 C 
ATOM     18  OE1 GLU D 570     -21.274  -8.535 -16.108  1.00 32.92    -0.647 OA
ATOM     19  OE2 GLU D 570     -20.641  -6.442 -16.227  1.00 32.92    -0.647 OA
ENDBRANCH  16  17
ENDBRANCH  15  16
ENDBRANCH  14  15
END_RES GLU D 570
ENDMDL
MODEL 2
REMARK VINA RESULT:      -6.5      1.456      3.682
REMARK  6 active torsions:
REMARK  status: ('A' for Active; 'I' for Inactive)
REMARK    1  A    between atoms: C_2  and  C_3 
REMARK    2  A    between atoms: C_3  and  C_4 
REMARK    3  A    between atoms: C_4  and  O_5 
REMARK    4  A    between atoms: O_5  and  C_6 
REMARK    5  A    between atoms: C_6  and  C_8 
REMARK    6  A    between atoms: C_11  and  O_14 
ROOT
HETATM    1  C   UNL     1     -22.949  -3.768  -9.976  1.00  0.00     0.039 A 
HETATM    2  C   UNL     1     -21.738  -3.899 -10.676  1.00  0.00     0.020 A 
HETATM    3  C   UNL     1     -20.573  -4.270 -10.000  1.00  0.00     0.037 A 
HETATM    4  C   UNL     1     -20.620  -4.502  -8.626  1.00  0.00     0.065 A 
HETATM    5  C   UNL     1     -21.812  -4.393  -7.923  1.00  0.00     0.037 A 
HETATM    6  C   UNL     1     -22.979  -4.029  -8.596  1.00  0.00     0.020 A 
ENDROOT
BRANCH   1   7
HETATM    7  C   UNL     1     -24.130  -3.213 -10.690  1.00  0.00     0.293 C 
HETATM    8  O   UNL     1     -25.285  -3.374 -10.338  1.00  0.00    -0.259 OA
BRANCH   7   9
HETATM    9  O   UNL     1     -23.724  -2.663 -11.860  1.00  0.00    -0.318 OA
BRANCH   9  10
HETATM   10  C   UNL     1     -24.495  -3.070 -12.991  1.00  0.00     0.179 C 
BRANCH  10  11
HETATM   11  C   UNL     1     -23.657  -3.080 -14.259  1.00  0.00     0.026 C 
BRANCH  11  12
HETATM   12  C   UNL     1     -22.733  -4.298 -14.254  1.00  0.00    -0.002 C 
HETATM   13  C   UNL     1     -23.435  -5.544 -13.750  1.00  0.00     0.005 C 
ENDBRANCH  11  12
ENDBRANCH  10  11
ENDBRANCH   9  10
ENDBRANCH   7   9
ENDBRANCH   1   7
BRANCH   4  14
HETATM   14  O   UNL     1     -19.502  -4.829  -7.920  1.00  0.00    -0.361 OA
HETATM   15  H   UNL     1     -18.739  -4.373  -8.311  1.00  0.00     0.217 HD
ENDBRANCH   4  14
TORSDOF 6
BEGIN_RES ARG D 557
REMARK  4 active torsions:
REMARK  status: ('A' for Active; 'I' for Inactive)
REMARK    1  A    between atoms: CA   and  CB  
REMARK    2  A    between atoms: CB   and  CG  
REMARK    3  A    between atoms: CG   and  CD  
REMARK    4  A    between atoms: CD   and  NE  
REMARK       I    between atoms: NE   and  CZ  
REMARK       I    between atoms: CZ   and  NH1 
REMARK       I    between atoms: CZ   and  NH2 
ROOT
ATOM      1  CA  ARG D 557     -26.217   2.705 -17.014  1.00 35.49     0.159 C 
ENDROOT
BRANCH   1   2
ATOM      2  CB  ARG D 557     -26.789   1.319 -17.183  1.00 35.49     0.034 C 
BRANCH   2   3
ATOM      3  CG  ARG D 557     -28.232   1.226 -17.437  1.00 35.49     0.027 C 
BRANCH   3   4
ATOM      4  CD  ARG D 557     -28.912   0.305 -16.498  1.00 35.49     0.116 C 
BRANCH   4   5
ATOM      5  NE  ARG D 557     -29.295  -0.929 -17.131  1.00 35.49    -0.212 N 
ATOM      6  CZ  ARG D 557     -28.659  -2.075 -17.029  1.00 35.49     0.666 C 
ATOM      7  NH1 ARG D 557     -27.553  -2.211 -16.321  1.00 35.49    -0.235 N 
ATOM      8  NH2 ARG D 557     -29.162  -3.099 -17.655  1.00 35.49    -0.235 N 
ATOM      9  HH  ARG D 557     -27.206  -1.551 -15.899  1.00 35.49     0.174 HD
ATOM     10  HH  ARG D 557     -27.183  -2.983 -16.289  1.00 35.49     0.174 HD
ATOM     11  HH  ARG D 557     -29.881  -2.982 -18.099  1.00 35.49     0.174 HD
ATOM     12  HH  ARG D 557     -28.782  -3.855 -17.610  1.00 35.49     0.174 HD
ATOM     13  HE  ARG D 557     -29.956  -0.915 -17.665  1.00 35.49     0.178 HD
ENDBRANCH   4   5
ENDBRANCH   3   4
ENDBRANCH   2   3
ENDBRANCH   1   2
END_RES ARG D 557
BEGIN_RES GLU D 570
REMARK  3 active torsions:
REMARK  status: ('A' for Active; 'I' for Inactive)
REMARK    5  A    between atoms: CA   and  CB  
REMARK    6  A    between atoms: CB   and  CG  
REMARK    7  A    between atoms: CG   and  CD  
ROOT
ATOM     14  CA  GLU D 570     -18.033  -6.348 -13.375  1.00 32.92     0.160 C 
ENDROOT
BRANCH  14  15
ATOM     15  CB  GLU D 570     -19.500  -6.345 -13.794  1.00 32.92     0.043 C 
BRANCH  15  16
ATOM     16  CG  GLU D 570     -19.797  -6.259 -15.247  1.00 32.92     0.100 C 
BRANCH  16  17
ATOM     17  CD  GLU D 570     -20.746  -7.336 -15.719  1.00 32.92     0.185 C 
ATOM     18  OE1 GLU D 570     -21.652  -7.035 -16.520  1.00 32.92    -0.647 OA
ATOM     19  OE2 GLU D 570     -20.592  -8.489 -15.271  1.00 32.92    -0.647 OA
ENDBRANCH  16  17
ENDBRANCH  15  16
ENDBRANCH  14  15
END_RES GLU D 570
ENDMDL
MODEL 3
REMARK VINA RESULT:      -6.3      3.345      4.980
REMARK  6 active torsions:
REMARK  status: ('A' for Active; 'I' for Inactive)
REMARK    1  A    between atoms: C_2  and  C_3 
REMARK    2  A    between atoms: C_3  and  C_4 
REMARK    3  A    between atoms: C_4  and  O_5 
REMARK    4  A    between atoms: O_5  and  C_6 
REMARK    5  A    between atoms: C_6  and  C_8 
REMARK    6  A    between atoms: C_11  and  O_14 
ROOT
HETATM    1  C   UNL     1     -21.190  -4.614  -7.754  1.00  0.00     0.039 A 
HETATM    2  C   UNL     1     -20.550  -4.315  -8.967  1.00  0.00     0.020 A 
HETATM    3  C   UNL     1     -21.291  -3.847 -10.056  1.00  0.00     0.037 A 
HETATM    4  C   UNL     1     -22.670  -3.686  -9.930  1.00  0.00     0.065 A 
HETATM    5  C   UNL     1     -23.315  -3.960  -8.732  1.00  0.00     0.037 A 
HETATM    6  C   UNL     1     -22.577  -4.421  -7.640  1.00  0.00     0.020 A 
ENDROOT
BRANCH   1   7
HETATM    7  C   UNL     1     -20.403  -5.264  -6.671  1.00  0.00     0.293 C 
HETATM    8  O   UNL     1     -19.585  -4.689  -5.975  1.00  0.00    -0.259 OA
BRANCH   7   9
HETATM    9  O   UNL     1     -20.617  -6.602  -6.710  1.00  0.00    -0.318 OA
BRANCH   9  10
HETATM   10  C   UNL     1     -20.722  -7.210  -5.422  1.00  0.00     0.179 C 
BRANCH  10  11
HETATM   11  C   UNL     1     -21.997  -6.789  -4.712  1.00  0.00     0.026 C 
BRANCH  11  12
HETATM   12  C   UNL     1     -21.665  -6.309  -3.299  1.00  0.00    -0.002 C 
HETATM   13  C   UNL     1     -21.058  -7.409  -2.451  1.00  0.00     0.005 C 
ENDBRANCH  11  12
ENDBRANCH  10  11
ENDBRANCH   9  10
ENDBRANCH   7   9
ENDBRANCH   1   7
BRANCH   4  14
HETATM   14  O   UNL     1     -23.437  -3.268 -10.975  1.00  0.00    -0.361 OA
HETATM   15  H   UNL     1     -23.593  -2.314 -10.887  1.00  0.00     0.217 HD
ENDBRANCH   4  14
TORSDOF 6
BEGIN_RES ARG D 557
REMARK  4 active torsions:
REMARK  status: ('A' for Active; 'I' for Inactive)
REMARK    1  A    between atoms: CA   and  CB  
REMARK    2  A    between atoms: CB   and  CG  
REMARK    3  A    between atoms: CG   and  CD  
REMARK    4  A    between atoms: CD   and  NE  
REMARK       I    between atoms: NE   and  CZ  
REMARK       I    between atoms: CZ   and  NH1 
REMARK       I    between atoms: CZ   and  NH2 
ROOT
ATOM      1  CA  ARG D 557     -26.217   2.705 -17.014  1.00 35.49     0.159 C 
ENDROOT
BRANCH   1   2
ATOM      2  CB  ARG D 557     -26.789   1.319 -17.183  1.00 35.49     0.034 C 
BRANCH   2   3
ATOM      3  CG  ARG D 557     -25.835   0.203 -17.160  1.00 35.49     0.027 C 
BRANCH   3   4
ATOM      4  CD  ARG D 557     -24.750   0.409 -16.173  1.00 35.49     0.116 C 
BRANCH   4   5
ATOM      5  NE  ARG D 557     -24.902  -0.434 -15.017  1.00 35.49    -0.212 N 
ATOM      6  CZ  ARG D 557     -24.095  -1.410 -14.666  1.00 35.49     0.666 C 
ATOM      7  NH1 ARG D 557     -23.030  -1.738 -15.374  1.00 35.49    -0.235 N 
ATOM      8  NH2 ARG D 557     -24.376  -2.058 -13.573  1.00 35.49    -0.235 N 
ATOM      9  HH  ARG D 557     -22.825  -1.324 -16.095  1.00 35.49     0.174 HD
ATOM     10  HH  ARG D 557     -22.538  -2.382 -15.094  1.00 35.49     0.174 HD
ATOM     11  HH  ARG D 557     -25.066  -1.819 -13.132  1.00 35.49     0.174 HD
ATOM     12  HH  ARG D 557     -23.876  -2.691 -13.312  1.00 35.49     0.174 HD
ATOM     13  HE  ARG D 557     -25.603  -0.340 -14.543  1.00 35.49     0.178 HD
ENDBRANCH   4   5
ENDBRANCH   3   4
ENDBRANCH   2   3
ENDBRANCH   1   2
END_RES ARG D 557
BEGIN_RES GLU D 570
REMARK  3 active torsions:
REMARK  status: ('A' for Active; 'I' for Inactive)
REMARK    5  A    between atoms: CA   and  CB  
REMARK    6  A    between atoms: CB   and  CG  
REMARK    7  A    between atoms: CG   and  CD  
ROOT
ATOM     14  CA  GLU D 570     -18.033  -6.348 -13.375  1.00 32.92     0.160 C 
ENDROOT
BRANCH  14  15
ATOM     15  CB  GLU D 570     -19.500  -6.345 -13.794  1.00 32.92     0.043 C 
BRANCH  15  16
ATOM     16  CG  GLU D 570     -20.443  -5.536 -12.979  1.00 32.92     0.100 C 
BRANCH  16  17
ATOM     17  CD  GLU D 570     -21.741  -5.245 -13.696  1.00 32.92     0.185 C 
ATOM     18  OE1 GLU D 570     -22.295  -4.143 -13.521  1.00 32.92    -0.647 OA
ATOM     19  OE2 GLU D 570     -22.217  -6.135 -14.427  1.00 32.92    -0.647 OA
ENDBRANCH  16  17
ENDBRANCH  15  16
ENDBRANCH  14  15
END_RES GLU D 570
ENDMDL
MODEL 4
REMARK VINA RESULT:      -6.0      2.664      3.765
REMARK  6 active torsions:
REMARK  status: ('A' for Active; 'I' for Inactive)
REMARK    1  A    between atoms: C_2  and  C_3 
REMARK    2  A    between atoms: C_3  and  C_4 
REMARK    3  A    between atoms: C_4  and  O_5 
REMARK    4  A    between atoms: O_5  and  C_6 
REMARK    5  A    between atoms: C_6  and  C_8 
REMARK    6  A    between atoms: C_11  and  O_14 
ROOT
HETATM    1  C   UNL     1     -22.005  -4.101  -8.774  1.00  0.00     0.039 A 
HETATM    2  C   UNL     1     -20.795  -4.140  -9.486  1.00  0.00     0.020 A 
HETATM    3  C   UNL     1     -20.770  -3.824 -10.847  1.00  0.00     0.037 A 
HETATM    4  C   UNL     1     -21.955  -3.477 -11.493  1.00  0.00     0.065 A 
HETATM    5  C   UNL     1     -23.157  -3.417 -10.800  1.00  0.00     0.037 A 
HETATM    6  C   UNL     1     -23.184  -3.725  -9.439  1.00  0.00     0.020 A 
ENDROOT
BRANCH   1   7
HETATM    7  C   UNL     1     -22.026  -4.601  -7.373  1.00  0.00     0.293 C 
HETATM    8  O   UNL     1     -23.020  -4.634  -6.669  1.00  0.00    -0.259 OA
BRANCH   7   9
HETATM    9  O   UNL     1     -20.756  -4.842  -6.968  1.00  0.00    -0.318 OA
BRANCH   9  10
HETATM   10  C   UNL     1     -20.643  -5.202  -5.591  1.00  0.00     0.179 C 
BRANCH  10  11
HETATM   11  C   UNL     1     -20.478  -6.703  -5.422  1.00  0.00     0.026 C 
BRANCH  11  12
HETATM   12  C   UNL     1     -21.399  -7.199  -4.307  1.00  0.00    -0.002 C 
HETATM   13  C   UNL     1     -21.491  -6.211  -3.161  1.00  0.00     0.005 C 
ENDBRANCH  11  12
ENDBRANCH  10  11
ENDBRANCH   9  10
ENDBRANCH   7   9
ENDBRANCH   1   7
BRANCH   4  14
HETATM   14  O   UNL     1     -21.986  -3.198 -12.826  1.00  0.00    -0.361 OA
HETATM   15  H   UNL     1     -22.717  -2.583 -13.001  1.00  0.00     0.217 HD
ENDBRANCH   4  14
TORSDOF 6
BEGIN_RES ARG D 557
REMARK  4 active torsions:
REMARK  status: ('A' for Active; 'I' for Inactive)
REMARK    1  A    between atoms: CA   and  CB  
REMARK    2  A    between atoms: CB   and  CG  
REMARK    3  A    between atoms: CG   and  CD  
REMARK    4  A    between atoms: CD   and  NE  
REMARK       I    between atoms: NE   and  CZ  
REMARK       I    between atoms: CZ   and  NH1 
REMARK       I    between atoms: CZ   and  NH2 
ROOT
ATOM      1  CA  ARG D 557     -26.217   2.705 -17.014  1.00 35.49     0.159 C 
ENDROOT
BRANCH   1   2
ATOM      2  CB  ARG D 557     -26.789   1.319 -17.183  1.00 35.49     0.034 C 
BRANCH   2   3
ATOM      3  CG  ARG D 557     -25.923   0.196 -16.804  1.00 35.49     0.027 C 
BRANCH   3   4
ATOM      4  CD  ARG D 557     -26.650  -0.846 -16.043  1.00 35.49     0.116 C 
BRANCH   4   5
ATOM      5  NE  ARG D 557     -25.805  -1.507 -15.085  1.00 35.49    -0.212 N 
ATOM      6  CZ  ARG D 557     -25.843  -2.785 -14.779  1.00 35.49     0.666 C 
ATOM      7  NH1 ARG D 557     -26.704  -3.620 -15.331  1.00 35.49    -0.235 N 
ATOM      8  NH2 ARG D 557     -24.986  -3.218 -13.901  1.00 35.49    -0.235 N 
ATOM      9  HH  ARG D 557     -27.276  -3.357 -15.912  1.00 35.49     0.174 HD
ATOM     10  HH  ARG D 557     -26.681  -4.443 -15.094  1.00 35.49     0.174 HD
ATOM     11  HH  ARG D 557     -24.437  -2.657 -13.567  1.00 35.49     0.174 HD
ATOM     12  HH  ARG D 557     -24.978  -4.037 -13.681  1.00 35.49     0.174 HD
ATOM     13  HE  ARG D 557     -25.269  -1.030 -14.629  1.00 35.49     0.178 HD
ENDBRANCH   4   5
ENDBRANCH   3   4
ENDBRANCH   2   3
ENDBRANCH   1   2
END_RES ARG D 557
BEGIN_RES GLU D 570
REMARK  3 active torsions:
REMARK  status: ('A' for Active; 'I' for Inactive)
REMARK    5  A    between atoms: CA   and  CB  
REMARK    6  A    between atoms: CB   and  CG  
REMARK    7  A    between atoms: CG   and  CD  
ROOT
ATOM     14  CA  GLU D 570     -18.033  -6.348 -13.375  1.00 32.92     0.160 C 
ENDROOT
BRANCH  14  15
ATOM     15  CB  GLU D 570     -19.500  -6.345 -13.794  1.00 32.92     0.043 C 
BRANCH  15  16
ATOM     16  CG  GLU D 570     -19.799  -6.167 -15.238  1.00 32.92     0.100 C 
BRANCH  16  17
ATOM     17  CD  GLU D 570     -21.147  -5.531 -15.487  1.00 32.92     0.185 C 
ATOM     18  OE1 GLU D 570     -21.411  -5.099 -16.626  1.00 32.92    -0.647 OA
ATOM     19  OE2 GLU D 570     -21.940  -5.448 -14.529  1.00 32.92    -0.647 OA
ENDBRANCH  16  17
ENDBRANCH  15  16
ENDBRANCH  14  15
END_RES GLU D 570
ENDMDL
MODEL 5
REMARK VINA RESULT:      -5.9      2.623      5.260
REMARK  6 active torsions:
REMARK  status: ('A' for Active; 'I' for Inactive)
REMARK    1  A    between atoms: C_2  and  C_3 
REMARK    2  A    between atoms: C_3  and  C_4 
REMARK    3  A    between atoms: C_4  and  O_5 
REMARK    4  A    between atoms: O_5  and  C_6 
REMARK    5  A    between atoms: C_6  and  C_8 
REMARK    6  A    between atoms: C_11  and  O_14 
ROOT
HETATM    1  C   UNL     1     -24.481  -5.056 -14.483  1.00  0.00     0.039 A 
HETATM    2  C   UNL     1     -24.851  -3.706 -14.367  1.00  0.00     0.020 A 
HETATM    3  C   UNL     1     -24.170  -2.864 -13.484  1.00  0.00     0.037 A 
HETATM    4  C   UNL     1     -23.125  -3.376 -12.716  1.00  0.00     0.065 A 
HETATM    5  C   UNL     1     -22.736  -4.704 -12.831  1.00  0.00     0.037 A 
HETATM    6  C   UNL     1     -23.410  -5.545 -13.717  1.00  0.00     0.020 A 
ENDROOT
BRANCH   1   7
HETATM    7  C   UNL     1     -25.330  -5.961 -15.304  1.00  0.00     0.293 C 
HETATM    8  O   UNL     1     -25.215  -7.173 -15.334  1.00  0.00    -0.259 OA
BRANCH   7   9
HETATM    9  O   UNL     1     -26.112  -5.215 -16.122  1.00  0.00    -0.318 OA
BRANCH   9  10
HETATM   10  C   UNL     1     -27.037  -5.980 -16.897  1.00  0.00     0.179 C 
BRANCH  10  11
HETATM   11  C   UNL     1     -28.342  -6.193 -16.150  1.00  0.00     0.026 C 
BRANCH  11  12
HETATM   12  C   UNL     1     -29.253  -7.115 -16.960  1.00  0.00    -0.002 C 
HETATM   13  C   UNL     1     -30.584  -6.464 -17.282  1.00  0.00     0.005 C 
ENDBRANCH  11  12
ENDBRANCH  10  11
ENDBRANCH   9  10
ENDBRANCH   7   9
ENDBRANCH   1   7
BRANCH   4  14
HETATM   14  O   UNL     1     -22.457  -2.603 -11.815  1.00  0.00    -0.361 OA
HETATM   15  H   UNL     1     -23.053  -1.905 -11.498  1.00  0.00     0.217 HD
ENDBRANCH   4  14
TORSDOF 6
BEGIN_RES ARG D 557
REMARK  4 active torsions:
REMARK  status: ('A' for Active; 'I' for Inactive)
REMARK    1  A    between atoms: CA   and  CB  
REMARK    2  A    between atoms: CB   and  CG  
REMARK    3  A    between atoms: CG   and  CD  
REMARK    4  A    between atoms: CD   and  NE  
REMARK       I    between atoms: NE   and  CZ  
REMARK       I    between atoms: CZ   and  NH1 
REMARK       I    between atoms: CZ   and  NH2 
ROOT
ATOM      1  CA  ARG D 557     -26.217   2.705 -17.014  1.00 35.49     0.159 C 
ENDROOT
BRANCH   1   2
ATOM      2  CB  ARG D 557     -26.789   1.319 -17.183  1.00 35.49     0.034 C 
BRANCH   2   3
ATOM      3  CG  ARG D 557     -28.244   1.221 -17.349  1.00 35.49     0.027 C 
BRANCH   3   4
ATOM      4  CD  ARG D 557     -28.851   0.230 -16.431  1.00 35.49     0.116 C 
BRANCH   4   5
ATOM      5  NE  ARG D 557     -29.271  -0.962 -17.120  1.00 35.49    -0.212 N 
ATOM      6  CZ  ARG D 557     -28.680  -2.134 -17.056  1.00 35.49     0.666 C 
ATOM      7  NH1 ARG D 557     -27.592  -2.342 -16.339  1.00 35.49    -0.235 N 
ATOM      8  NH2 ARG D 557     -29.212  -3.112 -17.731  1.00 35.49    -0.235 N 
ATOM      9  HH  ARG D 557     -27.226  -1.713 -15.885  1.00 35.49     0.174 HD
ATOM     10  HH  ARG D 557     -27.252  -3.128 -16.333  1.00 35.49     0.174 HD
ATOM     11  HH  ARG D 557     -29.919  -2.950 -18.180  1.00 35.49     0.174 HD
ATOM     12  HH  ARG D 557     -28.861  -3.883 -17.712  1.00 35.49     0.174 HD
ATOM     13  HE  ARG D 557     -29.923  -0.901 -17.662  1.00 35.49     0.178 HD
ENDBRANCH   4   5
ENDBRANCH   3   4
ENDBRANCH   2   3
ENDBRANCH   1   2
END_RES ARG D 557
BEGIN_RES GLU D 570
REMARK  3 active torsions:
REMARK  status: ('A' for Active; 'I' for Inactive)
REMARK    5  A    between atoms: CA   and  CB  
REMARK    6  A    between atoms: CB   and  CG  
REMARK    7  A    between atoms: CG   and  CD  
ROOT
ATOM     14  CA  GLU D 570     -18.033  -6.348 -13.375  1.00 32.92     0.160 C 
ENDROOT
BRANCH  14  15
ATOM     15  CB  GLU D 570     -19.500  -6.345 -13.794  1.00 32.92     0.043 C 
BRANCH  15  16
ATOM     16  CG  GLU D 570     -20.029  -7.572 -14.443  1.00 32.92     0.100 C 
BRANCH  16  17
ATOM     17  CD  GLU D 570     -20.810  -7.282 -15.704  1.00 32.92     0.185 C 
ATOM     18  OE1 GLU D 570     -20.489  -6.302 -16.403  1.00 32.92    -0.647 OA
ATOM     19  OE2 GLU D 570     -21.763  -8.034 -15.987  1.00 32.92    -0.647 OA
ENDBRANCH  16  17
ENDBRANCH  15  16
ENDBRANCH  14  15
END_RES GLU D 570
ENDMDL
MODEL 6
REMARK VINA RESULT:      -5.8      2.285      3.456
REMARK  6 active torsions:
REMARK  status: ('A' for Active; 'I' for Inactive)
REMARK    1  A    between atoms: C_2  and  C_3 
REMARK    2  A    between atoms: C_3  and  C_4 
REMARK    3  A    between atoms: C_4  and  O_5 
REMARK    4  A    between atoms: O_5  and  C_6 
REMARK    5  A    between atoms: C_6  and  C_8 
REMARK    6  A    between atoms: C_11  and  O_14 
ROOT
HETATM    1  C   UNL     1     -21.962  -3.863  -9.922  1.00  0.00     0.039 A 
HETATM    2  C   UNL     1     -21.496  -3.352 -11.144  1.00  0.00     0.020 A 
HETATM    3  C   UNL     1     -22.401  -2.877 -12.097  1.00  0.00     0.037 A 
HETATM    4  C   UNL     1     -23.768  -2.919 -11.828  1.00  0.00     0.065 A 
HETATM    5  C   UNL     1     -24.243  -3.406 -10.617  1.00  0.00     0.037 A 
HETATM    6  C   UNL     1     -23.342  -3.874  -9.661  1.00  0.00     0.020 A 
ENDROOT
BRANCH   1   7
HETATM    7  C   UNL     1     -20.988  -4.511  -9.001  1.00  0.00     0.293 C 
HETATM    8  O   UNL     1     -19.867  -4.861  -9.322  1.00  0.00    -0.259 OA
BRANCH   7   9
HETATM    9  O   UNL     1     -21.607  -4.795  -7.830  1.00  0.00    -0.318 OA
BRANCH   9  10
HETATM   10  C   UNL     1     -20.940  -5.784  -7.046  1.00  0.00     0.179 C 
BRANCH  10  11
HETATM   11  C   UNL     1     -20.432  -5.205  -5.736  1.00  0.00     0.026 C 
BRANCH  11  12
HETATM   12  C   UNL     1     -21.128  -5.896  -4.564  1.00  0.00    -0.002 C 
HETATM   13  C   UNL     1     -20.940  -7.401  -4.595  1.00  0.00     0.005 C 
ENDBRANCH  11  12
ENDBRANCH  10  11
ENDBRANCH   9  10
ENDBRANCH   7   9
ENDBRANCH   1   7
BRANCH   4  14
HETATM   14  O   UNL     1     -24.688  -2.502 -12.741  1.00  0.00    -0.361 OA
HETATM   15  H   UNL     1     -24.268  -1.863 -13.340  1.00  0.00     0.217 HD
ENDBRANCH   4  14
TORSDOF 6
BEGIN_RES ARG D 557
REMARK  4 active torsions:
REMARK  status: ('A' for Active; 'I' for Inactive)
REMARK    1  A    between atoms: CA   and  CB  
REMARK    2  A    between atoms: CB   and  CG  
REMARK    3  A    between atoms: CG   and  CD  
REMARK    4  A    between atoms: CD   and  NE  
REMARK       I    between atoms: NE   and  CZ  
REMARK       I    between atoms: CZ   and  NH1 
REMARK       I    between atoms: CZ   and  NH2 
ROOT
ATOM      1  CA  ARG D 557     -26.217   2.705 -17.014  1.00 35.49     0.159 C 
ENDROOT
BRANCH   1   2
ATOM      2  CB  ARG D 557     -26.789   1.319 -17.183  1.00 35.49     0.034 C 
BRANCH   2   3
ATOM      3  CG  ARG D 557     -28.230   1.227 -17.446  1.00 35.49     0.027 C 
BRANCH   3   4
ATOM      4  CD  ARG D 557     -28.917   0.307 -16.511  1.00 35.49     0.116 C 
BRANCH   4   5
ATOM      5  NE  ARG D 557     -29.282  -0.935 -17.141  1.00 35.49    -0.212 N 
ATOM      6  CZ  ARG D 557     -28.636  -2.073 -17.026  1.00 35.49     0.666 C 
ATOM      7  NH1 ARG D 557     -27.537  -2.196 -16.304  1.00 35.49    -0.235 N 
ATOM      8  NH2 ARG D 557     -29.123  -3.105 -17.651  1.00 35.49    -0.235 N 
ATOM      9  HH  ARG D 557     -27.201  -1.530 -15.882  1.00 35.49     0.174 HD
ATOM     10  HH  ARG D 557     -27.161  -2.964 -16.264  1.00 35.49     0.174 HD
ATOM     11  HH  ARG D 557     -29.838  -2.998 -18.104  1.00 35.49     0.174 HD
ATOM     12  HH  ARG D 557     -28.737  -3.858 -17.598  1.00 35.49     0.174 HD
ATOM     13  HE  ARG D 557     -29.937  -0.930 -17.683  1.00 35.49     0.178 HD
ENDBRANCH   4   5
ENDBRANCH   3   4
ENDBRANCH   2   3
ENDBRANCH   1   2
END_RES ARG D 557
BEGIN_RES GLU D 570
REMARK  3 active torsions:
REMARK  status: ('A' for Active; 'I' for Inactive)
REMARK    5  A    between atoms: CA   and  CB  
REMARK    6  A    between atoms: CB   and  CG  
REMARK    7  A    between atoms: CG   and  CD  
ROOT
ATOM     14  CA  GLU D 570     -18.033  -6.348 -13.375  1.00 32.92     0.160 C 
ENDROOT
BRANCH  14  15
ATOM     15  CB  GLU D 570     -19.500  -6.345 -13.794  1.00 32.92     0.043 C 
BRANCH  15  16
ATOM     16  CG  GLU D 570     -19.809  -5.985 -15.202  1.00 32.92     0.100 C 
BRANCH  16  17
ATOM     17  CD  GLU D 570     -21.212  -5.453 -15.380  1.00 32.92     0.185 C 
ATOM     18  OE1 GLU D 570     -21.530  -4.935 -16.468  1.00 32.92    -0.647 OA
ATOM     19  OE2 GLU D 570     -21.997  -5.539 -14.415  1.00 32.92    -0.647 OA
ENDBRANCH  16  17
ENDBRANCH  15  16
ENDBRANCH  14  15
END_RES GLU D 570
ENDMDL
MODEL 7
REMARK VINA RESULT:      -5.8      3.356      4.952
REMARK  6 active torsions:
REMARK  status: ('A' for Active; 'I' for Inactive)
REMARK    1  A    between atoms: C_2  and  C_3 
REMARK    2  A    between atoms: C_3  and  C_4 
REMARK    3  A    between atoms: C_4  and  O_5 
REMARK    4  A    between atoms: O_5  and  C_6 
REMARK    5  A    between atoms: C_6  and  C_8 
REMARK    6  A    between atoms: C_11  and  O_14 
ROOT
HETATM    1  C   UNL     1     -21.315  -4.729  -7.321  1.00  0.00     0.039 A 
HETATM    2  C   UNL     1     -22.671  -4.400  -7.479  1.00  0.00     0.020 A 
HETATM    3  C   UNL     1     -23.137  -3.914  -8.704  1.00  0.00     0.037 A 
HETATM    4  C   UNL     1     -22.246  -3.754  -9.763  1.00  0.00     0.065 A 
HETATM    5  C   UNL     1     -20.906  -4.091  -9.628  1.00  0.00     0.037 A 
HETATM    6  C   UNL     1     -20.438  -4.583  -8.409  1.00  0.00     0.020 A 
ENDROOT
BRANCH   1   7
HETATM    7  C   UNL     1     -20.820  -5.084  -5.963  1.00  0.00     0.293 C 
HETATM    8  O   UNL     1     -19.841  -4.586  -5.436  1.00  0.00    -0.259 OA
BRANCH   7   9
HETATM    9  O   UNL     1     -21.518  -6.149  -5.501  1.00  0.00    -0.318 OA
BRANCH   9  10
HETATM   10  C   UNL     1     -20.710  -7.148  -4.879  1.00  0.00     0.179 C 
BRANCH  10  11
HETATM   11  C   UNL     1     -21.472  -7.879  -3.786  1.00  0.00     0.026 C 
BRANCH  11  12
HETATM   12  C   UNL     1     -21.140  -7.262  -2.428  1.00  0.00    -0.002 C 
HETATM   13  C   UNL     1     -22.125  -6.177  -2.039  1.00  0.00     0.005 C 
ENDBRANCH  11  12
ENDBRANCH  10  11
ENDBRANCH   9  10
ENDBRANCH   7   9
ENDBRANCH   1   7
BRANCH   4  14
HETATM   14  O   UNL     1     -22.647  -3.249 -10.963  1.00  0.00    -0.361 OA
HETATM   15  H   UNL     1     -23.609  -3.109 -10.938  1.00  0.00     0.217 HD
ENDBRANCH   4  14
TORSDOF 6
BEGIN_RES ARG D 557
REMARK  4 active torsions:
REMARK  status: ('A' for Active; 'I' for Inactive)
REMARK    1  A    between atoms: CA   and  CB  
REMARK    2  A    between atoms: CB   and  CG  
REMARK    3  A    between atoms: CG   and  CD  
REMARK    4  A    between atoms: CD   and  NE  
REMARK       I    between atoms: NE   and  CZ  
REMARK       I    between atoms: CZ   and  NH1 
REMARK       I    between atoms: CZ   and  NH2 
ROOT
ATOM      1  CA  ARG D 557     -26.217   2.705 -17.014  1.00 35.49     0.159 C 
ENDROOT
BRANCH   1   2
ATOM      2  CB  ARG D 557     -26.789   1.319 -17.183  1.00 35.49     0.034 C 
BRANCH   2   3
ATOM      3  CG  ARG D 557     -28.231   1.226 -17.440  1.00 35.49     0.027 C 
BRANCH   3   4
ATOM      4  CD  ARG D 557     -28.914   0.305 -16.503  1.00 35.49     0.116 C 
BRANCH   4   5
ATOM      5  NE  ARG D 557     -29.302  -0.926 -17.139  1.00 35.49    -0.212 N 
ATOM      6  CZ  ARG D 557     -28.673  -2.075 -17.037  1.00 35.49     0.666 C 
ATOM      7  NH1 ARG D 557     -27.571  -2.220 -16.325  1.00 35.49    -0.235 N 
ATOM      8  NH2 ARG D 557     -29.181  -3.095 -17.666  1.00 35.49    -0.235 N 
ATOM      9  HH  ARG D 557     -27.221  -1.562 -15.901  1.00 35.49     0.174 HD
ATOM     10  HH  ARG D 557     -27.206  -2.994 -16.293  1.00 35.49     0.174 HD
ATOM     11  HH  ARG D 557     -29.897  -2.974 -18.112  1.00 35.49     0.174 HD
ATOM     12  HH  ARG D 557     -28.805  -3.854 -17.621  1.00 35.49     0.174 HD
ATOM     13  HE  ARG D 557     -29.962  -0.907 -17.676  1.00 35.49     0.178 HD
ENDBRANCH   4   5
ENDBRANCH   3   4
ENDBRANCH   2   3
ENDBRANCH   1   2
END_RES ARG D 557
BEGIN_RES GLU D 570
REMARK  3 active torsions:
REMARK  status: ('A' for Active; 'I' for Inactive)
REMARK    5  A    between atoms: CA   and  CB  
REMARK    6  A    between atoms: CB   and  CG  
REMARK    7  A    between atoms: CG   and  CD  
ROOT
ATOM     14  CA  GLU D 570     -18.033  -6.348 -13.375  1.00 32.92     0.160 C 
ENDROOT
BRANCH  14  15
ATOM     15  CB  GLU D 570     -19.500  -6.345 -13.794  1.00 32.92     0.043 C 
BRANCH  15  16
ATOM     16  CG  GLU D 570     -20.440  -5.522 -12.990  1.00 32.92     0.100 C 
BRANCH  16  17
ATOM     17  CD  GLU D 570     -21.743  -5.247 -13.704  1.00 32.92     0.185 C 
ATOM     18  OE1 GLU D 570     -22.276  -4.128 -13.581  1.00 32.92    -0.647 OA
ATOM     19  OE2 GLU D 570     -22.243  -6.167 -14.381  1.00 32.92    -0.647 OA
ENDBRANCH  16  17
ENDBRANCH  15  16
ENDBRANCH  14  15
END_RES GLU D 570
ENDMDL
MODEL 8
REMARK VINA RESULT:      -5.7      5.142      7.672
REMARK  6 active torsions:
REMARK  status: ('A' for Active; 'I' for Inactive)
REMARK    1  A    between atoms: C_2  and  C_3 
REMARK    2  A    between atoms: C_3  and  C_4 
REMARK    3  A    between atoms: C_4  and  O_5 
REMARK    4  A    between atoms: O_5  and  C_6 
REMARK    5  A    between atoms: C_6  and  C_8 
REMARK    6  A    between atoms: C_11  and  O_14 
ROOT
HETATM    1  C   UNL     1     -21.062  -7.099  -3.420  1.00  0.00     0.039 A 
HETATM    2  C   UNL     1     -21.937  -6.258  -2.712  1.00  0.00     0.020 A 
HETATM    3  C   UNL     1     -22.253  -6.535  -1.380  1.00  0.00     0.037 A 
HETATM    4  C   UNL     1     -21.699  -7.654  -0.761  1.00  0.00     0.065 A 
HETATM    5  C   UNL     1     -20.819  -8.485  -1.441  1.00  0.00     0.037 A 
HETATM    6  C   UNL     1     -20.496  -8.208  -2.769  1.00  0.00     0.020 A 
ENDROOT
BRANCH   1   7
HETATM    7  C   UNL     1     -20.877  -6.872  -4.879  1.00  0.00     0.293 C 
HETATM    8  O   UNL     1     -20.338  -7.661  -5.634  1.00  0.00    -0.259 OA
BRANCH   7   9
HETATM    9  O   UNL     1     -21.242  -5.602  -5.180  1.00  0.00    -0.318 OA
BRANCH   9  10
HETATM   10  C   UNL     1     -20.192  -4.816  -5.747  1.00  0.00     0.179 C 
BRANCH  10  11
HETATM   11  C   UNL     1     -20.641  -4.130  -7.026  1.00  0.00     0.026 C 
BRANCH  11  12
HETATM   12  C   UNL     1     -20.234  -4.976  -8.232  1.00  0.00    -0.002 C 
HETATM   13  C   UNL     1     -20.411  -4.227  -9.539  1.00  0.00     0.005 C 
ENDBRANCH  11  12
ENDBRANCH  10  11
ENDBRANCH   9  10
ENDBRANCH   7   9
ENDBRANCH   1   7
BRANCH   4  14
HETATM   14  O   UNL     1     -22.007  -7.984   0.524  1.00  0.00    -0.361 OA
HETATM   15  H   UNL     1     -22.405  -8.870   0.534  1.00  0.00     0.217 HD
ENDBRANCH   4  14
TORSDOF 6
BEGIN_RES ARG D 557
REMARK  4 active torsions:
REMARK  status: ('A' for Active; 'I' for Inactive)
REMARK    1  A    between atoms: CA   and  CB  
REMARK    2  A    between atoms: CB   and  CG  
REMARK    3  A    between atoms: CG   and  CD  
REMARK    4  A    between atoms: CD   and  NE  
REMARK       I    between atoms: NE   and  CZ  
REMARK       I    between atoms: CZ   and  NH1 
REMARK       I    between atoms: CZ   and  NH2 
ROOT
ATOM      1  CA  ARG D 557     -26.217   2.705 -17.014  1.00 35.49     0.159 C 
ENDROOT
BRANCH   1   2
ATOM      2  CB  ARG D 557     -26.789   1.319 -17.183  1.00 35.49     0.034 C 
BRANCH   2   3
ATOM      3  CG  ARG D 557     -25.833   0.205 -17.178  1.00 35.49     0.027 C 
BRANCH   3   4
ATOM      4  CD  ARG D 557     -24.749   0.396 -16.188  1.00 35.49     0.116 C 
BRANCH   4   5
ATOM      5  NE  ARG D 557     -24.914  -0.445 -15.032  1.00 35.49    -0.212 N 
ATOM      6  CZ  ARG D 557     -24.107  -1.417 -14.668  1.00 35.49     0.666 C 
ATOM      7  NH1 ARG D 557     -23.030  -1.741 -15.359  1.00 35.49    -0.235 N 
ATOM      8  NH2 ARG D 557     -24.400  -2.063 -13.578  1.00 35.49    -0.235 N 
ATOM      9  HH  ARG D 557     -22.816  -1.327 -16.079  1.00 35.49     0.174 HD
ATOM     10  HH  ARG D 557     -22.540  -2.382 -15.072  1.00 35.49     0.174 HD
ATOM     11  HH  ARG D 557     -25.098  -1.827 -13.148  1.00 35.49     0.174 HD
ATOM     12  HH  ARG D 557     -23.902  -2.694 -13.309  1.00 35.49     0.174 HD
ATOM     13  HE  ARG D 557     -25.621  -0.353 -14.569  1.00 35.49     0.178 HD
ENDBRANCH   4   5
ENDBRANCH   3   4
ENDBRANCH   2   3
ENDBRANCH   1   2
END_RES ARG D 557
BEGIN_RES GLU D 570
REMARK  3 active torsions:
REMARK  status: ('A' for Active; 'I' for Inactive)
REMARK    5  A    between atoms: CA   and  CB  
REMARK    6  A    between atoms: CB   and  CG  
REMARK    7  A    between atoms: CG   and  CD  
ROOT
ATOM     14  CA  GLU D 570     -18.033  -6.348 -13.375  1.00 32.92     0.160 C 
ENDROOT
BRANCH  14  15
ATOM     15  CB  GLU D 570     -19.500  -6.345 -13.794  1.00 32.92     0.043 C 
BRANCH  15  16
ATOM     16  CG  GLU D 570     -20.443  -5.538 -12.978  1.00 32.92     0.100 C 
BRANCH  16  17
ATOM     17  CD  GLU D 570     -21.702  -5.167 -13.727  1.00 32.92     0.185 C 
ATOM     18  OE1 GLU D 570     -22.053  -5.860 -14.701  1.00 32.92    -0.647 OA
ATOM     19  OE2 GLU D 570     -22.335  -4.162 -13.346  1.00 32.92    -0.647 OA
ENDBRANCH  16  17
ENDBRANCH  15  16
ENDBRANCH  14  15
END_RES GLU D 570
ENDMDL
MODEL 9
REMARK VINA RESULT:      -5.5      7.983     10.104
REMARK  6 active torsions:
REMARK  status: ('A' for Active; 'I' for Inactive)
REMARK    1  A    between atoms: C_2  and  C_3 
REMARK    2  A    between atoms: C_3  and  C_4 
REMARK    3  A    between atoms: C_4  and  O_5 
REMARK    4  A    between atoms: O_5  and  C_6 
REMARK    5  A    between atoms: C_6  and  C_8 
REMARK    6  A    between atoms: C_11  and  O_14 
ROOT
HETATM    1  C   UNL     1     -21.219  -9.065   0.080  1.00  0.00     0.039 A 
HETATM    2  C   UNL     1     -20.614  -8.762  -1.151  1.00  0.00     0.020 A 
HETATM    3  C   UNL     1     -21.064  -7.677  -1.907  1.00  0.00     0.037 A 
HETATM    4  C   UNL     1     -22.120  -6.901  -1.434  1.00  0.00     0.065 A 
HETATM    5  C   UNL     1     -22.718  -7.176  -0.211  1.00  0.00     0.037 A 
HETATM    6  C   UNL     1     -22.267  -8.256   0.550  1.00  0.00     0.020 A 
ENDROOT
BRANCH   1   7
HETATM    7  C   UNL     1     -20.829 -10.320   0.778  1.00  0.00     0.293 C 
HETATM    8  O   UNL     1     -20.148 -10.362   1.787  1.00  0.00    -0.259 OA
BRANCH   7   9
HETATM    9  O   UNL     1     -21.203 -11.381   0.024  1.00  0.00    -0.318 OA
BRANCH   9  10
HETATM   10  C   UNL     1     -22.384 -12.036   0.489  1.00  0.00     0.179 C 
BRANCH  10  11
HETATM   11  C   UNL     1     -23.277 -12.456  -0.666  1.00  0.00     0.026 C 
BRANCH  11  12
HETATM   12  C   UNL     1     -23.746 -11.219  -1.430  1.00  0.00    -0.002 C 
HETATM   13  C   UNL     1     -23.057 -11.083  -2.774  1.00  0.00     0.005 C 
ENDBRANCH  11  12
ENDBRANCH  10  11
ENDBRANCH   9  10
ENDBRANCH   7   9
ENDBRANCH   1   7
BRANCH   4  14
HETATM   14  O   UNL     1     -22.617  -5.856  -2.153  1.00  0.00    -0.361 OA
HETATM   15  H   UNL     1     -23.106  -5.268  -1.555  1.00  0.00     0.217 HD
ENDBRANCH   4  14
TORSDOF 6
BEGIN_RES ARG D 557
REMARK  4 active torsions:
REMARK  status: ('A' for Active; 'I' for Inactive)
REMARK    1  A    between atoms: CA   and  CB  
REMARK    2  A    between atoms: CB   and  CG  
REMARK    3  A    between atoms: CG   and  CD  
REMARK    4  A    between atoms: CD   and  NE  
REMARK       I    between atoms: NE   and  CZ  
REMARK       I    between atoms: CZ   and  NH1 
REMARK       I    between atoms: CZ   and  NH2 
ROOT
ATOM      1  CA  ARG D 557     -26.217   2.705 -17.014  1.00 35.49     0.159 C 
ENDROOT
BRANCH   1   2
ATOM      2  CB  ARG D 557     -26.789   1.319 -17.183  1.00 35.49     0.034 C 
BRANCH   2   3
ATOM      3  CG  ARG D 557     -25.864   0.195 -16.993  1.00 35.49     0.027 C 
BRANCH   3   4
ATOM      4  CD  ARG D 557     -26.290  -0.708 -15.899  1.00 35.49     0.116 C 
BRANCH   4   5
ATOM      5  NE  ARG D 557     -25.240  -0.931 -14.941  1.00 35.49    -0.212 N 
ATOM      6  CZ  ARG D 557     -24.964  -2.076 -14.357  1.00 35.49     0.666 C 
ATOM      7  NH1 ARG D 557     -25.657  -3.176 -14.589  1.00 35.49    -0.235 N 
ATOM      8  NH2 ARG D 557     -23.961  -2.100 -13.528  1.00 35.49    -0.235 N 
ATOM      9  HH  ARG D 557     -26.320  -3.183 -15.132  1.00 35.49     0.174 HD
ATOM     10  HH  ARG D 557     -25.429  -3.894 -14.181  1.00 35.49     0.174 HD
ATOM     11  HH  ARG D 557     -23.527  -1.377 -13.404  1.00 35.49     0.174 HD
ATOM     12  HH  ARG D 557     -23.750  -2.822 -13.135  1.00 35.49     0.174 HD
ATOM     13  HE  ARG D 557     -24.790  -0.260 -14.678  1.00 35.49     0.178 HD
ENDBRANCH   4   5
ENDBRANCH   3   4
ENDBRANCH   2   3
ENDBRANCH   1   2
END_RES ARG D 557
BEGIN_RES GLU D 570
REMARK  3 active torsions:
REMARK  status: ('A' for Active; 'I' for Inactive)
REMARK    5  A    between atoms: CA   and  CB  
REMARK    6  A    between atoms: CB   and  CG  
REMARK    7  A    between atoms: CG   and  CD  
ROOT
ATOM     14  CA  GLU D 570     -18.033  -6.348 -13.375  1.00 32.92     0.160 C 
ENDROOT
BRANCH  14  15
ATOM     15  CB  GLU D 570     -19.500  -6.345 -13.794  1.00 32.92     0.043 C 
BRANCH  15  16
ATOM     16  CG  GLU D 570     -20.444  -5.541 -12.975  1.00 32.92     0.100 C 
BRANCH  16  17
ATOM     17  CD  GLU D 570     -21.683  -5.132 -13.737  1.00 32.92     0.185 C 
ATOM     18  OE1 GLU D 570     -21.616  -4.994 -14.973  1.00 32.92    -0.647 OA
ATOM     19  OE2 GLU D 570     -22.729  -4.931 -13.087  1.00 32.92    -0.647 OA
ENDBRANCH  16  17
ENDBRANCH  15  16
ENDBRANCH  14  15
END_RES GLU D 570
ENDMDL
