MODEL 1
REMARK VINA RESULT:      -8.3      0.000      0.000
REMARK  7 active torsions:
REMARK  status: ('A' for Active; 'I' for Inactive)
REMARK    1  A    between atoms: C_2  and  C_3 
REMARK    2  A    between atoms: C_3  and  C_4 
REMARK    3  A    between atoms: C_3  and  C_28 
REMARK    4  A    between atoms: C_4  and  C_5 
REMARK    5  A    between atoms: C_5  and  C_6 
REMARK    6  A    between atoms: C_6  and  C_8 
REMARK    7  A    between atoms: C_23  and  O_25 
ROOT
HETATM    1  C   UNL     1     -22.801 -10.135  -0.866  1.00  0.00    -0.002 C 
HETATM    2  C   UNL     1     -23.453  -9.222   0.236  1.00  0.00     0.006 C 
HETATM    3  C   UNL     1     -22.311  -8.416   0.873  1.00  0.00     0.006 C 
HETATM    4  C   UNL     1     -21.143  -8.611  -0.089  1.00  0.00    -0.001 C 
HETATM    5  C   UNL     1     -21.283 -10.158  -0.401  1.00  0.00    -0.036 C 
HETATM    6  C   UNL     1     -20.021 -10.419  -1.250  1.00  0.00     0.010 C 
HETATM    7  C   UNL     1     -19.916  -9.702  -2.576  1.00  0.00     0.007 C 
HETATM    8  C   UNL     1     -20.309  -8.200  -2.617  1.00  0.00     0.003 C 
HETATM    9  C   UNL     1     -21.290  -7.820  -1.461  1.00  0.00    -0.001 C 
HETATM   10  C   UNL     1     -21.663  -6.344  -1.439  1.00  0.00     0.033 C 
HETATM   11  C   UNL     1     -22.283  -6.029  -2.787  1.00  0.00    -0.023 C 
HETATM   12  C   UNL     1     -22.009  -6.698  -3.921  1.00  0.00    -0.072 C 
HETATM   13  C   UNL     1     -20.918  -7.770  -4.065  1.00  0.00    -0.017 C 
HETATM   14  C   UNL     1     -19.847  -7.099  -4.983  1.00  0.00     0.016 C 
HETATM   15  C   UNL     1     -20.445  -6.613  -6.326  1.00  0.00     0.033 C 
HETATM   16  C   UNL     1     -21.627  -5.655  -6.112  1.00  0.00     0.122 C 
HETATM   17  C   UNL     1     -22.699  -6.278  -5.205  1.00  0.00     0.066 C 
HETATM   18  C   UNL     1     -21.430  -9.015  -4.849  1.00  0.00     0.020 C 
HETATM   19  C   UNL     1     -21.171 -11.139   0.791  1.00  0.00     0.016 C 
ENDROOT
BRANCH   1  20
HETATM   20  C   UNL     1     -23.757 -11.234  -1.382  1.00  0.00    -0.014 C 
HETATM   21  C   UNL     1     -23.713 -12.430  -0.432  1.00  0.00     0.010 C 
BRANCH  20  22
HETATM   22  C   UNL     1     -23.239 -11.681  -2.826  1.00  0.00     0.005 C 
BRANCH  22  23
HETATM   23  C   UNL     1     -22.261 -12.860  -2.848  1.00  0.00     0.005 C 
BRANCH  23  24
HETATM   24  C   UNL     1     -21.644 -13.243  -4.231  1.00  0.00    -0.012 C 
BRANCH  24  25
HETATM   25  C   UNL     1     -20.176 -12.773  -4.425  1.00  0.00     0.000 C 
HETATM   26  C   UNL     1     -19.169 -13.364  -3.449  1.00  0.00     0.005 C 
ENDBRANCH  24  25
BRANCH  24  27
HETATM   27  C   UNL     1     -22.515 -12.831  -5.464  1.00  0.00    -0.019 C 
HETATM   28  C   UNL     1     -21.657 -12.317  -6.634  1.00  0.00     0.010 C 
HETATM   29  C   UNL     1     -23.376 -13.986  -5.990  1.00  0.00     0.010 C 
ENDBRANCH  24  27
ENDBRANCH  23  24
ENDBRANCH  22  23
ENDBRANCH  20  22
ENDBRANCH   1  20
BRANCH  16  30
HETATM   30  O   UNL     1     -22.186  -5.269  -7.362  1.00  0.00    -0.395 OA
HETATM   31  H   UNL     1     -22.675  -4.432  -7.226  1.00  0.00     0.210 HD
ENDBRANCH  16  30
TORSDOF 7
BEGIN_RES ARG D 557
REMARK  4 active torsions:
REMARK  status: ('A' for Active; 'I' for Inactive)
REMARK    1  A    between atoms: CA   and  CB  
REMARK    2  A    between atoms: CB   and  CG  
REMARK    3  A    between atoms: CG   and  CD  
REMARK    4  A    between atoms: CD   and  NE  
REMARK       I    between atoms: NE   and  CZ  
REMARK       I    between atoms: CZ   and  NH1 
REMARK       I    between atoms: CZ   and  NH2 
ROOT
ATOM      1  CA  ARG D 557     -26.217   2.705 -17.014  1.00 35.49     0.159 C 
ENDROOT
BRANCH   1   2
ATOM      2  CB  ARG D 557     -26.789   1.319 -17.183  1.00 35.49     0.034 C 
BRANCH   2   3
ATOM      3  CG  ARG D 557     -25.868   0.195 -16.977  1.00 35.49     0.027 C 
BRANCH   3   4
ATOM      4  CD  ARG D 557     -26.291  -0.684 -15.862  1.00 35.49     0.116 C 
BRANCH   4   5
ATOM      5  NE  ARG D 557     -25.232  -0.904 -14.913  1.00 35.49    -0.212 N 
ATOM      6  CZ  ARG D 557     -24.927  -2.055 -14.355  1.00 35.49     0.666 C 
ATOM      7  NH1 ARG D 557     -25.597  -3.164 -14.607  1.00 35.49    -0.235 N 
ATOM      8  NH2 ARG D 557     -23.920  -2.074 -13.532  1.00 35.49    -0.235 N 
ATOM      9  HH  ARG D 557     -26.262  -3.175 -15.147  1.00 35.49     0.174 HD
ATOM     10  HH  ARG D 557     -25.351  -3.886 -14.215  1.00 35.49     0.174 HD
ATOM     11  HH  ARG D 557     -23.501  -1.344 -13.394  1.00 35.49     0.174 HD
ATOM     12  HH  ARG D 557     -23.691  -2.799 -13.155  1.00 35.49     0.174 HD
ATOM     13  HE  ARG D 557     -24.795  -0.228 -14.638  1.00 35.49     0.178 HD
ENDBRANCH   4   5
ENDBRANCH   3   4
ENDBRANCH   2   3
ENDBRANCH   1   2
END_RES ARG D 557
BEGIN_RES GLU D 570
REMARK  3 active torsions:
REMARK  status: ('A' for Active; 'I' for Inactive)
REMARK    5  A    between atoms: CA   and  CB  
REMARK    6  A    between atoms: CB   and  CG  
REMARK    7  A    between atoms: CG   and  CD  
ROOT
ATOM     14  CA  GLU D 570     -18.033  -6.348 -13.375  1.00 32.92     0.160 C 
ENDROOT
BRANCH  14  15
ATOM     15  CB  GLU D 570     -19.500  -6.345 -13.794  1.00 32.92     0.043 C 
BRANCH  15  16
ATOM     16  CG  GLU D 570     -20.448  -5.559 -12.963  1.00 32.92     0.100 C 
BRANCH  16  17
ATOM     17  CD  GLU D 570     -21.698  -5.160 -13.712  1.00 32.92     0.185 C 
ATOM     18  OE1 GLU D 570     -22.717  -4.848 -13.066  1.00 32.92    -0.647 OA
ATOM     19  OE2 GLU D 570     -21.663  -5.176 -14.958  1.00 32.92    -0.647 OA
ENDBRANCH  16  17
ENDBRANCH  15  16
ENDBRANCH  14  15
END_RES GLU D 570
ENDMDL
MODEL 2
REMARK VINA RESULT:      -8.1      1.367      1.661
REMARK  7 active torsions:
REMARK  status: ('A' for Active; 'I' for Inactive)
REMARK    1  A    between atoms: C_2  and  C_3 
REMARK    2  A    between atoms: C_3  and  C_4 
REMARK    3  A    between atoms: C_3  and  C_28 
REMARK    4  A    between atoms: C_4  and  C_5 
REMARK    5  A    between atoms: C_5  and  C_6 
REMARK    6  A    between atoms: C_6  and  C_8 
REMARK    7  A    between atoms: C_23  and  O_25 
ROOT
HETATM    1  C   UNL     1     -22.800 -10.131  -0.864  1.00  0.00    -0.002 C 
HETATM    2  C   UNL     1     -23.448  -9.213   0.236  1.00  0.00     0.006 C 
HETATM    3  C   UNL     1     -22.302  -8.410   0.872  1.00  0.00     0.006 C 
HETATM    4  C   UNL     1     -21.135  -8.612  -0.089  1.00  0.00    -0.001 C 
HETATM    5  C   UNL     1     -21.282 -10.159  -0.398  1.00  0.00    -0.036 C 
HETATM    6  C   UNL     1     -20.021 -10.428  -1.247  1.00  0.00     0.010 C 
HETATM    7  C   UNL     1     -19.914  -9.714  -2.575  1.00  0.00     0.007 C 
HETATM    8  C   UNL     1     -20.300  -8.210  -2.619  1.00  0.00     0.003 C 
HETATM    9  C   UNL     1     -21.279  -7.824  -1.464  1.00  0.00    -0.001 C 
HETATM   10  C   UNL     1     -21.646  -6.347  -1.445  1.00  0.00     0.033 C 
HETATM   11  C   UNL     1     -22.265  -6.032  -2.793  1.00  0.00    -0.023 C 
HETATM   12  C   UNL     1     -21.994  -6.704  -3.927  1.00  0.00    -0.072 C 
HETATM   13  C   UNL     1     -20.908  -7.781  -4.068  1.00  0.00    -0.017 C 
HETATM   14  C   UNL     1     -19.834  -7.117  -4.987  1.00  0.00     0.016 C 
HETATM   15  C   UNL     1     -20.430  -6.631  -6.332  1.00  0.00     0.033 C 
HETATM   16  C   UNL     1     -21.608  -5.669  -6.120  1.00  0.00     0.122 C 
HETATM   17  C   UNL     1     -22.682  -6.285  -5.211  1.00  0.00     0.066 C 
HETATM   18  C   UNL     1     -21.425  -9.026  -4.849  1.00  0.00     0.020 C 
HETATM   19  C   UNL     1     -21.173 -11.139   0.795  1.00  0.00     0.016 C 
ENDROOT
BRANCH   1  20
HETATM   20  C   UNL     1     -23.760 -11.227  -1.376  1.00  0.00    -0.014 C 
HETATM   21  C   UNL     1     -23.724 -12.420  -0.422  1.00  0.00     0.010 C 
BRANCH  20  22
HETATM   22  C   UNL     1     -23.242 -11.682  -2.818  1.00  0.00     0.005 C 
BRANCH  22  23
HETATM   23  C   UNL     1     -22.256 -12.855  -2.833  1.00  0.00     0.005 C 
BRANCH  23  24
HETATM   24  C   UNL     1     -21.698 -13.294  -4.225  1.00  0.00    -0.012 C 
BRANCH  24  25
HETATM   25  C   UNL     1     -20.212 -12.909  -4.465  1.00  0.00     0.000 C 
HETATM   26  C   UNL     1     -19.243 -13.343  -3.374  1.00  0.00     0.005 C 
ENDBRANCH  24  25
BRANCH  24  27
HETATM   27  C   UNL     1     -22.578 -12.855  -5.442  1.00  0.00    -0.019 C 
HETATM   28  C   UNL     1     -21.731 -12.278  -6.591  1.00  0.00     0.010 C 
HETATM   29  C   UNL     1     -23.414 -14.006  -6.012  1.00  0.00     0.010 C 
ENDBRANCH  24  27
ENDBRANCH  23  24
ENDBRANCH  22  23
ENDBRANCH  20  22
ENDBRANCH   1  20
BRANCH  16  30
HETATM   30  O   UNL     1     -22.165  -5.282  -7.371  1.00  0.00    -0.395 OA
HETATM   31  H   UNL     1     -22.283  -4.310  -7.359  1.00  0.00     0.210 HD
ENDBRANCH  16  30
TORSDOF 7
BEGIN_RES ARG D 557
REMARK  4 active torsions:
REMARK  status: ('A' for Active; 'I' for Inactive)
REMARK    1  A    between atoms: CA   and  CB  
REMARK    2  A    between atoms: CB   and  CG  
REMARK    3  A    between atoms: CG   and  CD  
REMARK    4  A    between atoms: CD   and  NE  
REMARK       I    between atoms: NE   and  CZ  
REMARK       I    between atoms: CZ   and  NH1 
REMARK       I    between atoms: CZ   and  NH2 
ROOT
ATOM      1  CA  ARG D 557     -26.217   2.705 -17.014  1.00 35.49     0.159 C 
ENDROOT
BRANCH   1   2
ATOM      2  CB  ARG D 557     -26.789   1.319 -17.183  1.00 35.49     0.034 C 
BRANCH   2   3
ATOM      3  CG  ARG D 557     -28.237   1.225 -17.408  1.00 35.49     0.027 C 
BRANCH   3   4
ATOM      4  CD  ARG D 557     -28.893   0.283 -16.473  1.00 35.49     0.116 C 
BRANCH   4   5
ATOM      5  NE  ARG D 557     -29.280  -0.943 -17.120  1.00 35.49    -0.212 N 
ATOM      6  CZ  ARG D 557     -28.650  -2.093 -17.027  1.00 35.49     0.666 C 
ATOM      7  NH1 ARG D 557     -27.548  -2.242 -16.315  1.00 35.49    -0.235 N 
ATOM      8  NH2 ARG D 557     -29.155  -3.108 -17.665  1.00 35.49    -0.235 N 
ATOM      9  HH  ARG D 557     -27.199  -1.588 -15.885  1.00 35.49     0.174 HD
ATOM     10  HH  ARG D 557     -27.182  -3.016 -16.289  1.00 35.49     0.174 HD
ATOM     11  HH  ARG D 557     -29.872  -2.983 -18.111  1.00 35.49     0.174 HD
ATOM     12  HH  ARG D 557     -28.779  -3.867 -17.626  1.00 35.49     0.174 HD
ATOM     13  HE  ARG D 557     -29.938  -0.920 -17.657  1.00 35.49     0.178 HD
ENDBRANCH   4   5
ENDBRANCH   3   4
ENDBRANCH   2   3
ENDBRANCH   1   2
END_RES ARG D 557
BEGIN_RES GLU D 570
REMARK  3 active torsions:
REMARK  status: ('A' for Active; 'I' for Inactive)
REMARK    5  A    between atoms: CA   and  CB  
REMARK    6  A    between atoms: CB   and  CG  
REMARK    7  A    between atoms: CG   and  CD  
ROOT
ATOM     14  CA  GLU D 570     -18.033  -6.348 -13.375  1.00 32.92     0.160 C 
ENDROOT
BRANCH  14  15
ATOM     15  CB  GLU D 570     -19.500  -6.345 -13.794  1.00 32.92     0.043 C 
BRANCH  15  16
ATOM     16  CG  GLU D 570     -20.448  -5.561 -12.961  1.00 32.92     0.100 C 
BRANCH  16  17
ATOM     17  CD  GLU D 570     -21.705  -5.174 -13.705  1.00 32.92     0.185 C 
ATOM     18  OE1 GLU D 570     -22.737  -4.915 -13.057  1.00 32.92    -0.647 OA
ATOM     19  OE2 GLU D 570     -21.662  -5.145 -14.951  1.00 32.92    -0.647 OA
ENDBRANCH  16  17
ENDBRANCH  15  16
ENDBRANCH  14  15
END_RES GLU D 570
ENDMDL
MODEL 3
REMARK VINA RESULT:      -7.5      1.954      4.498
REMARK  7 active torsions:
REMARK  status: ('A' for Active; 'I' for Inactive)
REMARK    1  A    between atoms: C_2  and  C_3 
REMARK    2  A    between atoms: C_3  and  C_4 
REMARK    3  A    between atoms: C_3  and  C_28 
REMARK    4  A    between atoms: C_4  and  C_5 
REMARK    5  A    between atoms: C_5  and  C_6 
REMARK    6  A    between atoms: C_6  and  C_8 
REMARK    7  A    between atoms: C_23  and  O_25 
ROOT
HETATM    1  C   UNL     1     -19.817 -12.494  -4.764  1.00  0.00    -0.002 C 
HETATM    2  C   UNL     1     -19.157 -13.605  -3.867  1.00  0.00     0.006 C 
HETATM    3  C   UNL     1     -17.841 -13.018  -3.335  1.00  0.00     0.006 C 
HETATM    4  C   UNL     1     -17.959 -11.525  -3.629  1.00  0.00    -0.001 C 
HETATM    5  C   UNL     1     -18.569 -11.568  -5.091  1.00  0.00    -0.036 C 
HETATM    6  C   UNL     1     -18.555 -10.074  -5.477  1.00  0.00     0.010 C 
HETATM    7  C   UNL     1     -19.416  -9.138  -4.660  1.00  0.00     0.007 C 
HETATM    8  C   UNL     1     -19.405  -9.310  -3.116  1.00  0.00     0.003 C 
HETATM    9  C   UNL     1     -18.990 -10.756  -2.692  1.00  0.00    -0.001 C 
HETATM   10  C   UNL     1     -18.922 -10.953  -1.184  1.00  0.00     0.033 C 
HETATM   11  C   UNL     1     -20.294 -10.612  -0.636  1.00  0.00    -0.023 C 
HETATM   12  C   UNL     1     -21.156  -9.763  -1.225  1.00  0.00    -0.072 C 
HETATM   13  C   UNL     1     -20.829  -8.891  -2.447  1.00  0.00    -0.017 C 
HETATM   14  C   UNL     1     -20.811  -7.436  -1.881  1.00  0.00     0.016 C 
HETATM   15  C   UNL     1     -22.137  -7.066  -1.168  1.00  0.00     0.033 C 
HETATM   16  C   UNL     1     -22.481  -8.061  -0.050  1.00  0.00     0.122 C 
HETATM   17  C   UNL     1     -22.498  -9.507  -0.569  1.00  0.00     0.066 C 
HETATM   18  C   UNL     1     -21.974  -8.922  -3.503  1.00  0.00     0.020 C 
HETATM   19  C   UNL     1     -17.737 -12.271  -6.191  1.00  0.00     0.016 C 
ENDROOT
BRANCH   1  20
HETATM   20  C   UNL     1     -20.981 -13.028  -5.628  1.00  0.00    -0.014 C 
HETATM   21  C   UNL     1     -21.559 -11.887  -6.463  1.00  0.00     0.010 C 
BRANCH  20  22
HETATM   22  C   UNL     1     -22.102 -13.582  -4.633  1.00  0.00     0.005 C 
BRANCH  22  23
HETATM   23  C   UNL     1     -22.549 -12.617  -3.530  1.00  0.00     0.005 C 
BRANCH  23  24
HETATM   24  C   UNL     1     -22.451 -13.131  -2.057  1.00  0.00    -0.012 C 
BRANCH  24  25
HETATM   25  C   UNL     1     -21.821 -14.544  -1.917  1.00  0.00     0.000 C 
HETATM   26  C   UNL     1     -20.760 -14.679  -0.835  1.00  0.00     0.005 C 
ENDBRANCH  24  25
BRANCH  24  27
HETATM   27  C   UNL     1     -23.792 -13.050  -1.254  1.00  0.00    -0.019 C 
HETATM   28  C   UNL     1     -24.521 -14.405  -1.205  1.00  0.00     0.010 C 
HETATM   29  C   UNL     1     -23.587 -12.580   0.191  1.00  0.00     0.010 C 
ENDBRANCH  24  27
ENDBRANCH  23  24
ENDBRANCH  22  23
ENDBRANCH  20  22
ENDBRANCH   1  20
BRANCH  16  30
HETATM   30  O   UNL     1     -23.727  -7.724   0.548  1.00  0.00    -0.395 OA
HETATM   31  H   UNL     1     -24.434  -8.181   0.047  1.00  0.00     0.210 HD
ENDBRANCH  16  30
TORSDOF 7
BEGIN_RES ARG D 557
REMARK  4 active torsions:
REMARK  status: ('A' for Active; 'I' for Inactive)
REMARK    1  A    between atoms: CA   and  CB  
REMARK    2  A    between atoms: CB   and  CG  
REMARK    3  A    between atoms: CG   and  CD  
REMARK    4  A    between atoms: CD   and  NE  
REMARK       I    between atoms: NE   and  CZ  
REMARK       I    between atoms: CZ   and  NH1 
REMARK       I    between atoms: CZ   and  NH2 
ROOT
ATOM      1  CA  ARG D 557     -26.217   2.705 -17.014  1.00 35.49     0.159 C 
ENDROOT
BRANCH   1   2
ATOM      2  CB  ARG D 557     -26.789   1.319 -17.183  1.00 35.49     0.034 C 
BRANCH   2   3
ATOM      3  CG  ARG D 557     -25.840   0.201 -17.125  1.00 35.49     0.027 C 
BRANCH   3   4
ATOM      4  CD  ARG D 557     -24.758   0.429 -16.140  1.00 35.49     0.116 C 
BRANCH   4   5
ATOM      5  NE  ARG D 557     -24.884  -0.426 -14.989  1.00 35.49    -0.212 N 
ATOM      6  CZ  ARG D 557     -24.066  -1.403 -14.665  1.00 35.49     0.666 C 
ATOM      7  NH1 ARG D 557     -23.015  -1.720 -15.398  1.00 35.49    -0.235 N 
ATOM      8  NH2 ARG D 557     -24.322  -2.063 -13.573  1.00 35.49    -0.235 N 
ATOM      9  HH  ARG D 557     -22.826  -1.298 -16.119  1.00 35.49     0.174 HD
ATOM     10  HH  ARG D 557     -22.515  -2.365 -15.136  1.00 35.49     0.174 HD
ATOM     11  HH  ARG D 557     -25.004  -1.831 -13.116  1.00 35.49     0.174 HD
ATOM     12  HH  ARG D 557     -23.815  -2.697 -13.329  1.00 35.49     0.174 HD
ATOM     13  HE  ARG D 557     -25.574  -0.339 -14.500  1.00 35.49     0.178 HD
ENDBRANCH   4   5
ENDBRANCH   3   4
ENDBRANCH   2   3
ENDBRANCH   1   2
END_RES ARG D 557
BEGIN_RES GLU D 570
REMARK  3 active torsions:
REMARK  status: ('A' for Active; 'I' for Inactive)
REMARK    5  A    between atoms: CA   and  CB  
REMARK    6  A    between atoms: CB   and  CG  
REMARK    7  A    between atoms: CG   and  CD  
ROOT
ATOM     14  CA  GLU D 570     -18.033  -6.348 -13.375  1.00 32.92     0.160 C 
ENDROOT
BRANCH  14  15
ATOM     15  CB  GLU D 570     -19.500  -6.345 -13.794  1.00 32.92     0.043 C 
BRANCH  15  16
ATOM     16  CG  GLU D 570     -20.460  -5.624 -12.919  1.00 32.92     0.100 C 
BRANCH  16  17
ATOM     17  CD  GLU D 570     -21.730  -5.230 -13.637  1.00 32.92     0.185 C 
ATOM     18  OE1 GLU D 570     -22.341  -6.088 -14.302  1.00 32.92    -0.647 OA
ATOM     19  OE2 GLU D 570     -22.109  -4.045 -13.546  1.00 32.92    -0.647 OA
ENDBRANCH  16  17
ENDBRANCH  15  16
ENDBRANCH  14  15
END_RES GLU D 570
ENDMDL
MODEL 4
REMARK VINA RESULT:      -7.5      1.828      3.574
REMARK  7 active torsions:
REMARK  status: ('A' for Active; 'I' for Inactive)
REMARK    1  A    between atoms: C_2  and  C_3 
REMARK    2  A    between atoms: C_3  and  C_4 
REMARK    3  A    between atoms: C_3  and  C_28 
REMARK    4  A    between atoms: C_4  and  C_5 
REMARK    5  A    between atoms: C_5  and  C_6 
REMARK    6  A    between atoms: C_6  and  C_8 
REMARK    7  A    between atoms: C_23  and  O_25 
ROOT
HETATM    1  C   UNL     1     -19.673 -12.505  -1.224  1.00  0.00    -0.002 C 
HETATM    2  C   UNL     1     -20.187 -13.565  -2.266  1.00  0.00     0.006 C 
HETATM    3  C   UNL     1     -21.711 -13.652  -2.092  1.00  0.00     0.006 C 
HETATM    4  C   UNL     1     -22.054 -12.428  -1.249  1.00  0.00    -0.001 C 
HETATM    5  C   UNL     1     -20.877 -12.469  -0.190  1.00  0.00    -0.036 C 
HETATM    6  C   UNL     1     -21.284 -11.332   0.772  1.00  0.00     0.010 C 
HETATM    7  C   UNL     1     -21.332  -9.930   0.209  1.00  0.00     0.007 C 
HETATM    8  C   UNL     1     -21.985  -9.735  -1.187  1.00  0.00     0.003 C 
HETATM    9  C   UNL     1     -21.957 -11.047  -2.035  1.00  0.00    -0.001 C 
HETATM   10  C   UNL     1     -22.630 -10.910  -3.393  1.00  0.00     0.033 C 
HETATM   11  C   UNL     1     -21.915  -9.790  -4.124  1.00  0.00    -0.023 C 
HETATM   12  C   UNL     1     -21.281  -8.772  -3.516  1.00  0.00    -0.072 C 
HETATM   13  C   UNL     1     -21.315  -8.497  -2.004  1.00  0.00    -0.017 C 
HETATM   14  C   UNL     1     -22.149  -7.182  -1.877  1.00  0.00     0.016 C 
HETATM   15  C   UNL     1     -21.559  -6.027  -2.724  1.00  0.00     0.033 C 
HETATM   16  C   UNL     1     -21.415  -6.417  -4.202  1.00  0.00     0.122 C 
HETATM   17  C   UNL     1     -20.607  -7.714  -4.367  1.00  0.00     0.066 C 
HETATM   18  C   UNL     1     -19.900  -8.158  -1.447  1.00  0.00     0.020 C 
HETATM   19  C   UNL     1     -20.766 -13.726   0.706  1.00  0.00     0.016 C 
ENDROOT
BRANCH   1  20
HETATM   20  C   UNL     1     -18.138 -12.528  -1.047  1.00  0.00    -0.014 C 
HETATM   21  C   UNL     1     -17.795 -12.326   0.428  1.00  0.00     0.010 C 
BRANCH  20  22
HETATM   22  C   UNL     1     -17.538 -11.320  -1.904  1.00  0.00     0.005 C 
BRANCH  22  23
HETATM   23  C   UNL     1     -18.436 -10.788  -3.025  1.00  0.00     0.005 C 
BRANCH  23  24
HETATM   24  C   UNL     1     -18.055 -11.187  -4.488  1.00  0.00    -0.012 C 
BRANCH  24  25
HETATM   25  C   UNL     1     -17.785  -9.979  -5.427  1.00  0.00     0.000 C 
HETATM   26  C   UNL     1     -16.347  -9.831  -5.899  1.00  0.00     0.005 C 
ENDBRANCH  24  25
BRANCH  24  27
HETATM   27  C   UNL     1     -19.047 -12.192  -5.163  1.00  0.00    -0.019 C 
HETATM   28  C   UNL     1     -19.700 -11.601  -6.425  1.00  0.00     0.010 C 
HETATM   29  C   UNL     1     -18.372 -13.509  -5.561  1.00  0.00     0.010 C 
ENDBRANCH  24  27
ENDBRANCH  23  24
ENDBRANCH  22  23
ENDBRANCH  20  22
ENDBRANCH   1  20
BRANCH  16  30
HETATM   30  O   UNL     1     -20.823  -5.355  -4.941  1.00  0.00    -0.395 OA
HETATM   31  H   UNL     1     -20.863  -5.592  -5.891  1.00  0.00     0.210 HD
ENDBRANCH  16  30
TORSDOF 7
BEGIN_RES ARG D 557
REMARK  4 active torsions:
REMARK  status: ('A' for Active; 'I' for Inactive)
REMARK    1  A    between atoms: CA   and  CB  
REMARK    2  A    between atoms: CB   and  CG  
REMARK    3  A    between atoms: CG   and  CD  
REMARK    4  A    between atoms: CD   and  NE  
REMARK       I    between atoms: NE   and  CZ  
REMARK       I    between atoms: CZ   and  NH1 
REMARK       I    between atoms: CZ   and  NH2 
ROOT
ATOM      1  CA  ARG D 557     -26.217   2.705 -17.014  1.00 35.49     0.159 C 
ENDROOT
BRANCH   1   2
ATOM      2  CB  ARG D 557     -26.789   1.319 -17.183  1.00 35.49     0.034 C 
BRANCH   2   3
ATOM      3  CG  ARG D 557     -25.836   0.203 -17.156  1.00 35.49     0.027 C 
BRANCH   3   4
ATOM      4  CD  ARG D 557     -24.752   0.410 -16.168  1.00 35.49     0.116 C 
BRANCH   4   5
ATOM      5  NE  ARG D 557     -24.899  -0.440 -15.016  1.00 35.49    -0.212 N 
ATOM      6  CZ  ARG D 557     -24.081  -1.408 -14.667  1.00 35.49     0.666 C 
ATOM      7  NH1 ARG D 557     -23.010  -1.720 -15.373  1.00 35.49    -0.235 N 
ATOM      8  NH2 ARG D 557     -24.358  -2.065 -13.578  1.00 35.49    -0.235 N 
ATOM      9  HH  ARG D 557     -22.807  -1.300 -16.092  1.00 35.49     0.174 HD
ATOM     10  HH  ARG D 557     -22.512  -2.360 -15.095  1.00 35.49     0.174 HD
ATOM     11  HH  ARG D 557     -25.053  -1.836 -13.139  1.00 35.49     0.174 HD
ATOM     12  HH  ARG D 557     -23.852  -2.693 -13.319  1.00 35.49     0.174 HD
ATOM     13  HE  ARG D 557     -25.601  -0.357 -14.545  1.00 35.49     0.178 HD
ENDBRANCH   4   5
ENDBRANCH   3   4
ENDBRANCH   2   3
ENDBRANCH   1   2
END_RES ARG D 557
BEGIN_RES GLU D 570
REMARK  3 active torsions:
REMARK  status: ('A' for Active; 'I' for Inactive)
REMARK    5  A    between atoms: CA   and  CB  
REMARK    6  A    between atoms: CB   and  CG  
REMARK    7  A    between atoms: CG   and  CD  
ROOT
ATOM     14  CA  GLU D 570     -18.033  -6.348 -13.375  1.00 32.92     0.160 C 
ENDROOT
BRANCH  14  15
ATOM     15  CB  GLU D 570     -19.500  -6.345 -13.794  1.00 32.92     0.043 C 
BRANCH  15  16
ATOM     16  CG  GLU D 570     -20.441  -5.525 -12.987  1.00 32.92     0.100 C 
BRANCH  16  17
ATOM     17  CD  GLU D 570     -21.736  -5.234 -13.708  1.00 32.92     0.185 C 
ATOM     18  OE1 GLU D 570     -22.198  -6.087 -14.490  1.00 32.92    -0.647 OA
ATOM     19  OE2 GLU D 570     -22.286  -4.135 -13.501  1.00 32.92    -0.647 OA
ENDBRANCH  16  17
ENDBRANCH  15  16
ENDBRANCH  14  15
END_RES GLU D 570
ENDMDL
MODEL 5
REMARK VINA RESULT:      -7.4      2.096      4.053
REMARK  7 active torsions:
REMARK  status: ('A' for Active; 'I' for Inactive)
REMARK    1  A    between atoms: C_2  and  C_3 
REMARK    2  A    between atoms: C_3  and  C_4 
REMARK    3  A    between atoms: C_3  and  C_28 
REMARK    4  A    between atoms: C_4  and  C_5 
REMARK    5  A    between atoms: C_5  and  C_6 
REMARK    6  A    between atoms: C_6  and  C_8 
REMARK    7  A    between atoms: C_23  and  O_25 
ROOT
HETATM    1  C   UNL     1     -20.029 -12.658  -1.263  1.00  0.00    -0.002 C 
HETATM    2  C   UNL     1     -20.570 -13.674  -2.335  1.00  0.00     0.006 C 
HETATM    3  C   UNL     1     -22.101 -13.672  -2.211  1.00  0.00     0.006 C 
HETATM    4  C   UNL     1     -22.399 -12.438  -1.365  1.00  0.00    -0.001 C 
HETATM    5  C   UNL     1     -21.263 -12.562  -0.268  1.00  0.00    -0.036 C 
HETATM    6  C   UNL     1     -21.633 -11.414   0.695  1.00  0.00     0.010 C 
HETATM    7  C   UNL     1     -21.578 -10.005   0.149  1.00  0.00     0.007 C 
HETATM    8  C   UNL     1     -22.172  -9.756  -1.265  1.00  0.00     0.003 C 
HETATM    9  C   UNL     1     -22.193 -11.058  -2.129  1.00  0.00    -0.001 C 
HETATM   10  C   UNL     1     -22.811 -10.865  -3.506  1.00  0.00     0.033 C 
HETATM   11  C   UNL     1     -22.007  -9.781  -4.199  1.00  0.00    -0.023 C 
HETATM   12  C   UNL     1     -21.334  -8.810  -3.556  1.00  0.00    -0.072 C 
HETATM   13  C   UNL     1     -21.402  -8.551  -2.043  1.00  0.00    -0.017 C 
HETATM   14  C   UNL     1     -22.160  -7.190  -1.926  1.00  0.00     0.016 C 
HETATM   15  C   UNL     1     -21.474  -6.062  -2.738  1.00  0.00     0.033 C 
HETATM   16  C   UNL     1     -21.304  -6.444  -4.216  1.00  0.00     0.122 C 
HETATM   17  C   UNL     1     -20.570  -7.785  -4.371  1.00  0.00     0.066 C 
HETATM   18  C   UNL     1     -19.989  -8.303  -1.435  1.00  0.00     0.020 C 
HETATM   19  C   UNL     1     -21.257 -13.834   0.614  1.00  0.00     0.016 C 
ENDROOT
BRANCH   1  20
HETATM   20  C   UNL     1     -18.505 -12.776  -1.036  1.00  0.00    -0.014 C 
HETATM   21  C   UNL     1     -18.110 -11.950   0.187  1.00  0.00     0.010 C 
BRANCH  20  22
HETATM   22  C   UNL     1     -17.780 -12.188  -2.333  1.00  0.00     0.005 C 
BRANCH  22  23
HETATM   23  C   UNL     1     -18.328 -10.856  -2.857  1.00  0.00     0.005 C 
BRANCH  23  24
HETATM   24  C   UNL     1     -17.870 -10.414  -4.284  1.00  0.00    -0.012 C 
BRANCH  24  25
HETATM   25  C   UNL     1     -18.033 -11.510  -5.373  1.00  0.00     0.000 C 
HETATM   26  C   UNL     1     -19.455 -12.006  -5.589  1.00  0.00     0.005 C 
ENDBRANCH  24  25
BRANCH  24  27
HETATM   27  C   UNL     1     -16.431  -9.800  -4.339  1.00  0.00    -0.019 C 
HETATM   28  C   UNL     1     -15.938  -9.353  -2.951  1.00  0.00     0.010 C 
HETATM   29  C   UNL     1     -15.395 -10.775  -4.910  1.00  0.00     0.010 C 
ENDBRANCH  24  27
ENDBRANCH  23  24
ENDBRANCH  22  23
ENDBRANCH  20  22
ENDBRANCH   1  20
BRANCH  16  30
HETATM   30  O   UNL     1     -20.625  -5.412  -4.921  1.00  0.00    -0.395 OA
HETATM   31  H   UNL     1     -20.726  -4.583  -4.409  1.00  0.00     0.210 HD
ENDBRANCH  16  30
TORSDOF 7
BEGIN_RES ARG D 557
REMARK  4 active torsions:
REMARK  status: ('A' for Active; 'I' for Inactive)
REMARK    1  A    between atoms: CA   and  CB  
REMARK    2  A    between atoms: CB   and  CG  
REMARK    3  A    between atoms: CG   and  CD  
REMARK    4  A    between atoms: CD   and  NE  
REMARK       I    between atoms: NE   and  CZ  
REMARK       I    between atoms: CZ   and  NH1 
REMARK       I    between atoms: CZ   and  NH2 
ROOT
ATOM      1  CA  ARG D 557     -26.217   2.705 -17.014  1.00 35.49     0.159 C 
ENDROOT
BRANCH   1   2
ATOM      2  CB  ARG D 557     -26.789   1.319 -17.183  1.00 35.49     0.034 C 
BRANCH   2   3
ATOM      3  CG  ARG D 557     -28.236   1.173 -16.984  1.00 35.49     0.027 C 
BRANCH   3   4
ATOM      4  CD  ARG D 557     -28.635  -0.236 -16.761  1.00 35.49     0.116 C 
BRANCH   4   5
ATOM      5  NE  ARG D 557     -27.623  -0.983 -16.062  1.00 35.49    -0.212 N 
ATOM      6  CZ  ARG D 557     -27.459  -2.286 -16.111  1.00 35.49     0.666 C 
ATOM      7  NH1 ARG D 557     -28.245  -3.074 -16.821  1.00 35.49    -0.235 N 
ATOM      8  NH2 ARG D 557     -26.473  -2.792 -15.429  1.00 35.49    -0.235 N 
ATOM      9  HH  ARG D 557     -28.898  -2.761 -17.279  1.00 35.49     0.174 HD
ATOM     10  HH  ARG D 557     -28.088  -3.916 -16.816  1.00 35.49     0.174 HD
ATOM     11  HH  ARG D 557     -25.977  -2.259 -14.985  1.00 35.49     0.174 HD
ATOM     12  HH  ARG D 557     -26.333  -3.629 -15.438  1.00 35.49     0.174 HD
ATOM     13  HE  ARG D 557     -27.117  -0.562 -15.523  1.00 35.49     0.178 HD
ENDBRANCH   4   5
ENDBRANCH   3   4
ENDBRANCH   2   3
ENDBRANCH   1   2
END_RES ARG D 557
BEGIN_RES GLU D 570
REMARK  3 active torsions:
REMARK  status: ('A' for Active; 'I' for Inactive)
REMARK    5  A    between atoms: CA   and  CB  
REMARK    6  A    between atoms: CB   and  CG  
REMARK    7  A    between atoms: CG   and  CD  
ROOT
ATOM     14  CA  GLU D 570     -18.033  -6.348 -13.375  1.00 32.92     0.160 C 
ENDROOT
BRANCH  14  15
ATOM     15  CB  GLU D 570     -19.500  -6.345 -13.794  1.00 32.92     0.043 C 
BRANCH  15  16
ATOM     16  CG  GLU D 570     -20.448  -5.561 -12.961  1.00 32.92     0.100 C 
BRANCH  16  17
ATOM     17  CD  GLU D 570     -21.704  -5.173 -13.706  1.00 32.92     0.185 C 
ATOM     18  OE1 GLU D 570     -21.699  -5.188 -14.951  1.00 32.92    -0.647 OA
ATOM     19  OE2 GLU D 570     -22.700  -4.833 -13.036  1.00 32.92    -0.647 OA
ENDBRANCH  16  17
ENDBRANCH  15  16
ENDBRANCH  14  15
END_RES GLU D 570
ENDMDL
MODEL 6
REMARK VINA RESULT:      -7.4      2.683      4.995
REMARK  7 active torsions:
REMARK  status: ('A' for Active; 'I' for Inactive)
REMARK    1  A    between atoms: C_2  and  C_3 
REMARK    2  A    between atoms: C_3  and  C_4 
REMARK    3  A    between atoms: C_3  and  C_28 
REMARK    4  A    between atoms: C_4  and  C_5 
REMARK    5  A    between atoms: C_5  and  C_6 
REMARK    6  A    between atoms: C_6  and  C_8 
REMARK    7  A    between atoms: C_23  and  O_25 
ROOT
HETATM    1  C   UNL     1     -19.499 -13.463  -0.924  1.00  0.00    -0.002 C 
HETATM    2  C   UNL     1     -19.535 -13.922  -2.427  1.00  0.00     0.006 C 
HETATM    3  C   UNL     1     -20.973 -14.379  -2.716  1.00  0.00     0.006 C 
HETATM    4  C   UNL     1     -21.772 -13.846  -1.530  1.00  0.00    -0.001 C 
HETATM    5  C   UNL     1     -20.785 -14.191  -0.340  1.00  0.00    -0.036 C 
HETATM    6  C   UNL     1     -21.632 -13.805   0.890  1.00  0.00     0.010 C 
HETATM    7  C   UNL     1     -22.020 -12.351   1.037  1.00  0.00     0.007 C 
HETATM    8  C   UNL     1     -22.514 -11.605  -0.233  1.00  0.00     0.003 C 
HETATM    9  C   UNL     1     -21.987 -12.269  -1.545  1.00  0.00    -0.001 C 
HETATM   10  C   UNL     1     -22.487 -11.594  -2.814  1.00  0.00     0.033 C 
HETATM   11  C   UNL     1     -22.048 -10.144  -2.740  1.00  0.00    -0.023 C 
HETATM   12  C   UNL     1     -21.830  -9.476  -1.592  1.00  0.00    -0.072 C 
HETATM   13  C   UNL     1     -22.141 -10.020  -0.190  1.00  0.00    -0.017 C 
HETATM   14  C   UNL     1     -23.337  -9.143   0.300  1.00  0.00     0.016 C 
HETATM   15  C   UNL     1     -23.011  -7.629   0.260  1.00  0.00     0.033 C 
HETATM   16  C   UNL     1     -22.567  -7.177  -1.139  1.00  0.00     0.122 C 
HETATM   17  C   UNL     1     -21.396  -8.025  -1.659  1.00  0.00     0.066 C 
HETATM   18  C   UNL     1     -20.976  -9.746   0.808  1.00  0.00     0.020 C 
HETATM   19  C   UNL     1     -20.423 -15.680  -0.122  1.00  0.00     0.016 C 
ENDROOT
BRANCH   1  20
HETATM   20  C   UNL     1     -18.064 -13.276  -0.384  1.00  0.00    -0.014 C 
HETATM   21  C   UNL     1     -17.959 -11.923   0.318  1.00  0.00     0.010 C 
BRANCH  20  22
HETATM   22  C   UNL     1     -17.072 -13.306  -1.636  1.00  0.00     0.005 C 
BRANCH  22  23
HETATM   23  C   UNL     1     -16.374 -11.982  -1.965  1.00  0.00     0.005 C 
BRANCH  23  24
HETATM   24  C   UNL     1     -16.831 -11.243  -3.263  1.00  0.00    -0.012 C 
BRANCH  24  25
HETATM   25  C   UNL     1     -15.860 -10.127  -3.736  1.00  0.00     0.000 C 
HETATM   26  C   UNL     1     -15.504 -10.158  -5.215  1.00  0.00     0.005 C 
ENDBRANCH  24  25
BRANCH  24  27
HETATM   27  C   UNL     1     -18.300 -10.704  -3.217  1.00  0.00    -0.019 C 
HETATM   28  C   UNL     1     -18.356  -9.202  -2.884  1.00  0.00     0.010 C 
HETATM   29  C   UNL     1     -19.048 -10.916  -4.538  1.00  0.00     0.010 C 
ENDBRANCH  24  27
ENDBRANCH  23  24
ENDBRANCH  22  23
ENDBRANCH  20  22
ENDBRANCH   1  20
BRANCH  16  30
HETATM   30  O   UNL     1     -22.225  -5.796  -1.130  1.00  0.00    -0.395 OA
HETATM   31  H   UNL     1     -21.250  -5.728  -1.072  1.00  0.00     0.210 HD
ENDBRANCH  16  30
TORSDOF 7
BEGIN_RES ARG D 557
REMARK  4 active torsions:
REMARK  status: ('A' for Active; 'I' for Inactive)
REMARK    1  A    between atoms: CA   and  CB  
REMARK    2  A    between atoms: CB   and  CG  
REMARK    3  A    between atoms: CG   and  CD  
REMARK    4  A    between atoms: CD   and  NE  
REMARK       I    between atoms: NE   and  CZ  
REMARK       I    between atoms: CZ   and  NH1 
REMARK       I    between atoms: CZ   and  NH2 
ROOT
ATOM      1  CA  ARG D 557     -26.217   2.705 -17.014  1.00 35.49     0.159 C 
ENDROOT
BRANCH   1   2
ATOM      2  CB  ARG D 557     -26.789   1.319 -17.183  1.00 35.49     0.034 C 
BRANCH   2   3
ATOM      3  CG  ARG D 557     -28.235   1.225 -17.418  1.00 35.49     0.027 C 
BRANCH   3   4
ATOM      4  CD  ARG D 557     -28.897   0.280 -16.489  1.00 35.49     0.116 C 
BRANCH   4   5
ATOM      5  NE  ARG D 557     -29.263  -0.951 -17.138  1.00 35.49    -0.212 N 
ATOM      6  CZ  ARG D 557     -28.629  -2.097 -17.025  1.00 35.49     0.666 C 
ATOM      7  NH1 ARG D 557     -27.543  -2.236 -16.287  1.00 35.49    -0.235 N 
ATOM      8  NH2 ARG D 557     -29.115  -3.118 -17.669  1.00 35.49    -0.235 N 
ATOM      9  HH  ARG D 557     -27.207  -1.579 -15.853  1.00 35.49     0.174 HD
ATOM     10  HH  ARG D 557     -27.174  -3.009 -16.249  1.00 35.49     0.174 HD
ATOM     11  HH  ARG D 557     -29.822  -3.000 -18.132  1.00 35.49     0.174 HD
ATOM     12  HH  ARG D 557     -28.736  -3.874 -17.617  1.00 35.49     0.174 HD
ATOM     13  HE  ARG D 557     -29.909  -0.935 -17.690  1.00 35.49     0.178 HD
ENDBRANCH   4   5
ENDBRANCH   3   4
ENDBRANCH   2   3
ENDBRANCH   1   2
END_RES ARG D 557
BEGIN_RES GLU D 570
REMARK  3 active torsions:
REMARK  status: ('A' for Active; 'I' for Inactive)
REMARK    5  A    between atoms: CA   and  CB  
REMARK    6  A    between atoms: CB   and  CG  
REMARK    7  A    between atoms: CG   and  CD  
ROOT
ATOM     14  CA  GLU D 570     -18.033  -6.348 -13.375  1.00 32.92     0.160 C 
ENDROOT
BRANCH  14  15
ATOM     15  CB  GLU D 570     -19.500  -6.345 -13.794  1.00 32.92     0.043 C 
BRANCH  15  16
ATOM     16  CG  GLU D 570     -20.446  -5.551 -12.969  1.00 32.92     0.100 C 
BRANCH  16  17
ATOM     17  CD  GLU D 570     -21.705  -5.174 -13.714  1.00 32.92     0.185 C 
ATOM     18  OE1 GLU D 570     -22.782  -5.110 -13.090  1.00 32.92    -0.647 OA
ATOM     19  OE2 GLU D 570     -21.617  -4.956 -14.938  1.00 32.92    -0.647 OA
ENDBRANCH  16  17
ENDBRANCH  15  16
ENDBRANCH  14  15
END_RES GLU D 570
ENDMDL
MODEL 7
REMARK VINA RESULT:      -7.2      2.540      4.415
REMARK  7 active torsions:
REMARK  status: ('A' for Active; 'I' for Inactive)
REMARK    1  A    between atoms: C_2  and  C_3 
REMARK    2  A    between atoms: C_3  and  C_4 
REMARK    3  A    between atoms: C_3  and  C_28 
REMARK    4  A    between atoms: C_4  and  C_5 
REMARK    5  A    between atoms: C_5  and  C_6 
REMARK    6  A    between atoms: C_6  and  C_8 
REMARK    7  A    between atoms: C_23  and  O_25 
ROOT
HETATM    1  C   UNL     1     -21.454 -10.492  -0.134  1.00  0.00    -0.002 C 
HETATM    2  C   UNL     1     -22.541 -11.621  -0.258  1.00  0.00     0.006 C 
HETATM    3  C   UNL     1     -23.573 -11.129  -1.285  1.00  0.00     0.006 C 
HETATM    4  C   UNL     1     -22.883  -9.949  -1.961  1.00  0.00    -0.001 C 
HETATM    5  C   UNL     1     -22.238  -9.234  -0.703  1.00  0.00    -0.036 C 
HETATM    6  C   UNL     1     -21.663  -7.949  -1.336  1.00  0.00     0.010 C 
HETATM    7  C   UNL     1     -20.571  -8.113  -2.368  1.00  0.00     0.007 C 
HETATM    8  C   UNL     1     -20.750  -9.225  -3.438  1.00  0.00     0.003 C 
HETATM    9  C   UNL     1     -21.704 -10.360  -2.948  1.00  0.00    -0.001 C 
HETATM   10  C   UNL     1     -21.942 -11.447  -3.986  1.00  0.00     0.033 C 
HETATM   11  C   UNL     1     -20.582 -12.015  -4.345  1.00  0.00    -0.023 C 
HETATM   12  C   UNL     1     -19.428 -11.330  -4.253  1.00  0.00    -0.072 C 
HETATM   13  C   UNL     1     -19.320  -9.833  -3.926  1.00  0.00    -0.017 C 
HETATM   14  C   UNL     1     -18.827  -9.189  -5.262  1.00  0.00     0.016 C 
HETATM   15  C   UNL     1     -17.511  -9.828  -5.772  1.00  0.00     0.033 C 
HETATM   16  C   UNL     1     -17.642 -11.349  -5.939  1.00  0.00     0.122 C 
HETATM   17  C   UNL     1     -18.135 -12.018  -4.646  1.00  0.00     0.066 C 
HETATM   18  C   UNL     1     -18.203  -9.548  -2.879  1.00  0.00     0.020 C 
HETATM   19  C   UNL     1     -23.197  -8.736   0.405  1.00  0.00     0.016 C 
ENDROOT
BRANCH   1  20
HETATM   20  C   UNL     1     -20.521 -10.684   1.083  1.00  0.00    -0.014 C 
HETATM   21  C   UNL     1     -20.492  -9.398   1.907  1.00  0.00     0.010 C 
BRANCH  20  22
HETATM   22  C   UNL     1     -19.057 -10.990   0.521  1.00  0.00     0.005 C 
BRANCH  22  23
HETATM   23  C   UNL     1     -18.879 -12.346  -0.171  1.00  0.00     0.005 C 
BRANCH  23  24
HETATM   24  C   UNL     1     -17.453 -12.982  -0.127  1.00  0.00    -0.012 C 
BRANCH  24  25
HETATM   25  C   UNL     1     -16.476 -12.287   0.861  1.00  0.00     0.000 C 
HETATM   26  C   UNL     1     -15.956 -13.166   1.989  1.00  0.00     0.005 C 
ENDBRANCH  24  25
BRANCH  24  27
HETATM   27  C   UNL     1     -16.779 -13.155  -1.528  1.00  0.00    -0.019 C 
HETATM   28  C   UNL     1     -15.701 -12.087  -1.790  1.00  0.00     0.010 C 
HETATM   29  C   UNL     1     -16.123 -14.530  -1.702  1.00  0.00     0.010 C 
ENDBRANCH  24  27
ENDBRANCH  23  24
ENDBRANCH  22  23
ENDBRANCH  20  22
ENDBRANCH   1  20
BRANCH  16  30
HETATM   30  O   UNL     1     -16.403 -11.911  -6.358  1.00  0.00    -0.395 OA
HETATM   31  H   UNL     1     -15.706 -11.584  -5.752  1.00  0.00     0.210 HD
ENDBRANCH  16  30
TORSDOF 7
BEGIN_RES ARG D 557
REMARK  4 active torsions:
REMARK  status: ('A' for Active; 'I' for Inactive)
REMARK    1  A    between atoms: CA   and  CB  
REMARK    2  A    between atoms: CB   and  CG  
REMARK    3  A    between atoms: CG   and  CD  
REMARK    4  A    between atoms: CD   and  NE  
REMARK       I    between atoms: NE   and  CZ  
REMARK       I    between atoms: CZ   and  NH1 
REMARK       I    between atoms: CZ   and  NH2 
ROOT
ATOM      1  CA  ARG D 557     -26.217   2.705 -17.014  1.00 35.49     0.159 C 
ENDROOT
BRANCH   1   2
ATOM      2  CB  ARG D 557     -26.789   1.319 -17.183  1.00 35.49     0.034 C 
BRANCH   2   3
ATOM      3  CG  ARG D 557     -25.863   0.195 -17.000  1.00 35.49     0.027 C 
BRANCH   3   4
ATOM      4  CD  ARG D 557     -26.283  -0.710 -15.905  1.00 35.49     0.116 C 
BRANCH   4   5
ATOM      5  NE  ARG D 557     -25.233  -0.922 -14.944  1.00 35.49    -0.212 N 
ATOM      6  CZ  ARG D 557     -24.953  -2.061 -14.351  1.00 35.49     0.666 C 
ATOM      7  NH1 ARG D 557     -25.641  -3.165 -14.575  1.00 35.49    -0.235 N 
ATOM      8  NH2 ARG D 557     -23.951  -2.075 -13.521  1.00 35.49    -0.235 N 
ATOM      9  HH  ARG D 557     -26.303  -3.179 -15.119  1.00 35.49     0.174 HD
ATOM     10  HH  ARG D 557     -25.411  -3.879 -14.162  1.00 35.49     0.174 HD
ATOM     11  HH  ARG D 557     -23.520  -1.349 -13.401  1.00 35.49     0.174 HD
ATOM     12  HH  ARG D 557     -23.737  -2.792 -13.123  1.00 35.49     0.174 HD
ATOM     13  HE  ARG D 557     -24.786  -0.246 -14.686  1.00 35.49     0.178 HD
ENDBRANCH   4   5
ENDBRANCH   3   4
ENDBRANCH   2   3
ENDBRANCH   1   2
END_RES ARG D 557
BEGIN_RES GLU D 570
REMARK  3 active torsions:
REMARK  status: ('A' for Active; 'I' for Inactive)
REMARK    5  A    between atoms: CA   and  CB  
REMARK    6  A    between atoms: CB   and  CG  
REMARK    7  A    between atoms: CG   and  CD  
ROOT
ATOM     14  CA  GLU D 570     -18.033  -6.348 -13.375  1.00 32.92     0.160 C 
ENDROOT
BRANCH  14  15
ATOM     15  CB  GLU D 570     -19.500  -6.345 -13.794  1.00 32.92     0.043 C 
BRANCH  15  16
ATOM     16  CG  GLU D 570     -20.454  -5.592 -12.940  1.00 32.92     0.100 C 
BRANCH  16  17
ATOM     17  CD  GLU D 570     -21.681  -5.130 -13.692  1.00 32.92     0.185 C 
ATOM     18  OE1 GLU D 570     -22.716  -4.859 -13.054  1.00 32.92    -0.647 OA
ATOM     19  OE2 GLU D 570     -21.610  -5.054 -14.934  1.00 32.92    -0.647 OA
ENDBRANCH  16  17
ENDBRANCH  15  16
ENDBRANCH  14  15
END_RES GLU D 570
ENDMDL
MODEL 8
REMARK VINA RESULT:      -7.1      3.194      5.770
REMARK  7 active torsions:
REMARK  status: ('A' for Active; 'I' for Inactive)
REMARK    1  A    between atoms: C_2  and  C_3 
REMARK    2  A    between atoms: C_3  and  C_4 
REMARK    3  A    between atoms: C_3  and  C_28 
REMARK    4  A    between atoms: C_4  and  C_5 
REMARK    5  A    between atoms: C_5  and  C_6 
REMARK    6  A    between atoms: C_6  and  C_8 
REMARK    7  A    between atoms: C_23  and  O_25 
ROOT
HETATM    1  C   UNL     1     -19.635 -10.060  -2.767  1.00  0.00    -0.002 C 
HETATM    2  C   UNL     1     -19.697  -8.672  -2.031  1.00  0.00     0.006 C 
HETATM    3  C   UNL     1     -21.065  -8.057  -2.363  1.00  0.00     0.006 C 
HETATM    4  C   UNL     1     -21.858  -9.221  -2.950  1.00  0.00    -0.001 C 
HETATM    5  C   UNL     1     -20.755  -9.880  -3.878  1.00  0.00    -0.036 C 
HETATM    6  C   UNL     1     -21.571 -10.969  -4.605  1.00  0.00     0.010 C 
HETATM    7  C   UNL     1     -22.164 -12.073  -3.759  1.00  0.00     0.007 C 
HETATM    8  C   UNL     1     -22.845 -11.671  -2.423  1.00  0.00     0.003 C 
HETATM    9  C   UNL     1     -22.309 -10.308  -1.879  1.00  0.00    -0.001 C 
HETATM   10  C   UNL     1     -22.985  -9.856  -0.593  1.00  0.00     0.033 C 
HETATM   11  C   UNL     1     -22.767 -10.957   0.427  1.00  0.00    -0.023 C 
HETATM   12  C   UNL     1     -22.579 -12.252   0.115  1.00  0.00    -0.072 C 
HETATM   13  C   UNL     1     -22.714 -12.841  -1.298  1.00  0.00    -0.017 C 
HETATM   14  C   UNL     1     -23.995 -13.731  -1.216  1.00  0.00     0.016 C 
HETATM   15  C   UNL     1     -23.905 -14.790  -0.088  1.00  0.00     0.033 C 
HETATM   16  C   UNL     1     -23.624 -14.147   1.278  1.00  0.00     0.122 C 
HETATM   17  C   UNL     1     -22.374 -13.254   1.234  1.00  0.00     0.066 C 
HETATM   18  C   UNL     1     -21.543 -13.812  -1.633  1.00  0.00     0.020 C 
HETATM   19  C   UNL     1     -20.160  -9.008  -5.009  1.00  0.00     0.016 C 
ENDROOT
BRANCH   1  20
HETATM   20  C   UNL     1     -18.213 -10.663  -2.799  1.00  0.00    -0.014 C 
HETATM   21  C   UNL     1     -17.980 -11.484  -1.532  1.00  0.00     0.010 C 
BRANCH  20  22
HETATM   22  C   UNL     1     -17.177  -9.447  -2.845  1.00  0.00     0.005 C 
BRANCH  22  23
HETATM   23  C   UNL     1     -15.921  -9.673  -3.693  1.00  0.00     0.005 C 
BRANCH  23  24
HETATM   24  C   UNL     1     -15.822 -11.028  -4.465  1.00  0.00    -0.012 C 
BRANCH  24  25
HETATM   25  C   UNL     1     -14.540 -11.847  -4.150  1.00  0.00     0.000 C 
HETATM   26  C   UNL     1     -14.640 -12.777  -2.950  1.00  0.00     0.005 C 
ENDBRANCH  24  25
BRANCH  24  27
HETATM   27  C   UNL     1     -16.026 -10.907  -6.011  1.00  0.00    -0.019 C 
HETATM   28  C   UNL     1     -15.160 -11.913  -6.791  1.00  0.00     0.010 C 
HETATM   29  C   UNL     1     -17.484 -11.124  -6.433  1.00  0.00     0.010 C 
ENDBRANCH  24  27
ENDBRANCH  23  24
ENDBRANCH  22  23
ENDBRANCH  20  22
ENDBRANCH   1  20
BRANCH  16  30
HETATM   30  O   UNL     1     -23.495 -15.148   2.281  1.00  0.00    -0.395 OA
HETATM   31  H   UNL     1     -24.393 -15.361   2.608  1.00  0.00     0.210 HD
ENDBRANCH  16  30
TORSDOF 7
BEGIN_RES ARG D 557
REMARK  4 active torsions:
REMARK  status: ('A' for Active; 'I' for Inactive)
REMARK    1  A    between atoms: CA   and  CB  
REMARK    2  A    between atoms: CB   and  CG  
REMARK    3  A    between atoms: CG   and  CD  
REMARK    4  A    between atoms: CD   and  NE  
REMARK       I    between atoms: NE   and  CZ  
REMARK       I    between atoms: CZ   and  NH1 
REMARK       I    between atoms: CZ   and  NH2 
ROOT
ATOM      1  CA  ARG D 557     -26.217   2.705 -17.014  1.00 35.49     0.159 C 
ENDROOT
BRANCH   1   2
ATOM      2  CB  ARG D 557     -26.789   1.319 -17.183  1.00 35.49     0.034 C 
BRANCH   2   3
ATOM      3  CG  ARG D 557     -25.841   0.200 -17.118  1.00 35.49     0.027 C 
BRANCH   3   4
ATOM      4  CD  ARG D 557     -24.762   0.432 -16.131  1.00 35.49     0.116 C 
BRANCH   4   5
ATOM      5  NE  ARG D 557     -24.866  -0.448 -14.997  1.00 35.49    -0.212 N 
ATOM      6  CZ  ARG D 557     -24.026  -1.412 -14.693  1.00 35.49     0.666 C 
ATOM      7  NH1 ARG D 557     -22.969  -1.691 -15.433  1.00 35.49    -0.235 N 
ATOM      8  NH2 ARG D 557     -24.265  -2.098 -13.613  1.00 35.49    -0.235 N 
ATOM      9  HH  ARG D 557     -22.791  -1.251 -16.146  1.00 35.49     0.174 HD
ATOM     10  HH  ARG D 557     -22.455  -2.330 -15.184  1.00 35.49     0.174 HD
ATOM     11  HH  ARG D 557     -24.951  -1.891 -13.151  1.00 35.49     0.174 HD
ATOM     12  HH  ARG D 557     -23.744  -2.726 -13.383  1.00 35.49     0.174 HD
ATOM     13  HE  ARG D 557     -25.557  -0.386 -14.505  1.00 35.49     0.178 HD
ENDBRANCH   4   5
ENDBRANCH   3   4
ENDBRANCH   2   3
ENDBRANCH   1   2
END_RES ARG D 557
BEGIN_RES GLU D 570
REMARK  3 active torsions:
REMARK  status: ('A' for Active; 'I' for Inactive)
REMARK    5  A    between atoms: CA   and  CB  
REMARK    6  A    between atoms: CB   and  CG  
REMARK    7  A    between atoms: CG   and  CD  
ROOT
ATOM     14  CA  GLU D 570     -18.033  -6.348 -13.375  1.00 32.92     0.160 C 
ENDROOT
BRANCH  14  15
ATOM     15  CB  GLU D 570     -19.500  -6.345 -13.794  1.00 32.92     0.043 C 
BRANCH  15  16
ATOM     16  CG  GLU D 570     -20.446  -5.552 -12.968  1.00 32.92     0.100 C 
BRANCH  16  17
ATOM     17  CD  GLU D 570     -21.645  -5.066 -13.748  1.00 32.92     0.185 C 
ATOM     18  OE1 GLU D 570     -22.654  -4.678 -13.128  1.00 32.92    -0.647 OA
ATOM     19  OE2 GLU D 570     -21.581  -5.088 -14.993  1.00 32.92    -0.647 OA
ENDBRANCH  16  17
ENDBRANCH  15  16
ENDBRANCH  14  15
END_RES GLU D 570
ENDMDL
MODEL 9
REMARK VINA RESULT:      -7.0      3.924      6.934
REMARK  7 active torsions:
REMARK  status: ('A' for Active; 'I' for Inactive)
REMARK    1  A    between atoms: C_2  and  C_3 
REMARK    2  A    between atoms: C_3  and  C_4 
REMARK    3  A    between atoms: C_3  and  C_28 
REMARK    4  A    between atoms: C_4  and  C_5 
REMARK    5  A    between atoms: C_5  and  C_6 
REMARK    6  A    between atoms: C_6  and  C_8 
REMARK    7  A    between atoms: C_23  and  O_25 
ROOT
HETATM    1  C   UNL     1     -18.736 -11.264  -4.136  1.00  0.00    -0.002 C 
HETATM    2  C   UNL     1     -19.105 -11.139  -5.659  1.00  0.00     0.006 C 
HETATM    3  C   UNL     1     -18.118 -10.132  -6.271  1.00  0.00     0.006 C 
HETATM    4  C   UNL     1     -17.030  -9.995  -5.211  1.00  0.00    -0.001 C 
HETATM    5  C   UNL     1     -17.914  -9.926  -3.898  1.00  0.00    -0.036 C 
HETATM    6  C   UNL     1     -16.850  -9.630  -2.821  1.00  0.00     0.010 C 
HETATM    7  C   UNL     1     -15.786 -10.679  -2.590  1.00  0.00     0.007 C 
HETATM    8  C   UNL     1     -15.141 -11.339  -3.840  1.00  0.00     0.003 C 
HETATM    9  C   UNL     1     -16.074 -11.261  -5.090  1.00  0.00    -0.001 C 
HETATM   10  C   UNL     1     -15.458 -11.856  -6.348  1.00  0.00     0.033 C 
HETATM   11  C   UNL     1     -15.119 -13.300  -6.029  1.00  0.00    -0.023 C 
HETATM   12  C   UNL     1     -14.848 -13.758  -4.793  1.00  0.00    -0.072 C 
HETATM   13  C   UNL     1     -14.682 -12.874  -3.548  1.00  0.00    -0.017 C 
HETATM   14  C   UNL     1     -13.163 -12.984  -3.205  1.00  0.00     0.016 C 
HETATM   15  C   UNL     1     -12.708 -14.452  -3.011  1.00  0.00     0.033 C 
HETATM   16  C   UNL     1     -13.033 -15.318  -4.237  1.00  0.00     0.122 C 
HETATM   17  C   UNL     1     -14.521 -15.228  -4.612  1.00  0.00     0.066 C 
HETATM   18  C   UNL     1     -15.439 -13.461  -2.318  1.00  0.00     0.020 C 
HETATM   19  C   UNL     1     -18.930  -8.764  -3.782  1.00  0.00     0.016 C 
ENDROOT
BRANCH   1  20
HETATM   20  C   UNL     1     -19.822 -11.988  -3.309  1.00  0.00    -0.014 C 
HETATM   21  C   UNL     1     -21.105 -12.086  -4.133  1.00  0.00     0.010 C 
BRANCH  20  22
HETATM   22  C   UNL     1     -20.093 -11.112  -2.001  1.00  0.00     0.005 C 
BRANCH  22  23
HETATM   23  C   UNL     1     -21.448 -10.398  -1.947  1.00  0.00     0.005 C 
BRANCH  23  24
HETATM   24  C   UNL     1     -22.033 -10.094  -0.530  1.00  0.00    -0.012 C 
BRANCH  24  25
HETATM   25  C   UNL     1     -23.498 -10.570  -0.330  1.00  0.00     0.000 C 
HETATM   26  C   UNL     1     -23.655 -11.995   0.179  1.00  0.00     0.005 C 
ENDBRANCH  24  25
BRANCH  24  27
HETATM   27  C   UNL     1     -21.876  -8.606  -0.071  1.00  0.00    -0.019 C 
HETATM   28  C   UNL     1     -21.483  -7.679  -1.235  1.00  0.00     0.010 C 
HETATM   29  C   UNL     1     -23.155  -8.045   0.560  1.00  0.00     0.010 C 
ENDBRANCH  24  27
ENDBRANCH  23  24
ENDBRANCH  22  23
ENDBRANCH  20  22
ENDBRANCH   1  20
BRANCH  16  30
HETATM   30  O   UNL     1     -12.651 -16.669  -4.007  1.00  0.00    -0.395 OA
HETATM   31  H   UNL     1     -13.071 -17.221  -4.698  1.00  0.00     0.210 HD
ENDBRANCH  16  30
TORSDOF 7
BEGIN_RES ARG D 557
REMARK  4 active torsions:
REMARK  status: ('A' for Active; 'I' for Inactive)
REMARK    1  A    between atoms: CA   and  CB  
REMARK    2  A    between atoms: CB   and  CG  
REMARK    3  A    between atoms: CG   and  CD  
REMARK    4  A    between atoms: CD   and  NE  
REMARK       I    between atoms: NE   and  CZ  
REMARK       I    between atoms: CZ   and  NH1 
REMARK       I    between atoms: CZ   and  NH2 
ROOT
ATOM      1  CA  ARG D 557     -26.217   2.705 -17.014  1.00 35.49     0.159 C 
ENDROOT
BRANCH   1   2
ATOM      2  CB  ARG D 557     -26.789   1.319 -17.183  1.00 35.49     0.034 C 
BRANCH   2   3
ATOM      3  CG  ARG D 557     -25.839   0.201 -17.128  1.00 35.49     0.027 C 
BRANCH   3   4
ATOM      4  CD  ARG D 557     -24.772   0.416 -16.124  1.00 35.49     0.116 C 
BRANCH   4   5
ATOM      5  NE  ARG D 557     -24.884  -0.489 -15.010  1.00 35.49    -0.212 N 
ATOM      6  CZ  ARG D 557     -24.036  -1.447 -14.711  1.00 35.49     0.666 C 
ATOM      7  NH1 ARG D 557     -22.961  -1.695 -15.437  1.00 35.49    -0.235 N 
ATOM      8  NH2 ARG D 557     -24.285  -2.159 -13.651  1.00 35.49    -0.235 N 
ATOM      9  HH  ARG D 557     -22.777  -1.237 -16.137  1.00 35.49     0.174 HD
ATOM     10  HH  ARG D 557     -22.443  -2.331 -15.191  1.00 35.49     0.174 HD
ATOM     11  HH  ARG D 557     -24.983  -1.972 -13.197  1.00 35.49     0.174 HD
ATOM     12  HH  ARG D 557     -23.758  -2.784 -13.423  1.00 35.49     0.174 HD
ATOM     13  HE  ARG D 557     -25.586  -0.448 -14.531  1.00 35.49     0.178 HD
ENDBRANCH   4   5
ENDBRANCH   3   4
ENDBRANCH   2   3
ENDBRANCH   1   2
END_RES ARG D 557
BEGIN_RES GLU D 570
REMARK  3 active torsions:
REMARK  status: ('A' for Active; 'I' for Inactive)
REMARK    5  A    between atoms: CA   and  CB  
REMARK    6  A    between atoms: CB   and  CG  
REMARK    7  A    between atoms: CG   and  CD  
ROOT
ATOM     14  CA  GLU D 570     -18.033  -6.348 -13.375  1.00 32.92     0.160 C 
ENDROOT
BRANCH  14  15
ATOM     15  CB  GLU D 570     -19.500  -6.345 -13.794  1.00 32.92     0.043 C 
BRANCH  15  16
ATOM     16  CG  GLU D 570     -20.442  -5.532 -12.982  1.00 32.92     0.100 C 
BRANCH  16  17
ATOM     17  CD  GLU D 570     -21.642  -5.060 -13.769  1.00 32.92     0.185 C 
ATOM     18  OE1 GLU D 570     -22.744  -4.967 -13.195  1.00 32.92    -0.647 OA
ATOM     19  OE2 GLU D 570     -21.482  -4.796 -14.978  1.00 32.92    -0.647 OA
ENDBRANCH  16  17
ENDBRANCH  15  16
ENDBRANCH  14  15
END_RES GLU D 570
ENDMDL
