MODEL 1
REMARK VINA RESULT:      -5.8      0.000      0.000
REMARK  2 active torsions:
REMARK  status: ('A' for Active; 'I' for Inactive)
REMARK    1  A    between atoms: O_2  and  C_3 
REMARK    2  A    between atoms: C_10  and  O_11 
ROOT
HETATM    1  C   UNL     1     -23.070  -4.612 -11.094  1.00  0.00     0.176 C 
HETATM    2  C   UNL     1     -21.985  -3.542 -11.152  1.00  0.00     0.203 C 
HETATM    3  O   UNL     1     -22.508  -2.446 -11.924  1.00  0.00    -0.378 OA
HETATM    4  C   UNL     1     -23.609  -2.946 -12.716  1.00  0.00     0.184 C 
HETATM    5  C   UNL     1     -23.719  -4.443 -12.459  1.00  0.00     0.184 C 
HETATM    6  O   UNL     1     -22.939  -5.119 -13.471  1.00  0.00    -0.378 OA
HETATM    7  C   UNL     1     -22.426  -4.123 -14.375  1.00  0.00     0.203 C 
HETATM    8  C   UNL     1     -23.271  -2.866 -14.194  1.00  0.00     0.176 C 
ENDROOT
BRANCH   1   9
HETATM    9  O   UNL     1     -24.054  -4.353 -10.084  1.00  0.00    -0.386 OA
HETATM   10  C   UNL     1     -23.486  -4.001  -8.828  1.00  0.00     0.202 C 
ENDBRANCH   1   9
BRANCH   8  11
HETATM   11  O   UNL     1     -24.488  -2.900 -14.951  1.00  0.00    -0.386 OA
HETATM   12  C   UNL     1     -25.338  -1.787 -14.694  1.00  0.00     0.202 C 
ENDBRANCH   8  11
TORSDOF 2
BEGIN_RES ARG D 557
REMARK  4 active torsions:
REMARK  status: ('A' for Active; 'I' for Inactive)
REMARK    1  A    between atoms: CA   and  CB  
REMARK    2  A    between atoms: CB   and  CG  
REMARK    3  A    between atoms: CG   and  CD  
REMARK    4  A    between atoms: CD   and  NE  
REMARK       I    between atoms: NE   and  CZ  
REMARK       I    between atoms: CZ   and  NH1 
REMARK       I    between atoms: CZ   and  NH2 
ROOT
ATOM      1  CA  ARG D 557     -26.217   2.705 -17.014  1.00 35.49     0.159 C 
ENDROOT
BRANCH   1   2
ATOM      2  CB  ARG D 557     -26.789   1.319 -17.183  1.00 35.49     0.034 C 
BRANCH   2   3
ATOM      3  CG  ARG D 557     -28.158   1.105 -16.697  1.00 35.49     0.027 C 
BRANCH   3   4
ATOM      4  CD  ARG D 557     -28.791  -0.089 -17.302  1.00 35.49     0.116 C 
BRANCH   4   5
ATOM      5  NE  ARG D 557     -28.176  -1.312 -16.859  1.00 35.49    -0.212 N 
ATOM      6  CZ  ARG D 557     -28.657  -2.522 -17.038  1.00 35.49     0.666 C 
ATOM      7  NH1 ARG D 557     -29.803  -2.746 -17.654  1.00 35.49    -0.235 N 
ATOM      8  NH2 ARG D 557     -27.953  -3.520 -16.588  1.00 35.49    -0.235 N 
ATOM      9  HH  ARG D 557     -30.281  -2.104 -17.960  1.00 35.49     0.174 HD
ATOM     10  HH  ARG D 557     -30.065  -3.557 -17.744  1.00 35.49     0.174 HD
ATOM     11  HH  ARG D 557     -27.213  -3.346 -16.202  1.00 35.49     0.174 HD
ATOM     12  HH  ARG D 557     -28.229  -4.316 -16.689  1.00 35.49     0.174 HD
ATOM     13  HE  ARG D 557     -27.469  -1.257 -16.389  1.00 35.49     0.178 HD
ENDBRANCH   4   5
ENDBRANCH   3   4
ENDBRANCH   2   3
ENDBRANCH   1   2
END_RES ARG D 557
BEGIN_RES GLU D 570
REMARK  3 active torsions:
REMARK  status: ('A' for Active; 'I' for Inactive)
REMARK    5  A    between atoms: CA   and  CB  
REMARK    6  A    between atoms: CB   and  CG  
REMARK    7  A    between atoms: CG   and  CD  
ROOT
ATOM     14  CA  GLU D 570     -18.033  -6.348 -13.375  1.00 32.92     0.160 C 
ENDROOT
BRANCH  14  15
ATOM     15  CB  GLU D 570     -19.500  -6.345 -13.794  1.00 32.92     0.043 C 
BRANCH  15  16
ATOM     16  CG  GLU D 570     -20.086  -7.634 -14.245  1.00 32.92     0.100 C 
BRANCH  16  17
ATOM     17  CD  GLU D 570     -20.694  -7.553 -15.626  1.00 32.92     0.185 C 
ATOM     18  OE1 GLU D 570     -20.593  -6.492 -16.271  1.00 32.92    -0.647 OA
ATOM     19  OE2 GLU D 570     -21.293  -8.557 -16.060  1.00 32.92    -0.647 OA
ENDBRANCH  16  17
ENDBRANCH  15  16
ENDBRANCH  14  15
END_RES GLU D 570
ENDMDL
MODEL 2
REMARK VINA RESULT:      -5.8      0.481      3.175
REMARK  2 active torsions:
REMARK  status: ('A' for Active; 'I' for Inactive)
REMARK    1  A    between atoms: O_2  and  C_3 
REMARK    2  A    between atoms: C_10  and  O_11 
ROOT
HETATM    1  C   UNL     1     -23.121  -2.704 -14.140  1.00  0.00     0.176 C 
HETATM    2  C   UNL     1     -22.532  -4.087 -14.392  1.00  0.00     0.203 C 
HETATM    3  O   UNL     1     -23.311  -5.028 -13.629  1.00  0.00    -0.378 OA
HETATM    4  C   UNL     1     -24.002  -4.293 -12.593  1.00  0.00     0.184 C 
HETATM    5  C   UNL     1     -23.569  -2.837 -12.693  1.00  0.00     0.184 C 
HETATM    6  O   UNL     1     -22.445  -2.653 -11.802  1.00  0.00    -0.378 OA
HETATM    7  C   UNL     1     -22.221  -3.893 -11.108  1.00  0.00     0.203 C 
HETATM    8  C   UNL     1     -23.499  -4.718 -11.225  1.00  0.00     0.176 C 
ENDROOT
BRANCH   1   9
HETATM    9  O   UNL     1     -24.270  -2.431 -14.953  1.00  0.00    -0.386 OA
HETATM   10  C   UNL     1     -24.661  -1.064 -14.927  1.00  0.00     0.202 C 
ENDBRANCH   1   9
BRANCH   8  11
HETATM   11  O   UNL     1     -24.480  -4.365 -10.241  1.00  0.00    -0.386 OA
HETATM   12  C   UNL     1     -23.909  -4.005  -8.987  1.00  0.00     0.202 C 
ENDBRANCH   8  11
TORSDOF 2
BEGIN_RES ARG D 557
REMARK  4 active torsions:
REMARK  status: ('A' for Active; 'I' for Inactive)
REMARK    1  A    between atoms: CA   and  CB  
REMARK    2  A    between atoms: CB   and  CG  
REMARK    3  A    between atoms: CG   and  CD  
REMARK    4  A    between atoms: CD   and  NE  
REMARK       I    between atoms: NE   and  CZ  
REMARK       I    between atoms: CZ   and  NH1 
REMARK       I    between atoms: CZ   and  NH2 
ROOT
ATOM      1  CA  ARG D 557     -26.217   2.705 -17.014  1.00 35.49     0.159 C 
ENDROOT
BRANCH   1   2
ATOM      2  CB  ARG D 557     -26.789   1.319 -17.183  1.00 35.49     0.034 C 
BRANCH   2   3
ATOM      3  CG  ARG D 557     -28.208   1.145 -16.851  1.00 35.49     0.027 C 
BRANCH   3   4
ATOM      4  CD  ARG D 557     -28.695  -0.221 -17.152  1.00 35.49     0.116 C 
BRANCH   4   5
ATOM      5  NE  ARG D 557     -27.897  -1.234 -16.513  1.00 35.49    -0.212 N 
ATOM      6  CZ  ARG D 557     -28.042  -2.532 -16.661  1.00 35.49     0.666 C 
ATOM      7  NH1 ARG D 557     -28.979  -3.058 -17.427  1.00 35.49    -0.235 N 
ATOM      8  NH2 ARG D 557     -27.213  -3.305 -16.020  1.00 35.49    -0.235 N 
ATOM      9  HH  ARG D 557     -29.533  -2.569 -17.860  1.00 35.49     0.174 HD
ATOM     10  HH  ARG D 557     -29.024  -3.912 -17.487  1.00 35.49     0.174 HD
ATOM     11  HH  ARG D 557     -26.614  -2.937 -15.538  1.00 35.49     0.174 HD
ATOM     12  HH  ARG D 557     -27.273  -4.147 -16.093  1.00 35.49     0.174 HD
ATOM     13  HE  ARG D 557     -27.316  -0.985 -15.945  1.00 35.49     0.178 HD
ENDBRANCH   4   5
ENDBRANCH   3   4
ENDBRANCH   2   3
ENDBRANCH   1   2
END_RES ARG D 557
BEGIN_RES GLU D 570
REMARK  3 active torsions:
REMARK  status: ('A' for Active; 'I' for Inactive)
REMARK    5  A    between atoms: CA   and  CB  
REMARK    6  A    between atoms: CB   and  CG  
REMARK    7  A    between atoms: CG   and  CD  
ROOT
ATOM     14  CA  GLU D 570     -18.033  -6.348 -13.375  1.00 32.92     0.160 C 
ENDROOT
BRANCH  14  15
ATOM     15  CB  GLU D 570     -19.500  -6.345 -13.794  1.00 32.92     0.043 C 
BRANCH  15  16
ATOM     16  CG  GLU D 570     -20.089  -7.636 -14.233  1.00 32.92     0.100 C 
BRANCH  16  17
ATOM     17  CD  GLU D 570     -20.691  -7.569 -15.617  1.00 32.92     0.185 C 
ATOM     18  OE1 GLU D 570     -21.229  -8.587 -16.093  1.00 32.92    -0.647 OA
ATOM     19  OE2 GLU D 570     -20.608  -6.491 -16.239  1.00 32.92    -0.647 OA
ENDBRANCH  16  17
ENDBRANCH  15  16
ENDBRANCH  14  15
END_RES GLU D 570
ENDMDL
MODEL 3
REMARK VINA RESULT:      -5.6      1.212      2.148
REMARK  2 active torsions:
REMARK  status: ('A' for Active; 'I' for Inactive)
REMARK    1  A    between atoms: O_2  and  C_3 
REMARK    2  A    between atoms: C_10  and  O_11 
ROOT
HETATM    1  C   UNL     1     -22.519  -3.660  -9.459  1.00  0.00     0.176 C 
HETATM    2  C   UNL     1     -24.026  -3.426  -9.490  1.00  0.00     0.203 C 
HETATM    3  O   UNL     1     -24.572  -4.296 -10.499  1.00  0.00    -0.378 OA
HETATM    4  C   UNL     1     -23.495  -4.678 -11.385  1.00  0.00     0.184 C 
HETATM    5  C   UNL     1     -22.240  -3.948 -10.926  1.00  0.00     0.184 C 
HETATM    6  O   UNL     1     -22.154  -2.713 -11.672  1.00  0.00    -0.378 OA
HETATM    7  C   UNL     1     -23.242  -2.687 -12.614  1.00  0.00     0.203 C 
HETATM    8  C   UNL     1     -23.738  -4.121 -12.776  1.00  0.00     0.176 C 
ENDROOT
BRANCH   1   9
HETATM    9  O   UNL     1     -22.150  -4.809  -8.687  1.00  0.00    -0.386 OA
HETATM   10  C   UNL     1     -22.257  -4.598  -7.284  1.00  0.00     0.202 C 
ENDBRANCH   1   9
BRANCH   8  11
HETATM   11  O   UNL     1     -22.964  -4.873 -13.719  1.00  0.00    -0.386 OA
HETATM   12  C   UNL     1     -23.668  -5.988 -14.257  1.00  0.00     0.202 C 
ENDBRANCH   8  11
TORSDOF 2
BEGIN_RES ARG D 557
REMARK  4 active torsions:
REMARK  status: ('A' for Active; 'I' for Inactive)
REMARK    1  A    between atoms: CA   and  CB  
REMARK    2  A    between atoms: CB   and  CG  
REMARK    3  A    between atoms: CG   and  CD  
REMARK    4  A    between atoms: CD   and  NE  
REMARK       I    between atoms: NE   and  CZ  
REMARK       I    between atoms: CZ   and  NH1 
REMARK       I    between atoms: CZ   and  NH2 
ROOT
ATOM      1  CA  ARG D 557     -26.217   2.705 -17.014  1.00 35.49     0.159 C 
ENDROOT
BRANCH   1   2
ATOM      2  CB  ARG D 557     -26.789   1.319 -17.183  1.00 35.49     0.034 C 
BRANCH   2   3
ATOM      3  CG  ARG D 557     -28.227   1.162 -16.931  1.00 35.49     0.027 C 
BRANCH   3   4
ATOM      4  CD  ARG D 557     -28.600  -0.243 -16.651  1.00 35.49     0.116 C 
BRANCH   4   5
ATOM      5  NE  ARG D 557     -27.568  -0.947 -15.937  1.00 35.49    -0.212 N 
ATOM      6  CZ  ARG D 557     -27.334  -2.239 -16.002  1.00 35.49     0.666 C 
ATOM      7  NH1 ARG D 557     -28.059  -3.055 -16.745  1.00 35.49    -0.235 N 
ATOM      8  NH2 ARG D 557     -26.340  -2.704 -15.302  1.00 35.49    -0.235 N 
ATOM      9  HH  ARG D 557     -28.716  -2.770 -17.215  1.00 35.49     0.174 HD
ATOM     10  HH  ARG D 557     -27.858  -3.888 -16.749  1.00 35.49     0.174 HD
ATOM     11  HH  ARG D 557     -25.885  -2.153 -14.837  1.00 35.49     0.174 HD
ATOM     12  HH  ARG D 557     -26.156  -3.532 -15.321  1.00 35.49     0.174 HD
ATOM     13  HE  ARG D 557     -27.099  -0.510 -15.379  1.00 35.49     0.178 HD
ENDBRANCH   4   5
ENDBRANCH   3   4
ENDBRANCH   2   3
ENDBRANCH   1   2
END_RES ARG D 557
BEGIN_RES GLU D 570
REMARK  3 active torsions:
REMARK  status: ('A' for Active; 'I' for Inactive)
REMARK    5  A    between atoms: CA   and  CB  
REMARK    6  A    between atoms: CB   and  CG  
REMARK    7  A    between atoms: CG   and  CD  
ROOT
ATOM     14  CA  GLU D 570     -18.033  -6.348 -13.375  1.00 32.92     0.160 C 
ENDROOT
BRANCH  14  15
ATOM     15  CB  GLU D 570     -19.500  -6.345 -13.794  1.00 32.92     0.043 C 
BRANCH  15  16
ATOM     16  CG  GLU D 570     -20.086  -7.634 -14.244  1.00 32.92     0.100 C 
BRANCH  16  17
ATOM     17  CD  GLU D 570     -20.653  -7.567 -15.643  1.00 32.92     0.185 C 
ATOM     18  OE1 GLU D 570     -20.607  -6.488 -16.264  1.00 32.92    -0.647 OA
ATOM     19  OE2 GLU D 570     -21.163  -8.601 -16.117  1.00 32.92    -0.647 OA
ENDBRANCH  16  17
ENDBRANCH  15  16
ENDBRANCH  14  15
END_RES GLU D 570
ENDMDL
MODEL 4
REMARK VINA RESULT:      -5.6      1.361      3.262
REMARK  2 active torsions:
REMARK  status: ('A' for Active; 'I' for Inactive)
REMARK    1  A    between atoms: O_2  and  C_3 
REMARK    2  A    between atoms: C_10  and  O_11 
ROOT
HETATM    1  C   UNL     1     -24.337  -2.251 -14.591  1.00  0.00     0.176 C 
HETATM    2  C   UNL     1     -25.321  -2.938 -13.651  1.00  0.00     0.203 C 
HETATM    3  O   UNL     1     -24.787  -2.828 -12.319  1.00  0.00    -0.378 OA
HETATM    4  C   UNL     1     -23.371  -2.557 -12.430  1.00  0.00     0.184 C 
HETATM    5  C   UNL     1     -23.015  -2.568 -13.910  1.00  0.00     0.184 C 
HETATM    6  O   UNL     1     -22.587  -3.907 -14.248  1.00  0.00    -0.378 OA
HETATM    7  C   UNL     1     -22.587  -4.690 -13.040  1.00  0.00     0.203 C 
HETATM    8  C   UNL     1     -22.570  -3.717 -11.866  1.00  0.00     0.176 C 
ENDROOT
BRANCH   1   9
HETATM    9  O   UNL     1     -24.504  -0.828 -14.628  1.00  0.00    -0.386 OA
HETATM   10  C   UNL     1     -23.738  -0.202 -15.650  1.00  0.00     0.202 C 
ENDBRANCH   1   9
BRANCH   8  11
HETATM   11  O   UNL     1     -21.250  -3.256 -11.545  1.00  0.00    -0.386 OA
HETATM   12  C   UNL     1     -20.444  -4.256 -10.930  1.00  0.00     0.202 C 
ENDBRANCH   8  11
TORSDOF 2
BEGIN_RES ARG D 557
REMARK  4 active torsions:
REMARK  status: ('A' for Active; 'I' for Inactive)
REMARK    1  A    between atoms: CA   and  CB  
REMARK    2  A    between atoms: CB   and  CG  
REMARK    3  A    between atoms: CG   and  CD  
REMARK    4  A    between atoms: CD   and  NE  
REMARK       I    between atoms: NE   and  CZ  
REMARK       I    between atoms: CZ   and  NH1 
REMARK       I    between atoms: CZ   and  NH2 
ROOT
ATOM      1  CA  ARG D 557     -26.217   2.705 -17.014  1.00 35.49     0.159 C 
ENDROOT
BRANCH   1   2
ATOM      2  CB  ARG D 557     -26.789   1.319 -17.183  1.00 35.49     0.034 C 
BRANCH   2   3
ATOM      3  CG  ARG D 557     -28.235   1.225 -17.418  1.00 35.49     0.027 C 
BRANCH   3   4
ATOM      4  CD  ARG D 557     -28.899   0.289 -16.482  1.00 35.49     0.116 C 
BRANCH   4   5
ATOM      5  NE  ARG D 557     -29.314  -0.926 -17.133  1.00 35.49    -0.212 N 
ATOM      6  CZ  ARG D 557     -28.703  -2.087 -17.055  1.00 35.49     0.666 C 
ATOM      7  NH1 ARG D 557     -27.597  -2.260 -16.355  1.00 35.49    -0.235 N 
ATOM      8  NH2 ARG D 557     -29.233  -3.088 -17.695  1.00 35.49    -0.235 N 
ATOM      9  HH  ARG D 557     -27.232  -1.616 -15.924  1.00 35.49     0.174 HD
ATOM     10  HH  ARG D 557     -27.245  -3.041 -16.338  1.00 35.49     0.174 HD
ATOM     11  HH  ARG D 557     -29.952  -2.948 -18.133  1.00 35.49     0.174 HD
ATOM     12  HH  ARG D 557     -28.870  -3.854 -17.665  1.00 35.49     0.174 HD
ATOM     13  HE  ARG D 557     -29.977  -0.887 -17.664  1.00 35.49     0.178 HD
ENDBRANCH   4   5
ENDBRANCH   3   4
ENDBRANCH   2   3
ENDBRANCH   1   2
END_RES ARG D 557
BEGIN_RES GLU D 570
REMARK  3 active torsions:
REMARK  status: ('A' for Active; 'I' for Inactive)
REMARK    5  A    between atoms: CA   and  CB  
REMARK    6  A    between atoms: CB   and  CG  
REMARK    7  A    between atoms: CG   and  CD  
ROOT
ATOM     14  CA  GLU D 570     -18.033  -6.348 -13.375  1.00 32.92     0.160 C 
ENDROOT
BRANCH  14  15
ATOM     15  CB  GLU D 570     -19.500  -6.345 -13.794  1.00 32.92     0.043 C 
BRANCH  15  16
ATOM     16  CG  GLU D 570     -20.092  -7.639 -14.222  1.00 32.92     0.100 C 
BRANCH  16  17
ATOM     17  CD  GLU D 570     -20.787  -7.554 -15.561  1.00 32.92     0.185 C 
ATOM     18  OE1 GLU D 570     -21.090  -6.435 -16.016  1.00 32.92    -0.647 OA
ATOM     19  OE2 GLU D 570     -21.045  -8.621 -16.154  1.00 32.92    -0.647 OA
ENDBRANCH  16  17
ENDBRANCH  15  16
ENDBRANCH  14  15
END_RES GLU D 570
ENDMDL
MODEL 5
REMARK VINA RESULT:      -5.5      1.109      1.368
REMARK  2 active torsions:
REMARK  status: ('A' for Active; 'I' for Inactive)
REMARK    1  A    between atoms: O_2  and  C_3 
REMARK    2  A    between atoms: C_10  and  O_11 
ROOT
HETATM    1  C   UNL     1     -22.513  -4.373 -10.195  1.00  0.00     0.176 C 
HETATM    2  C   UNL     1     -21.197  -3.917 -10.815  1.00  0.00     0.203 C 
HETATM    3  O   UNL     1     -21.486  -2.770 -11.636  1.00  0.00    -0.378 OA
HETATM    4  C   UNL     1     -22.901  -2.783 -11.932  1.00  0.00     0.184 C 
HETATM    5  C   UNL     1     -23.491  -4.042 -11.312  1.00  0.00     0.184 C 
HETATM    6  O   UNL     1     -23.469  -5.078 -12.320  1.00  0.00    -0.378 OA
HETATM    7  C   UNL     1     -22.973  -4.499 -13.541  1.00  0.00     0.203 C 
HETATM    8  C   UNL     1     -23.123  -2.986 -13.420  1.00  0.00     0.176 C 
ENDROOT
BRANCH   1   9
HETATM    9  O   UNL     1     -22.872  -3.616  -9.032  1.00  0.00    -0.386 OA
HETATM   10  C   UNL     1     -22.227  -4.070  -7.848  1.00  0.00     0.202 C 
ENDBRANCH   1   9
BRANCH   8  11
HETATM   11  O   UNL     1     -24.439  -2.530 -13.760  1.00  0.00    -0.386 OA
HETATM   12  C   UNL     1     -24.434  -1.456 -14.696  1.00  0.00     0.202 C 
ENDBRANCH   8  11
TORSDOF 2
BEGIN_RES ARG D 557
REMARK  4 active torsions:
REMARK  status: ('A' for Active; 'I' for Inactive)
REMARK    1  A    between atoms: CA   and  CB  
REMARK    2  A    between atoms: CB   and  CG  
REMARK    3  A    between atoms: CG   and  CD  
REMARK    4  A    between atoms: CD   and  NE  
REMARK       I    between atoms: NE   and  CZ  
REMARK       I    between atoms: CZ   and  NH1 
REMARK       I    between atoms: CZ   and  NH2 
ROOT
ATOM      1  CA  ARG D 557     -26.217   2.705 -17.014  1.00 35.49     0.159 C 
ENDROOT
BRANCH   1   2
ATOM      2  CB  ARG D 557     -26.789   1.319 -17.183  1.00 35.49     0.034 C 
BRANCH   2   3
ATOM      3  CG  ARG D 557     -28.233   1.226 -17.433  1.00 35.49     0.027 C 
BRANCH   3   4
ATOM      4  CD  ARG D 557     -28.909   0.300 -16.496  1.00 35.49     0.116 C 
BRANCH   4   5
ATOM      5  NE  ARG D 557     -29.304  -0.927 -17.137  1.00 35.49    -0.212 N 
ATOM      6  CZ  ARG D 557     -28.681  -2.080 -17.038  1.00 35.49     0.666 C 
ATOM      7  NH1 ARG D 557     -27.580  -2.233 -16.326  1.00 35.49    -0.235 N 
ATOM      8  NH2 ARG D 557     -29.194  -3.095 -17.672  1.00 35.49    -0.235 N 
ATOM      9  HH  ARG D 557     -27.227  -1.580 -15.900  1.00 35.49     0.174 HD
ATOM     10  HH  ARG D 557     -27.219  -3.010 -16.297  1.00 35.49     0.174 HD
ATOM     11  HH  ARG D 557     -29.910  -2.968 -18.118  1.00 35.49     0.174 HD
ATOM     12  HH  ARG D 557     -28.823  -3.856 -17.629  1.00 35.49     0.174 HD
ATOM     13  HE  ARG D 557     -29.963  -0.902 -17.674  1.00 35.49     0.178 HD
ENDBRANCH   4   5
ENDBRANCH   3   4
ENDBRANCH   2   3
ENDBRANCH   1   2
END_RES ARG D 557
BEGIN_RES GLU D 570
REMARK  3 active torsions:
REMARK  status: ('A' for Active; 'I' for Inactive)
REMARK    5  A    between atoms: CA   and  CB  
REMARK    6  A    between atoms: CB   and  CG  
REMARK    7  A    between atoms: CG   and  CD  
ROOT
ATOM     14  CA  GLU D 570     -18.033  -6.348 -13.375  1.00 32.92     0.160 C 
ENDROOT
BRANCH  14  15
ATOM     15  CB  GLU D 570     -19.500  -6.345 -13.794  1.00 32.92     0.043 C 
BRANCH  15  16
ATOM     16  CG  GLU D 570     -19.798  -6.203 -15.243  1.00 32.92     0.100 C 
BRANCH  16  17
ATOM     17  CD  GLU D 570     -20.731  -7.272 -15.760  1.00 32.92     0.185 C 
ATOM     18  OE1 GLU D 570     -20.597  -8.442 -15.352  1.00 32.92    -0.647 OA
ATOM     19  OE2 GLU D 570     -21.595  -6.940 -16.596  1.00 32.92    -0.647 OA
ENDBRANCH  16  17
ENDBRANCH  15  16
ENDBRANCH  14  15
END_RES GLU D 570
ENDMDL
MODEL 6
REMARK VINA RESULT:      -5.5      1.250      3.538
REMARK  2 active torsions:
REMARK  status: ('A' for Active; 'I' for Inactive)
REMARK    1  A    between atoms: O_2  and  C_3 
REMARK    2  A    between atoms: C_10  and  O_11 
ROOT
HETATM    1  C   UNL     1     -23.743  -4.287 -12.582  1.00  0.00     0.176 C 
HETATM    2  C   UNL     1     -23.275  -2.842 -12.444  1.00  0.00     0.203 C 
HETATM    3  O   UNL     1     -22.196  -2.832 -11.491  1.00  0.00    -0.378 OA
HETATM    4  C   UNL     1     -22.286  -4.044 -10.707  1.00  0.00     0.184 C 
HETATM    5  C   UNL     1     -23.525  -4.799 -11.167  1.00  0.00     0.184 C 
HETATM    6  O   UNL     1     -24.623  -4.398 -10.315  1.00  0.00    -0.378 OA
HETATM    7  C   UNL     1     -24.104  -3.503  -9.314  1.00  0.00     0.203 C 
HETATM    8  C   UNL     1     -22.593  -3.709  -9.259  1.00  0.00     0.176 C 
ENDROOT
BRANCH   1   9
HETATM    9  O   UNL     1     -22.928  -5.053 -13.478  1.00  0.00    -0.386 OA
HETATM   10  C   UNL     1     -23.681  -5.933 -14.304  1.00  0.00     0.202 C 
ENDBRANCH   1   9
BRANCH   8  11
HETATM   11  O   UNL     1     -22.214  -4.819  -8.435  1.00  0.00    -0.386 OA
HETATM   12  C   UNL     1     -20.805  -4.927  -8.256  1.00  0.00     0.202 C 
ENDBRANCH   8  11
TORSDOF 2
BEGIN_RES ARG D 557
REMARK  4 active torsions:
REMARK  status: ('A' for Active; 'I' for Inactive)
REMARK    1  A    between atoms: CA   and  CB  
REMARK    2  A    between atoms: CB   and  CG  
REMARK    3  A    between atoms: CG   and  CD  
REMARK    4  A    between atoms: CD   and  NE  
REMARK       I    between atoms: NE   and  CZ  
REMARK       I    between atoms: CZ   and  NH1 
REMARK       I    between atoms: CZ   and  NH2 
ROOT
ATOM      1  CA  ARG D 557     -26.217   2.705 -17.014  1.00 35.49     0.159 C 
ENDROOT
BRANCH   1   2
ATOM      2  CB  ARG D 557     -26.789   1.319 -17.183  1.00 35.49     0.034 C 
BRANCH   2   3
ATOM      3  CG  ARG D 557     -28.210   1.147 -16.858  1.00 35.49     0.027 C 
BRANCH   3   4
ATOM      4  CD  ARG D 557     -28.586  -0.278 -16.706  1.00 35.49     0.116 C 
BRANCH   4   5
ATOM      5  NE  ARG D 557     -27.589  -1.028 -15.989  1.00 35.49    -0.212 N 
ATOM      6  CZ  ARG D 557     -27.401  -2.326 -16.066  1.00 35.49     0.666 C 
ATOM      7  NH1 ARG D 557     -28.146  -3.106 -16.828  1.00 35.49    -0.235 N 
ATOM      8  NH2 ARG D 557     -26.434  -2.836 -15.360  1.00 35.49    -0.235 N 
ATOM      9  HH  ARG D 557     -28.787  -2.792 -17.302  1.00 35.49     0.174 HD
ATOM     10  HH  ARG D 557     -27.976  -3.946 -16.840  1.00 35.49     0.174 HD
ATOM     11  HH  ARG D 557     -25.965  -2.307 -14.883  1.00 35.49     0.174 HD
ATOM     12  HH  ARG D 557     -26.281  -3.670 -15.387  1.00 35.49     0.174 HD
ATOM     13  HE  ARG D 557     -27.111  -0.615 -15.420  1.00 35.49     0.178 HD
ENDBRANCH   4   5
ENDBRANCH   3   4
ENDBRANCH   2   3
ENDBRANCH   1   2
END_RES ARG D 557
BEGIN_RES GLU D 570
REMARK  3 active torsions:
REMARK  status: ('A' for Active; 'I' for Inactive)
REMARK    5  A    between atoms: CA   and  CB  
REMARK    6  A    between atoms: CB   and  CG  
REMARK    7  A    between atoms: CG   and  CD  
ROOT
ATOM     14  CA  GLU D 570     -18.033  -6.348 -13.375  1.00 32.92     0.160 C 
ENDROOT
BRANCH  14  15
ATOM     15  CB  GLU D 570     -19.500  -6.345 -13.794  1.00 32.92     0.043 C 
BRANCH  15  16
ATOM     16  CG  GLU D 570     -20.089  -7.637 -14.232  1.00 32.92     0.100 C 
BRANCH  16  17
ATOM     17  CD  GLU D 570     -20.662  -7.579 -15.629  1.00 32.92     0.185 C 
ATOM     18  OE1 GLU D 570     -21.162  -8.609 -16.121  1.00 32.92    -0.647 OA
ATOM     19  OE2 GLU D 570     -20.594  -6.497 -16.245  1.00 32.92    -0.647 OA
ENDBRANCH  16  17
ENDBRANCH  15  16
ENDBRANCH  14  15
END_RES GLU D 570
ENDMDL
MODEL 7
REMARK VINA RESULT:      -5.3      3.673      6.621
REMARK  2 active torsions:
REMARK  status: ('A' for Active; 'I' for Inactive)
REMARK    1  A    between atoms: O_2  and  C_3 
REMARK    2  A    between atoms: C_10  and  O_11 
ROOT
HETATM    1  C   UNL     1     -30.154  -3.733 -17.758  1.00  0.00     0.176 C 
HETATM    2  C   UNL     1     -30.865  -4.841 -16.989  1.00  0.00     0.203 C 
HETATM    3  O   UNL     1     -29.959  -5.302 -15.970  1.00  0.00    -0.378 OA
HETATM    4  C   UNL     1     -28.622  -4.906 -16.353  1.00  0.00     0.184 C 
HETATM    5  C   UNL     1     -28.716  -4.224 -17.711  1.00  0.00     0.184 C 
HETATM    6  O   UNL     1     -28.497  -5.232 -18.723  1.00  0.00    -0.378 OA
HETATM    7  C   UNL     1     -28.198  -6.473 -18.057  1.00  0.00     0.203 C 
HETATM    8  C   UNL     1     -27.772  -6.133 -16.632  1.00  0.00     0.176 C 
ENDROOT
BRANCH   1   9
HETATM    9  O   UNL     1     -30.227  -2.462 -17.100  1.00  0.00    -0.386 OA
HETATM   10  C   UNL     1     -29.014  -1.722 -17.178  1.00  0.00     0.202 C 
ENDBRANCH   1   9
BRANCH   8  11
HETATM   11  O   UNL     1     -26.389  -5.769 -16.537  1.00  0.00    -0.386 OA
HETATM   12  C   UNL     1     -25.572  -6.810 -16.009  1.00  0.00     0.202 C 
ENDBRANCH   8  11
TORSDOF 2
BEGIN_RES ARG D 557
REMARK  4 active torsions:
REMARK  status: ('A' for Active; 'I' for Inactive)
REMARK    1  A    between atoms: CA   and  CB  
REMARK    2  A    between atoms: CB   and  CG  
REMARK    3  A    between atoms: CG   and  CD  
REMARK    4  A    between atoms: CD   and  NE  
REMARK       I    between atoms: NE   and  CZ  
REMARK       I    between atoms: CZ   and  NH1 
REMARK       I    between atoms: CZ   and  NH2 
ROOT
ATOM      1  CA  ARG D 557     -26.217   2.705 -17.014  1.00 35.49     0.159 C 
ENDROOT
BRANCH   1   2
ATOM      2  CB  ARG D 557     -26.789   1.319 -17.183  1.00 35.49     0.034 C 
BRANCH   2   3
ATOM      3  CG  ARG D 557     -25.833   0.205 -17.182  1.00 35.49     0.027 C 
BRANCH   3   4
ATOM      4  CD  ARG D 557     -24.727   0.412 -16.220  1.00 35.49     0.116 C 
BRANCH   4   5
ATOM      5  NE  ARG D 557     -24.865  -0.413 -15.049  1.00 35.49    -0.212 N 
ATOM      6  CZ  ARG D 557     -24.048  -1.378 -14.688  1.00 35.49     0.666 C 
ATOM      7  NH1 ARG D 557     -22.985  -1.709 -15.397  1.00 35.49    -0.235 N 
ATOM      8  NH2 ARG D 557     -24.316  -2.010 -13.582  1.00 35.49    -0.235 N 
ATOM      9  HH  ARG D 557     -22.788  -1.305 -16.127  1.00 35.49     0.174 HD
ATOM     10  HH  ARG D 557     -22.486  -2.344 -15.111  1.00 35.49     0.174 HD
ATOM     11  HH  ARG D 557     -25.005  -1.769 -13.141  1.00 35.49     0.174 HD
ATOM     12  HH  ARG D 557     -23.810  -2.635 -13.315  1.00 35.49     0.174 HD
ATOM     13  HE  ARG D 557     -25.562  -0.317 -14.572  1.00 35.49     0.178 HD
ENDBRANCH   4   5
ENDBRANCH   3   4
ENDBRANCH   2   3
ENDBRANCH   1   2
END_RES ARG D 557
BEGIN_RES GLU D 570
REMARK  3 active torsions:
REMARK  status: ('A' for Active; 'I' for Inactive)
REMARK    5  A    between atoms: CA   and  CB  
REMARK    6  A    between atoms: CB   and  CG  
REMARK    7  A    between atoms: CG   and  CD  
ROOT
ATOM     14  CA  GLU D 570     -18.033  -6.348 -13.375  1.00 32.92     0.160 C 
ENDROOT
BRANCH  14  15
ATOM     15  CB  GLU D 570     -19.500  -6.345 -13.794  1.00 32.92     0.043 C 
BRANCH  15  16
ATOM     16  CG  GLU D 570     -20.441  -5.528 -12.985  1.00 32.92     0.100 C 
BRANCH  16  17
ATOM     17  CD  GLU D 570     -21.740  -5.242 -13.703  1.00 32.92     0.185 C 
ATOM     18  OE1 GLU D 570     -22.218  -6.110 -14.458  1.00 32.92    -0.647 OA
ATOM     19  OE2 GLU D 570     -22.276  -4.131 -13.520  1.00 32.92    -0.647 OA
ENDBRANCH  16  17
ENDBRANCH  15  16
ENDBRANCH  14  15
END_RES GLU D 570
ENDMDL
MODEL 8
REMARK VINA RESULT:      -5.1      3.594      5.177
REMARK  2 active torsions:
REMARK  status: ('A' for Active; 'I' for Inactive)
REMARK    1  A    between atoms: O_2  and  C_3 
REMARK    2  A    between atoms: C_10  and  O_11 
ROOT
HETATM    1  C   UNL     1     -20.692  -5.958  -5.918  1.00  0.00     0.176 C 
HETATM    2  C   UNL     1     -20.286  -4.502  -5.715  1.00  0.00     0.203 C 
HETATM    3  O   UNL     1     -21.192  -3.694  -6.489  1.00  0.00    -0.378 OA
HETATM    4  C   UNL     1     -21.798  -4.543  -7.490  1.00  0.00     0.184 C 
HETATM    5  C   UNL     1     -21.176  -5.927  -7.359  1.00  0.00     0.184 C 
HETATM    6  O   UNL     1     -20.052  -5.990  -8.266  1.00  0.00    -0.378 OA
HETATM    7  C   UNL     1     -20.004  -4.752  -8.999  1.00  0.00     0.203 C 
HETATM    8  C   UNL     1     -21.377  -4.098  -8.879  1.00  0.00     0.176 C 
ENDROOT
BRANCH   1   9
HETATM    9  O   UNL     1     -21.783  -6.353  -5.076  1.00  0.00    -0.386 OA
HETATM   10  C   UNL     1     -21.480  -6.263  -3.689  1.00  0.00     0.202 C 
ENDBRANCH   1   9
BRANCH   8  11
HETATM   11  O   UNL     1     -22.318  -4.604  -9.834  1.00  0.00    -0.386 OA
HETATM   12  C   UNL     1     -23.390  -3.703 -10.095  1.00  0.00     0.202 C 
ENDBRANCH   8  11
TORSDOF 2
BEGIN_RES ARG D 557
REMARK  4 active torsions:
REMARK  status: ('A' for Active; 'I' for Inactive)
REMARK    1  A    between atoms: CA   and  CB  
REMARK    2  A    between atoms: CB   and  CG  
REMARK    3  A    between atoms: CG   and  CD  
REMARK    4  A    between atoms: CD   and  NE  
REMARK       I    between atoms: NE   and  CZ  
REMARK       I    between atoms: CZ   and  NH1 
REMARK       I    between atoms: CZ   and  NH2 
ROOT
ATOM      1  CA  ARG D 557     -26.217   2.705 -17.014  1.00 35.49     0.159 C 
ENDROOT
BRANCH   1   2
ATOM      2  CB  ARG D 557     -26.789   1.319 -17.183  1.00 35.49     0.034 C 
BRANCH   2   3
ATOM      3  CG  ARG D 557     -25.836   0.203 -17.151  1.00 35.49     0.027 C 
BRANCH   3   4
ATOM      4  CD  ARG D 557     -24.761   0.407 -16.153  1.00 35.49     0.116 C 
BRANCH   4   5
ATOM      5  NE  ARG D 557     -24.915  -0.450 -15.007  1.00 35.49    -0.212 N 
ATOM      6  CZ  ARG D 557     -24.101  -1.423 -14.661  1.00 35.49     0.666 C 
ATOM      7  NH1 ARG D 557     -23.027  -1.733 -15.364  1.00 35.49    -0.235 N 
ATOM      8  NH2 ARG D 557     -24.384  -2.085 -13.577  1.00 35.49    -0.235 N 
ATOM      9  HH  ARG D 557     -22.821  -1.309 -16.079  1.00 35.49     0.174 HD
ATOM     10  HH  ARG D 557     -22.532  -2.375 -15.088  1.00 35.49     0.174 HD
ATOM     11  HH  ARG D 557     -25.080  -1.857 -13.139  1.00 35.49     0.174 HD
ATOM     12  HH  ARG D 557     -23.881  -2.717 -13.319  1.00 35.49     0.174 HD
ATOM     13  HE  ARG D 557     -25.619  -0.368 -14.538  1.00 35.49     0.178 HD
ENDBRANCH   4   5
ENDBRANCH   3   4
ENDBRANCH   2   3
ENDBRANCH   1   2
END_RES ARG D 557
BEGIN_RES GLU D 570
REMARK  3 active torsions:
REMARK  status: ('A' for Active; 'I' for Inactive)
REMARK    5  A    between atoms: CA   and  CB  
REMARK    6  A    between atoms: CB   and  CG  
REMARK    7  A    between atoms: CG   and  CD  
ROOT
ATOM     14  CA  GLU D 570     -18.033  -6.348 -13.375  1.00 32.92     0.160 C 
ENDROOT
BRANCH  14  15
ATOM     15  CB  GLU D 570     -19.500  -6.345 -13.794  1.00 32.92     0.043 C 
BRANCH  15  16
ATOM     16  CG  GLU D 570     -20.446  -5.552 -12.967  1.00 32.92     0.100 C 
BRANCH  16  17
ATOM     17  CD  GLU D 570     -21.743  -5.250 -13.682  1.00 32.92     0.185 C 
ATOM     18  OE1 GLU D 570     -22.295  -4.149 -13.495  1.00 32.92    -0.647 OA
ATOM     19  OE2 GLU D 570     -22.220  -6.131 -14.424  1.00 32.92    -0.647 OA
ENDBRANCH  16  17
ENDBRANCH  15  16
ENDBRANCH  14  15
END_RES GLU D 570
ENDMDL
MODEL 9
REMARK VINA RESULT:      -4.7      3.855      6.482
REMARK  2 active torsions:
REMARK  status: ('A' for Active; 'I' for Inactive)
REMARK    1  A    between atoms: O_2  and  C_3 
REMARK    2  A    between atoms: C_10  and  O_11 
ROOT
HETATM    1  C   UNL     1     -30.621  -6.141 -17.919  1.00  0.00     0.176 C 
HETATM    2  C   UNL     1     -30.235  -7.588 -18.205  1.00  0.00     0.203 C 
HETATM    3  O   UNL     1     -29.361  -8.015 -17.143  1.00  0.00    -0.378 OA
HETATM    4  C   UNL     1     -28.822  -6.832 -16.511  1.00  0.00     0.184 C 
HETATM    5  C   UNL     1     -29.346  -5.622 -17.273  1.00  0.00     0.184 C 
HETATM    6  O   UNL     1     -28.372  -5.287 -18.286  1.00  0.00    -0.378 OA
HETATM    7  C   UNL     1     -27.249  -6.174 -18.133  1.00  0.00     0.203 C 
HETATM    8  C   UNL     1     -27.321  -6.761 -16.727  1.00  0.00     0.176 C 
ENDROOT
BRANCH   1   9
HETATM    9  O   UNL     1     -31.693  -6.028 -16.974  1.00  0.00    -0.386 OA
HETATM   10  C   UNL     1     -32.163  -4.694 -16.820  1.00  0.00     0.202 C 
ENDBRANCH   1   9
BRANCH   8  11
HETATM   11  O   UNL     1     -26.750  -5.897 -15.735  1.00  0.00    -0.386 OA
HETATM   12  C   UNL     1     -25.372  -6.160 -15.491  1.00  0.00     0.202 C 
ENDBRANCH   8  11
TORSDOF 2
BEGIN_RES ARG D 557
REMARK  4 active torsions:
REMARK  status: ('A' for Active; 'I' for Inactive)
REMARK    1  A    between atoms: CA   and  CB  
REMARK    2  A    between atoms: CB   and  CG  
REMARK    3  A    between atoms: CG   and  CD  
REMARK    4  A    between atoms: CD   and  NE  
REMARK       I    between atoms: NE   and  CZ  
REMARK       I    between atoms: CZ   and  NH1 
REMARK       I    between atoms: CZ   and  NH2 
ROOT
ATOM      1  CA  ARG D 557     -26.217   2.705 -17.014  1.00 35.49     0.159 C 
ENDROOT
BRANCH   1   2
ATOM      2  CB  ARG D 557     -26.789   1.319 -17.183  1.00 35.49     0.034 C 
BRANCH   2   3
ATOM      3  CG  ARG D 557     -28.237   1.224 -17.403  1.00 35.49     0.027 C 
BRANCH   3   4
ATOM      4  CD  ARG D 557     -28.897   0.319 -16.435  1.00 35.49     0.116 C 
BRANCH   4   5
ATOM      5  NE  ARG D 557     -28.100  -0.845 -16.151  1.00 35.49    -0.212 N 
ATOM      6  CZ  ARG D 557     -28.282  -2.043 -16.659  1.00 35.49     0.666 C 
ATOM      7  NH1 ARG D 557     -29.260  -2.314 -17.503  1.00 35.49    -0.235 N 
ATOM      8  NH2 ARG D 557     -27.448  -2.978 -16.306  1.00 35.49    -0.235 N 
ATOM      9  HH  ARG D 557     -29.819  -1.714 -17.751  1.00 35.49     0.174 HD
ATOM     10  HH  ARG D 557     -29.328  -3.114 -17.805  1.00 35.49     0.174 HD
ATOM     11  HH  ARG D 557     -26.822  -2.772 -15.765  1.00 35.49     0.174 HD
ATOM     12  HH  ARG D 557     -27.531  -3.763 -16.616  1.00 35.49     0.174 HD
ATOM     13  HE  ARG D 557     -27.492  -0.778 -15.560  1.00 35.49     0.178 HD
ENDBRANCH   4   5
ENDBRANCH   3   4
ENDBRANCH   2   3
ENDBRANCH   1   2
END_RES ARG D 557
BEGIN_RES GLU D 570
REMARK  3 active torsions:
REMARK  status: ('A' for Active; 'I' for Inactive)
REMARK    5  A    between atoms: CA   and  CB  
REMARK    6  A    between atoms: CB   and  CG  
REMARK    7  A    between atoms: CG   and  CD  
ROOT
ATOM     14  CA  GLU D 570     -18.033  -6.348 -13.375  1.00 32.92     0.160 C 
ENDROOT
BRANCH  14  15
ATOM     15  CB  GLU D 570     -19.500  -6.345 -13.794  1.00 32.92     0.043 C 
BRANCH  15  16
ATOM     16  CG  GLU D 570     -20.442  -5.532 -12.982  1.00 32.92     0.100 C 
BRANCH  16  17
ATOM     17  CD  GLU D 570     -21.709  -5.180 -13.726  1.00 32.92     0.185 C 
ATOM     18  OE1 GLU D 570     -22.780  -5.099 -13.094  1.00 32.92    -0.647 OA
ATOM     19  OE2 GLU D 570     -21.633  -5.000 -14.958  1.00 32.92    -0.647 OA
ENDBRANCH  16  17
ENDBRANCH  15  16
ENDBRANCH  14  15
END_RES GLU D 570
ENDMDL
