MODEL 1
REMARK VINA RESULT:      -6.9      0.000      0.000
REMARK  24 active torsions:
REMARK  status: ('A' for Active; 'I' for Inactive)
REMARK    1  A    between atoms: CB_2  and  CA_4 
REMARK    2  A    between atoms: CA_4  and  C_5 
REMARK    3  A    between atoms: CA_4  and  N_14 
REMARK       I    between atoms: C_5  and  N_7 
REMARK    4  A    between atoms: N_7  and  CA_8 
REMARK    5  A    between atoms: CA_8  and  CB_9 
REMARK    6  A    between atoms: CA_8  and  C_12 
REMARK       I    between atoms: C_12  and  N_25 
REMARK       I    between atoms: N_14  and  C_15 
REMARK    7  A    between atoms: C_15  and  CA_17 
REMARK    8  A    between atoms: CA_17  and  CB_18 
REMARK    9  A    between atoms: CA_17  and  N_20 
REMARK   10  A    between atoms: CB_18  and  OG_19 
REMARK       I    between atoms: N_20  and  C_61 
REMARK   11  A    between atoms: N_25  and  CA_26 
REMARK   12  A    between atoms: CA_26  and  CB_27 
REMARK   13  A    between atoms: CA_26  and  C_30 
REMARK       I    between atoms: C_30  and  N_33 
REMARK   14  A    between atoms: N_33  and  CA_34 
REMARK   15  A    between atoms: CA_34  and  CB_35 
REMARK   16  A    between atoms: CA_34  and  C_43 
REMARK   17  A    between atoms: CB_35  and  CG_36 
REMARK   18  A    between atoms: CG_36  and  CD_37 
REMARK   19  A    between atoms: CD_37  and  NE_38 
REMARK       I    between atoms: CZ_40  and  NH1_41 
REMARK       I    between atoms: CZ_40  and  NH2_42 
REMARK       I    between atoms: C_43  and  N_50 
REMARK   20  A    between atoms: N_50  and  CA_51 
REMARK   21  A    between atoms: CA_51  and  CB_52 
REMARK   22  A    between atoms: CA_51  and  C_55 
REMARK   23  A    between atoms: CB_52  and  OG1_54 
REMARK   24  A    between atoms: C_55  and  OXT_57 
ROOT
ATOM      1  CA  VAL A   2     -22.370  -9.604  -1.212  1.00  0.00     0.180 C 
ENDROOT
BRANCH   1   2
ATOM      2  N   VAL A   2     -22.056 -10.908  -0.575  1.00  0.00    -0.346 N 
ATOM      3  C   SER A   1     -21.901 -12.096  -1.261  1.00  0.00     0.241 C 
ATOM      4  O   SER A   1     -22.015 -12.163  -2.484  1.00  0.00    -0.271 OA
ATOM      5  H   VAL A   2     -21.943 -10.891   0.436  1.00  0.00     0.163 HD
BRANCH   3   6
ATOM      6  CA  SER A   1     -21.508 -13.352  -0.427  1.00  0.00     0.180 C 
BRANCH   6   7
ATOM      7  N   SER A   1     -20.045 -13.510  -0.517  1.00  0.00    -0.346 N 
ATOM      8  C   SER A   1     -19.149 -12.576  -0.016  1.00  0.00     0.241 C 
ATOM      9  O   SER A   1     -19.532 -11.511   0.468  1.00  0.00    -0.271 OA
ATOM     10  H   SER A   1     -19.689 -14.381  -0.895  1.00  0.00     0.163 HD
BRANCH   8  11
ATOM     11  CA  SER A   1     -17.636 -12.861  -0.265  1.00  0.00     0.180 C 
BRANCH  11  12
ATOM     12  CB  SER A   1     -16.788 -12.715   1.029  1.00  0.00     0.009 C 
ATOM     13  CG1 SER A   1     -16.513 -14.066   1.709  1.00  0.00     0.012 C 
ATOM     14  CG2 SER A   1     -15.426 -12.053   0.757  1.00  0.00     0.012 C 
ENDBRANCH  11  12
BRANCH  11  15
ATOM     15  N   SER A   1     -17.131 -11.976  -1.329  1.00  0.00    -0.346 N 
ATOM     16  C   SER A   1     -16.881 -12.455  -2.601  1.00  0.00     0.243 C 
ATOM     17  O   SER A   1     -17.119 -13.614  -2.933  1.00  0.00    -0.271 OA
ATOM     18  H   SER A   1     -17.112 -10.969  -1.182  1.00  0.00     0.163 HD
BRANCH  16  19
ATOM     19  CA  SER A   1     -16.388 -11.399  -3.602  1.00  0.00     0.200 C 
BRANCH  19  20
ATOM     20  CB  SER A   1     -16.089 -10.082  -2.877  1.00  0.00     0.199 C 
BRANCH  20  21
ATOM     21  OG  SER A   1     -17.277  -9.299  -2.722  1.00  0.00    -0.398 OA
ATOM     22  H   SER A   1     -17.076  -8.412  -3.069  1.00  0.00     0.209 HD
ENDBRANCH  20  21
ENDBRANCH  19  20
BRANCH  19  23
ATOM     23  N   SER A   1     -15.187 -11.881  -4.286  1.00  0.00    -0.346 N 
HETATM   24  C   UNK A   0     -15.177 -12.043  -5.648  1.00  0.00     0.214 C 
HETATM   25  O   UNK A   0     -16.179 -11.877  -6.334  1.00  0.00    -0.274 OA
HETATM   26  C   UNK A   0     -13.825 -12.357  -6.216  1.00  0.00     0.117 C 
ATOM     27  H   SER A   1     -14.510 -12.410  -3.735  1.00  0.00     0.163 HD
ENDBRANCH  19  23
ENDBRANCH  16  19
ENDBRANCH  11  15
ENDBRANCH   8  11
ENDBRANCH   6   7
BRANCH   6  28
ATOM     28  CB  SER A   1     -21.961 -13.148   1.047  1.00  0.00     0.009 C 
ATOM     29  CG1 SER A   1     -23.482 -12.992   1.160  1.00  0.00     0.012 C 
ATOM     30  CG2 SER A   1     -21.518 -14.285   1.975  1.00  0.00     0.012 C 
ENDBRANCH   6  28
ENDBRANCH   3   6
ENDBRANCH   1   2
BRANCH   1  31
ATOM     31  CB  VAL A   2     -22.415  -8.453  -0.177  1.00  0.00     0.009 C 
ATOM     32  CG1 VAL A   2     -21.387  -8.595   0.946  1.00  0.00     0.012 C 
ATOM     33  CG2 VAL A   2     -22.366  -7.047  -0.780  1.00  0.00     0.012 C 
ENDBRANCH   1  31
BRANCH   1  34
ATOM     34  C   VAL A   2     -21.308  -9.315  -2.301  1.00  0.00     0.241 C 
ATOM     35  O   VAL A   2     -20.129  -9.094  -1.988  1.00  0.00    -0.271 OA
ATOM     36  N   ARG A   3     -21.751  -9.262  -3.600  1.00  0.00    -0.346 N 
ATOM     37  H   ARG A   3     -22.716  -9.489  -3.814  1.00  0.00     0.163 HD
BRANCH  36  38
ATOM     38  CA  ARG A   3     -20.909  -8.839  -4.735  1.00  0.00     0.176 C 
BRANCH  38  39
ATOM     39  CB  ARG A   3     -20.240  -7.468  -4.497  1.00  0.00     0.036 C 
BRANCH  39  40
ATOM     40  CG  ARG A   3     -21.196  -6.266  -4.396  1.00  0.00     0.022 C 
BRANCH  40  41
ATOM     41  CD  ARG A   3     -22.145  -6.157  -5.583  1.00  0.00     0.121 C 
BRANCH  41  42
ATOM     42  NE  ARG A   3     -21.670  -5.175  -6.544  1.00  0.00    -0.372 N 
ATOM     43  CZ  ARG A   3     -22.549  -4.430  -7.107  1.00  0.00     0.121 C 
ATOM     44  NH1 ARG A   3     -23.896  -4.370  -6.968  1.00  0.00    -0.279 NA
ATOM     45  NH2 ARG A   3     -22.150  -3.515  -8.016  1.00  0.00    -0.279 NA
ATOM     46 HH11 ARG A   3     -24.335  -5.195  -6.583  1.00  0.00     0.126 HD
ATOM     47 HH12 ARG A   3     -24.347  -4.135  -7.846  1.00  0.00     0.126 HD
ATOM     48 HH21 ARG A   3     -21.137  -3.449  -8.011  1.00  0.00     0.126 HD
ATOM     49 HH22 ARG A   3     -22.573  -2.607  -7.871  1.00  0.00     0.126 HD
ATOM     50  HE  ARG A   3     -20.678  -5.082  -6.762  1.00  0.00     0.161 HD
ENDBRANCH  41  42
ENDBRANCH  40  41
ENDBRANCH  39  40
ENDBRANCH  38  39
BRANCH  38  51
ATOM     51  C   ARG A   3     -19.871  -9.959  -5.027  1.00  0.00     0.241 C 
ATOM     52  O   ARG A   3     -18.706  -9.686  -5.329  1.00  0.00    -0.271 OA
ATOM     53  N   THR A   4     -20.323 -11.256  -5.025  1.00  0.00    -0.343 N 
ATOM     54  H   THR A   4     -21.276 -11.451  -4.721  1.00  0.00     0.163 HD
BRANCH  53  55
ATOM     55  CA  THR A   4     -19.586 -12.425  -5.589  1.00  0.00     0.210 C 
BRANCH  55  56
ATOM     56  CB  THR A   4     -20.057 -13.783  -5.018  1.00  0.00     0.147 C 
ATOM     57  CG2 THR A   4     -19.216 -14.977  -5.458  1.00  0.00     0.042 C 
BRANCH  56  58
ATOM     58  OG1 THR A   4     -19.943 -13.822  -3.589  1.00  0.00    -0.393 OA
ATOM     59  HG1 THR A   4     -19.001 -13.712  -3.341  1.00  0.00     0.210 HD
ENDBRANCH  56  58
ENDBRANCH  55  56
BRANCH  55  60
ATOM     60  C   THR A   4     -19.789 -12.354  -7.110  1.00  0.00     0.166 C 
ATOM     61  O   THR A   4     -20.763 -12.838  -7.674  1.00  0.00    -0.648 OA
BRANCH  60  62
ATOM     62  OXT THR A   4     -18.832 -11.688  -7.792  1.00  0.00    -0.775 OA
ATOM     63  HXT THR A   4     -18.270 -11.081  -7.274  1.00  0.00     0.167 HD
ENDBRANCH  60  62
ENDBRANCH  55  60
ENDBRANCH  53  55
ENDBRANCH  38  51
ENDBRANCH  36  38
ENDBRANCH   1  34
TORSDOF 24
BEGIN_RES ARG D 557
REMARK  4 active torsions:
REMARK  status: ('A' for Active; 'I' for Inactive)
REMARK    1  A    between atoms: CA   and  CB  
REMARK    2  A    between atoms: CB   and  CG  
REMARK    3  A    between atoms: CG   and  CD  
REMARK    4  A    between atoms: CD   and  NE  
REMARK       I    between atoms: NE   and  CZ  
REMARK       I    between atoms: CZ   and  NH1 
REMARK       I    between atoms: CZ   and  NH2 
ROOT
ATOM      1  CA  ARG D 557     -26.217   2.705 -17.014  1.00 35.49     0.159 C 
ENDROOT
BRANCH   1   2
ATOM      2  CB  ARG D 557     -26.789   1.319 -17.183  1.00 35.49     0.034 C 
BRANCH   2   3
ATOM      3  CG  ARG D 557     -28.225   1.228 -17.475  1.00 35.49     0.027 C 
BRANCH   3   4
ATOM      4  CD  ARG D 557     -28.915   0.243 -16.611  1.00 35.49     0.116 C 
BRANCH   4   5
ATOM      5  NE  ARG D 557     -28.041  -0.825 -16.201  1.00 35.49    -0.212 N 
ATOM      6  CZ  ARG D 557     -28.124  -2.077 -16.590  1.00 35.49     0.666 C 
ATOM      7  NH1 ARG D 557     -29.062  -2.503 -17.417  1.00 35.49    -0.235 N 
ATOM      8  NH2 ARG D 557     -27.233  -2.908 -16.133  1.00 35.49    -0.235 N 
ATOM      9  HH  ARG D 557     -29.657  -1.973 -17.731  1.00 35.49     0.174 HD
ATOM     10  HH  ARG D 557     -29.064  -3.330 -17.638  1.00 35.49     0.174 HD
ATOM     11  HH  ARG D 557     -26.635  -2.604 -15.607  1.00 35.49     0.174 HD
ATOM     12  HH  ARG D 557     -27.251  -3.724 -16.365  1.00 35.49     0.174 HD
ATOM     13  HE  ARG D 557     -27.452  -0.655 -15.612  1.00 35.49     0.178 HD
ENDBRANCH   4   5
ENDBRANCH   3   4
ENDBRANCH   2   3
ENDBRANCH   1   2
END_RES ARG D 557
BEGIN_RES GLU D 570
REMARK  3 active torsions:
REMARK  status: ('A' for Active; 'I' for Inactive)
REMARK    5  A    between atoms: CA   and  CB  
REMARK    6  A    between atoms: CB   and  CG  
REMARK    7  A    between atoms: CG   and  CD  
ROOT
ATOM     14  CA  GLU D 570     -18.033  -6.348 -13.375  1.00 32.92     0.160 C 
ENDROOT
BRANCH  14  15
ATOM     15  CB  GLU D 570     -19.500  -6.345 -13.794  1.00 32.92     0.043 C 
BRANCH  15  16
ATOM     16  CG  GLU D 570     -20.445  -5.544 -12.973  1.00 32.92     0.100 C 
BRANCH  16  17
ATOM     17  CD  GLU D 570     -21.726  -5.215 -13.703  1.00 32.92     0.185 C 
ATOM     18  OE1 GLU D 570     -22.321  -4.154 -13.431  1.00 32.92    -0.647 OA
ATOM     19  OE2 GLU D 570     -22.148  -6.034 -14.543  1.00 32.92    -0.647 OA
ENDBRANCH  16  17
ENDBRANCH  15  16
ENDBRANCH  14  15
END_RES GLU D 570
ENDMDL
MODEL 2
REMARK VINA RESULT:      -6.4      1.893      5.387
REMARK  24 active torsions:
REMARK  status: ('A' for Active; 'I' for Inactive)
REMARK    1  A    between atoms: CB_2  and  CA_4 
REMARK    2  A    between atoms: CA_4  and  C_5 
REMARK    3  A    between atoms: CA_4  and  N_14 
REMARK       I    between atoms: C_5  and  N_7 
REMARK    4  A    between atoms: N_7  and  CA_8 
REMARK    5  A    between atoms: CA_8  and  CB_9 
REMARK    6  A    between atoms: CA_8  and  C_12 
REMARK       I    between atoms: C_12  and  N_25 
REMARK       I    between atoms: N_14  and  C_15 
REMARK    7  A    between atoms: C_15  and  CA_17 
REMARK    8  A    between atoms: CA_17  and  CB_18 
REMARK    9  A    between atoms: CA_17  and  N_20 
REMARK   10  A    between atoms: CB_18  and  OG_19 
REMARK       I    between atoms: N_20  and  C_61 
REMARK   11  A    between atoms: N_25  and  CA_26 
REMARK   12  A    between atoms: CA_26  and  CB_27 
REMARK   13  A    between atoms: CA_26  and  C_30 
REMARK       I    between atoms: C_30  and  N_33 
REMARK   14  A    between atoms: N_33  and  CA_34 
REMARK   15  A    between atoms: CA_34  and  CB_35 
REMARK   16  A    between atoms: CA_34  and  C_43 
REMARK   17  A    between atoms: CB_35  and  CG_36 
REMARK   18  A    between atoms: CG_36  and  CD_37 
REMARK   19  A    between atoms: CD_37  and  NE_38 
REMARK       I    between atoms: CZ_40  and  NH1_41 
REMARK       I    between atoms: CZ_40  and  NH2_42 
REMARK       I    between atoms: C_43  and  N_50 
REMARK   20  A    between atoms: N_50  and  CA_51 
REMARK   21  A    between atoms: CA_51  and  CB_52 
REMARK   22  A    between atoms: CA_51  and  C_55 
REMARK   23  A    between atoms: CB_52  and  OG1_54 
REMARK   24  A    between atoms: C_55  and  OXT_57 
ROOT
ATOM      1  CA  VAL A   2     -20.649 -11.434  -5.970  1.00  0.00     0.180 C 
ENDROOT
BRANCH   1   2
ATOM      2  N   VAL A   2     -19.504 -12.377  -6.034  1.00  0.00    -0.346 N 
ATOM      3  C   SER A   1     -18.709 -12.569  -7.146  1.00  0.00     0.241 C 
ATOM      4  O   SER A   1     -18.897 -11.955  -8.196  1.00  0.00    -0.271 OA
ATOM      5  H   VAL A   2     -19.309 -12.895  -5.180  1.00  0.00     0.163 HD
BRANCH   3   6
ATOM      6  CA  SER A   1     -17.511 -13.554  -7.003  1.00  0.00     0.180 C 
BRANCH   6   7
ATOM      7  N   SER A   1     -16.668 -13.075  -5.892  1.00  0.00    -0.346 N 
ATOM      8  C   SER A   1     -15.711 -12.081  -6.040  1.00  0.00     0.241 C 
ATOM      9  O   SER A   1     -15.454 -11.593  -7.141  1.00  0.00    -0.271 OA
ATOM     10  H   SER A   1     -16.859 -13.442  -4.965  1.00  0.00     0.163 HD
BRANCH   8  11
ATOM     11  CA  SER A   1     -14.852 -11.750  -4.781  1.00  0.00     0.180 C 
BRANCH  11  12
ATOM     12  CB  SER A   1     -13.415 -12.333  -4.877  1.00  0.00     0.009 C 
ATOM     13  CG1 SER A   1     -12.977 -13.039  -3.584  1.00  0.00     0.012 C 
ATOM     14  CG2 SER A   1     -13.279 -13.350  -6.024  1.00  0.00     0.012 C 
ENDBRANCH  11  12
BRANCH  11  15
ATOM     15  N   SER A   1     -15.537 -12.231  -3.569  1.00  0.00    -0.346 N 
ATOM     16  C   SER A   1     -15.944 -11.355  -2.581  1.00  0.00     0.243 C 
ATOM     17  O   SER A   1     -15.817 -10.137  -2.679  1.00  0.00    -0.271 OA
ATOM     18  H   SER A   1     -15.859 -13.195  -3.520  1.00  0.00     0.163 HD
BRANCH  16  19
ATOM     19  CA  SER A   1     -16.671 -12.012  -1.397  1.00  0.00     0.200 C 
BRANCH  19  20
ATOM     20  CB  SER A   1     -17.947 -12.710  -1.882  1.00  0.00     0.199 C 
BRANCH  20  21
ATOM     21  OG  SER A   1     -18.514 -12.024  -3.003  1.00  0.00    -0.398 OA
ATOM     22  H   SER A   1     -18.350 -12.580  -3.785  1.00  0.00     0.209 HD
ENDBRANCH  20  21
ENDBRANCH  19  20
BRANCH  19  23
ATOM     23  N   SER A   1     -15.788 -12.977  -0.741  1.00  0.00    -0.346 N 
HETATM   24  C   UNK A   0     -15.308 -12.738   0.521  1.00  0.00     0.214 C 
HETATM   25  O   UNK A   0     -15.523 -11.688   1.115  1.00  0.00    -0.274 OA
HETATM   26  C   UNK A   0     -14.578 -13.900   1.128  1.00  0.00     0.117 C 
ATOM     27  H   SER A   1     -15.269 -13.623  -1.336  1.00  0.00     0.163 HD
ENDBRANCH  19  23
ENDBRANCH  16  19
ENDBRANCH  11  15
ENDBRANCH   8  11
ENDBRANCH   6   7
BRANCH   6  28
ATOM     28  CB  SER A   1     -18.056 -14.982  -6.720  1.00  0.00     0.009 C 
ATOM     29  CG1 SER A   1     -18.665 -15.620  -7.975  1.00  0.00     0.012 C 
ATOM     30  CG2 SER A   1     -16.991 -15.932  -6.159  1.00  0.00     0.012 C 
ENDBRANCH   6  28
ENDBRANCH   3   6
ENDBRANCH   1   2
BRANCH   1  31
ATOM     31  CB  VAL A   2     -21.830 -12.015  -5.154  1.00  0.00     0.009 C 
ATOM     32  CG1 VAL A   2     -22.895 -12.697  -6.014  1.00  0.00     0.012 C 
ATOM     33  CG2 VAL A   2     -21.419 -12.915  -3.986  1.00  0.00     0.012 C 
ENDBRANCH   1  31
BRANCH   1  34
ATOM     34  C   VAL A   2     -20.162 -10.102  -5.349  1.00  0.00     0.241 C 
ATOM     35  O   VAL A   2     -19.013 -10.002  -4.896  1.00  0.00    -0.271 OA
ATOM     36  N   ARG A   3     -21.077  -9.080  -5.280  1.00  0.00    -0.346 N 
ATOM     37  H   ARG A   3     -21.993  -9.192  -5.699  1.00  0.00     0.163 HD
BRANCH  36  38
ATOM     38  CA  ARG A   3     -20.830  -7.807  -4.574  1.00  0.00     0.176 C 
BRANCH  38  39
ATOM     39  CB  ARG A   3     -21.254  -6.577  -5.406  1.00  0.00     0.036 C 
BRANCH  39  40
ATOM     40  CG  ARG A   3     -20.177  -6.000  -6.342  1.00  0.00     0.022 C 
BRANCH  40  41
ATOM     41  CD  ARG A   3     -20.746  -5.480  -7.656  1.00  0.00     0.121 C 
BRANCH  41  42
ATOM     42  NE  ARG A   3     -22.037  -4.843  -7.451  1.00  0.00    -0.372 N 
ATOM     43  CZ  ARG A   3     -22.674  -4.454  -8.495  1.00  0.00     0.121 C 
ATOM     44  NH1 ARG A   3     -22.369  -4.534  -9.813  1.00  0.00    -0.279 NA
ATOM     45  NH2 ARG A   3     -23.870  -3.845  -8.346  1.00  0.00    -0.279 NA
ATOM     46 HH11 ARG A   3     -21.390  -4.661 -10.030  1.00  0.00     0.126 HD
ATOM     47 HH12 ARG A   3     -22.718  -3.728 -10.322  1.00  0.00     0.126 HD
ATOM     48 HH21 ARG A   3     -24.172  -3.921  -7.380  1.00  0.00     0.126 HD
ATOM     49 HH22 ARG A   3     -24.575  -4.206  -8.977  1.00  0.00     0.126 HD
ATOM     50  HE  ARG A   3     -22.421  -4.710  -6.516  1.00  0.00     0.161 HD
ENDBRANCH  41  42
ENDBRANCH  40  41
ENDBRANCH  39  40
ENDBRANCH  38  39
BRANCH  38  51
ATOM     51  C   ARG A   3     -21.542  -7.859  -3.194  1.00  0.00     0.241 C 
ATOM     52  O   ARG A   3     -21.732  -6.833  -2.534  1.00  0.00    -0.271 OA
ATOM     53  N   THR A   4     -21.869  -9.098  -2.697  1.00  0.00    -0.343 N 
ATOM     54  H   THR A   4     -21.747  -9.920  -3.288  1.00  0.00     0.163 HD
BRANCH  53  55
ATOM     55  CA  THR A   4     -22.249  -9.385  -1.283  1.00  0.00     0.210 C 
BRANCH  55  56
ATOM     56  CB  THR A   4     -23.000 -10.726  -1.108  1.00  0.00     0.147 C 
ATOM     57  CG2 THR A   4     -24.087 -10.704  -0.038  1.00  0.00     0.042 C 
BRANCH  56  58
ATOM     58  OG1 THR A   4     -23.725 -11.083  -2.292  1.00  0.00    -0.393 OA
ATOM     59  HG1 THR A   4     -24.683 -10.951  -2.131  1.00  0.00     0.210 HD
ENDBRANCH  56  58
ENDBRANCH  55  56
BRANCH  55  60
ATOM     60  C   THR A   4     -20.937  -9.367  -0.484  1.00  0.00     0.166 C 
ATOM     61  O   THR A   4     -20.779  -8.681   0.519  1.00  0.00    -0.648 OA
BRANCH  60  62
ATOM     62  OXT THR A   4     -19.968 -10.190  -0.941  1.00  0.00    -0.775 OA
ATOM     63  HXT THR A   4     -19.136 -10.211  -0.431  1.00  0.00     0.167 HD
ENDBRANCH  60  62
ENDBRANCH  55  60
ENDBRANCH  53  55
ENDBRANCH  38  51
ENDBRANCH  36  38
ENDBRANCH   1  34
TORSDOF 24
BEGIN_RES ARG D 557
REMARK  4 active torsions:
REMARK  status: ('A' for Active; 'I' for Inactive)
REMARK    1  A    between atoms: CA   and  CB  
REMARK    2  A    between atoms: CB   and  CG  
REMARK    3  A    between atoms: CG   and  CD  
REMARK    4  A    between atoms: CD   and  NE  
REMARK       I    between atoms: NE   and  CZ  
REMARK       I    between atoms: CZ   and  NH1 
REMARK       I    between atoms: CZ   and  NH2 
ROOT
ATOM      1  CA  ARG D 557     -26.217   2.705 -17.014  1.00 35.49     0.159 C 
ENDROOT
BRANCH   1   2
ATOM      2  CB  ARG D 557     -26.789   1.319 -17.183  1.00 35.49     0.034 C 
BRANCH   2   3
ATOM      3  CG  ARG D 557     -25.925   0.196 -16.799  1.00 35.49     0.027 C 
BRANCH   3   4
ATOM      4  CD  ARG D 557     -26.671  -0.880 -16.108  1.00 35.49     0.116 C 
BRANCH   4   5
ATOM      5  NE  ARG D 557     -25.943  -1.410 -14.985  1.00 35.49    -0.212 N 
ATOM      6  CZ  ARG D 557     -25.924  -2.668 -14.607  1.00 35.49     0.666 C 
ATOM      7  NH1 ARG D 557     -26.608  -3.608 -15.234  1.00 35.49    -0.235 N 
ATOM      8  NH2 ARG D 557     -25.191  -2.974 -13.576  1.00 35.49    -0.235 N 
ATOM      9  HH  ARG D 557     -27.095  -3.429 -15.916  1.00 35.49     0.174 HD
ATOM     10  HH  ARG D 557     -26.555  -4.412 -14.943  1.00 35.49     0.174 HD
ATOM     11  HH  ARG D 557     -24.754  -2.348 -13.196  1.00 35.49     0.174 HD
ATOM     12  HH  ARG D 557     -25.150  -3.776 -13.305  1.00 35.49     0.174 HD
ATOM     13  HE  ARG D 557     -25.533  -0.862 -14.481  1.00 35.49     0.178 HD
ENDBRANCH   4   5
ENDBRANCH   3   4
ENDBRANCH   2   3
ENDBRANCH   1   2
END_RES ARG D 557
BEGIN_RES GLU D 570
REMARK  3 active torsions:
REMARK  status: ('A' for Active; 'I' for Inactive)
REMARK    5  A    between atoms: CA   and  CB  
REMARK    6  A    between atoms: CB   and  CG  
REMARK    7  A    between atoms: CG   and  CD  
ROOT
ATOM     14  CA  GLU D 570     -18.033  -6.348 -13.375  1.00 32.92     0.160 C 
ENDROOT
BRANCH  14  15
ATOM     15  CB  GLU D 570     -19.500  -6.345 -13.794  1.00 32.92     0.043 C 
BRANCH  15  16
ATOM     16  CG  GLU D 570     -20.458  -5.612 -12.927  1.00 32.92     0.100 C 
BRANCH  16  17
ATOM     17  CD  GLU D 570     -21.721  -5.211 -13.652  1.00 32.92     0.185 C 
ATOM     18  OE1 GLU D 570     -21.868  -5.545 -14.843  1.00 32.92    -0.647 OA
ATOM     19  OE2 GLU D 570     -22.567  -4.540 -13.026  1.00 32.92    -0.647 OA
ENDBRANCH  16  17
ENDBRANCH  15  16
ENDBRANCH  14  15
END_RES GLU D 570
ENDMDL
MODEL 3
REMARK VINA RESULT:      -6.3      2.570      7.105
REMARK  24 active torsions:
REMARK  status: ('A' for Active; 'I' for Inactive)
REMARK    1  A    between atoms: CB_2  and  CA_4 
REMARK    2  A    between atoms: CA_4  and  C_5 
REMARK    3  A    between atoms: CA_4  and  N_14 
REMARK       I    between atoms: C_5  and  N_7 
REMARK    4  A    between atoms: N_7  and  CA_8 
REMARK    5  A    between atoms: CA_8  and  CB_9 
REMARK    6  A    between atoms: CA_8  and  C_12 
REMARK       I    between atoms: C_12  and  N_25 
REMARK       I    between atoms: N_14  and  C_15 
REMARK    7  A    between atoms: C_15  and  CA_17 
REMARK    8  A    between atoms: CA_17  and  CB_18 
REMARK    9  A    between atoms: CA_17  and  N_20 
REMARK   10  A    between atoms: CB_18  and  OG_19 
REMARK       I    between atoms: N_20  and  C_61 
REMARK   11  A    between atoms: N_25  and  CA_26 
REMARK   12  A    between atoms: CA_26  and  CB_27 
REMARK   13  A    between atoms: CA_26  and  C_30 
REMARK       I    between atoms: C_30  and  N_33 
REMARK   14  A    between atoms: N_33  and  CA_34 
REMARK   15  A    between atoms: CA_34  and  CB_35 
REMARK   16  A    between atoms: CA_34  and  C_43 
REMARK   17  A    between atoms: CB_35  and  CG_36 
REMARK   18  A    between atoms: CG_36  and  CD_37 
REMARK   19  A    between atoms: CD_37  and  NE_38 
REMARK       I    between atoms: CZ_40  and  NH1_41 
REMARK       I    between atoms: CZ_40  and  NH2_42 
REMARK       I    between atoms: C_43  and  N_50 
REMARK   20  A    between atoms: N_50  and  CA_51 
REMARK   21  A    between atoms: CA_51  and  CB_52 
REMARK   22  A    between atoms: CA_51  and  C_55 
REMARK   23  A    between atoms: CB_52  and  OG1_54 
REMARK   24  A    between atoms: C_55  and  OXT_57 
ROOT
ATOM      1  CA  VAL A   2     -16.994 -13.067  -1.323  1.00  0.00     0.180 C 
ENDROOT
BRANCH   1   2
ATOM      2  N   VAL A   2     -16.507 -13.142  -2.724  1.00  0.00    -0.346 N 
ATOM      3  C   SER A   1     -15.617 -14.087  -3.193  1.00  0.00     0.241 C 
ATOM      4  O   SER A   1     -15.148 -14.960  -2.464  1.00  0.00    -0.271 OA
ATOM      5  H   VAL A   2     -16.882 -12.442  -3.361  1.00  0.00     0.163 HD
BRANCH   3   6
ATOM      6  CA  SER A   1     -15.273 -14.047  -4.712  1.00  0.00     0.180 C 
BRANCH   6   7
ATOM      7  N   SER A   1     -16.526 -13.799  -5.449  1.00  0.00    -0.346 N 
ATOM      8  C   SER A   1     -17.332 -14.817  -5.937  1.00  0.00     0.241 C 
ATOM      9  O   SER A   1     -17.000 -16.000  -5.850  1.00  0.00    -0.271 OA
ATOM     10  H   SER A   1     -16.842 -12.839  -5.529  1.00  0.00     0.163 HD
BRANCH   8  11
ATOM     11  CA  SER A   1     -18.581 -14.381  -6.762  1.00  0.00     0.180 C 
BRANCH  11  12
ATOM     12  CB  SER A   1     -18.307 -14.381  -8.293  1.00  0.00     0.009 C 
ATOM     13  CG1 SER A   1     -18.562 -15.754  -8.937  1.00  0.00     0.012 C 
ATOM     14  CG2 SER A   1     -19.180 -13.356  -9.037  1.00  0.00     0.012 C 
ENDBRANCH  11  12
BRANCH  11  15
ATOM     15  N   SER A   1     -19.040 -13.057  -6.310  1.00  0.00    -0.346 N 
ATOM     16  C   SER A   1     -20.237 -12.905  -5.636  1.00  0.00     0.243 C 
ATOM     17  O   SER A   1     -20.950 -13.856  -5.326  1.00  0.00    -0.271 OA
ATOM     18  H   SER A   1     -18.405 -12.262  -6.347  1.00  0.00     0.163 HD
BRANCH  16  19
ATOM     19  CA  SER A   1     -20.556 -11.464  -5.205  1.00  0.00     0.200 C 
BRANCH  19  20
ATOM     20  CB  SER A   1     -21.917 -11.414  -4.500  1.00  0.00     0.199 C 
BRANCH  20  21
ATOM     21  OG  SER A   1     -21.781 -11.681  -3.100  1.00  0.00    -0.398 OA
ATOM     22  H   SER A   1     -20.858 -11.953  -2.954  1.00  0.00     0.209 HD
ENDBRANCH  20  21
ENDBRANCH  19  20
BRANCH  19  23
ATOM     23  N   SER A   1     -19.508 -10.966  -4.314  1.00  0.00    -0.346 N 
HETATM   24  C   UNK A   0     -18.794  -9.841  -4.638  1.00  0.00     0.214 C 
HETATM   25  O   UNK A   0     -18.938  -9.260  -5.708  1.00  0.00    -0.274 OA
HETATM   26  C   UNK A   0     -17.895  -9.350  -3.542  1.00  0.00     0.117 C 
ATOM     27  H   SER A   1     -19.089 -11.627  -3.660  1.00  0.00     0.163 HD
ENDBRANCH  19  23
ENDBRANCH  16  19
ENDBRANCH  11  15
ENDBRANCH   8  11
ENDBRANCH   6   7
BRANCH   6  28
ATOM     28  CB  SER A   1     -14.236 -12.918  -4.971  1.00  0.00     0.009 C 
ATOM     29  CG1 SER A   1     -14.915 -11.576  -5.270  1.00  0.00     0.012 C 
ATOM     30  CG2 SER A   1     -13.258 -12.721  -3.806  1.00  0.00     0.012 C 
ENDBRANCH   6  28
ENDBRANCH   3   6
ENDBRANCH   1   2
BRANCH   1  31
ATOM     31  CB  VAL A   2     -16.351 -11.888  -0.551  1.00  0.00     0.009 C 
ATOM     32  CG1 VAL A   2     -15.538 -12.323   0.669  1.00  0.00     0.012 C 
ATOM     33  CG2 VAL A   2     -15.546 -10.919  -1.420  1.00  0.00     0.012 C 
ENDBRANCH   1  31
BRANCH   1  34
ATOM     34  C   VAL A   2     -18.536 -12.929  -1.339  1.00  0.00     0.241 C 
ATOM     35  O   VAL A   2     -19.177 -13.151  -2.376  1.00  0.00    -0.271 OA
ATOM     36  N   ARG A   3     -19.132 -12.500  -0.179  1.00  0.00    -0.346 N 
ATOM     37  H   ARG A   3     -18.574 -12.369   0.658  1.00  0.00     0.163 HD
BRANCH  36  38
ATOM     38  CA  ARG A   3     -20.564 -12.159  -0.072  1.00  0.00     0.176 C 
BRANCH  38  39
ATOM     39  CB  ARG A   3     -21.334 -13.125   0.855  1.00  0.00     0.036 C 
BRANCH  39  40
ATOM     40  CG  ARG A   3     -22.860 -13.170   0.655  1.00  0.00     0.022 C 
BRANCH  40  41
ATOM     41  CD  ARG A   3     -23.308 -14.302  -0.261  1.00  0.00     0.121 C 
BRANCH  41  42
ATOM     42  NE  ARG A   3     -22.167 -14.952  -0.885  1.00  0.00    -0.372 N 
ATOM     43  CZ  ARG A   3     -22.144 -14.996  -2.167  1.00  0.00     0.121 C 
ATOM     44  NH1 ARG A   3     -23.011 -14.523  -3.097  1.00  0.00    -0.279 NA
ATOM     45  NH2 ARG A   3     -21.109 -15.603  -2.785  1.00  0.00    -0.279 NA
ATOM     46 HH11 ARG A   3     -23.952 -14.351  -2.771  1.00  0.00     0.126 HD
ATOM     47 HH12 ARG A   3     -23.048 -15.131  -3.908  1.00  0.00     0.126 HD
ATOM     48 HH21 ARG A   3     -20.387 -15.820  -2.105  1.00  0.00     0.126 HD
ATOM     49 HH22 ARG A   3     -20.735 -15.057  -3.551  1.00  0.00     0.126 HD
ATOM     50  HE  ARG A   3     -21.416 -15.358  -0.327  1.00  0.00     0.161 HD
ENDBRANCH  41  42
ENDBRANCH  40  41
ENDBRANCH  39  40
ENDBRANCH  38  39
BRANCH  38  51
ATOM     51  C   ARG A   3     -20.689 -10.679   0.385  1.00  0.00     0.241 C 
ATOM     52  O   ARG A   3     -20.432 -10.344   1.545  1.00  0.00    -0.271 OA
ATOM     53  N   THR A   4     -21.183  -9.776  -0.525  1.00  0.00    -0.343 N 
ATOM     54  H   THR A   4     -21.336 -10.073  -1.489  1.00  0.00     0.163 HD
BRANCH  53  55
ATOM     55  CA  THR A   4     -21.680  -8.408  -0.197  1.00  0.00     0.210 C 
BRANCH  55  56
ATOM     56  CB  THR A   4     -21.501  -7.395  -1.353  1.00  0.00     0.147 C 
ATOM     57  CG2 THR A   4     -21.451  -8.026  -2.741  1.00  0.00     0.042 C 
BRANCH  56  58
ATOM     58  OG1 THR A   4     -22.619  -6.503  -1.450  1.00  0.00    -0.393 OA
ATOM     59  HG1 THR A   4     -23.426  -6.968  -1.144  1.00  0.00     0.210 HD
ENDBRANCH  56  58
ENDBRANCH  55  56
BRANCH  55  60
ATOM     60  C   THR A   4     -23.159  -8.577   0.178  1.00  0.00     0.166 C 
ATOM     61  O   THR A   4     -23.785  -9.609  -0.036  1.00  0.00    -0.648 OA
BRANCH  60  62
ATOM     62  OXT THR A   4     -23.726  -7.518   0.796  1.00  0.00    -0.775 OA
ATOM     63  HXT THR A   4     -24.313  -7.717   1.551  1.00  0.00     0.167 HD
ENDBRANCH  60  62
ENDBRANCH  55  60
ENDBRANCH  53  55
ENDBRANCH  38  51
ENDBRANCH  36  38
ENDBRANCH   1  34
TORSDOF 24
BEGIN_RES ARG D 557
REMARK  4 active torsions:
REMARK  status: ('A' for Active; 'I' for Inactive)
REMARK    1  A    between atoms: CA   and  CB  
REMARK    2  A    between atoms: CB   and  CG  
REMARK    3  A    between atoms: CG   and  CD  
REMARK    4  A    between atoms: CD   and  NE  
REMARK       I    between atoms: NE   and  CZ  
REMARK       I    between atoms: CZ   and  NH1 
REMARK       I    between atoms: CZ   and  NH2 
ROOT
ATOM      1  CA  ARG D 557     -26.217   2.705 -17.014  1.00 35.49     0.159 C 
ENDROOT
BRANCH   1   2
ATOM      2  CB  ARG D 557     -26.789   1.319 -17.183  1.00 35.49     0.034 C 
BRANCH   2   3
ATOM      3  CG  ARG D 557     -28.246   1.186 -17.062  1.00 35.49     0.027 C 
BRANCH   3   4
ATOM      4  CD  ARG D 557     -28.665  -0.208 -16.792  1.00 35.49     0.116 C 
BRANCH   4   5
ATOM      5  NE  ARG D 557     -27.649  -0.955 -16.098  1.00 35.49    -0.212 N 
ATOM      6  CZ  ARG D 557     -27.482  -2.257 -16.150  1.00 35.49     0.666 C 
ATOM      7  NH1 ARG D 557     -28.268  -3.045 -16.862  1.00 35.49    -0.235 N 
ATOM      8  NH2 ARG D 557     -26.494  -2.764 -15.472  1.00 35.49    -0.235 N 
ATOM      9  HH  ARG D 557     -28.923  -2.733 -17.317  1.00 35.49     0.174 HD
ATOM     10  HH  ARG D 557     -28.109  -3.887 -16.860  1.00 35.49     0.174 HD
ATOM     11  HH  ARG D 557     -25.998  -2.231 -15.028  1.00 35.49     0.174 HD
ATOM     12  HH  ARG D 557     -26.352  -3.600 -15.485  1.00 35.49     0.174 HD
ATOM     13  HE  ARG D 557     -27.143  -0.535 -15.558  1.00 35.49     0.178 HD
ENDBRANCH   4   5
ENDBRANCH   3   4
ENDBRANCH   2   3
ENDBRANCH   1   2
END_RES ARG D 557
BEGIN_RES GLU D 570
REMARK  3 active torsions:
REMARK  status: ('A' for Active; 'I' for Inactive)
REMARK    5  A    between atoms: CA   and  CB  
REMARK    6  A    between atoms: CB   and  CG  
REMARK    7  A    between atoms: CG   and  CD  
ROOT
ATOM     14  CA  GLU D 570     -18.033  -6.348 -13.375  1.00 32.92     0.160 C 
ENDROOT
BRANCH  14  15
ATOM     15  CB  GLU D 570     -19.500  -6.345 -13.794  1.00 32.92     0.043 C 
BRANCH  15  16
ATOM     16  CG  GLU D 570     -20.445  -5.547 -12.971  1.00 32.92     0.100 C 
BRANCH  16  17
ATOM     17  CD  GLU D 570     -21.729  -5.221 -13.698  1.00 32.92     0.185 C 
ATOM     18  OE1 GLU D 570     -22.320  -4.156 -13.436  1.00 32.92    -0.647 OA
ATOM     19  OE2 GLU D 570     -22.158  -6.048 -14.527  1.00 32.92    -0.647 OA
ENDBRANCH  16  17
ENDBRANCH  15  16
ENDBRANCH  14  15
END_RES GLU D 570
ENDMDL
MODEL 4
REMARK VINA RESULT:      -6.3      2.062      4.435
REMARK  24 active torsions:
REMARK  status: ('A' for Active; 'I' for Inactive)
REMARK    1  A    between atoms: CB_2  and  CA_4 
REMARK    2  A    between atoms: CA_4  and  C_5 
REMARK    3  A    between atoms: CA_4  and  N_14 
REMARK       I    between atoms: C_5  and  N_7 
REMARK    4  A    between atoms: N_7  and  CA_8 
REMARK    5  A    between atoms: CA_8  and  CB_9 
REMARK    6  A    between atoms: CA_8  and  C_12 
REMARK       I    between atoms: C_12  and  N_25 
REMARK       I    between atoms: N_14  and  C_15 
REMARK    7  A    between atoms: C_15  and  CA_17 
REMARK    8  A    between atoms: CA_17  and  CB_18 
REMARK    9  A    between atoms: CA_17  and  N_20 
REMARK   10  A    between atoms: CB_18  and  OG_19 
REMARK       I    between atoms: N_20  and  C_61 
REMARK   11  A    between atoms: N_25  and  CA_26 
REMARK   12  A    between atoms: CA_26  and  CB_27 
REMARK   13  A    between atoms: CA_26  and  C_30 
REMARK       I    between atoms: C_30  and  N_33 
REMARK   14  A    between atoms: N_33  and  CA_34 
REMARK   15  A    between atoms: CA_34  and  CB_35 
REMARK   16  A    between atoms: CA_34  and  C_43 
REMARK   17  A    between atoms: CB_35  and  CG_36 
REMARK   18  A    between atoms: CG_36  and  CD_37 
REMARK   19  A    between atoms: CD_37  and  NE_38 
REMARK       I    between atoms: CZ_40  and  NH1_41 
REMARK       I    between atoms: CZ_40  and  NH2_42 
REMARK       I    between atoms: C_43  and  N_50 
REMARK   20  A    between atoms: N_50  and  CA_51 
REMARK   21  A    between atoms: CA_51  and  CB_52 
REMARK   22  A    between atoms: CA_51  and  C_55 
REMARK   23  A    between atoms: CB_52  and  OG1_54 
REMARK   24  A    between atoms: C_55  and  OXT_57 
ROOT
ATOM      1  CA  VAL A   2     -21.968  -9.030  -1.704  1.00  0.00     0.180 C 
ENDROOT
BRANCH   1   2
ATOM      2  N   VAL A   2     -21.618 -10.314  -1.045  1.00  0.00    -0.346 N 
ATOM      3  C   SER A   1     -21.829 -11.560  -1.599  1.00  0.00     0.241 C 
ATOM      4  O   SER A   1     -22.339 -11.703  -2.710  1.00  0.00    -0.271 OA
ATOM      5  H   VAL A   2     -21.183 -10.236  -0.128  1.00  0.00     0.163 HD
BRANCH   3   6
ATOM      6  CA  SER A   1     -21.334 -12.793  -0.785  1.00  0.00     0.180 C 
BRANCH   6   7
ATOM      7  N   SER A   1     -19.863 -12.727  -0.722  1.00  0.00    -0.346 N 
ATOM      8  C   SER A   1     -19.037 -13.270  -1.698  1.00  0.00     0.241 C 
ATOM      9  O   SER A   1     -19.494 -13.915  -2.642  1.00  0.00    -0.271 OA
ATOM     10  H   SER A   1     -19.448 -12.192   0.032  1.00  0.00     0.163 HD
BRANCH   8  11
ATOM     11  CA  SER A   1     -17.503 -13.182  -1.438  1.00  0.00     0.180 C 
BRANCH  11  12
ATOM     12  CB  SER A   1     -17.086 -11.815  -0.824  1.00  0.00     0.009 C 
ATOM     13  CG1 SER A   1     -16.279 -11.974   0.474  1.00  0.00     0.012 C 
ATOM     14  CG2 SER A   1     -16.234 -10.981  -1.796  1.00  0.00     0.012 C 
ENDBRANCH  11  12
BRANCH  11  15
ATOM     15  N   SER A   1     -16.769 -13.444  -2.687  1.00  0.00    -0.346 N 
ATOM     16  C   SER A   1     -15.771 -14.398  -2.746  1.00  0.00     0.243 C 
ATOM     17  O   SER A   1     -15.482 -15.117  -1.792  1.00  0.00    -0.271 OA
ATOM     18  H   SER A   1     -17.097 -13.037  -3.561  1.00  0.00     0.163 HD
BRANCH  16  19
ATOM     19  CA  SER A   1     -15.125 -14.572  -4.130  1.00  0.00     0.200 C 
BRANCH  19  20
ATOM     20  CB  SER A   1     -15.549 -15.911  -4.746  1.00  0.00     0.199 C 
BRANCH  20  21
ATOM     21  OG  SER A   1     -16.862 -16.283  -4.315  1.00  0.00    -0.398 OA
ATOM     22  H   SER A   1     -17.466 -16.087  -5.053  1.00  0.00     0.209 HD
ENDBRANCH  20  21
ENDBRANCH  19  20
BRANCH  19  23
ATOM     23  N   SER A   1     -15.517 -13.468  -5.006  1.00  0.00    -0.346 N 
HETATM   24  C   UNK A   0     -14.566 -12.722  -5.656  1.00  0.00     0.214 C 
HETATM   25  O   UNK A   0     -13.366 -12.888  -5.472  1.00  0.00    -0.274 OA
HETATM   26  C   UNK A   0     -15.127 -11.759  -6.660  1.00  0.00     0.117 C 
ATOM     27  H   SER A   1     -16.435 -13.048  -4.857  1.00  0.00     0.163 HD
ENDBRANCH  19  23
ENDBRANCH  16  19
ENDBRANCH  11  15
ENDBRANCH   8  11
ENDBRANCH   6   7
BRANCH   6  28
ATOM     28  CB  SER A   1     -21.960 -12.749   0.638  1.00  0.00     0.009 C 
ATOM     29  CG1 SER A   1     -23.489 -12.645   0.586  1.00  0.00     0.012 C 
ATOM     30  CG2 SER A   1     -21.583 -13.961   1.498  1.00  0.00     0.012 C 
ENDBRANCH   6  28
ENDBRANCH   3   6
ENDBRANCH   1   2
BRANCH   1  31
ATOM     31  CB  VAL A   2     -22.406  -7.956  -0.678  1.00  0.00     0.009 C 
ATOM     32  CG1 VAL A   2     -21.772  -8.130   0.702  1.00  0.00     0.012 C 
ATOM     33  CG2 VAL A   2     -22.261  -6.511  -1.162  1.00  0.00     0.012 C 
ENDBRANCH   1  31
BRANCH   1  34
ATOM     34  C   VAL A   2     -20.747  -8.538  -2.517  1.00  0.00     0.241 C 
ATOM     35  O   VAL A   2     -19.681  -8.263  -1.948  1.00  0.00    -0.271 OA
ATOM     36  N   ARG A   3     -20.927  -8.376  -3.869  1.00  0.00    -0.346 N 
ATOM     37  H   ARG A   3     -21.802  -8.652  -4.299  1.00  0.00     0.163 HD
BRANCH  36  38
ATOM     38  CA  ARG A   3     -19.923  -7.763  -4.761  1.00  0.00     0.176 C 
BRANCH  38  39
ATOM     39  CB  ARG A   3     -19.062  -8.815  -5.494  1.00  0.00     0.036 C 
BRANCH  39  40
ATOM     40  CG  ARG A   3     -18.326  -9.823  -4.592  1.00  0.00     0.022 C 
BRANCH  40  41
ATOM     41  CD  ARG A   3     -18.589 -11.273  -4.980  1.00  0.00     0.121 C 
BRANCH  41  42
ATOM     42  NE  ARG A   3     -19.980 -11.631  -4.752  1.00  0.00    -0.372 N 
ATOM     43  CZ  ARG A   3     -20.687 -11.928  -5.780  1.00  0.00     0.121 C 
ATOM     44  NH1 ARG A   3     -20.374 -11.986  -7.098  1.00  0.00    -0.279 NA
ATOM     45  NH2 ARG A   3     -21.987 -12.252  -5.612  1.00  0.00    -0.279 NA
ATOM     46 HH11 ARG A   3     -19.556 -11.463  -7.377  1.00  0.00     0.126 HD
ATOM     47 HH12 ARG A   3     -21.160 -11.705  -7.676  1.00  0.00     0.126 HD
ATOM     48 HH21 ARG A   3     -22.185 -12.361  -4.622  1.00  0.00     0.126 HD
ATOM     49 HH22 ARG A   3     -22.255 -13.080  -6.129  1.00  0.00     0.126 HD
ATOM     50  HE  ARG A   3     -20.378 -11.645  -3.813  1.00  0.00     0.161 HD
ENDBRANCH  41  42
ENDBRANCH  40  41
ENDBRANCH  39  40
ENDBRANCH  38  39
BRANCH  38  51
ATOM     51  C   ARG A   3     -20.652  -6.808  -5.747  1.00  0.00     0.241 C 
ATOM     52  O   ARG A   3     -21.166  -7.233  -6.785  1.00  0.00    -0.271 OA
ATOM     53  N   THR A   4     -20.622  -5.464  -5.463  1.00  0.00    -0.343 N 
ATOM     54  H   THR A   4     -20.236  -5.151  -4.573  1.00  0.00     0.163 HD
BRANCH  53  55
ATOM     55  CA  THR A   4     -20.965  -4.374  -6.423  1.00  0.00     0.210 C 
BRANCH  55  56
ATOM     56  CB  THR A   4     -19.961  -4.247  -7.594  1.00  0.00     0.147 C 
ATOM     57  CG2 THR A   4     -18.500  -4.431  -7.193  1.00  0.00     0.042 C 
BRANCH  56  58
ATOM     58  OG1 THR A   4     -20.156  -5.279  -8.570  1.00  0.00    -0.393 OA
ATOM     59  HG1 THR A   4     -20.264  -4.867  -9.452  1.00  0.00     0.210 HD
ENDBRANCH  56  58
ENDBRANCH  55  56
BRANCH  55  60
ATOM     60  C   THR A   4     -22.380  -4.690  -6.928  1.00  0.00     0.166 C 
ATOM     61  O   THR A   4     -22.732  -4.494  -8.086  1.00  0.00    -0.648 OA
BRANCH  60  62
ATOM     62  OXT THR A   4     -23.214  -5.235  -6.016  1.00  0.00    -0.775 OA
ATOM     63  HXT THR A   4     -22.800  -5.770  -5.311  1.00  0.00     0.167 HD
ENDBRANCH  60  62
ENDBRANCH  55  60
ENDBRANCH  53  55
ENDBRANCH  38  51
ENDBRANCH  36  38
ENDBRANCH   1  34
TORSDOF 24
BEGIN_RES ARG D 557
REMARK  4 active torsions:
REMARK  status: ('A' for Active; 'I' for Inactive)
REMARK    1  A    between atoms: CA   and  CB  
REMARK    2  A    between atoms: CB   and  CG  
REMARK    3  A    between atoms: CG   and  CD  
REMARK    4  A    between atoms: CD   and  NE  
REMARK       I    between atoms: NE   and  CZ  
REMARK       I    between atoms: CZ   and  NH1 
REMARK       I    between atoms: CZ   and  NH2 
ROOT
ATOM      1  CA  ARG D 557     -26.217   2.705 -17.014  1.00 35.49     0.159 C 
ENDROOT
BRANCH   1   2
ATOM      2  CB  ARG D 557     -26.789   1.319 -17.183  1.00 35.49     0.034 C 
BRANCH   2   3
ATOM      3  CG  ARG D 557     -28.229   1.164 -16.940  1.00 35.49     0.027 C 
BRANCH   3   4
ATOM      4  CD  ARG D 557     -28.622  -0.252 -16.765  1.00 35.49     0.116 C 
BRANCH   4   5
ATOM      5  NE  ARG D 557     -27.614  -1.014 -16.076  1.00 35.49    -0.212 N 
ATOM      6  CZ  ARG D 557     -27.466  -2.319 -16.130  1.00 35.49     0.666 C 
ATOM      7  NH1 ARG D 557     -28.266  -3.094 -16.839  1.00 35.49    -0.235 N 
ATOM      8  NH2 ARG D 557     -26.482  -2.840 -15.457  1.00 35.49    -0.235 N 
ATOM      9  HH  ARG D 557     -28.918  -2.773 -17.291  1.00 35.49     0.174 HD
ATOM     10  HH  ARG D 557     -28.119  -3.939 -16.839  1.00 35.49     0.174 HD
ATOM     11  HH  ARG D 557     -25.977  -2.314 -15.014  1.00 35.49     0.174 HD
ATOM     12  HH  ARG D 557     -26.352  -3.678 -15.470  1.00 35.49     0.174 HD
ATOM     13  HE  ARG D 557     -27.100  -0.602 -15.538  1.00 35.49     0.178 HD
ENDBRANCH   4   5
ENDBRANCH   3   4
ENDBRANCH   2   3
ENDBRANCH   1   2
END_RES ARG D 557
BEGIN_RES GLU D 570
REMARK  3 active torsions:
REMARK  status: ('A' for Active; 'I' for Inactive)
REMARK    5  A    between atoms: CA   and  CB  
REMARK    6  A    between atoms: CB   and  CG  
REMARK    7  A    between atoms: CG   and  CD  
ROOT
ATOM     14  CA  GLU D 570     -18.033  -6.348 -13.375  1.00 32.92     0.160 C 
ENDROOT
BRANCH  14  15
ATOM     15  CB  GLU D 570     -19.500  -6.345 -13.794  1.00 32.92     0.043 C 
BRANCH  15  16
ATOM     16  CG  GLU D 570     -20.449  -5.563 -12.960  1.00 32.92     0.100 C 
BRANCH  16  17
ATOM     17  CD  GLU D 570     -21.705  -5.175 -13.703  1.00 32.92     0.185 C 
ATOM     18  OE1 GLU D 570     -21.722  -5.254 -14.946  1.00 32.92    -0.647 OA
ATOM     19  OE2 GLU D 570     -22.678  -4.770 -13.036  1.00 32.92    -0.647 OA
ENDBRANCH  16  17
ENDBRANCH  15  16
ENDBRANCH  14  15
END_RES GLU D 570
ENDMDL
MODEL 5
REMARK VINA RESULT:      -6.2      2.109      5.853
REMARK  24 active torsions:
REMARK  status: ('A' for Active; 'I' for Inactive)
REMARK    1  A    between atoms: CB_2  and  CA_4 
REMARK    2  A    between atoms: CA_4  and  C_5 
REMARK    3  A    between atoms: CA_4  and  N_14 
REMARK       I    between atoms: C_5  and  N_7 
REMARK    4  A    between atoms: N_7  and  CA_8 
REMARK    5  A    between atoms: CA_8  and  CB_9 
REMARK    6  A    between atoms: CA_8  and  C_12 
REMARK       I    between atoms: C_12  and  N_25 
REMARK       I    between atoms: N_14  and  C_15 
REMARK    7  A    between atoms: C_15  and  CA_17 
REMARK    8  A    between atoms: CA_17  and  CB_18 
REMARK    9  A    between atoms: CA_17  and  N_20 
REMARK   10  A    between atoms: CB_18  and  OG_19 
REMARK       I    between atoms: N_20  and  C_61 
REMARK   11  A    between atoms: N_25  and  CA_26 
REMARK   12  A    between atoms: CA_26  and  CB_27 
REMARK   13  A    between atoms: CA_26  and  C_30 
REMARK       I    between atoms: C_30  and  N_33 
REMARK   14  A    between atoms: N_33  and  CA_34 
REMARK   15  A    between atoms: CA_34  and  CB_35 
REMARK   16  A    between atoms: CA_34  and  C_43 
REMARK   17  A    between atoms: CB_35  and  CG_36 
REMARK   18  A    between atoms: CG_36  and  CD_37 
REMARK   19  A    between atoms: CD_37  and  NE_38 
REMARK       I    between atoms: CZ_40  and  NH1_41 
REMARK       I    between atoms: CZ_40  and  NH2_42 
REMARK       I    between atoms: C_43  and  N_50 
REMARK   20  A    between atoms: N_50  and  CA_51 
REMARK   21  A    between atoms: CA_51  and  CB_52 
REMARK   22  A    between atoms: CA_51  and  C_55 
REMARK   23  A    between atoms: CB_52  and  OG1_54 
REMARK   24  A    between atoms: C_55  and  OXT_57 
ROOT
ATOM      1  CA  VAL A   2     -17.103 -13.942  -0.025  1.00  0.00     0.180 C 
ENDROOT
BRANCH   1   2
ATOM      2  N   VAL A   2     -16.817 -14.215  -1.457  1.00  0.00    -0.346 N 
ATOM      3  C   SER A   1     -15.781 -15.008  -1.910  1.00  0.00     0.241 C 
ATOM      4  O   SER A   1     -14.998 -15.562  -1.140  1.00  0.00    -0.271 OA
ATOM      5  H   VAL A   2     -17.451 -13.783  -2.125  1.00  0.00     0.163 HD
BRANCH   3   6
ATOM      6  CA  SER A   1     -15.678 -15.231  -3.448  1.00  0.00     0.180 C 
BRANCH   6   7
ATOM      7  N   SER A   1     -15.776 -13.913  -4.100  1.00  0.00    -0.346 N 
ATOM      8  C   SER A   1     -16.324 -13.730  -5.363  1.00  0.00     0.241 C 
ATOM      9  O   SER A   1     -16.690 -14.684  -6.050  1.00  0.00    -0.271 OA
ATOM     10  H   SER A   1     -15.500 -13.100  -3.561  1.00  0.00     0.163 HD
BRANCH   8  11
ATOM     11  CA  SER A   1     -16.279 -12.281  -5.938  1.00  0.00     0.180 C 
BRANCH  11  12
ATOM     12  CB  SER A   1     -14.835 -11.706  -5.974  1.00  0.00     0.009 C 
ATOM     13  CG1 SER A   1     -14.281 -11.415  -4.570  1.00  0.00     0.012 C 
ATOM     14  CG2 SER A   1     -13.849 -12.661  -6.668  1.00  0.00     0.012 C 
ENDBRANCH  11  12
BRANCH  11  15
ATOM     15  N   SER A   1     -17.175 -11.409  -5.161  1.00  0.00    -0.346 N 
ATOM     16  C   SER A   1     -18.341 -10.909  -5.709  1.00  0.00     0.243 C 
ATOM     17  O   SER A   1     -18.726 -11.207  -6.838  1.00  0.00    -0.271 OA
ATOM     18  H   SER A   1     -17.026 -11.294  -4.160  1.00  0.00     0.163 HD
BRANCH  16  19
ATOM     19  CA  SER A   1     -19.181 -10.041  -4.759  1.00  0.00     0.200 C 
BRANCH  19  20
ATOM     20  CB  SER A   1     -18.469  -9.897  -3.408  1.00  0.00     0.199 C 
BRANCH  20  21
ATOM     21  OG  SER A   1     -19.112 -10.687  -2.401  1.00  0.00    -0.398 OA
ATOM     22  H   SER A   1     -19.698 -10.088  -1.906  1.00  0.00     0.209 HD
ENDBRANCH  20  21
ENDBRANCH  19  20
BRANCH  19  23
ATOM     23  N   SER A   1     -19.405  -8.723  -5.353  1.00  0.00    -0.346 N 
HETATM   24  C   UNK A   0     -20.580  -8.050  -5.137  1.00  0.00     0.214 C 
HETATM   25  O   UNK A   0     -21.514  -8.548  -4.518  1.00  0.00    -0.274 OA
HETATM   26  C   UNK A   0     -20.581  -6.640  -5.649  1.00  0.00     0.117 C 
ATOM     27  H   SER A   1     -18.857  -8.477  -6.178  1.00  0.00     0.163 HD
ENDBRANCH  19  23
ENDBRANCH  16  19
ENDBRANCH  11  15
ENDBRANCH   8  11
ENDBRANCH   6   7
BRANCH   6  28
ATOM     28  CB  SER A   1     -14.323 -15.919  -3.774  1.00  0.00     0.009 C 
ATOM     29  CG1 SER A   1     -14.436 -16.865  -4.976  1.00  0.00     0.012 C 
ATOM     30  CG2 SER A   1     -13.191 -14.922  -4.044  1.00  0.00     0.012 C 
ENDBRANCH   6  28
ENDBRANCH   3   6
ENDBRANCH   1   2
BRANCH   1  31
ATOM     31  CB  VAL A   2     -16.607 -12.540   0.405  1.00  0.00     0.009 C 
ATOM     32  CG1 VAL A   2     -15.614 -12.570   1.568  1.00  0.00     0.012 C 
ATOM     33  CG2 VAL A   2     -16.076 -11.671  -0.737  1.00  0.00     0.012 C 
ENDBRANCH   1  31
BRANCH   1  34
ATOM     34  C   VAL A   2     -18.627 -14.075   0.210  1.00  0.00     0.241 C 
ATOM     35  O   VAL A   2     -19.128 -15.174   0.489  1.00  0.00    -0.271 OA
ATOM     36  N   ARG A   3     -19.382 -12.941   0.040  1.00  0.00    -0.346 N 
ATOM     37  H   ARG A   3     -18.927 -12.054  -0.148  1.00  0.00     0.163 HD
BRANCH  36  38
ATOM     38  CA  ARG A   3     -20.857 -12.928   0.064  1.00  0.00     0.176 C 
BRANCH  38  39
ATOM     39  CB  ARG A   3     -21.432 -11.528   0.371  1.00  0.00     0.036 C 
BRANCH  39  40
ATOM     40  CG  ARG A   3     -22.935 -11.346   0.094  1.00  0.00     0.022 C 
BRANCH  40  41
ATOM     41  CD  ARG A   3     -23.226 -10.239  -0.912  1.00  0.00     0.121 C 
BRANCH  41  42
ATOM     42  NE  ARG A   3     -21.994  -9.660  -1.424  1.00  0.00    -0.372 N 
ATOM     43  CZ  ARG A   3     -21.746  -8.440  -1.117  1.00  0.00     0.121 C 
ATOM     44  NH1 ARG A   3     -22.434  -7.546  -0.365  1.00  0.00    -0.279 NA
ATOM     45  NH2 ARG A   3     -20.620  -7.861  -1.584  1.00  0.00    -0.279 NA
ATOM     46 HH11 ARG A   3     -23.418  -7.743  -0.241  1.00  0.00     0.126 HD
ATOM     47 HH12 ARG A   3     -22.329  -6.603  -0.726  1.00  0.00     0.126 HD
ATOM     48 HH21 ARG A   3     -20.028  -8.566  -2.014  1.00  0.00     0.126 HD
ATOM     49 HH22 ARG A   3     -20.115  -7.352  -0.869  1.00  0.00     0.126 HD
ATOM     50  HE  ARG A   3     -21.354 -10.202  -2.003  1.00  0.00     0.161 HD
ENDBRANCH  41  42
ENDBRANCH  40  41
ENDBRANCH  39  40
ENDBRANCH  38  39
BRANCH  38  51
ATOM     51  C   ARG A   3     -21.380 -13.496  -1.285  1.00  0.00     0.241 C 
ATOM     52  O   ARG A   3     -21.966 -14.582  -1.336  1.00  0.00    -0.271 OA
ATOM     53  N   THR A   4     -21.086 -12.790  -2.426  1.00  0.00    -0.343 N 
ATOM     54  H   THR A   4     -20.648 -11.872  -2.345  1.00  0.00     0.163 HD
BRANCH  53  55
ATOM     55  CA  THR A   4     -21.204 -13.314  -3.818  1.00  0.00     0.210 C 
BRANCH  55  56
ATOM     56  CB  THR A   4     -21.861 -12.313  -4.799  1.00  0.00     0.147 C 
ATOM     57  CG2 THR A   4     -22.981 -12.907  -5.647  1.00  0.00     0.042 C 
BRANCH  56  58
ATOM     58  OG1 THR A   4     -22.519 -11.248  -4.102  1.00  0.00    -0.393 OA
ATOM     59  HG1 THR A   4     -22.298 -11.304  -3.149  1.00  0.00     0.210 HD
ENDBRANCH  56  58
ENDBRANCH  55  56
BRANCH  55  60
ATOM     60  C   THR A   4     -19.777 -13.674  -4.254  1.00  0.00     0.166 C 
ATOM     61  O   THR A   4     -18.816 -13.621  -3.494  1.00  0.00    -0.648 OA
BRANCH  60  62
ATOM     62  OXT THR A   4     -19.648 -14.091  -5.532  1.00  0.00    -0.775 OA
ATOM     63  HXT THR A   4     -20.423 -13.961  -6.113  1.00  0.00     0.167 HD
ENDBRANCH  60  62
ENDBRANCH  55  60
ENDBRANCH  53  55
ENDBRANCH  38  51
ENDBRANCH  36  38
ENDBRANCH   1  34
TORSDOF 24
BEGIN_RES ARG D 557
REMARK  4 active torsions:
REMARK  status: ('A' for Active; 'I' for Inactive)
REMARK    1  A    between atoms: CA   and  CB  
REMARK    2  A    between atoms: CB   and  CG  
REMARK    3  A    between atoms: CG   and  CD  
REMARK    4  A    between atoms: CD   and  NE  
REMARK       I    between atoms: NE   and  CZ  
REMARK       I    between atoms: CZ   and  NH1 
REMARK       I    between atoms: CZ   and  NH2 
ROOT
ATOM      1  CA  ARG D 557     -26.217   2.705 -17.014  1.00 35.49     0.159 C 
ENDROOT
BRANCH   1   2
ATOM      2  CB  ARG D 557     -26.789   1.319 -17.183  1.00 35.49     0.034 C 
BRANCH   2   3
ATOM      3  CG  ARG D 557     -28.233   1.226 -17.432  1.00 35.49     0.027 C 
BRANCH   3   4
ATOM      4  CD  ARG D 557     -28.908   0.300 -16.495  1.00 35.49     0.116 C 
BRANCH   4   5
ATOM      5  NE  ARG D 557     -29.309  -0.925 -17.137  1.00 35.49    -0.212 N 
ATOM      6  CZ  ARG D 557     -28.687  -2.079 -17.046  1.00 35.49     0.666 C 
ATOM      7  NH1 ARG D 557     -27.581  -2.235 -16.342  1.00 35.49    -0.235 N 
ATOM      8  NH2 ARG D 557     -29.205  -3.091 -17.680  1.00 35.49    -0.235 N 
ATOM      9  HH  ARG D 557     -27.224  -1.583 -15.916  1.00 35.49     0.174 HD
ATOM     10  HH  ARG D 557     -27.221  -3.012 -16.318  1.00 35.49     0.174 HD
ATOM     11  HH  ARG D 557     -29.924  -2.962 -18.120  1.00 35.49     0.174 HD
ATOM     12  HH  ARG D 557     -28.834  -3.853 -17.642  1.00 35.49     0.174 HD
ATOM     13  HE  ARG D 557     -29.971  -0.898 -17.670  1.00 35.49     0.178 HD
ENDBRANCH   4   5
ENDBRANCH   3   4
ENDBRANCH   2   3
ENDBRANCH   1   2
END_RES ARG D 557
BEGIN_RES GLU D 570
REMARK  3 active torsions:
REMARK  status: ('A' for Active; 'I' for Inactive)
REMARK    5  A    between atoms: CA   and  CB  
REMARK    6  A    between atoms: CB   and  CG  
REMARK    7  A    between atoms: CG   and  CD  
ROOT
ATOM     14  CA  GLU D 570     -18.033  -6.348 -13.375  1.00 32.92     0.160 C 
ENDROOT
BRANCH  14  15
ATOM     15  CB  GLU D 570     -19.500  -6.345 -13.794  1.00 32.92     0.043 C 
BRANCH  15  16
ATOM     16  CG  GLU D 570     -20.441  -5.527 -12.986  1.00 32.92     0.100 C 
BRANCH  16  17
ATOM     17  CD  GLU D 570     -21.733  -5.227 -13.710  1.00 32.92     0.185 C 
ATOM     18  OE1 GLU D 570     -22.304  -4.139 -13.504  1.00 32.92    -0.647 OA
ATOM     19  OE2 GLU D 570     -22.187  -6.097 -14.479  1.00 32.92    -0.647 OA
ENDBRANCH  16  17
ENDBRANCH  15  16
ENDBRANCH  14  15
END_RES GLU D 570
ENDMDL
MODEL 6
REMARK VINA RESULT:      -6.2      2.739      7.692
REMARK  24 active torsions:
REMARK  status: ('A' for Active; 'I' for Inactive)
REMARK    1  A    between atoms: CB_2  and  CA_4 
REMARK    2  A    between atoms: CA_4  and  C_5 
REMARK    3  A    between atoms: CA_4  and  N_14 
REMARK       I    between atoms: C_5  and  N_7 
REMARK    4  A    between atoms: N_7  and  CA_8 
REMARK    5  A    between atoms: CA_8  and  CB_9 
REMARK    6  A    between atoms: CA_8  and  C_12 
REMARK       I    between atoms: C_12  and  N_25 
REMARK       I    between atoms: N_14  and  C_15 
REMARK    7  A    between atoms: C_15  and  CA_17 
REMARK    8  A    between atoms: CA_17  and  CB_18 
REMARK    9  A    between atoms: CA_17  and  N_20 
REMARK   10  A    between atoms: CB_18  and  OG_19 
REMARK       I    between atoms: N_20  and  C_61 
REMARK   11  A    between atoms: N_25  and  CA_26 
REMARK   12  A    between atoms: CA_26  and  CB_27 
REMARK   13  A    between atoms: CA_26  and  C_30 
REMARK       I    between atoms: C_30  and  N_33 
REMARK   14  A    between atoms: N_33  and  CA_34 
REMARK   15  A    between atoms: CA_34  and  CB_35 
REMARK   16  A    between atoms: CA_34  and  C_43 
REMARK   17  A    between atoms: CB_35  and  CG_36 
REMARK   18  A    between atoms: CG_36  and  CD_37 
REMARK   19  A    between atoms: CD_37  and  NE_38 
REMARK       I    between atoms: CZ_40  and  NH1_41 
REMARK       I    between atoms: CZ_40  and  NH2_42 
REMARK       I    between atoms: C_43  and  N_50 
REMARK   20  A    between atoms: N_50  and  CA_51 
REMARK   21  A    between atoms: CA_51  and  CB_52 
REMARK   22  A    between atoms: CA_51  and  C_55 
REMARK   23  A    between atoms: CB_52  and  OG1_54 
REMARK   24  A    between atoms: C_55  and  OXT_57 
ROOT
ATOM      1  CA  VAL A   2     -14.847 -14.182  -4.690  1.00  0.00     0.180 C 
ENDROOT
BRANCH   1   2
ATOM      2  N   VAL A   2     -16.332 -14.167  -4.646  1.00  0.00    -0.346 N 
ATOM      3  C   SER A   1     -17.147 -14.160  -5.760  1.00  0.00     0.241 C 
ATOM      4  O   SER A   1     -16.691 -14.166  -6.903  1.00  0.00    -0.271 OA
ATOM      5  H   VAL A   2     -16.748 -14.173  -3.717  1.00  0.00     0.163 HD
BRANCH   3   6
ATOM      6  CA  SER A   1     -18.685 -14.212  -5.516  1.00  0.00     0.180 C 
BRANCH   6   7
ATOM      7  N   SER A   1     -19.135 -12.843  -5.204  1.00  0.00    -0.346 N 
ATOM      8  C   SER A   1     -19.162 -12.329  -3.915  1.00  0.00     0.241 C 
ATOM      9  O   SER A   1     -18.883 -13.025  -2.938  1.00  0.00    -0.271 OA
ATOM     10  H   SER A   1     -19.359 -12.233  -5.983  1.00  0.00     0.163 HD
BRANCH   8  11
ATOM     11  CA  SER A   1     -19.741 -10.890  -3.752  1.00  0.00     0.180 C 
BRANCH  11  12
ATOM     12  CB  SER A   1     -18.734  -9.795  -4.203  1.00  0.00     0.009 C 
ATOM     13  CG1 SER A   1     -19.433  -8.545  -4.761  1.00  0.00     0.012 C 
ATOM     14  CG2 SER A   1     -17.824  -9.336  -3.050  1.00  0.00     0.012 C 
ENDBRANCH  11  12
BRANCH  11  15
ATOM     15  N   SER A   1     -20.162 -10.677  -2.357  1.00  0.00    -0.346 N 
ATOM     16  C   SER A   1     -21.461 -10.323  -2.047  1.00  0.00     0.243 C 
ATOM     17  O   SER A   1     -22.344 -10.226  -2.896  1.00  0.00    -0.271 OA
ATOM     18  H   SER A   1     -19.541 -10.944  -1.595  1.00  0.00     0.163 HD
BRANCH  16  19
ATOM     19  CA  SER A   1     -21.746 -10.169  -0.544  1.00  0.00     0.200 C 
BRANCH  19  20
ATOM     20  CB  SER A   1     -22.322  -8.777  -0.256  1.00  0.00     0.199 C 
BRANCH  20  21
ATOM     21  OG  SER A   1     -21.915  -8.309   1.034  1.00  0.00    -0.398 OA
ATOM     22  H   SER A   1     -22.518  -7.583   1.272  1.00  0.00     0.209 HD
ENDBRANCH  20  21
ENDBRANCH  19  20
BRANCH  19  23
ATOM     23  N   SER A   1     -22.684 -11.202  -0.105  1.00  0.00    -0.346 N 
HETATM   24  C   UNK A   0     -22.238 -12.305   0.578  1.00  0.00     0.214 C 
HETATM   25  O   UNK A   0     -21.047 -12.514   0.775  1.00  0.00    -0.274 OA
HETATM   26  C   UNK A   0     -23.335 -13.171   1.124  1.00  0.00     0.117 C 
ATOM     27  H   SER A   1     -23.575 -11.272  -0.597  1.00  0.00     0.163 HD
ENDBRANCH  19  23
ENDBRANCH  16  19
ENDBRANCH  11  15
ENDBRANCH   8  11
ENDBRANCH   6   7
BRANCH   6  28
ATOM     28  CB  SER A   1     -19.386 -14.757  -6.792  1.00  0.00     0.009 C 
ATOM     29  CG1 SER A   1     -20.435 -15.823  -6.456  1.00  0.00     0.012 C 
ATOM     30  CG2 SER A   1     -20.056 -13.659  -7.626  1.00  0.00     0.012 C 
ENDBRANCH   6  28
ENDBRANCH   3   6
ENDBRANCH   1   2
BRANCH   1  31
ATOM     31  CB  VAL A   2     -14.257 -12.751  -4.717  1.00  0.00     0.009 C 
ATOM     32  CG1 VAL A   2     -13.409 -12.459  -5.956  1.00  0.00     0.012 C 
ATOM     33  CG2 VAL A   2     -15.277 -11.634  -4.485  1.00  0.00     0.012 C 
ENDBRANCH   1  31
BRANCH   1  34
ATOM     34  C   VAL A   2     -14.322 -14.963  -3.461  1.00  0.00     0.241 C 
ATOM     35  O   VAL A   2     -13.701 -16.025  -3.608  1.00  0.00    -0.271 OA
ATOM     36  N   ARG A   3     -14.629 -14.451  -2.224  1.00  0.00    -0.346 N 
ATOM     37  H   ARG A   3     -15.104 -13.559  -2.150  1.00  0.00     0.163 HD
BRANCH  36  38
ATOM     38  CA  ARG A   3     -14.350 -15.152  -0.956  1.00  0.00     0.176 C 
BRANCH  38  39
ATOM     39  CB  ARG A   3     -13.840 -14.199   0.148  1.00  0.00     0.036 C 
BRANCH  39  40
ATOM     40  CG  ARG A   3     -14.880 -13.782   1.203  1.00  0.00     0.022 C 
BRANCH  40  41
ATOM     41  CD  ARG A   3     -15.182 -12.289   1.185  1.00  0.00     0.121 C 
BRANCH  41  42
ATOM     42  NE  ARG A   3     -16.615 -12.046   1.120  1.00  0.00    -0.372 N 
ATOM     43  CZ  ARG A   3     -17.162 -12.066  -0.040  1.00  0.00     0.121 C 
ATOM     44  NH1 ARG A   3     -16.645 -12.289  -1.273  1.00  0.00    -0.279 NA
ATOM     45  NH2 ARG A   3     -18.487 -11.831  -0.145  1.00  0.00    -0.279 NA
ATOM     46 HH11 ARG A   3     -15.648 -12.151  -1.362  1.00  0.00     0.126 HD
ATOM     47 HH12 ARG A   3     -17.119 -11.734  -1.978  1.00  0.00     0.126 HD
ATOM     48 HH21 ARG A   3     -18.905 -11.818   0.781  1.00  0.00     0.126 HD
ATOM     49 HH22 ARG A   3     -18.958 -12.497  -0.744  1.00  0.00     0.126 HD
ATOM     50  HE  ARG A   3     -17.161 -11.867   1.962  1.00  0.00     0.161 HD
ENDBRANCH  41  42
ENDBRANCH  40  41
ENDBRANCH  39  40
ENDBRANCH  38  39
BRANCH  38  51
ATOM     51  C   ARG A   3     -15.627 -15.924  -0.524  1.00  0.00     0.241 C 
ATOM     52  O   ARG A   3     -15.559 -16.906   0.221  1.00  0.00    -0.271 OA
ATOM     53  N   THR A   4     -16.822 -15.528  -1.075  1.00  0.00    -0.343 N 
ATOM     54  H   THR A   4     -16.852 -14.683  -1.644  1.00  0.00     0.163 HD
BRANCH  53  55
ATOM     55  CA  THR A   4     -18.085 -16.322  -1.051  1.00  0.00     0.210 C 
BRANCH  55  56
ATOM     56  CB  THR A   4     -19.201 -15.676  -0.196  1.00  0.00     0.147 C 
ATOM     57  CG2 THR A   4     -18.752 -15.231   1.193  1.00  0.00     0.042 C 
BRANCH  56  58
ATOM     58  OG1 THR A   4     -19.678 -14.458  -0.782  1.00  0.00    -0.393 OA
ATOM     59  HG1 THR A   4     -20.618 -14.332  -0.536  1.00  0.00     0.210 HD
ENDBRANCH  56  58
ENDBRANCH  55  56
BRANCH  55  60
ATOM     60  C   THR A   4     -18.516 -16.469  -2.518  1.00  0.00     0.166 C 
ATOM     61  O   THR A   4     -19.678 -16.339  -2.886  1.00  0.00    -0.648 OA
BRANCH  60  62
ATOM     62  OXT THR A   4     -17.518 -16.720  -3.393  1.00  0.00    -0.775 OA
ATOM     63  HXT THR A   4     -17.128 -17.614  -3.365  1.00  0.00     0.167 HD
ENDBRANCH  60  62
ENDBRANCH  55  60
ENDBRANCH  53  55
ENDBRANCH  38  51
ENDBRANCH  36  38
ENDBRANCH   1  34
TORSDOF 24
BEGIN_RES ARG D 557
REMARK  4 active torsions:
REMARK  status: ('A' for Active; 'I' for Inactive)
REMARK    1  A    between atoms: CA   and  CB  
REMARK    2  A    between atoms: CB   and  CG  
REMARK    3  A    between atoms: CG   and  CD  
REMARK    4  A    between atoms: CD   and  NE  
REMARK       I    between atoms: NE   and  CZ  
REMARK       I    between atoms: CZ   and  NH1 
REMARK       I    between atoms: CZ   and  NH2 
ROOT
ATOM      1  CA  ARG D 557     -26.217   2.705 -17.014  1.00 35.49     0.159 C 
ENDROOT
BRANCH   1   2
ATOM      2  CB  ARG D 557     -26.789   1.319 -17.183  1.00 35.49     0.034 C 
BRANCH   2   3
ATOM      3  CG  ARG D 557     -25.837   0.202 -17.147  1.00 35.49     0.027 C 
BRANCH   3   4
ATOM      4  CD  ARG D 557     -24.755   0.415 -16.158  1.00 35.49     0.116 C 
BRANCH   4   5
ATOM      5  NE  ARG D 557     -24.895  -0.440 -15.009  1.00 35.49    -0.212 N 
ATOM      6  CZ  ARG D 557     -24.075  -1.409 -14.667  1.00 35.49     0.666 C 
ATOM      7  NH1 ARG D 557     -23.006  -1.716 -15.379  1.00 35.49    -0.235 N 
ATOM      8  NH2 ARG D 557     -24.346  -2.069 -13.580  1.00 35.49    -0.235 N 
ATOM      9  HH  ARG D 557     -22.807  -1.293 -16.097  1.00 35.49     0.174 HD
ATOM     10  HH  ARG D 557     -22.506  -2.356 -15.106  1.00 35.49     0.174 HD
ATOM     11  HH  ARG D 557     -25.039  -1.844 -13.136  1.00 35.49     0.174 HD
ATOM     12  HH  ARG D 557     -23.838  -2.699 -13.325  1.00 35.49     0.174 HD
ATOM     13  HE  ARG D 557     -25.596  -0.360 -14.534  1.00 35.49     0.178 HD
ENDBRANCH   4   5
ENDBRANCH   3   4
ENDBRANCH   2   3
ENDBRANCH   1   2
END_RES ARG D 557
BEGIN_RES GLU D 570
REMARK  3 active torsions:
REMARK  status: ('A' for Active; 'I' for Inactive)
REMARK    5  A    between atoms: CA   and  CB  
REMARK    6  A    between atoms: CB   and  CG  
REMARK    7  A    between atoms: CG   and  CD  
ROOT
ATOM     14  CA  GLU D 570     -18.033  -6.348 -13.375  1.00 32.92     0.160 C 
ENDROOT
BRANCH  14  15
ATOM     15  CB  GLU D 570     -19.500  -6.345 -13.794  1.00 32.92     0.043 C 
BRANCH  15  16
ATOM     16  CG  GLU D 570     -20.448  -5.558 -12.963  1.00 32.92     0.100 C 
BRANCH  16  17
ATOM     17  CD  GLU D 570     -21.731  -5.226 -13.688  1.00 32.92     0.185 C 
ATOM     18  OE1 GLU D 570     -22.240  -4.099 -13.533  1.00 32.92    -0.647 OA
ATOM     19  OE2 GLU D 570     -22.243  -6.109 -14.405  1.00 32.92    -0.647 OA
ENDBRANCH  16  17
ENDBRANCH  15  16
ENDBRANCH  14  15
END_RES GLU D 570
ENDMDL
MODEL 7
REMARK VINA RESULT:      -6.2      2.252      4.917
REMARK  24 active torsions:
REMARK  status: ('A' for Active; 'I' for Inactive)
REMARK    1  A    between atoms: CB_2  and  CA_4 
REMARK    2  A    between atoms: CA_4  and  C_5 
REMARK    3  A    between atoms: CA_4  and  N_14 
REMARK       I    between atoms: C_5  and  N_7 
REMARK    4  A    between atoms: N_7  and  CA_8 
REMARK    5  A    between atoms: CA_8  and  CB_9 
REMARK    6  A    between atoms: CA_8  and  C_12 
REMARK       I    between atoms: C_12  and  N_25 
REMARK       I    between atoms: N_14  and  C_15 
REMARK    7  A    between atoms: C_15  and  CA_17 
REMARK    8  A    between atoms: CA_17  and  CB_18 
REMARK    9  A    between atoms: CA_17  and  N_20 
REMARK   10  A    between atoms: CB_18  and  OG_19 
REMARK       I    between atoms: N_20  and  C_61 
REMARK   11  A    between atoms: N_25  and  CA_26 
REMARK   12  A    between atoms: CA_26  and  CB_27 
REMARK   13  A    between atoms: CA_26  and  C_30 
REMARK       I    between atoms: C_30  and  N_33 
REMARK   14  A    between atoms: N_33  and  CA_34 
REMARK   15  A    between atoms: CA_34  and  CB_35 
REMARK   16  A    between atoms: CA_34  and  C_43 
REMARK   17  A    between atoms: CB_35  and  CG_36 
REMARK   18  A    between atoms: CG_36  and  CD_37 
REMARK   19  A    between atoms: CD_37  and  NE_38 
REMARK       I    between atoms: CZ_40  and  NH1_41 
REMARK       I    between atoms: CZ_40  and  NH2_42 
REMARK       I    between atoms: C_43  and  N_50 
REMARK   20  A    between atoms: N_50  and  CA_51 
REMARK   21  A    between atoms: CA_51  and  CB_52 
REMARK   22  A    between atoms: CA_51  and  C_55 
REMARK   23  A    between atoms: CB_52  and  OG1_54 
REMARK   24  A    between atoms: C_55  and  OXT_57 
ROOT
ATOM      1  CA  VAL A   2     -22.106  -9.391  -0.802  1.00  0.00     0.180 C 
ENDROOT
BRANCH   1   2
ATOM      2  N   VAL A   2     -22.070 -10.842  -0.490  1.00  0.00    -0.346 N 
ATOM      3  C   SER A   1     -23.170 -11.590  -0.118  1.00  0.00     0.241 C 
ATOM      4  O   SER A   1     -24.291 -11.095  -0.015  1.00  0.00    -0.271 OA
ATOM      5  H   VAL A   2     -21.161 -11.291  -0.575  1.00  0.00     0.163 HD
BRANCH   3   6
ATOM      6  CA  SER A   1     -22.949 -13.116   0.105  1.00  0.00     0.180 C 
BRANCH   6   7
ATOM      7  N   SER A   1     -21.831 -13.538  -0.758  1.00  0.00    -0.346 N 
ATOM      8  C   SER A   1     -22.012 -14.189  -1.971  1.00  0.00     0.241 C 
ATOM      9  O   SER A   1     -23.131 -14.524  -2.360  1.00  0.00    -0.271 OA
ATOM     10  H   SER A   1     -20.894 -13.267  -0.480  1.00  0.00     0.163 HD
BRANCH   8  11
ATOM     11  CA  SER A   1     -20.721 -14.635  -2.721  1.00  0.00     0.180 C 
BRANCH  11  12
ATOM     12  CB  SER A   1     -20.663 -16.174  -2.931  1.00  0.00     0.009 C 
ATOM     13  CG1 SER A   1     -19.534 -16.598  -3.885  1.00  0.00     0.012 C 
ATOM     14  CG2 SER A   1     -20.453 -16.931  -1.607  1.00  0.00     0.012 C 
ENDBRANCH  11  12
BRANCH  11  15
ATOM     15  N   SER A   1     -19.532 -14.157  -1.995  1.00  0.00    -0.346 N 
ATOM     16  C   SER A   1     -18.705 -13.189  -2.533  1.00  0.00     0.243 C 
ATOM     17  O   SER A   1     -18.941 -12.634  -3.604  1.00  0.00    -0.271 OA
ATOM     18  H   SER A   1     -19.396 -14.419  -1.021  1.00  0.00     0.163 HD
BRANCH  16  19
ATOM     19  CA  SER A   1     -17.526 -12.778  -1.637  1.00  0.00     0.200 C 
BRANCH  19  20
ATOM     20  CB  SER A   1     -18.022 -12.473  -0.219  1.00  0.00     0.199 C 
BRANCH  20  21
ATOM     21  OG  SER A   1     -19.323 -11.877  -0.245  1.00  0.00    -0.398 OA
ATOM     22  H   SER A   1     -19.760 -12.120   0.589  1.00  0.00     0.209 HD
ENDBRANCH  20  21
ENDBRANCH  19  20
BRANCH  19  23
ATOM     23  N   SER A   1     -16.527 -13.847  -1.603  1.00  0.00    -0.346 N 
HETATM   24  C   UNK A   0     -15.222 -13.594  -1.940  1.00  0.00     0.214 C 
HETATM   25  O   UNK A   0     -14.855 -12.503  -2.359  1.00  0.00    -0.274 OA
HETATM   26  C   UNK A   0     -14.288 -14.737  -1.671  1.00  0.00     0.117 C 
ATOM     27  H   SER A   1     -16.862 -14.809  -1.670  1.00  0.00     0.163 HD
ENDBRANCH  19  23
ENDBRANCH  16  19
ENDBRANCH  11  15
ENDBRANCH   8  11
ENDBRANCH   6   7
BRANCH   6  28
ATOM     28  CB  SER A   1     -22.629 -13.371   1.605  1.00  0.00     0.009 C 
ATOM     29  CG1 SER A   1     -23.832 -13.957   2.354  1.00  0.00     0.012 C 
ATOM     30  CG2 SER A   1     -21.426 -14.298   1.814  1.00  0.00     0.012 C 
ENDBRANCH   6  28
ENDBRANCH   3   6
ENDBRANCH   1   2
BRANCH   1  31
ATOM     31  CB  VAL A   2     -21.731  -8.528   0.428  1.00  0.00     0.009 C 
ATOM     32  CG1 VAL A   2     -22.931  -7.863   1.102  1.00  0.00     0.012 C 
ATOM     33  CG2 VAL A   2     -20.853  -9.236   1.463  1.00  0.00     0.012 C 
ENDBRANCH   1  31
BRANCH   1  34
ATOM     34  C   VAL A   2     -21.140  -9.111  -1.978  1.00  0.00     0.241 C 
ATOM     35  O   VAL A   2     -19.958  -9.479  -1.923  1.00  0.00    -0.271 OA
ATOM     36  N   ARG A   3     -21.644  -8.398  -3.037  1.00  0.00    -0.346 N 
ATOM     37  H   ARG A   3     -22.627  -8.152  -3.060  1.00  0.00     0.163 HD
BRANCH  36  38
ATOM     38  CA  ARG A   3     -20.820  -7.906  -4.159  1.00  0.00     0.176 C 
BRANCH  38  39
ATOM     39  CB  ARG A   3     -20.882  -8.835  -5.390  1.00  0.00     0.036 C 
BRANCH  39  40
ATOM     40  CG  ARG A   3     -19.905 -10.025  -5.380  1.00  0.00     0.022 C 
BRANCH  40  41
ATOM     41  CD  ARG A   3     -18.443  -9.596  -5.374  1.00  0.00     0.121 C 
BRANCH  41  42
ATOM     42  NE  ARG A   3     -17.876  -9.688  -4.037  1.00  0.00    -0.372 N 
ATOM     43  CZ  ARG A   3     -16.598  -9.735  -3.942  1.00  0.00     0.121 C 
ATOM     44  NH1 ARG A   3     -15.626  -9.703  -4.886  1.00  0.00    -0.279 NA
ATOM     45  NH2 ARG A   3     -16.034  -9.835  -2.720  1.00  0.00    -0.279 NA
ATOM     46 HH11 ARG A   3     -15.915  -9.956  -5.821  1.00  0.00     0.126 HD
ATOM     47 HH12 ARG A   3     -14.833 -10.277  -4.619  1.00  0.00     0.126 HD
ATOM     48 HH21 ARG A   3     -16.744  -9.704  -2.006  1.00  0.00     0.126 HD
ATOM     49 HH22 ARG A   3     -15.264  -9.191  -2.589  1.00  0.00     0.126 HD
ATOM     50  HE  ARG A   3     -18.471  -9.715  -3.210  1.00  0.00     0.161 HD
ENDBRANCH  41  42
ENDBRANCH  40  41
ENDBRANCH  39  40
ENDBRANCH  38  39
BRANCH  38  51
ATOM     51  C   ARG A   3     -21.256  -6.453  -4.495  1.00  0.00     0.241 C 
ATOM     52  O   ARG A   3     -22.178  -5.905  -3.883  1.00  0.00    -0.271 OA
ATOM     53  N   THR A   4     -20.639  -5.837  -5.557  1.00  0.00    -0.343 N 
ATOM     54  H   THR A   4     -19.847  -6.295  -6.007  1.00  0.00     0.163 HD
BRANCH  53  55
ATOM     55  CA  THR A   4     -21.126  -4.600  -6.236  1.00  0.00     0.210 C 
BRANCH  55  56
ATOM     56  CB  THR A   4     -20.045  -3.906  -7.098  1.00  0.00     0.147 C 
ATOM     57  CG2 THR A   4     -18.818  -4.768  -7.384  1.00  0.00     0.042 C 
BRANCH  56  58
ATOM     58  OG1 THR A   4     -20.533  -3.601  -8.411  1.00  0.00    -0.393 OA
ATOM     59  HG1 THR A   4     -21.382  -3.118  -8.331  1.00  0.00     0.210 HD
ENDBRANCH  56  58
ENDBRANCH  55  56
BRANCH  55  60
ATOM     60  C   THR A   4     -22.329  -5.034  -7.086  1.00  0.00     0.166 C 
ATOM     61  O   THR A   4     -22.211  -5.631  -8.149  1.00  0.00    -0.648 OA
BRANCH  60  62
ATOM     62  OXT THR A   4     -23.541  -4.744  -6.565  1.00  0.00    -0.775 OA
ATOM     63  HXT THR A   4     -23.911  -5.390  -5.933  1.00  0.00     0.167 HD
ENDBRANCH  60  62
ENDBRANCH  55  60
ENDBRANCH  53  55
ENDBRANCH  38  51
ENDBRANCH  36  38
ENDBRANCH   1  34
TORSDOF 24
BEGIN_RES ARG D 557
REMARK  4 active torsions:
REMARK  status: ('A' for Active; 'I' for Inactive)
REMARK    1  A    between atoms: CA   and  CB  
REMARK    2  A    between atoms: CB   and  CG  
REMARK    3  A    between atoms: CG   and  CD  
REMARK    4  A    between atoms: CD   and  NE  
REMARK       I    between atoms: NE   and  CZ  
REMARK       I    between atoms: CZ   and  NH1 
REMARK       I    between atoms: CZ   and  NH2 
ROOT
ATOM      1  CA  ARG D 557     -26.217   2.705 -17.014  1.00 35.49     0.159 C 
ENDROOT
BRANCH   1   2
ATOM      2  CB  ARG D 557     -26.789   1.319 -17.183  1.00 35.49     0.034 C 
BRANCH   2   3
ATOM      3  CG  ARG D 557     -28.225   1.160 -16.920  1.00 35.49     0.027 C 
BRANCH   3   4
ATOM      4  CD  ARG D 557     -28.599  -0.250 -16.667  1.00 35.49     0.116 C 
BRANCH   4   5
ATOM      5  NE  ARG D 557     -27.573  -0.964 -15.955  1.00 35.49    -0.212 N 
ATOM      6  CZ  ARG D 557     -27.335  -2.254 -16.039  1.00 35.49     0.666 C 
ATOM      7  NH1 ARG D 557     -28.050  -3.059 -16.803  1.00 35.49    -0.235 N 
ATOM      8  NH2 ARG D 557     -26.348  -2.730 -15.336  1.00 35.49    -0.235 N 
ATOM      9  HH  ARG D 557     -28.703  -2.767 -17.275  1.00 35.49     0.174 HD
ATOM     10  HH  ARG D 557     -27.847  -3.891 -16.820  1.00 35.49     0.174 HD
ATOM     11  HH  ARG D 557     -25.899  -2.185 -14.858  1.00 35.49     0.174 HD
ATOM     12  HH  ARG D 557     -26.162  -3.556 -15.368  1.00 35.49     0.174 HD
ATOM     13  HE  ARG D 557     -27.111  -0.536 -15.384  1.00 35.49     0.178 HD
ENDBRANCH   4   5
ENDBRANCH   3   4
ENDBRANCH   2   3
ENDBRANCH   1   2
END_RES ARG D 557
BEGIN_RES GLU D 570
REMARK  3 active torsions:
REMARK  status: ('A' for Active; 'I' for Inactive)
REMARK    5  A    between atoms: CA   and  CB  
REMARK    6  A    between atoms: CB   and  CG  
REMARK    7  A    between atoms: CG   and  CD  
ROOT
ATOM     14  CA  GLU D 570     -18.033  -6.348 -13.375  1.00 32.92     0.160 C 
ENDROOT
BRANCH  14  15
ATOM     15  CB  GLU D 570     -19.500  -6.345 -13.794  1.00 32.92     0.043 C 
BRANCH  15  16
ATOM     16  CG  GLU D 570     -20.440  -5.521 -12.990  1.00 32.92     0.100 C 
BRANCH  16  17
ATOM     17  CD  GLU D 570     -21.743  -5.248 -13.705  1.00 32.92     0.185 C 
ATOM     18  OE1 GLU D 570     -22.194  -6.104 -14.489  1.00 32.92    -0.647 OA
ATOM     19  OE2 GLU D 570     -22.309  -4.158 -13.491  1.00 32.92    -0.647 OA
ENDBRANCH  16  17
ENDBRANCH  15  16
ENDBRANCH  14  15
END_RES GLU D 570
ENDMDL
MODEL 8
REMARK VINA RESULT:      -6.2      2.574      6.280
REMARK  24 active torsions:
REMARK  status: ('A' for Active; 'I' for Inactive)
REMARK    1  A    between atoms: CB_2  and  CA_4 
REMARK    2  A    between atoms: CA_4  and  C_5 
REMARK    3  A    between atoms: CA_4  and  N_14 
REMARK       I    between atoms: C_5  and  N_7 
REMARK    4  A    between atoms: N_7  and  CA_8 
REMARK    5  A    between atoms: CA_8  and  CB_9 
REMARK    6  A    between atoms: CA_8  and  C_12 
REMARK       I    between atoms: C_12  and  N_25 
REMARK       I    between atoms: N_14  and  C_15 
REMARK    7  A    between atoms: C_15  and  CA_17 
REMARK    8  A    between atoms: CA_17  and  CB_18 
REMARK    9  A    between atoms: CA_17  and  N_20 
REMARK   10  A    between atoms: CB_18  and  OG_19 
REMARK       I    between atoms: N_20  and  C_61 
REMARK   11  A    between atoms: N_25  and  CA_26 
REMARK   12  A    between atoms: CA_26  and  CB_27 
REMARK   13  A    between atoms: CA_26  and  C_30 
REMARK       I    between atoms: C_30  and  N_33 
REMARK   14  A    between atoms: N_33  and  CA_34 
REMARK   15  A    between atoms: CA_34  and  CB_35 
REMARK   16  A    between atoms: CA_34  and  C_43 
REMARK   17  A    between atoms: CB_35  and  CG_36 
REMARK   18  A    between atoms: CG_36  and  CD_37 
REMARK   19  A    between atoms: CD_37  and  NE_38 
REMARK       I    between atoms: CZ_40  and  NH1_41 
REMARK       I    between atoms: CZ_40  and  NH2_42 
REMARK       I    between atoms: C_43  and  N_50 
REMARK   20  A    between atoms: N_50  and  CA_51 
REMARK   21  A    between atoms: CA_51  and  CB_52 
REMARK   22  A    between atoms: CA_51  and  C_55 
REMARK   23  A    between atoms: CB_52  and  OG1_54 
REMARK   24  A    between atoms: C_55  and  OXT_57 
ROOT
ATOM      1  CA  VAL A   2     -21.597 -12.125   0.654  1.00  0.00     0.180 C 
ENDROOT
BRANCH   1   2
ATOM      2  N   VAL A   2     -21.434 -10.840  -0.072  1.00  0.00    -0.346 N 
ATOM      3  C   SER A   1     -20.899  -9.692   0.479  1.00  0.00     0.241 C 
ATOM      4  O   SER A   1     -20.509  -9.649   1.645  1.00  0.00    -0.271 OA
ATOM      5  H   VAL A   2     -21.736 -10.839  -1.044  1.00  0.00     0.163 HD
BRANCH   3   6
ATOM      6  CA  SER A   1     -20.747  -8.458  -0.459  1.00  0.00     0.180 C 
BRANCH   6   7
ATOM      7  N   SER A   1     -20.732  -8.950  -1.848  1.00  0.00    -0.346 N 
ATOM      8  C   SER A   1     -19.564  -9.120  -2.580  1.00  0.00     0.241 C 
ATOM      9  O   SER A   1     -18.467  -8.790  -2.128  1.00  0.00    -0.271 OA
ATOM     10  H   SER A   1     -21.613  -9.247  -2.252  1.00  0.00     0.163 HD
BRANCH   8  11
ATOM     11  CA  SER A   1     -19.732  -9.574  -4.062  1.00  0.00     0.180 C 
BRANCH  11  12
ATOM     12  CB  SER A   1     -21.198  -9.433  -4.560  1.00  0.00     0.009 C 
ATOM     13  CG1 SER A   1     -21.542  -7.994  -4.978  1.00  0.00     0.012 C 
ATOM     14  CG2 SER A   1     -21.489 -10.343  -5.765  1.00  0.00     0.012 C 
ENDBRANCH  11  12
BRANCH  11  15
ATOM     15  N   SER A   1     -19.254 -10.959  -4.217  1.00  0.00    -0.346 N 
ATOM     16  C   SER A   1     -17.972 -11.229  -4.655  1.00  0.00     0.243 C 
ATOM     17  O   SER A   1     -17.146 -10.347  -4.879  1.00  0.00    -0.271 OA
ATOM     18  H   SER A   1     -19.810 -11.729  -3.850  1.00  0.00     0.163 HD
BRANCH  16  19
ATOM     19  CA  SER A   1     -17.619 -12.723  -4.732  1.00  0.00     0.200 C 
BRANCH  19  20
ATOM     20  CB  SER A   1     -17.707 -13.360  -3.340  1.00  0.00     0.199 C 
BRANCH  20  21
ATOM     21  OG  SER A   1     -17.407 -12.404  -2.317  1.00  0.00    -0.398 OA
ATOM     22  H   SER A   1     -17.911 -12.669  -1.529  1.00  0.00     0.209 HD
ENDBRANCH  20  21
ENDBRANCH  19  20
BRANCH  19  23
ATOM     23  N   SER A   1     -18.527 -13.404  -5.656  1.00  0.00    -0.346 N 
HETATM   24  C   UNK A   0     -18.201 -13.540  -6.981  1.00  0.00     0.214 C 
HETATM   25  O   UNK A   0     -17.195 -13.033  -7.463  1.00  0.00    -0.274 OA
HETATM   26  C   UNK A   0     -19.137 -14.423  -7.753  1.00  0.00     0.117 C 
ATOM     27  H   SER A   1     -19.512 -13.458  -5.396  1.00  0.00     0.163 HD
ENDBRANCH  19  23
ENDBRANCH  16  19
ENDBRANCH  11  15
ENDBRANCH   8  11
ENDBRANCH   6   7
BRANCH   6  28
ATOM     28  CB  SER A   1     -21.936  -7.485  -0.220  1.00  0.00     0.009 C 
ATOM     29  CG1 SER A   1     -22.302  -6.707  -1.489  1.00  0.00     0.012 C 
ATOM     30  CG2 SER A   1     -23.195  -8.191   0.298  1.00  0.00     0.012 C 
ENDBRANCH   6  28
ENDBRANCH   3   6
ENDBRANCH   1   2
BRANCH   1  31
ATOM     31  CB  VAL A   2     -23.013 -12.721   0.459  1.00  0.00     0.009 C 
ATOM     32  CG1 VAL A   2     -23.555 -13.436   1.697  1.00  0.00     0.012 C 
ATOM     33  CG2 VAL A   2     -24.049 -11.742  -0.097  1.00  0.00     0.012 C 
ENDBRANCH   1  31
BRANCH   1  34
ATOM     34  C   VAL A   2     -20.516 -13.116   0.160  1.00  0.00     0.241 C 
ATOM     35  O   VAL A   2     -19.778 -12.819  -0.791  1.00  0.00    -0.271 OA
ATOM     36  N   ARG A   3     -20.463 -14.337   0.785  1.00  0.00    -0.346 N 
ATOM     37  H   ARG A   3     -21.058 -14.522   1.584  1.00  0.00     0.163 HD
BRANCH  36  38
ATOM     38  CA  ARG A   3     -19.608 -15.452   0.332  1.00  0.00     0.176 C 
BRANCH  38  39
ATOM     39  CB  ARG A   3     -19.604 -15.608  -1.204  1.00  0.00     0.036 C 
BRANCH  39  40
ATOM     40  CG  ARG A   3     -20.666 -16.561  -1.783  1.00  0.00     0.022 C 
BRANCH  40  41
ATOM     41  CD  ARG A   3     -21.526 -15.912  -2.860  1.00  0.00     0.121 C 
BRANCH  41  42
ATOM     42  NE  ARG A   3     -21.922 -14.567  -2.473  1.00  0.00    -0.372 N 
ATOM     43  CZ  ARG A   3     -21.727 -13.629  -3.325  1.00  0.00     0.121 C 
ATOM     44  NH1 ARG A   3     -21.208 -13.647  -4.577  1.00  0.00    -0.279 NA
ATOM     45  NH2 ARG A   3     -22.068 -12.364  -2.999  1.00  0.00    -0.279 NA
ATOM     46 HH11 ARG A   3     -20.630 -14.446  -4.801  1.00  0.00     0.126 HD
ATOM     47 HH12 ARG A   3     -20.688 -12.798  -4.774  1.00  0.00     0.126 HD
ATOM     48 HH21 ARG A   3     -22.595 -12.367  -2.131  1.00  0.00     0.126 HD
ATOM     49 HH22 ARG A   3     -22.581 -11.894  -3.734  1.00  0.00     0.126 HD
ATOM     50  HE  ARG A   3     -22.339 -14.378  -1.562  1.00  0.00     0.161 HD
ENDBRANCH  41  42
ENDBRANCH  40  41
ENDBRANCH  39  40
ENDBRANCH  38  39
BRANCH  38  51
ATOM     51  C   ARG A   3     -18.179 -15.247   0.907  1.00  0.00     0.241 C 
ATOM     52  O   ARG A   3     -17.853 -15.730   1.996  1.00  0.00    -0.271 OA
ATOM     53  N   THR A   4     -17.325 -14.434   0.203  1.00  0.00    -0.343 N 
ATOM     54  H   THR A   4     -17.605 -14.093  -0.716  1.00  0.00     0.163 HD
BRANCH  53  55
ATOM     55  CA  THR A   4     -16.056 -13.854   0.733  1.00  0.00     0.210 C 
BRANCH  55  56
ATOM     56  CB  THR A   4     -14.813 -14.214  -0.117  1.00  0.00     0.147 C 
ATOM     57  CG2 THR A   4     -14.785 -15.657  -0.610  1.00  0.00     0.042 C 
BRANCH  56  58
ATOM     58  OG1 THR A   4     -14.772 -13.460  -1.335  1.00  0.00    -0.393 OA
ATOM     59  HG1 THR A   4     -15.645 -13.518  -1.776  1.00  0.00     0.210 HD
ENDBRANCH  56  58
ENDBRANCH  55  56
BRANCH  55  60
ATOM     60  C   THR A   4     -16.278 -12.336   0.789  1.00  0.00     0.166 C 
ATOM     61  O   THR A   4     -15.356 -11.529   0.788  1.00  0.00    -0.648 OA
BRANCH  60  62
ATOM     62  OXT THR A   4     -17.569 -11.939   0.804  1.00  0.00    -0.775 OA
ATOM     63  HXT THR A   4     -18.116 -12.263   1.546  1.00  0.00     0.167 HD
ENDBRANCH  60  62
ENDBRANCH  55  60
ENDBRANCH  53  55
ENDBRANCH  38  51
ENDBRANCH  36  38
ENDBRANCH   1  34
TORSDOF 24
BEGIN_RES ARG D 557
REMARK  4 active torsions:
REMARK  status: ('A' for Active; 'I' for Inactive)
REMARK    1  A    between atoms: CA   and  CB  
REMARK    2  A    between atoms: CB   and  CG  
REMARK    3  A    between atoms: CG   and  CD  
REMARK    4  A    between atoms: CD   and  NE  
REMARK       I    between atoms: NE   and  CZ  
REMARK       I    between atoms: CZ   and  NH1 
REMARK       I    between atoms: CZ   and  NH2 
ROOT
ATOM      1  CA  ARG D 557     -26.217   2.705 -17.014  1.00 35.49     0.159 C 
ENDROOT
BRANCH   1   2
ATOM      2  CB  ARG D 557     -26.789   1.319 -17.183  1.00 35.49     0.034 C 
BRANCH   2   3
ATOM      3  CG  ARG D 557     -25.852   0.197 -17.050  1.00 35.49     0.027 C 
BRANCH   3   4
ATOM      4  CD  ARG D 557     -25.484  -0.066 -15.640  1.00 35.49     0.116 C 
BRANCH   4   5
ATOM      5  NE  ARG D 557     -25.709  -1.438 -15.267  1.00 35.49    -0.212 N 
ATOM      6  CZ  ARG D 557     -24.964  -2.144 -14.446  1.00 35.49     0.666 C 
ATOM      7  NH1 ARG D 557     -23.884  -1.651 -13.869  1.00 35.49    -0.235 N 
ATOM      8  NH2 ARG D 557     -25.331  -3.369 -14.206  1.00 35.49    -0.235 N 
ATOM      9  HH  ARG D 557     -23.625  -0.847 -14.011  1.00 35.49     0.174 HD
ATOM     10  HH  ARG D 557     -23.439  -2.158 -13.340  1.00 35.49     0.174 HD
ATOM     11  HH  ARG D 557     -26.037  -3.658 -14.587  1.00 35.49     0.174 HD
ATOM     12  HH  ARG D 557     -24.878  -3.854 -13.678  1.00 35.49     0.174 HD
ATOM     13  HE  ARG D 557     -26.343  -1.857 -15.650  1.00 35.49     0.178 HD
ENDBRANCH   4   5
ENDBRANCH   3   4
ENDBRANCH   2   3
ENDBRANCH   1   2
END_RES ARG D 557
BEGIN_RES GLU D 570
REMARK  3 active torsions:
REMARK  status: ('A' for Active; 'I' for Inactive)
REMARK    5  A    between atoms: CA   and  CB  
REMARK    6  A    between atoms: CB   and  CG  
REMARK    7  A    between atoms: CG   and  CD  
ROOT
ATOM     14  CA  GLU D 570     -18.033  -6.348 -13.375  1.00 32.92     0.160 C 
ENDROOT
BRANCH  14  15
ATOM     15  CB  GLU D 570     -19.500  -6.345 -13.794  1.00 32.92     0.043 C 
BRANCH  15  16
ATOM     16  CG  GLU D 570     -20.447  -5.553 -12.967  1.00 32.92     0.100 C 
BRANCH  16  17
ATOM     17  CD  GLU D 570     -21.734  -5.231 -13.689  1.00 32.92     0.185 C 
ATOM     18  OE1 GLU D 570     -22.122  -5.988 -14.600  1.00 32.92    -0.647 OA
ATOM     19  OE2 GLU D 570     -22.352  -4.202 -13.353  1.00 32.92    -0.647 OA
ENDBRANCH  16  17
ENDBRANCH  15  16
ENDBRANCH  14  15
END_RES GLU D 570
ENDMDL
MODEL 9
REMARK VINA RESULT:      -6.2      2.399      6.742
REMARK  24 active torsions:
REMARK  status: ('A' for Active; 'I' for Inactive)
REMARK    1  A    between atoms: CB_2  and  CA_4 
REMARK    2  A    between atoms: CA_4  and  C_5 
REMARK    3  A    between atoms: CA_4  and  N_14 
REMARK       I    between atoms: C_5  and  N_7 
REMARK    4  A    between atoms: N_7  and  CA_8 
REMARK    5  A    between atoms: CA_8  and  CB_9 
REMARK    6  A    between atoms: CA_8  and  C_12 
REMARK       I    between atoms: C_12  and  N_25 
REMARK       I    between atoms: N_14  and  C_15 
REMARK    7  A    between atoms: C_15  and  CA_17 
REMARK    8  A    between atoms: CA_17  and  CB_18 
REMARK    9  A    between atoms: CA_17  and  N_20 
REMARK   10  A    between atoms: CB_18  and  OG_19 
REMARK       I    between atoms: N_20  and  C_61 
REMARK   11  A    between atoms: N_25  and  CA_26 
REMARK   12  A    between atoms: CA_26  and  CB_27 
REMARK   13  A    between atoms: CA_26  and  C_30 
REMARK       I    between atoms: C_30  and  N_33 
REMARK   14  A    between atoms: N_33  and  CA_34 
REMARK   15  A    between atoms: CA_34  and  CB_35 
REMARK   16  A    between atoms: CA_34  and  C_43 
REMARK   17  A    between atoms: CB_35  and  CG_36 
REMARK   18  A    between atoms: CG_36  and  CD_37 
REMARK   19  A    between atoms: CD_37  and  NE_38 
REMARK       I    between atoms: CZ_40  and  NH1_41 
REMARK       I    between atoms: CZ_40  and  NH2_42 
REMARK       I    between atoms: C_43  and  N_50 
REMARK   20  A    between atoms: N_50  and  CA_51 
REMARK   21  A    between atoms: CA_51  and  CB_52 
REMARK   22  A    between atoms: CA_51  and  C_55 
REMARK   23  A    between atoms: CB_52  and  OG1_54 
REMARK   24  A    between atoms: C_55  and  OXT_57 
ROOT
ATOM      1  CA  VAL A   2     -16.656 -13.964  -0.484  1.00  0.00     0.180 C 
ENDROOT
BRANCH   1   2
ATOM      2  N   VAL A   2     -16.889 -12.985  -1.577  1.00  0.00    -0.346 N 
ATOM      3  C   SER A   1     -16.348 -13.083  -2.843  1.00  0.00     0.241 C 
ATOM      4  O   SER A   1     -15.614 -14.014  -3.169  1.00  0.00    -0.271 OA
ATOM      5  H   VAL A   2     -17.502 -12.205  -1.349  1.00  0.00     0.163 HD
BRANCH   3   6
ATOM      6  CA  SER A   1     -16.760 -11.993  -3.878  1.00  0.00     0.180 C 
BRANCH   6   7
ATOM      7  N   SER A   1     -18.125 -11.548  -3.541  1.00  0.00    -0.346 N 
ATOM      8  C   SER A   1     -19.102 -11.310  -4.497  1.00  0.00     0.241 C 
ATOM      9  O   SER A   1     -18.856 -11.383  -5.701  1.00  0.00    -0.271 OA
ATOM     10  H   SER A   1     -18.372 -11.491  -2.559  1.00  0.00     0.163 HD
BRANCH   8  11
ATOM     11  CA  SER A   1     -20.468 -10.769  -3.976  1.00  0.00     0.180 C 
BRANCH  11  12
ATOM     12  CB  SER A   1     -21.550 -11.882  -3.891  1.00  0.00     0.009 C 
ATOM     13  CG1 SER A   1     -22.724 -11.495  -2.977  1.00  0.00     0.012 C 
ATOM     14  CG2 SER A   1     -22.137 -12.224  -5.271  1.00  0.00     0.012 C 
ENDBRANCH  11  12
BRANCH  11  15
ATOM     15  N   SER A   1     -20.922  -9.656  -4.827  1.00  0.00    -0.346 N 
ATOM     16  C   SER A   1     -20.840  -8.345  -4.398  1.00  0.00     0.243 C 
ATOM     17  O   SER A   1     -20.335  -8.029  -3.323  1.00  0.00    -0.271 OA
ATOM     18  H   SER A   1     -21.153  -9.829  -5.804  1.00  0.00     0.163 HD
BRANCH  16  19
ATOM     19  CA  SER A   1     -21.325  -7.301  -5.416  1.00  0.00     0.200 C 
BRANCH  19  20
ATOM     20  CB  SER A   1     -22.540  -6.549  -4.862  1.00  0.00     0.199 C 
BRANCH  20  21
ATOM     21  OG  SER A   1     -22.294  -6.082  -3.531  1.00  0.00    -0.398 OA
ATOM     22  H   SER A   1     -21.748  -6.758  -3.093  1.00  0.00     0.209 HD
ENDBRANCH  20  21
ENDBRANCH  19  20
BRANCH  19  23
ATOM     23  N   SER A   1     -20.246  -6.361  -5.720  1.00  0.00    -0.346 N 
HETATM   24  C   UNK A   0     -20.161  -5.774  -6.957  1.00  0.00     0.214 C 
HETATM   25  O   UNK A   0     -20.919  -6.067  -7.874  1.00  0.00    -0.274 OA
HETATM   26  C   UNK A   0     -19.121  -4.696  -7.051  1.00  0.00     0.117 C 
ATOM     27  H   SER A   1     -19.397  -6.417  -5.157  1.00  0.00     0.163 HD
ENDBRANCH  19  23
ENDBRANCH  16  19
ENDBRANCH  11  15
ENDBRANCH   8  11
ENDBRANCH   6   7
BRANCH   6  28
ATOM     28  CB  SER A   1     -15.750 -10.814  -3.805  1.00  0.00     0.009 C 
ATOM     29  CG1 SER A   1     -15.544 -10.153  -5.173  1.00  0.00     0.012 C 
ATOM     30  CG2 SER A   1     -16.159  -9.732  -2.799  1.00  0.00     0.012 C 
ENDBRANCH   6  28
ENDBRANCH   3   6
ENDBRANCH   1   2
BRANCH   1  31
ATOM     31  CB  VAL A   2     -15.498 -13.525   0.446  1.00  0.00     0.009 C 
ATOM     32  CG1 VAL A   2     -14.124 -14.020  -0.008  1.00  0.00     0.012 C 
ATOM     33  CG2 VAL A   2     -15.458 -12.027   0.754  1.00  0.00     0.012 C 
ENDBRANCH   1  31
BRANCH   1  34
ATOM     34  C   VAL A   2     -17.967 -14.131   0.321  1.00  0.00     0.241 C 
ATOM     35  O   VAL A   2     -18.018 -14.905   1.288  1.00  0.00    -0.271 OA
ATOM     36  N   ARG A   3     -19.060 -13.429  -0.124  1.00  0.00    -0.346 N 
ATOM     37  H   ARG A   3     -18.964 -12.777  -0.893  1.00  0.00     0.163 HD
BRANCH  36  38
ATOM     38  CA  ARG A   3     -20.420 -13.599   0.425  1.00  0.00     0.176 C 
BRANCH  38  39
ATOM     39  CB  ARG A   3     -21.211 -12.274   0.466  1.00  0.00     0.036 C 
BRANCH  39  40
ATOM     40  CG  ARG A   3     -20.364 -10.991   0.539  1.00  0.00     0.022 C 
BRANCH  40  41
ATOM     41  CD  ARG A   3     -20.943  -9.846  -0.283  1.00  0.00     0.121 C 
BRANCH  41  42
ATOM     42  NE  ARG A   3     -22.187  -9.364   0.296  1.00  0.00    -0.372 N 
ATOM     43  CZ  ARG A   3     -22.573  -8.187  -0.037  1.00  0.00     0.121 C 
ATOM     44  NH1 ARG A   3     -22.027  -7.265  -0.868  1.00  0.00    -0.279 NA
ATOM     45  NH2 ARG A   3     -23.715  -7.697   0.489  1.00  0.00    -0.279 NA
ATOM     46 HH11 ARG A   3     -21.041  -7.374  -1.057  1.00  0.00     0.126 HD
ATOM     47 HH12 ARG A   3     -22.198  -6.322  -0.536  1.00  0.00     0.126 HD
ATOM     48 HH21 ARG A   3     -24.204  -8.434   0.987  1.00  0.00     0.126 HD
ATOM     49 HH22 ARG A   3     -24.315  -7.268  -0.205  1.00  0.00     0.126 HD
ATOM     50  HE  ARG A   3     -22.730  -9.938   0.940  1.00  0.00     0.161 HD
ENDBRANCH  41  42
ENDBRANCH  40  41
ENDBRANCH  39  40
ENDBRANCH  38  39
BRANCH  38  51
ATOM     51  C   ARG A   3     -21.152 -14.697  -0.396  1.00  0.00     0.241 C 
ATOM     52  O   ARG A   3     -20.695 -15.106  -1.467  1.00  0.00    -0.271 OA
ATOM     53  N   THR A   4     -22.370 -15.128   0.071  1.00  0.00    -0.343 N 
ATOM     54  H   THR A   4     -22.696 -14.811   0.983  1.00  0.00     0.163 HD
BRANCH  53  55
ATOM     55  CA  THR A   4     -23.365 -15.914  -0.718  1.00  0.00     0.210 C 
BRANCH  55  56
ATOM     56  CB  THR A   4     -24.395 -16.662   0.162  1.00  0.00     0.147 C 
ATOM     57  CG2 THR A   4     -24.451 -16.183   1.610  1.00  0.00     0.042 C 
BRANCH  56  58
ATOM     58  OG1 THR A   4     -25.735 -16.447  -0.297  1.00  0.00    -0.393 OA
ATOM     59  HG1 THR A   4     -26.051 -15.581   0.034  1.00  0.00     0.210 HD
ENDBRANCH  56  58
ENDBRANCH  55  56
BRANCH  55  60
ATOM     60  C   THR A   4     -24.051 -14.906  -1.652  1.00  0.00     0.166 C 
ATOM     61  O   THR A   4     -24.190 -15.102  -2.853  1.00  0.00    -0.648 OA
BRANCH  60  62
ATOM     62  OXT THR A   4     -24.527 -13.793  -1.054  1.00  0.00    -0.775 OA
ATOM     63  HXT THR A   4     -24.427 -12.956  -1.547  1.00  0.00     0.167 HD
ENDBRANCH  60  62
ENDBRANCH  55  60
ENDBRANCH  53  55
ENDBRANCH  38  51
ENDBRANCH  36  38
ENDBRANCH   1  34
TORSDOF 24
BEGIN_RES ARG D 557
REMARK  4 active torsions:
REMARK  status: ('A' for Active; 'I' for Inactive)
REMARK    1  A    between atoms: CA   and  CB  
REMARK    2  A    between atoms: CB   and  CG  
REMARK    3  A    between atoms: CG   and  CD  
REMARK    4  A    between atoms: CD   and  NE  
REMARK       I    between atoms: NE   and  CZ  
REMARK       I    between atoms: CZ   and  NH1 
REMARK       I    between atoms: CZ   and  NH2 
ROOT
ATOM      1  CA  ARG D 557     -26.217   2.705 -17.014  1.00 35.49     0.159 C 
ENDROOT
BRANCH   1   2
ATOM      2  CB  ARG D 557     -26.789   1.319 -17.183  1.00 35.49     0.034 C 
BRANCH   2   3
ATOM      3  CG  ARG D 557     -25.945   0.199 -16.750  1.00 35.49     0.027 C 
BRANCH   3   4
ATOM      4  CD  ARG D 557     -26.712  -0.837 -16.021  1.00 35.49     0.116 C 
BRANCH   4   5
ATOM      5  NE  ARG D 557     -25.883  -1.594 -15.121  1.00 35.49    -0.212 N 
ATOM      6  CZ  ARG D 557     -25.969  -2.886 -14.900  1.00 35.49     0.666 C 
ATOM      7  NH1 ARG D 557     -26.870  -3.649 -15.492  1.00 35.49    -0.235 N 
ATOM      8  NH2 ARG D 557     -25.120  -3.410 -14.065  1.00 35.49    -0.235 N 
ATOM      9  HH  ARG D 557     -27.437  -3.325 -16.047  1.00 35.49     0.174 HD
ATOM     10  HH  ARG D 557     -26.877  -4.486 -15.311  1.00 35.49     0.174 HD
ATOM     11  HH  ARG D 557     -24.545  -2.895 -13.702  1.00 35.49     0.174 HD
ATOM     12  HH  ARG D 557     -25.142  -4.242 -13.899  1.00 35.49     0.174 HD
ATOM     13  HE  ARG D 557     -25.323  -1.169 -14.642  1.00 35.49     0.178 HD
ENDBRANCH   4   5
ENDBRANCH   3   4
ENDBRANCH   2   3
ENDBRANCH   1   2
END_RES ARG D 557
BEGIN_RES GLU D 570
REMARK  3 active torsions:
REMARK  status: ('A' for Active; 'I' for Inactive)
REMARK    5  A    between atoms: CA   and  CB  
REMARK    6  A    between atoms: CB   and  CG  
REMARK    7  A    between atoms: CG   and  CD  
ROOT
ATOM     14  CA  GLU D 570     -18.033  -6.348 -13.375  1.00 32.92     0.160 C 
ENDROOT
BRANCH  14  15
ATOM     15  CB  GLU D 570     -19.500  -6.345 -13.794  1.00 32.92     0.043 C 
BRANCH  15  16
ATOM     16  CG  GLU D 570     -20.443  -5.536 -12.980  1.00 32.92     0.100 C 
BRANCH  16  17
ATOM     17  CD  GLU D 570     -21.729  -5.219 -13.707  1.00 32.92     0.185 C 
ATOM     18  OE1 GLU D 570     -22.329  -4.160 -13.443  1.00 32.92    -0.647 OA
ATOM     19  OE2 GLU D 570     -22.149  -6.048 -14.539  1.00 32.92    -0.647 OA
ENDBRANCH  16  17
ENDBRANCH  15  16
ENDBRANCH  14  15
END_RES GLU D 570
ENDMDL
