MODEL 1
REMARK VINA RESULT:      -9.2      0.000      0.000
REMARK  13 active torsions:
REMARK  status: ('A' for Active; 'I' for Inactive)
REMARK    1  A    between atoms: C_8  and  C_11 
REMARK    2  A    between atoms: C_11  and  C_12 
REMARK    3  A    between atoms: C_12  and  C_13 
REMARK    4  A    between atoms: C_13  and  C_14 
REMARK    5  A    between atoms: C_14  and  C_16 
REMARK    6  A    between atoms: C_16  and  C_17 
REMARK    7  A    between atoms: C_17  and  C_18 
REMARK    8  A    between atoms: C_18  and  C_19 
REMARK    9  A    between atoms: C_19  and  C_21 
REMARK   10  A    between atoms: C_21  and  C_22 
REMARK   11  A    between atoms: C_22  and  C_23 
REMARK   12  A    between atoms: C_23  and  C_24 
REMARK   13  A    between atoms: C_28  and  O_29 
ROOT
HETATM    1  C   UNL     1     -19.383 -11.633  -0.684  1.00  0.00     0.052 C 
HETATM    2  C   UNL     1     -19.986 -10.322  -1.122  1.00  0.00    -0.020 A 
HETATM    3  C   UNL     1     -19.725  -9.709  -2.361  1.00  0.00    -0.019 A 
HETATM    4  C   UNL     1     -20.376  -8.492  -2.676  1.00  0.00     0.083 A 
HETATM    5  C   UNL     1     -21.232  -7.851  -1.759  1.00  0.00    -0.015 A 
HETATM    6  C   UNL     1     -21.857  -6.526  -2.112  1.00  0.00     0.045 C 
HETATM    7  C   UNL     1     -21.212  -5.908  -3.332  1.00  0.00     0.043 C 
HETATM    8  C   UNL     1     -20.988  -6.961  -4.421  1.00  0.00     0.064 C 
HETATM    9  O   UNL     1     -20.118  -7.995  -3.931  1.00  0.00    -0.339 OA
HETATM   10  C   UNL     1     -22.297  -7.603  -4.914  1.00  0.00     0.046 C 
HETATM   11  C   UNL     1     -21.522  -8.475  -0.530  1.00  0.00    -0.019 A 
HETATM   12  C   UNL     1     -20.887  -9.695  -0.234  1.00  0.00     0.078 A 
HETATM   13  C   UNL     1     -22.496  -7.867   0.446  1.00  0.00     0.052 C 
HETATM   14  C   UNL     1     -18.775 -10.279  -3.392  1.00  0.00     0.052 C 
ENDROOT
BRANCH   8  15
HETATM   15  C   UNL     1     -20.281  -6.313  -5.639  1.00  0.00     0.038 C 
BRANCH  15  16
HETATM   16  C   UNL     1     -20.353  -4.785  -5.607  1.00  0.00     0.003 C 
BRANCH  16  17
HETATM   17  C   UNL     1     -21.087  -4.203  -6.806  1.00  0.00     0.004 C 
BRANCH  17  18
HETATM   18  C   UNL     1     -20.107  -3.917  -7.967  1.00  0.00    -0.019 C 
HETATM   19  C   UNL     1     -18.658  -4.224  -7.576  1.00  0.00     0.010 C 
BRANCH  18  20
HETATM   20  C   UNL     1     -20.484  -4.714  -9.224  1.00  0.00     0.004 C 
BRANCH  20  21
HETATM   21  C   UNL     1     -20.449  -3.837 -10.477  1.00  0.00     0.001 C 
BRANCH  21  22
HETATM   22  C   UNL     1     -21.839  -3.334 -10.836  1.00  0.00     0.004 C 
BRANCH  22  23
HETATM   23  C   UNL     1     -22.955  -4.245 -10.288  1.00  0.00    -0.019 C 
HETATM   24  C   UNL     1     -24.090  -3.431  -9.659  1.00  0.00     0.010 C 
BRANCH  23  25
HETATM   25  C   UNL     1     -23.512  -5.162 -11.395  1.00  0.00     0.004 C 
BRANCH  25  26
HETATM   26  C   UNL     1     -23.020  -4.740 -12.782  1.00  0.00     0.001 C 
BRANCH  26  27
HETATM   27  C   UNL     1     -24.141  -4.200 -13.666  1.00  0.00     0.004 C 
BRANCH  27  28
HETATM   28  C   UNL     1     -23.994  -2.688 -13.920  1.00  0.00    -0.023 C 
HETATM   29  C   UNL     1     -22.878  -2.368 -14.921  1.00  0.00     0.009 C 
HETATM   30  C   UNL     1     -25.319  -2.111 -14.411  1.00  0.00     0.009 C 
ENDBRANCH  27  28
ENDBRANCH  26  27
ENDBRANCH  25  26
ENDBRANCH  23  25
ENDBRANCH  22  23
ENDBRANCH  21  22
ENDBRANCH  20  21
ENDBRANCH  18  20
ENDBRANCH  17  18
ENDBRANCH  16  17
ENDBRANCH  15  16
ENDBRANCH   8  15
BRANCH  12  31
HETATM   31  O   UNL     1     -21.123 -10.347   0.953  1.00  0.00    -0.360 OA
HETATM   32  H   UNL     1     -22.070 -10.510   1.059  1.00  0.00     0.217 HD
ENDBRANCH  12  31
TORSDOF 13
BEGIN_RES ARG D 557
REMARK  4 active torsions:
REMARK  status: ('A' for Active; 'I' for Inactive)
REMARK    1  A    between atoms: CA   and  CB  
REMARK    2  A    between atoms: CB   and  CG  
REMARK    3  A    between atoms: CG   and  CD  
REMARK    4  A    between atoms: CD   and  NE  
REMARK       I    between atoms: NE   and  CZ  
REMARK       I    between atoms: CZ   and  NH1 
REMARK       I    between atoms: CZ   and  NH2 
ROOT
ATOM      1  CA  ARG D 557     -26.217   2.705 -17.014  1.00 35.49     0.159 C 
ENDROOT
BRANCH   1   2
ATOM      2  CB  ARG D 557     -26.789   1.319 -17.183  1.00 35.49     0.034 C 
BRANCH   2   3
ATOM      3  CG  ARG D 557     -28.196   1.230 -17.592  1.00 35.49     0.027 C 
BRANCH   3   4
ATOM      4  CD  ARG D 557     -28.970   0.290 -16.750  1.00 35.49     0.116 C 
BRANCH   4   5
ATOM      5  NE  ARG D 557     -28.265  -0.945 -16.527  1.00 35.49    -0.212 N 
ATOM      6  CZ  ARG D 557     -28.655  -2.135 -16.924  1.00 35.49     0.666 C 
ATOM      7  NH1 ARG D 557     -29.784  -2.329 -17.580  1.00 35.49    -0.235 N 
ATOM      8  NH2 ARG D 557     -27.879  -3.143 -16.653  1.00 35.49    -0.235 N 
ATOM      9  HH  ARG D 557     -30.310  -1.679 -17.772  1.00 35.49     0.174 HD
ATOM     10  HH  ARG D 557     -29.986  -3.127 -17.816  1.00 35.49     0.174 HD
ATOM     11  HH  ARG D 557     -27.152  -2.988 -16.234  1.00 35.49     0.174 HD
ATOM     12  HH  ARG D 557     -28.095  -3.926 -16.896  1.00 35.49     0.174 HD
ATOM     13  HE  ARG D 557     -27.562  -0.923 -16.048  1.00 35.49     0.178 HD
ENDBRANCH   4   5
ENDBRANCH   3   4
ENDBRANCH   2   3
ENDBRANCH   1   2
END_RES ARG D 557
BEGIN_RES GLU D 570
REMARK  3 active torsions:
REMARK  status: ('A' for Active; 'I' for Inactive)
REMARK    5  A    between atoms: CA   and  CB  
REMARK    6  A    between atoms: CB   and  CG  
REMARK    7  A    between atoms: CG   and  CD  
ROOT
ATOM     14  CA  GLU D 570     -18.033  -6.348 -13.375  1.00 32.92     0.160 C 
ENDROOT
BRANCH  14  15
ATOM     15  CB  GLU D 570     -19.500  -6.345 -13.794  1.00 32.92     0.043 C 
BRANCH  15  16
ATOM     16  CG  GLU D 570     -19.804  -6.060 -15.220  1.00 32.92     0.100 C 
BRANCH  16  17
ATOM     17  CD  GLU D 570     -21.263  -6.253 -15.562  1.00 32.92     0.185 C 
ATOM     18  OE1 GLU D 570     -21.876  -7.221 -15.073  1.00 32.92    -0.647 OA
ATOM     19  OE2 GLU D 570     -21.794  -5.437 -16.340  1.00 32.92    -0.647 OA
ENDBRANCH  16  17
ENDBRANCH  15  16
ENDBRANCH  14  15
END_RES GLU D 570
ENDMDL
MODEL 2
REMARK VINA RESULT:      -8.8      1.537      2.583
REMARK  13 active torsions:
REMARK  status: ('A' for Active; 'I' for Inactive)
REMARK    1  A    between atoms: C_8  and  C_11 
REMARK    2  A    between atoms: C_11  and  C_12 
REMARK    3  A    between atoms: C_12  and  C_13 
REMARK    4  A    between atoms: C_13  and  C_14 
REMARK    5  A    between atoms: C_14  and  C_16 
REMARK    6  A    between atoms: C_16  and  C_17 
REMARK    7  A    between atoms: C_17  and  C_18 
REMARK    8  A    between atoms: C_18  and  C_19 
REMARK    9  A    between atoms: C_19  and  C_21 
REMARK   10  A    between atoms: C_21  and  C_22 
REMARK   11  A    between atoms: C_22  and  C_23 
REMARK   12  A    between atoms: C_23  and  C_24 
REMARK   13  A    between atoms: C_28  and  O_29 
ROOT
HETATM    1  C   UNL     1     -23.180  -8.169   0.781  1.00  0.00     0.052 C 
HETATM    2  C   UNL     1     -22.709  -8.784  -0.513  1.00  0.00    -0.020 A 
HETATM    3  C   UNL     1     -22.012  -8.082  -1.513  1.00  0.00    -0.019 A 
HETATM    4  C   UNL     1     -21.591  -8.774  -2.673  1.00  0.00     0.083 A 
HETATM    5  C   UNL     1     -21.902 -10.132  -2.879  1.00  0.00    -0.015 A 
HETATM    6  C   UNL     1     -21.486 -10.816  -4.156  1.00  0.00     0.045 C 
HETATM    7  C   UNL     1     -21.036  -9.822  -5.203  1.00  0.00     0.043 C 
HETATM    8  C   UNL     1     -20.138  -8.748  -4.584  1.00  0.00     0.064 C 
HETATM    9  O   UNL     1     -20.859  -8.032  -3.568  1.00  0.00    -0.339 OA
HETATM   10  C   UNL     1     -18.850  -9.325  -3.966  1.00  0.00     0.046 C 
HETATM   11  C   UNL     1     -22.572 -10.850  -1.868  1.00  0.00    -0.019 A 
HETATM   12  C   UNL     1     -22.968 -10.158  -0.709  1.00  0.00     0.078 A 
HETATM   13  C   UNL     1     -22.851 -12.324  -2.009  1.00  0.00     0.052 C 
HETATM   14  C   UNL     1     -21.681  -6.608  -1.422  1.00  0.00     0.052 C 
ENDROOT
BRANCH   8  15
HETATM   15  C   UNL     1     -19.731  -7.716  -5.666  1.00  0.00     0.038 C 
BRANCH  15  16
HETATM   16  C   UNL     1     -20.843  -6.704  -5.950  1.00  0.00     0.003 C 
BRANCH  16  17
HETATM   17  C   UNL     1     -20.602  -5.358  -5.284  1.00  0.00     0.004 C 
BRANCH  17  18
HETATM   18  C   UNL     1     -20.279  -4.272  -6.336  1.00  0.00    -0.019 C 
HETATM   19  C   UNL     1     -19.248  -4.761  -7.359  1.00  0.00     0.010 C 
BRANCH  18  20
HETATM   20  C   UNL     1     -21.547  -3.803  -7.062  1.00  0.00     0.004 C 
BRANCH  20  21
HETATM   21  C   UNL     1     -21.444  -4.023  -8.572  1.00  0.00     0.001 C 
BRANCH  21  22
HETATM   22  C   UNL     1     -22.630  -4.818  -9.096  1.00  0.00     0.004 C 
BRANCH  22  23
HETATM   23  C   UNL     1     -23.201  -4.233 -10.403  1.00  0.00    -0.019 C 
HETATM   24  C   UNL     1     -24.461  -3.401 -10.147  1.00  0.00     0.010 C 
BRANCH  23  25
HETATM   25  C   UNL     1     -22.144  -3.381 -11.134  1.00  0.00     0.004 C 
BRANCH  25  26
HETATM   26  C   UNL     1     -22.011  -3.781 -12.606  1.00  0.00     0.001 C 
BRANCH  26  27
HETATM   27  C   UNL     1     -22.827  -2.888 -13.536  1.00  0.00     0.004 C 
BRANCH  27  28
HETATM   28  C   UNL     1     -23.922  -3.679 -14.277  1.00  0.00    -0.023 C 
HETATM   29  C   UNL     1     -23.786  -5.192 -14.078  1.00  0.00     0.009 C 
HETATM   30  C   UNL     1     -25.301  -3.212 -13.819  1.00  0.00     0.009 C 
ENDBRANCH  27  28
ENDBRANCH  26  27
ENDBRANCH  25  26
ENDBRANCH  23  25
ENDBRANCH  22  23
ENDBRANCH  21  22
ENDBRANCH  20  21
ENDBRANCH  18  20
ENDBRANCH  17  18
ENDBRANCH  16  17
ENDBRANCH  15  16
ENDBRANCH   8  15
BRANCH  12  31
HETATM   31  O   UNL     1     -23.633 -10.802   0.308  1.00  0.00    -0.360 OA
HETATM   32  H   UNL     1     -24.589 -10.727   0.179  1.00  0.00     0.217 HD
ENDBRANCH  12  31
TORSDOF 13
BEGIN_RES ARG D 557
REMARK  4 active torsions:
REMARK  status: ('A' for Active; 'I' for Inactive)
REMARK    1  A    between atoms: CA   and  CB  
REMARK    2  A    between atoms: CB   and  CG  
REMARK    3  A    between atoms: CG   and  CD  
REMARK    4  A    between atoms: CD   and  NE  
REMARK       I    between atoms: NE   and  CZ  
REMARK       I    between atoms: CZ   and  NH1 
REMARK       I    between atoms: CZ   and  NH2 
ROOT
ATOM      1  CA  ARG D 557     -26.217   2.705 -17.014  1.00 35.49     0.159 C 
ENDROOT
BRANCH   1   2
ATOM      2  CB  ARG D 557     -26.789   1.319 -17.183  1.00 35.49     0.034 C 
BRANCH   2   3
ATOM      3  CG  ARG D 557     -25.947   0.199 -16.745  1.00 35.49     0.027 C 
BRANCH   3   4
ATOM      4  CD  ARG D 557     -26.727  -0.861 -16.066  1.00 35.49     0.116 C 
BRANCH   4   5
ATOM      5  NE  ARG D 557     -27.976  -1.125 -16.729  1.00 35.49    -0.212 N 
ATOM      6  CZ  ARG D 557     -28.492  -2.313 -16.953  1.00 35.49     0.666 C 
ATOM      7  NH1 ARG D 557     -27.886  -3.428 -16.590  1.00 35.49    -0.235 N 
ATOM      8  NH2 ARG D 557     -29.647  -2.363 -17.550  1.00 35.49    -0.235 N 
ATOM      9  HH  ARG D 557     -27.127  -3.418 -16.194  1.00 35.49     0.174 HD
ATOM     10  HH  ARG D 557     -28.272  -4.174 -16.759  1.00 35.49     0.174 HD
ATOM     11  HH  ARG D 557     -30.019  -1.626 -17.766  1.00 35.49     0.174 HD
ATOM     12  HH  ARG D 557     -30.013  -3.112 -17.707  1.00 35.49     0.174 HD
ATOM     13  HE  ARG D 557     -28.399  -0.466 -17.061  1.00 35.49     0.178 HD
ENDBRANCH   4   5
ENDBRANCH   3   4
ENDBRANCH   2   3
ENDBRANCH   1   2
END_RES ARG D 557
BEGIN_RES GLU D 570
REMARK  3 active torsions:
REMARK  status: ('A' for Active; 'I' for Inactive)
REMARK    5  A    between atoms: CA   and  CB  
REMARK    6  A    between atoms: CB   and  CG  
REMARK    7  A    between atoms: CG   and  CD  
ROOT
ATOM     14  CA  GLU D 570     -18.033  -6.348 -13.375  1.00 32.92     0.160 C 
ENDROOT
BRANCH  14  15
ATOM     15  CB  GLU D 570     -19.500  -6.345 -13.794  1.00 32.92     0.043 C 
BRANCH  15  16
ATOM     16  CG  GLU D 570     -19.805  -6.038 -15.215  1.00 32.92     0.100 C 
BRANCH  16  17
ATOM     17  CD  GLU D 570     -20.699  -7.069 -15.862  1.00 32.92     0.185 C 
ATOM     18  OE1 GLU D 570     -20.744  -8.218 -15.382  1.00 32.92    -0.647 OA
ATOM     19  OE2 GLU D 570     -21.350  -6.730 -16.870  1.00 32.92    -0.647 OA
ENDBRANCH  16  17
ENDBRANCH  15  16
ENDBRANCH  14  15
END_RES GLU D 570
ENDMDL
MODEL 3
REMARK VINA RESULT:      -8.7      2.852      6.555
REMARK  13 active torsions:
REMARK  status: ('A' for Active; 'I' for Inactive)
REMARK    1  A    between atoms: C_8  and  C_11 
REMARK    2  A    between atoms: C_11  and  C_12 
REMARK    3  A    between atoms: C_12  and  C_13 
REMARK    4  A    between atoms: C_13  and  C_14 
REMARK    5  A    between atoms: C_14  and  C_16 
REMARK    6  A    between atoms: C_16  and  C_17 
REMARK    7  A    between atoms: C_17  and  C_18 
REMARK    8  A    between atoms: C_18  and  C_19 
REMARK    9  A    between atoms: C_19  and  C_21 
REMARK   10  A    between atoms: C_21  and  C_22 
REMARK   11  A    between atoms: C_22  and  C_23 
REMARK   12  A    between atoms: C_23  and  C_24 
REMARK   13  A    between atoms: C_28  and  O_29 
ROOT
HETATM    1  C   UNL     1     -19.810 -13.045  -8.279  1.00  0.00     0.052 C 
HETATM    2  C   UNL     1     -19.027 -12.345  -7.197  1.00  0.00    -0.020 A 
HETATM    3  C   UNL     1     -19.612 -11.610  -6.149  1.00  0.00    -0.019 A 
HETATM    4  C   UNL     1     -18.775 -11.023  -5.170  1.00  0.00     0.083 A 
HETATM    5  C   UNL     1     -17.372 -11.106  -5.250  1.00  0.00    -0.015 A 
HETATM    6  C   UNL     1     -16.516 -10.415  -4.219  1.00  0.00     0.045 C 
HETATM    7  C   UNL     1     -17.320  -9.445  -3.383  1.00  0.00     0.043 C 
HETATM    8  C   UNL     1     -18.662 -10.059  -2.975  1.00  0.00     0.064 C 
HETATM    9  O   UNL     1     -19.429 -10.381  -4.146  1.00  0.00    -0.339 OA
HETATM   10  C   UNL     1     -18.505 -11.327  -2.117  1.00  0.00     0.046 C 
HETATM   11  C   UNL     1     -16.780 -11.866  -6.278  1.00  0.00    -0.019 A 
HETATM   12  C   UNL     1     -17.621 -12.464  -7.235  1.00  0.00     0.078 A 
HETATM   13  C   UNL     1     -15.286 -12.052  -6.353  1.00  0.00     0.052 C 
HETATM   14  C   UNL     1     -21.105 -11.406  -6.005  1.00  0.00     0.052 C 
ENDROOT
BRANCH   8  15
HETATM   15  C   UNL     1     -19.486  -9.027  -2.162  1.00  0.00     0.038 C 
BRANCH  15  16
HETATM   16  C   UNL     1     -20.546  -9.695  -1.284  1.00  0.00     0.003 C 
BRANCH  16  17
HETATM   17  C   UNL     1     -21.945  -9.148  -1.529  1.00  0.00     0.004 C 
BRANCH  17  18
HETATM   18  C   UNL     1     -22.343  -8.137  -0.429  1.00  0.00    -0.019 C 
HETATM   19  C   UNL     1     -21.664  -8.456   0.907  1.00  0.00     0.010 C 
BRANCH  18  20
HETATM   20  C   UNL     1     -22.013  -6.698  -0.847  1.00  0.00     0.004 C 
BRANCH  20  21
HETATM   21  C   UNL     1     -22.473  -6.408  -2.276  1.00  0.00     0.001 C 
BRANCH  21  22
HETATM   22  C   UNL     1     -21.288  -6.157  -3.197  1.00  0.00     0.004 C 
BRANCH  22  23
HETATM   23  C   UNL     1     -21.439  -6.867  -4.557  1.00  0.00    -0.019 C 
HETATM   24  C   UNL     1     -22.736  -6.462  -5.265  1.00  0.00     0.010 C 
BRANCH  23  25
HETATM   25  C   UNL     1     -20.228  -6.579  -5.467  1.00  0.00     0.004 C 
BRANCH  25  26
HETATM   26  C   UNL     1     -20.126  -5.093  -5.823  1.00  0.00     0.001 C 
BRANCH  26  27
HETATM   27  C   UNL     1     -19.385  -4.851  -7.135  1.00  0.00     0.004 C 
BRANCH  27  28
HETATM   28  C   UNL     1     -20.158  -3.894  -8.062  1.00  0.00    -0.023 C 
HETATM   29  C   UNL     1     -20.298  -4.444  -9.485  1.00  0.00     0.009 C 
HETATM   30  C   UNL     1     -21.537  -3.602  -7.476  1.00  0.00     0.009 C 
ENDBRANCH  27  28
ENDBRANCH  26  27
ENDBRANCH  25  26
ENDBRANCH  23  25
ENDBRANCH  22  23
ENDBRANCH  21  22
ENDBRANCH  20  21
ENDBRANCH  18  20
ENDBRANCH  17  18
ENDBRANCH  16  17
ENDBRANCH  15  16
ENDBRANCH   8  15
BRANCH  12  31
HETATM   31  O   UNL     1     -17.102 -13.210  -8.266  1.00  0.00    -0.360 OA
HETATM   32  H   UNL     1     -17.440 -12.886  -9.112  1.00  0.00     0.217 HD
ENDBRANCH  12  31
TORSDOF 13
BEGIN_RES ARG D 557
REMARK  4 active torsions:
REMARK  status: ('A' for Active; 'I' for Inactive)
REMARK    1  A    between atoms: CA   and  CB  
REMARK    2  A    between atoms: CB   and  CG  
REMARK    3  A    between atoms: CG   and  CD  
REMARK    4  A    between atoms: CD   and  NE  
REMARK       I    between atoms: NE   and  CZ  
REMARK       I    between atoms: CZ   and  NH1 
REMARK       I    between atoms: CZ   and  NH2 
ROOT
ATOM      1  CA  ARG D 557     -26.217   2.705 -17.014  1.00 35.49     0.159 C 
ENDROOT
BRANCH   1   2
ATOM      2  CB  ARG D 557     -26.789   1.319 -17.183  1.00 35.49     0.034 C 
BRANCH   2   3
ATOM      3  CG  ARG D 557     -25.843   0.199 -17.101  1.00 35.49     0.027 C 
BRANCH   3   4
ATOM      4  CD  ARG D 557     -24.763   0.444 -16.119  1.00 35.49     0.116 C 
BRANCH   4   5
ATOM      5  NE  ARG D 557     -24.860  -0.428 -14.978  1.00 35.49    -0.212 N 
ATOM      6  CZ  ARG D 557     -24.031  -1.405 -14.685  1.00 35.49     0.666 C 
ATOM      7  NH1 ARG D 557     -22.994  -1.707 -15.444  1.00 35.49    -0.235 N 
ATOM      8  NH2 ARG D 557     -24.261  -2.081 -13.597  1.00 35.49    -0.235 N 
ATOM      9  HH  ARG D 557     -22.823  -1.274 -16.163  1.00 35.49     0.174 HD
ATOM     10  HH  ARG D 557     -22.487  -2.353 -15.201  1.00 35.49     0.174 HD
ATOM     11  HH  ARG D 557     -24.934  -1.859 -13.122  1.00 35.49     0.174 HD
ATOM     12  HH  ARG D 557     -23.746  -2.716 -13.373  1.00 35.49     0.174 HD
ATOM     13  HE  ARG D 557     -25.540  -0.351 -14.473  1.00 35.49     0.178 HD
ENDBRANCH   4   5
ENDBRANCH   3   4
ENDBRANCH   2   3
ENDBRANCH   1   2
END_RES ARG D 557
BEGIN_RES GLU D 570
REMARK  3 active torsions:
REMARK  status: ('A' for Active; 'I' for Inactive)
REMARK    5  A    between atoms: CA   and  CB  
REMARK    6  A    between atoms: CB   and  CG  
REMARK    7  A    between atoms: CG   and  CD  
ROOT
ATOM     14  CA  GLU D 570     -18.033  -6.348 -13.375  1.00 32.92     0.160 C 
ENDROOT
BRANCH  14  15
ATOM     15  CB  GLU D 570     -19.500  -6.345 -13.794  1.00 32.92     0.043 C 
BRANCH  15  16
ATOM     16  CG  GLU D 570     -20.440  -5.520 -12.991  1.00 32.92     0.100 C 
BRANCH  16  17
ATOM     17  CD  GLU D 570     -21.730  -5.221 -13.718  1.00 32.92     0.185 C 
ATOM     18  OE1 GLU D 570     -22.336  -4.162 -13.464  1.00 32.92    -0.647 OA
ATOM     19  OE2 GLU D 570     -22.149  -6.063 -14.537  1.00 32.92    -0.647 OA
ENDBRANCH  16  17
ENDBRANCH  15  16
ENDBRANCH  14  15
END_RES GLU D 570
ENDMDL
MODEL 4
REMARK VINA RESULT:      -8.7      2.253      6.234
REMARK  13 active torsions:
REMARK  status: ('A' for Active; 'I' for Inactive)
REMARK    1  A    between atoms: C_8  and  C_11 
REMARK    2  A    between atoms: C_11  and  C_12 
REMARK    3  A    between atoms: C_12  and  C_13 
REMARK    4  A    between atoms: C_13  and  C_14 
REMARK    5  A    between atoms: C_14  and  C_16 
REMARK    6  A    between atoms: C_16  and  C_17 
REMARK    7  A    between atoms: C_17  and  C_18 
REMARK    8  A    between atoms: C_18  and  C_19 
REMARK    9  A    between atoms: C_19  and  C_21 
REMARK   10  A    between atoms: C_21  and  C_22 
REMARK   11  A    between atoms: C_22  and  C_23 
REMARK   12  A    between atoms: C_23  and  C_24 
REMARK   13  A    between atoms: C_28  and  O_29 
ROOT
HETATM    1  C   UNL     1     -17.518  -9.673  -6.052  1.00  0.00     0.052 C 
HETATM    2  C   UNL     1     -18.622 -10.537  -5.496  1.00  0.00    -0.020 A 
HETATM    3  C   UNL     1     -19.124 -10.430  -4.187  1.00  0.00    -0.019 A 
HETATM    4  C   UNL     1     -20.187 -11.276  -3.787  1.00  0.00     0.083 A 
HETATM    5  C   UNL     1     -20.714 -12.259  -4.646  1.00  0.00    -0.015 A 
HETATM    6  C   UNL     1     -21.805 -13.178  -4.160  1.00  0.00     0.045 C 
HETATM    7  C   UNL     1     -21.974 -13.102  -2.659  1.00  0.00     0.043 C 
HETATM    8  C   UNL     1     -21.929 -11.650  -2.179  1.00  0.00     0.064 C 
HETATM    9  O   UNL     1     -20.663 -11.061  -2.515  1.00  0.00    -0.339 OA
HETATM   10  C   UNL     1     -23.054 -10.785  -2.776  1.00  0.00     0.046 C 
HETATM   11  C   UNL     1     -20.238 -12.351  -5.969  1.00  0.00    -0.019 A 
HETATM   12  C   UNL     1     -19.196 -11.492  -6.364  1.00  0.00     0.078 A 
HETATM   13  C   UNL     1     -20.831 -13.331  -6.948  1.00  0.00     0.052 C 
HETATM   14  C   UNL     1     -18.588  -9.453  -3.163  1.00  0.00     0.052 C 
ENDROOT
BRANCH   8  15
HETATM   15  C   UNL     1     -22.055 -11.603  -0.634  1.00  0.00     0.038 C 
BRANCH  15  16
HETATM   16  C   UNL     1     -20.854 -10.922   0.025  1.00  0.00     0.003 C 
BRANCH  16  17
HETATM   17  C   UNL     1     -21.226  -9.632   0.741  1.00  0.00     0.004 C 
BRANCH  17  18
HETATM   18  C   UNL     1     -22.088  -8.726  -0.168  1.00  0.00    -0.019 C 
HETATM   19  C   UNL     1     -23.087  -7.894   0.642  1.00  0.00     0.010 C 
BRANCH  18  20
HETATM   20  C   UNL     1     -21.213  -7.797  -1.021  1.00  0.00     0.004 C 
BRANCH  20  21
HETATM   21  C   UNL     1     -22.055  -6.766  -1.775  1.00  0.00     0.001 C 
BRANCH  21  22
HETATM   22  C   UNL     1     -21.322  -6.248  -3.004  1.00  0.00     0.004 C 
BRANCH  22  23
HETATM   23  C   UNL     1     -21.674  -7.043  -4.278  1.00  0.00    -0.019 C 
HETATM   24  C   UNL     1     -22.894  -6.452  -4.992  1.00  0.00     0.010 C 
BRANCH  23  25
HETATM   25  C   UNL     1     -20.473  -7.099  -5.242  1.00  0.00     0.004 C 
BRANCH  25  26
HETATM   26  C   UNL     1     -20.119  -5.713  -5.790  1.00  0.00     0.001 C 
BRANCH  26  27
HETATM   27  C   UNL     1     -19.969  -5.700  -7.308  1.00  0.00     0.004 C 
BRANCH  27  28
HETATM   28  C   UNL     1     -20.272  -4.311  -7.903  1.00  0.00    -0.023 C 
HETATM   29  C   UNL     1     -20.288  -4.322  -9.435  1.00  0.00     0.009 C 
HETATM   30  C   UNL     1     -21.605  -3.796  -7.369  1.00  0.00     0.009 C 
ENDBRANCH  27  28
ENDBRANCH  26  27
ENDBRANCH  25  26
ENDBRANCH  23  25
ENDBRANCH  22  23
ENDBRANCH  21  22
ENDBRANCH  20  21
ENDBRANCH  18  20
ENDBRANCH  17  18
ENDBRANCH  16  17
ENDBRANCH  15  16
ENDBRANCH   8  15
BRANCH  12  31
HETATM   31  O   UNL     1     -18.683 -11.540  -7.639  1.00  0.00    -0.360 OA
HETATM   32  H   UNL     1     -19.300 -11.128  -8.260  1.00  0.00     0.217 HD
ENDBRANCH  12  31
TORSDOF 13
BEGIN_RES ARG D 557
REMARK  4 active torsions:
REMARK  status: ('A' for Active; 'I' for Inactive)
REMARK    1  A    between atoms: CA   and  CB  
REMARK    2  A    between atoms: CB   and  CG  
REMARK    3  A    between atoms: CG   and  CD  
REMARK    4  A    between atoms: CD   and  NE  
REMARK       I    between atoms: NE   and  CZ  
REMARK       I    between atoms: CZ   and  NH1 
REMARK       I    between atoms: CZ   and  NH2 
ROOT
ATOM      1  CA  ARG D 557     -26.217   2.705 -17.014  1.00 35.49     0.159 C 
ENDROOT
BRANCH   1   2
ATOM      2  CB  ARG D 557     -26.789   1.319 -17.183  1.00 35.49     0.034 C 
BRANCH   2   3
ATOM      3  CG  ARG D 557     -28.233   1.226 -17.428  1.00 35.49     0.027 C 
BRANCH   3   4
ATOM      4  CD  ARG D 557     -28.906   0.299 -16.488  1.00 35.49     0.116 C 
BRANCH   4   5
ATOM      5  NE  ARG D 557     -29.332  -0.914 -17.135  1.00 35.49    -0.212 N 
ATOM      6  CZ  ARG D 557     -28.729  -2.079 -17.055  1.00 35.49     0.666 C 
ATOM      7  NH1 ARG D 557     -27.622  -2.259 -16.358  1.00 35.49    -0.235 N 
ATOM      8  NH2 ARG D 557     -29.268  -3.079 -17.690  1.00 35.49    -0.235 N 
ATOM      9  HH  ARG D 557     -27.252  -1.616 -15.930  1.00 35.49     0.174 HD
ATOM     10  HH  ARG D 557     -27.275  -3.042 -16.339  1.00 35.49     0.174 HD
ATOM     11  HH  ARG D 557     -29.987  -2.935 -18.126  1.00 35.49     0.174 HD
ATOM     12  HH  ARG D 557     -28.910  -3.847 -17.659  1.00 35.49     0.174 HD
ATOM     13  HE  ARG D 557     -29.996  -0.873 -17.664  1.00 35.49     0.178 HD
ENDBRANCH   4   5
ENDBRANCH   3   4
ENDBRANCH   2   3
ENDBRANCH   1   2
END_RES ARG D 557
BEGIN_RES GLU D 570
REMARK  3 active torsions:
REMARK  status: ('A' for Active; 'I' for Inactive)
REMARK    5  A    between atoms: CA   and  CB  
REMARK    6  A    between atoms: CB   and  CG  
REMARK    7  A    between atoms: CG   and  CD  
ROOT
ATOM     14  CA  GLU D 570     -18.033  -6.348 -13.375  1.00 32.92     0.160 C 
ENDROOT
BRANCH  14  15
ATOM     15  CB  GLU D 570     -19.500  -6.345 -13.794  1.00 32.92     0.043 C 
BRANCH  15  16
ATOM     16  CG  GLU D 570     -20.443  -5.535 -12.980  1.00 32.92     0.100 C 
BRANCH  16  17
ATOM     17  CD  GLU D 570     -21.739  -5.240 -13.699  1.00 32.92     0.185 C 
ATOM     18  OE1 GLU D 570     -22.271  -4.123 -13.554  1.00 32.92    -0.647 OA
ATOM     19  OE2 GLU D 570     -22.236  -6.142 -14.401  1.00 32.92    -0.647 OA
ENDBRANCH  16  17
ENDBRANCH  15  16
ENDBRANCH  14  15
END_RES GLU D 570
ENDMDL
MODEL 5
REMARK VINA RESULT:      -8.5      2.916      7.576
REMARK  13 active torsions:
REMARK  status: ('A' for Active; 'I' for Inactive)
REMARK    1  A    between atoms: C_8  and  C_11 
REMARK    2  A    between atoms: C_11  and  C_12 
REMARK    3  A    between atoms: C_12  and  C_13 
REMARK    4  A    between atoms: C_13  and  C_14 
REMARK    5  A    between atoms: C_14  and  C_16 
REMARK    6  A    between atoms: C_16  and  C_17 
REMARK    7  A    between atoms: C_17  and  C_18 
REMARK    8  A    between atoms: C_18  and  C_19 
REMARK    9  A    between atoms: C_19  and  C_21 
REMARK   10  A    between atoms: C_21  and  C_22 
REMARK   11  A    between atoms: C_22  and  C_23 
REMARK   12  A    between atoms: C_23  and  C_24 
REMARK   13  A    between atoms: C_28  and  O_29 
ROOT
HETATM    1  C   UNL     1     -15.941  -9.869  -6.015  1.00  0.00     0.052 C 
HETATM    2  C   UNL     1     -15.975 -10.622  -4.708  1.00  0.00    -0.020 A 
HETATM    3  C   UNL     1     -16.999 -10.495  -3.752  1.00  0.00    -0.019 A 
HETATM    4  C   UNL     1     -16.941 -11.279  -2.575  1.00  0.00     0.083 A 
HETATM    5  C   UNL     1     -15.857 -12.139  -2.310  1.00  0.00    -0.015 A 
HETATM    6  C   UNL     1     -15.805 -12.910  -1.017  1.00  0.00     0.045 C 
HETATM    7  C   UNL     1     -16.821 -12.401  -0.019  1.00  0.00     0.043 C 
HETATM    8  C   UNL     1     -18.167 -12.139  -0.699  1.00  0.00     0.064 C 
HETATM    9  O   UNL     1     -18.013 -11.145  -1.725  1.00  0.00    -0.339 OA
HETATM   10  C   UNL     1     -18.783 -13.405  -1.320  1.00  0.00     0.046 C 
HETATM   11  C   UNL     1     -14.844 -12.294  -3.277  1.00  0.00    -0.019 A 
HETATM   12  C   UNL     1     -14.921 -11.526  -4.454  1.00  0.00     0.078 A 
HETATM   13  C   UNL     1     -13.710 -13.264  -3.074  1.00  0.00     0.052 C 
HETATM   14  C   UNL     1     -18.176  -9.556  -3.907  1.00  0.00     0.052 C 
ENDROOT
BRANCH   8  15
HETATM   15  C   UNL     1     -19.175 -11.571   0.334  1.00  0.00     0.038 C 
BRANCH  15  16
HETATM   16  C   UNL     1     -20.621 -11.936  -0.006  1.00  0.00     0.003 C 
BRANCH  16  17
HETATM   17  C   UNL     1     -21.636 -11.062   0.715  1.00  0.00     0.004 C 
BRANCH  17  18
HETATM   18  C   UNL     1     -22.598 -10.388  -0.291  1.00  0.00    -0.019 C 
HETATM   19  C   UNL     1     -23.969 -11.070  -0.310  1.00  0.00     0.010 C 
BRANCH  18  20
HETATM   20  C   UNL     1     -22.767  -8.893   0.015  1.00  0.00     0.004 C 
BRANCH  20  21
HETATM   21  C   UNL     1     -21.417  -8.177   0.081  1.00  0.00     0.001 C 
BRANCH  21  22
HETATM   22  C   UNL     1     -20.772  -8.090  -1.294  1.00  0.00     0.004 C 
BRANCH  22  23
HETATM   23  C   UNL     1     -21.707  -7.459  -2.345  1.00  0.00    -0.019 C 
HETATM   24  C   UNL     1     -22.024  -5.997  -2.013  1.00  0.00     0.010 C 
BRANCH  23  25
HETATM   25  C   UNL     1     -21.099  -7.561  -3.758  1.00  0.00     0.004 C 
BRANCH  25  26
HETATM   26  C   UNL     1     -21.496  -6.370  -4.634  1.00  0.00     0.001 C 
BRANCH  26  27
HETATM   27  C   UNL     1     -20.657  -6.266  -5.904  1.00  0.00     0.004 C 
BRANCH  27  28
HETATM   28  C   UNL     1     -20.429  -4.801  -6.323  1.00  0.00    -0.023 C 
HETATM   29  C   UNL     1     -19.213  -4.638  -7.242  1.00  0.00     0.009 C 
HETATM   30  C   UNL     1     -21.679  -4.255  -7.008  1.00  0.00     0.009 C 
ENDBRANCH  27  28
ENDBRANCH  26  27
ENDBRANCH  25  26
ENDBRANCH  23  25
ENDBRANCH  22  23
ENDBRANCH  21  22
ENDBRANCH  20  21
ENDBRANCH  18  20
ENDBRANCH  17  18
ENDBRANCH  16  17
ENDBRANCH  15  16
ENDBRANCH   8  15
BRANCH  12  31
HETATM   31  O   UNL     1     -13.959 -11.628  -5.430  1.00  0.00    -0.360 OA
HETATM   32  H   UNL     1     -13.712 -10.747  -5.745  1.00  0.00     0.217 HD
ENDBRANCH  12  31
TORSDOF 13
BEGIN_RES ARG D 557
REMARK  4 active torsions:
REMARK  status: ('A' for Active; 'I' for Inactive)
REMARK    1  A    between atoms: CA   and  CB  
REMARK    2  A    between atoms: CB   and  CG  
REMARK    3  A    between atoms: CG   and  CD  
REMARK    4  A    between atoms: CD   and  NE  
REMARK       I    between atoms: NE   and  CZ  
REMARK       I    between atoms: CZ   and  NH1 
REMARK       I    between atoms: CZ   and  NH2 
ROOT
ATOM      1  CA  ARG D 557     -26.217   2.705 -17.014  1.00 35.49     0.159 C 
ENDROOT
BRANCH   1   2
ATOM      2  CB  ARG D 557     -26.789   1.319 -17.183  1.00 35.49     0.034 C 
BRANCH   2   3
ATOM      3  CG  ARG D 557     -25.838   0.202 -17.137  1.00 35.49     0.027 C 
BRANCH   3   4
ATOM      4  CD  ARG D 557     -24.759   0.419 -16.146  1.00 35.49     0.116 C 
BRANCH   4   5
ATOM      5  NE  ARG D 557     -24.895  -0.439 -14.999  1.00 35.49    -0.212 N 
ATOM      6  CZ  ARG D 557     -24.080  -1.416 -14.669  1.00 35.49     0.666 C 
ATOM      7  NH1 ARG D 557     -23.021  -1.729 -15.392  1.00 35.49    -0.235 N 
ATOM      8  NH2 ARG D 557     -24.346  -2.079 -13.581  1.00 35.49    -0.235 N 
ATOM      9  HH  ARG D 557     -22.825  -1.305 -16.110  1.00 35.49     0.174 HD
ATOM     10  HH  ARG D 557     -22.523  -2.374 -15.126  1.00 35.49     0.174 HD
ATOM     11  HH  ARG D 557     -25.032  -1.849 -13.130  1.00 35.49     0.174 HD
ATOM     12  HH  ARG D 557     -23.840  -2.713 -13.334  1.00 35.49     0.174 HD
ATOM     13  HE  ARG D 557     -25.591  -0.354 -14.517  1.00 35.49     0.178 HD
ENDBRANCH   4   5
ENDBRANCH   3   4
ENDBRANCH   2   3
ENDBRANCH   1   2
END_RES ARG D 557
BEGIN_RES GLU D 570
REMARK  3 active torsions:
REMARK  status: ('A' for Active; 'I' for Inactive)
REMARK    5  A    between atoms: CA   and  CB  
REMARK    6  A    between atoms: CB   and  CG  
REMARK    7  A    between atoms: CG   and  CD  
ROOT
ATOM     14  CA  GLU D 570     -18.033  -6.348 -13.375  1.00 32.92     0.160 C 
ENDROOT
BRANCH  14  15
ATOM     15  CB  GLU D 570     -19.500  -6.345 -13.794  1.00 32.92     0.043 C 
BRANCH  15  16
ATOM     16  CG  GLU D 570     -20.450  -5.571 -12.954  1.00 32.92     0.100 C 
BRANCH  16  17
ATOM     17  CD  GLU D 570     -21.738  -5.242 -13.672  1.00 32.92     0.185 C 
ATOM     18  OE1 GLU D 570     -22.290  -6.123 -14.360  1.00 32.92    -0.647 OA
ATOM     19  OE2 GLU D 570     -22.192  -4.086 -13.559  1.00 32.92    -0.647 OA
ENDBRANCH  16  17
ENDBRANCH  15  16
ENDBRANCH  14  15
END_RES GLU D 570
ENDMDL
MODEL 6
REMARK VINA RESULT:      -8.5      2.755      6.504
REMARK  13 active torsions:
REMARK  status: ('A' for Active; 'I' for Inactive)
REMARK    1  A    between atoms: C_8  and  C_11 
REMARK    2  A    between atoms: C_11  and  C_12 
REMARK    3  A    between atoms: C_12  and  C_13 
REMARK    4  A    between atoms: C_13  and  C_14 
REMARK    5  A    between atoms: C_14  and  C_16 
REMARK    6  A    between atoms: C_16  and  C_17 
REMARK    7  A    between atoms: C_17  and  C_18 
REMARK    8  A    between atoms: C_18  and  C_19 
REMARK    9  A    between atoms: C_19  and  C_21 
REMARK   10  A    between atoms: C_21  and  C_22 
REMARK   11  A    between atoms: C_22  and  C_23 
REMARK   12  A    between atoms: C_23  and  C_24 
REMARK   13  A    between atoms: C_28  and  O_29 
ROOT
HETATM    1  C   UNL     1     -17.549  -9.744  -5.652  1.00  0.00     0.052 C 
HETATM    2  C   UNL     1     -18.729 -10.606  -5.279  1.00  0.00    -0.020 A 
HETATM    3  C   UNL     1     -19.353 -10.587  -4.019  1.00  0.00    -0.019 A 
HETATM    4  C   UNL     1     -20.476 -11.420  -3.796  1.00  0.00     0.083 A 
HETATM    5  C   UNL     1     -20.948 -12.307  -4.782  1.00  0.00    -0.015 A 
HETATM    6  C   UNL     1     -22.109 -13.220  -4.481  1.00  0.00     0.045 C 
HETATM    7  C   UNL     1     -22.421 -13.261  -3.003  1.00  0.00     0.043 C 
HETATM    8  C   UNL     1     -22.378 -11.855  -2.398  1.00  0.00     0.064 C 
HETATM    9  O   UNL     1     -21.067 -11.292  -2.561  1.00  0.00    -0.339 OA
HETATM   10  C   UNL     1     -23.412 -10.900  -3.023  1.00  0.00     0.046 C 
HETATM   11  C   UNL     1     -20.347 -12.309  -6.057  1.00  0.00    -0.019 A 
HETATM   12  C   UNL     1     -19.245 -11.463  -6.276  1.00  0.00     0.078 A 
HETATM   13  C   UNL     1     -20.872 -13.181  -7.168  1.00  0.00     0.052 C 
HETATM   14  C   UNL     1     -18.889  -9.719  -2.870  1.00  0.00     0.052 C 
ENDROOT
BRANCH   8  15
HETATM   15  C   UNL     1     -22.653 -11.930  -0.874  1.00  0.00     0.038 C 
BRANCH  15  16
HETATM   16  C   UNL     1     -22.076 -10.731  -0.120  1.00  0.00     0.003 C 
BRANCH  16  17
HETATM   17  C   UNL     1     -23.058  -9.574  -0.010  1.00  0.00     0.004 C 
BRANCH  17  18
HETATM   18  C   UNL     1     -22.312  -8.232   0.171  1.00  0.00    -0.019 C 
HETATM   19  C   UNL     1     -21.276  -8.306   1.298  1.00  0.00     0.010 C 
BRANCH  18  20
HETATM   20  C   UNL     1     -21.629  -7.792  -1.132  1.00  0.00     0.004 C 
BRANCH  20  21
HETATM   21  C   UNL     1     -22.042  -6.375  -1.532  1.00  0.00     0.001 C 
BRANCH  21  22
HETATM   22  C   UNL     1     -22.368  -6.295  -3.016  1.00  0.00     0.004 C 
BRANCH  22  23
HETATM   23  C   UNL     1     -21.241  -6.867  -3.899  1.00  0.00    -0.019 C 
HETATM   24  C   UNL     1     -21.732  -8.043  -4.749  1.00  0.00     0.010 C 
BRANCH  23  25
HETATM   25  C   UNL     1     -20.641  -5.774  -4.804  1.00  0.00     0.004 C 
BRANCH  25  26
HETATM   26  C   UNL     1     -20.359  -6.297  -6.215  1.00  0.00     0.001 C 
BRANCH  26  27
HETATM   27  C   UNL     1     -19.910  -5.198  -7.174  1.00  0.00     0.004 C 
BRANCH  27  28
HETATM   28  C   UNL     1     -20.964  -4.918  -8.262  1.00  0.00    -0.023 C 
HETATM   29  C   UNL     1     -22.102  -4.024  -7.758  1.00  0.00     0.009 C 
HETATM   30  C   UNL     1     -20.299  -4.283  -9.480  1.00  0.00     0.009 C 
ENDBRANCH  27  28
ENDBRANCH  26  27
ENDBRANCH  25  26
ENDBRANCH  23  25
ENDBRANCH  22  23
ENDBRANCH  21  22
ENDBRANCH  20  21
ENDBRANCH  18  20
ENDBRANCH  17  18
ENDBRANCH  16  17
ENDBRANCH  15  16
ENDBRANCH   8  15
BRANCH  12  31
HETATM   31  O   UNL     1     -18.612 -11.426  -7.496  1.00  0.00    -0.360 OA
HETATM   32  H   UNL     1     -18.442 -10.510  -7.754  1.00  0.00     0.217 HD
ENDBRANCH  12  31
TORSDOF 13
BEGIN_RES ARG D 557
REMARK  4 active torsions:
REMARK  status: ('A' for Active; 'I' for Inactive)
REMARK    1  A    between atoms: CA   and  CB  
REMARK    2  A    between atoms: CB   and  CG  
REMARK    3  A    between atoms: CG   and  CD  
REMARK    4  A    between atoms: CD   and  NE  
REMARK       I    between atoms: NE   and  CZ  
REMARK       I    between atoms: CZ   and  NH1 
REMARK       I    between atoms: CZ   and  NH2 
ROOT
ATOM      1  CA  ARG D 557     -26.217   2.705 -17.014  1.00 35.49     0.159 C 
ENDROOT
BRANCH   1   2
ATOM      2  CB  ARG D 557     -26.789   1.319 -17.183  1.00 35.49     0.034 C 
BRANCH   2   3
ATOM      3  CG  ARG D 557     -25.836   0.203 -17.150  1.00 35.49     0.027 C 
BRANCH   3   4
ATOM      4  CD  ARG D 557     -24.752   0.415 -16.164  1.00 35.49     0.116 C 
BRANCH   4   5
ATOM      5  NE  ARG D 557     -24.895  -0.434 -15.010  1.00 35.49    -0.212 N 
ATOM      6  CZ  ARG D 557     -24.082  -1.408 -14.668  1.00 35.49     0.666 C 
ATOM      7  NH1 ARG D 557     -23.019  -1.729 -15.382  1.00 35.49    -0.235 N 
ATOM      8  NH2 ARG D 557     -24.355  -2.061 -13.576  1.00 35.49    -0.235 N 
ATOM      9  HH  ARG D 557     -22.820  -1.311 -16.103  1.00 35.49     0.174 HD
ATOM     10  HH  ARG D 557     -22.524  -2.372 -15.108  1.00 35.49     0.174 HD
ATOM     11  HH  ARG D 557     -25.044  -1.828 -13.131  1.00 35.49     0.174 HD
ATOM     12  HH  ARG D 557     -23.851  -2.694 -13.320  1.00 35.49     0.174 HD
ATOM     13  HE  ARG D 557     -25.593  -0.345 -14.533  1.00 35.49     0.178 HD
ENDBRANCH   4   5
ENDBRANCH   3   4
ENDBRANCH   2   3
ENDBRANCH   1   2
END_RES ARG D 557
BEGIN_RES GLU D 570
REMARK  3 active torsions:
REMARK  status: ('A' for Active; 'I' for Inactive)
REMARK    5  A    between atoms: CA   and  CB  
REMARK    6  A    between atoms: CB   and  CG  
REMARK    7  A    between atoms: CG   and  CD  
ROOT
ATOM     14  CA  GLU D 570     -18.033  -6.348 -13.375  1.00 32.92     0.160 C 
ENDROOT
BRANCH  14  15
ATOM     15  CB  GLU D 570     -19.500  -6.345 -13.794  1.00 32.92     0.043 C 
BRANCH  15  16
ATOM     16  CG  GLU D 570     -20.446  -5.551 -12.968  1.00 32.92     0.100 C 
BRANCH  16  17
ATOM     17  CD  GLU D 570     -21.740  -5.244 -13.685  1.00 32.92     0.185 C 
ATOM     18  OE1 GLU D 570     -22.249  -6.116 -14.415  1.00 32.92    -0.647 OA
ATOM     19  OE2 GLU D 570     -22.241  -4.113 -13.529  1.00 32.92    -0.647 OA
ENDBRANCH  16  17
ENDBRANCH  15  16
ENDBRANCH  14  15
END_RES GLU D 570
ENDMDL
MODEL 7
REMARK VINA RESULT:      -8.5      2.826     10.152
REMARK  13 active torsions:
REMARK  status: ('A' for Active; 'I' for Inactive)
REMARK    1  A    between atoms: C_8  and  C_11 
REMARK    2  A    between atoms: C_11  and  C_12 
REMARK    3  A    between atoms: C_12  and  C_13 
REMARK    4  A    between atoms: C_13  and  C_14 
REMARK    5  A    between atoms: C_14  and  C_16 
REMARK    6  A    between atoms: C_16  and  C_17 
REMARK    7  A    between atoms: C_17  and  C_18 
REMARK    8  A    between atoms: C_18  and  C_19 
REMARK    9  A    between atoms: C_19  and  C_21 
REMARK   10  A    between atoms: C_21  and  C_22 
REMARK   11  A    between atoms: C_22  and  C_23 
REMARK   12  A    between atoms: C_23  and  C_24 
REMARK   13  A    between atoms: C_28  and  O_29 
ROOT
HETATM    1  C   UNL     1     -24.790  -3.764  -9.752  1.00  0.00     0.052 C 
HETATM    2  C   UNL     1     -23.418  -3.961  -9.159  1.00  0.00    -0.020 A 
HETATM    3  C   UNL     1     -23.182  -4.423  -7.851  1.00  0.00    -0.019 A 
HETATM    4  C   UNL     1     -21.848  -4.601  -7.414  1.00  0.00     0.083 A 
HETATM    5  C   UNL     1     -20.751  -4.273  -8.233  1.00  0.00    -0.015 A 
HETATM    6  C   UNL     1     -19.346  -4.421  -7.707  1.00  0.00     0.045 C 
HETATM    7  C   UNL     1     -19.328  -4.627  -6.209  1.00  0.00     0.043 C 
HETATM    8  C   UNL     1     -20.412  -5.620  -5.783  1.00  0.00     0.064 C 
HETATM    9  O   UNL     1     -21.707  -5.118  -6.148  1.00  0.00    -0.339 OA
HETATM   10  C   UNL     1     -20.225  -7.016  -6.405  1.00  0.00     0.046 C 
HETATM   11  C   UNL     1     -20.978  -3.840  -9.555  1.00  0.00    -0.019 A 
HETATM   12  C   UNL     1     -22.308  -3.686  -9.987  1.00  0.00     0.078 A 
HETATM   13  C   UNL     1     -19.833  -3.558 -10.493  1.00  0.00     0.052 C 
HETATM   14  C   UNL     1     -24.287  -4.745  -6.867  1.00  0.00     0.052 C 
ENDROOT
BRANCH   8  15
HETATM   15  C   UNL     1     -20.404  -5.776  -4.240  1.00  0.00     0.038 C 
BRANCH  15  16
HETATM   16  C   UNL     1     -21.701  -6.393  -3.713  1.00  0.00     0.003 C 
BRANCH  16  17
HETATM   17  C   UNL     1     -21.834  -6.287  -2.201  1.00  0.00     0.004 C 
BRANCH  17  18
HETATM   18  C   UNL     1     -21.765  -7.684  -1.542  1.00  0.00    -0.019 C 
HETATM   19  C   UNL     1     -20.414  -8.363  -1.791  1.00  0.00     0.010 C 
BRANCH  18  20
HETATM   20  C   UNL     1     -22.033  -7.603  -0.033  1.00  0.00     0.004 C 
BRANCH  20  21
HETATM   21  C   UNL     1     -22.185  -8.993   0.586  1.00  0.00     0.001 C 
BRANCH  21  22
HETATM   22  C   UNL     1     -23.485  -9.652   0.151  1.00  0.00     0.004 C 
BRANCH  22  23
HETATM   23  C   UNL     1     -23.272 -11.083  -0.380  1.00  0.00    -0.019 C 
HETATM   24  C   UNL     1     -23.426 -11.149  -1.903  1.00  0.00     0.010 C 
BRANCH  23  25
HETATM   25  C   UNL     1     -21.890 -11.625   0.035  1.00  0.00     0.004 C 
BRANCH  25  26
HETATM   26  C   UNL     1     -21.989 -12.574   1.233  1.00  0.00     0.001 C 
BRANCH  26  27
HETATM   27  C   UNL     1     -23.122 -13.587   1.091  1.00  0.00     0.004 C 
BRANCH  27  28
HETATM   28  C   UNL     1     -23.470 -14.251   2.437  1.00  0.00    -0.023 C 
HETATM   29  C   UNL     1     -24.413 -15.447   2.273  1.00  0.00     0.009 C 
HETATM   30  C   UNL     1     -22.191 -14.687   3.148  1.00  0.00     0.009 C 
ENDBRANCH  27  28
ENDBRANCH  26  27
ENDBRANCH  25  26
ENDBRANCH  23  25
ENDBRANCH  22  23
ENDBRANCH  21  22
ENDBRANCH  20  21
ENDBRANCH  18  20
ENDBRANCH  17  18
ENDBRANCH  16  17
ENDBRANCH  15  16
ENDBRANCH   8  15
BRANCH  12  31
HETATM   31  O   UNL     1     -22.593  -3.259 -11.262  1.00  0.00    -0.360 OA
HETATM   32  H   UNL     1     -23.454  -3.598 -11.541  1.00  0.00     0.217 HD
ENDBRANCH  12  31
TORSDOF 13
BEGIN_RES ARG D 557
REMARK  4 active torsions:
REMARK  status: ('A' for Active; 'I' for Inactive)
REMARK    1  A    between atoms: CA   and  CB  
REMARK    2  A    between atoms: CB   and  CG  
REMARK    3  A    between atoms: CG   and  CD  
REMARK    4  A    between atoms: CD   and  NE  
REMARK       I    between atoms: NE   and  CZ  
REMARK       I    between atoms: CZ   and  NH1 
REMARK       I    between atoms: CZ   and  NH2 
ROOT
ATOM      1  CA  ARG D 557     -26.217   2.705 -17.014  1.00 35.49     0.159 C 
ENDROOT
BRANCH   1   2
ATOM      2  CB  ARG D 557     -26.789   1.319 -17.183  1.00 35.49     0.034 C 
BRANCH   2   3
ATOM      3  CG  ARG D 557     -25.864   0.195 -16.996  1.00 35.49     0.027 C 
BRANCH   3   4
ATOM      4  CD  ARG D 557     -26.282  -0.703 -15.896  1.00 35.49     0.116 C 
BRANCH   4   5
ATOM      5  NE  ARG D 557     -25.207  -0.976 -14.979  1.00 35.49    -0.212 N 
ATOM      6  CZ  ARG D 557     -24.982  -2.123 -14.378  1.00 35.49     0.666 C 
ATOM      7  NH1 ARG D 557     -25.757  -3.178 -14.550  1.00 35.49    -0.235 N 
ATOM      8  NH2 ARG D 557     -23.946  -2.198 -13.595  1.00 35.49    -0.235 N 
ATOM      9  HH  ARG D 557     -26.444  -3.152 -15.063  1.00 35.49     0.174 HD
ATOM     10  HH  ARG D 557     -25.560  -3.901 -14.134  1.00 35.49     0.174 HD
ATOM     11  HH  ARG D 557     -23.458  -1.503 -13.509  1.00 35.49     0.174 HD
ATOM     12  HH  ARG D 557     -23.766  -2.922 -13.193  1.00 35.49     0.174 HD
ATOM     13  HE  ARG D 557     -24.700  -0.331 -14.754  1.00 35.49     0.178 HD
ENDBRANCH   4   5
ENDBRANCH   3   4
ENDBRANCH   2   3
ENDBRANCH   1   2
END_RES ARG D 557
BEGIN_RES GLU D 570
REMARK  3 active torsions:
REMARK  status: ('A' for Active; 'I' for Inactive)
REMARK    5  A    between atoms: CA   and  CB  
REMARK    6  A    between atoms: CB   and  CG  
REMARK    7  A    between atoms: CG   and  CD  
ROOT
ATOM     14  CA  GLU D 570     -18.033  -6.348 -13.375  1.00 32.92     0.160 C 
ENDROOT
BRANCH  14  15
ATOM     15  CB  GLU D 570     -19.500  -6.345 -13.794  1.00 32.92     0.043 C 
BRANCH  15  16
ATOM     16  CG  GLU D 570     -20.425  -5.460 -13.040  1.00 32.92     0.100 C 
BRANCH  16  17
ATOM     17  CD  GLU D 570     -21.689  -5.140 -13.805  1.00 32.92     0.185 C 
ATOM     18  OE1 GLU D 570     -22.780  -5.159 -13.205  1.00 32.92    -0.647 OA
ATOM     19  OE2 GLU D 570     -21.587  -4.884 -15.021  1.00 32.92    -0.647 OA
ENDBRANCH  16  17
ENDBRANCH  15  16
ENDBRANCH  14  15
END_RES GLU D 570
ENDMDL
MODEL 8
REMARK VINA RESULT:      -8.4      2.411      6.166
REMARK  13 active torsions:
REMARK  status: ('A' for Active; 'I' for Inactive)
REMARK    1  A    between atoms: C_8  and  C_11 
REMARK    2  A    between atoms: C_11  and  C_12 
REMARK    3  A    between atoms: C_12  and  C_13 
REMARK    4  A    between atoms: C_13  and  C_14 
REMARK    5  A    between atoms: C_14  and  C_16 
REMARK    6  A    between atoms: C_16  and  C_17 
REMARK    7  A    between atoms: C_17  and  C_18 
REMARK    8  A    between atoms: C_18  and  C_19 
REMARK    9  A    between atoms: C_19  and  C_21 
REMARK   10  A    between atoms: C_21  and  C_22 
REMARK   11  A    between atoms: C_22  and  C_23 
REMARK   12  A    between atoms: C_23  and  C_24 
REMARK   13  A    between atoms: C_28  and  O_29 
ROOT
HETATM    1  C   UNL     1     -19.800 -13.062  -8.190  1.00  0.00     0.052 C 
HETATM    2  C   UNL     1     -19.006 -12.359  -7.118  1.00  0.00    -0.020 A 
HETATM    3  C   UNL     1     -19.580 -11.606  -6.077  1.00  0.00    -0.019 A 
HETATM    4  C   UNL     1     -18.735 -11.018  -5.108  1.00  0.00     0.083 A 
HETATM    5  C   UNL     1     -17.332 -11.117  -5.190  1.00  0.00    -0.015 A 
HETATM    6  C   UNL     1     -16.466 -10.424  -4.169  1.00  0.00     0.045 C 
HETATM    7  C   UNL     1     -17.257  -9.435  -3.342  1.00  0.00     0.043 C 
HETATM    8  C   UNL     1     -18.604 -10.029  -2.923  1.00  0.00     0.064 C 
HETATM    9  O   UNL     1     -19.379 -10.357  -4.088  1.00  0.00    -0.339 OA
HETATM   10  C   UNL     1     -18.459 -11.290  -2.052  1.00  0.00     0.046 C 
HETATM   11  C   UNL     1     -16.751 -11.894  -6.211  1.00  0.00    -0.019 A 
HETATM   12  C   UNL     1     -17.601 -12.494  -7.159  1.00  0.00     0.078 A 
HETATM   13  C   UNL     1     -15.260 -12.097  -6.288  1.00  0.00     0.052 C 
HETATM   14  C   UNL     1     -21.070 -11.384  -5.931  1.00  0.00     0.052 C 
ENDROOT
BRANCH   8  15
HETATM   15  C   UNL     1     -19.415  -8.980  -2.120  1.00  0.00     0.038 C 
BRANCH  15  16
HETATM   16  C   UNL     1     -20.507  -9.623  -1.263  1.00  0.00     0.003 C 
BRANCH  16  17
HETATM   17  C   UNL     1     -21.905  -9.153  -1.639  1.00  0.00     0.004 C 
BRANCH  17  18
HETATM   18  C   UNL     1     -22.339  -7.957  -0.760  1.00  0.00    -0.019 C 
HETATM   19  C   UNL     1     -21.846  -8.104   0.683  1.00  0.00     0.010 C 
BRANCH  18  20
HETATM   20  C   UNL     1     -21.845  -6.627  -1.344  1.00  0.00     0.004 C 
BRANCH  20  21
HETATM   21  C   UNL     1     -22.296  -6.446  -2.794  1.00  0.00     0.001 C 
BRANCH  21  22
HETATM   22  C   UNL     1     -21.157  -5.942  -3.667  1.00  0.00     0.004 C 
BRANCH  22  23
HETATM   23  C   UNL     1     -20.753  -6.959  -4.754  1.00  0.00    -0.019 C 
HETATM   24  C   UNL     1     -21.829  -8.034  -4.948  1.00  0.00     0.010 C 
BRANCH  23  25
HETATM   25  C   UNL     1     -20.464  -6.252  -6.092  1.00  0.00     0.004 C 
BRANCH  25  26
HETATM   26  C   UNL     1     -20.214  -4.753  -5.899  1.00  0.00     0.001 C 
BRANCH  26  27
HETATM   27  C   UNL     1     -21.042  -3.890  -6.847  1.00  0.00     0.004 C 
BRANCH  27  28
HETATM   28  C   UNL     1     -21.320  -4.607  -8.182  1.00  0.00    -0.023 C 
HETATM   29  C   UNL     1     -22.675  -4.221  -8.783  1.00  0.00     0.009 C 
HETATM   30  C   UNL     1     -20.202  -4.306  -9.176  1.00  0.00     0.009 C 
ENDBRANCH  27  28
ENDBRANCH  26  27
ENDBRANCH  25  26
ENDBRANCH  23  25
ENDBRANCH  22  23
ENDBRANCH  21  22
ENDBRANCH  20  21
ENDBRANCH  18  20
ENDBRANCH  17  18
ENDBRANCH  16  17
ENDBRANCH  15  16
ENDBRANCH   8  15
BRANCH  12  31
HETATM   31  O   UNL     1     -17.094 -13.257  -8.183  1.00  0.00    -0.360 OA
HETATM   32  H   UNL     1     -16.941 -12.706  -8.963  1.00  0.00     0.217 HD
ENDBRANCH  12  31
TORSDOF 13
BEGIN_RES ARG D 557
REMARK  4 active torsions:
REMARK  status: ('A' for Active; 'I' for Inactive)
REMARK    1  A    between atoms: CA   and  CB  
REMARK    2  A    between atoms: CB   and  CG  
REMARK    3  A    between atoms: CG   and  CD  
REMARK    4  A    between atoms: CD   and  NE  
REMARK       I    between atoms: NE   and  CZ  
REMARK       I    between atoms: CZ   and  NH1 
REMARK       I    between atoms: CZ   and  NH2 
ROOT
ATOM      1  CA  ARG D 557     -26.217   2.705 -17.014  1.00 35.49     0.159 C 
ENDROOT
BRANCH   1   2
ATOM      2  CB  ARG D 557     -26.789   1.319 -17.183  1.00 35.49     0.034 C 
BRANCH   2   3
ATOM      3  CG  ARG D 557     -28.234   1.226 -17.425  1.00 35.49     0.027 C 
BRANCH   3   4
ATOM      4  CD  ARG D 557     -28.905   0.299 -16.485  1.00 35.49     0.116 C 
BRANCH   4   5
ATOM      5  NE  ARG D 557     -29.281  -0.937 -17.117  1.00 35.49    -0.212 N 
ATOM      6  CZ  ARG D 557     -28.638  -2.079 -17.017  1.00 35.49     0.666 C 
ATOM      7  NH1 ARG D 557     -27.530  -2.208 -16.310  1.00 35.49    -0.235 N 
ATOM      8  NH2 ARG D 557     -29.135  -3.106 -17.642  1.00 35.49    -0.235 N 
ATOM      9  HH  ARG D 557     -27.186  -1.546 -15.889  1.00 35.49     0.174 HD
ATOM     10  HH  ARG D 557     -27.155  -2.978 -16.279  1.00 35.49     0.174 HD
ATOM     11  HH  ARG D 557     -29.856  -2.994 -18.085  1.00 35.49     0.174 HD
ATOM     12  HH  ARG D 557     -28.750  -3.860 -17.598  1.00 35.49     0.174 HD
ATOM     13  HE  ARG D 557     -29.944  -0.927 -17.651  1.00 35.49     0.178 HD
ENDBRANCH   4   5
ENDBRANCH   3   4
ENDBRANCH   2   3
ENDBRANCH   1   2
END_RES ARG D 557
BEGIN_RES GLU D 570
REMARK  3 active torsions:
REMARK  status: ('A' for Active; 'I' for Inactive)
REMARK    5  A    between atoms: CA   and  CB  
REMARK    6  A    between atoms: CB   and  CG  
REMARK    7  A    between atoms: CG   and  CD  
ROOT
ATOM     14  CA  GLU D 570     -18.033  -6.348 -13.375  1.00 32.92     0.160 C 
ENDROOT
BRANCH  14  15
ATOM     15  CB  GLU D 570     -19.500  -6.345 -13.794  1.00 32.92     0.043 C 
BRANCH  15  16
ATOM     16  CG  GLU D 570     -20.078  -7.628 -14.271  1.00 32.92     0.100 C 
BRANCH  16  17
ATOM     17  CD  GLU D 570     -21.136  -7.438 -15.333  1.00 32.92     0.185 C 
ATOM     18  OE1 GLU D 570     -21.172  -8.225 -16.299  1.00 32.92    -0.647 OA
ATOM     19  OE2 GLU D 570     -21.927  -6.483 -15.207  1.00 32.92    -0.647 OA
ENDBRANCH  16  17
ENDBRANCH  15  16
ENDBRANCH  14  15
END_RES GLU D 570
ENDMDL
MODEL 9
REMARK VINA RESULT:      -8.4      3.786     10.769
REMARK  13 active torsions:
REMARK  status: ('A' for Active; 'I' for Inactive)
REMARK    1  A    between atoms: C_8  and  C_11 
REMARK    2  A    between atoms: C_11  and  C_12 
REMARK    3  A    between atoms: C_12  and  C_13 
REMARK    4  A    between atoms: C_13  and  C_14 
REMARK    5  A    between atoms: C_14  and  C_16 
REMARK    6  A    between atoms: C_16  and  C_17 
REMARK    7  A    between atoms: C_17  and  C_18 
REMARK    8  A    between atoms: C_18  and  C_19 
REMARK    9  A    between atoms: C_19  and  C_21 
REMARK   10  A    between atoms: C_21  and  C_22 
REMARK   11  A    between atoms: C_22  and  C_23 
REMARK   12  A    between atoms: C_23  and  C_24 
REMARK   13  A    between atoms: C_28  and  O_29 
ROOT
HETATM    1  C   UNL     1     -28.126  -4.340 -16.663  1.00  0.00     0.052 C 
HETATM    2  C   UNL     1     -26.834  -4.713 -15.981  1.00  0.00    -0.020 A 
HETATM    3  C   UNL     1     -26.193  -3.916 -15.015  1.00  0.00    -0.019 A 
HETATM    4  C   UNL     1     -24.999  -4.386 -14.418  1.00  0.00     0.083 A 
HETATM    5  C   UNL     1     -24.406  -5.603 -14.806  1.00  0.00    -0.015 A 
HETATM    6  C   UNL     1     -23.102  -6.038 -14.188  1.00  0.00     0.045 C 
HETATM    7  C   UNL     1     -22.442  -4.912 -13.424  1.00  0.00     0.043 C 
HETATM    8  C   UNL     1     -23.469  -4.148 -12.584  1.00  0.00     0.064 C 
HETATM    9  O   UNL     1     -24.473  -3.578 -13.438  1.00  0.00    -0.339 OA
HETATM   10  C   UNL     1     -24.156  -5.031 -11.527  1.00  0.00     0.046 C 
HETATM   11  C   UNL     1     -25.059  -6.422 -15.749  1.00  0.00    -0.019 A 
HETATM   12  C   UNL     1     -26.257  -5.956 -16.322  1.00  0.00     0.078 A 
HETATM   13  C   UNL     1     -24.505  -7.769 -16.132  1.00  0.00     0.052 C 
HETATM   14  C   UNL     1     -26.709  -2.564 -14.571  1.00  0.00     0.052 C 
ENDROOT
BRANCH   8  15
HETATM   15  C   UNL     1     -22.776  -2.971 -11.850  1.00  0.00     0.038 C 
BRANCH  15  16
HETATM   16  C   UNL     1     -21.640  -3.443 -10.940  1.00  0.00     0.003 C 
BRANCH  16  17
HETATM   17  C   UNL     1     -21.989  -3.348  -9.463  1.00  0.00     0.004 C 
BRANCH  17  18
HETATM   18  C   UNL     1     -21.364  -4.520  -8.672  1.00  0.00    -0.019 C 
HETATM   19  C   UNL     1     -19.938  -4.825  -9.141  1.00  0.00     0.010 C 
BRANCH  18  20
HETATM   20  C   UNL     1     -21.362  -4.238  -7.163  1.00  0.00     0.004 C 
BRANCH  20  21
HETATM   21  C   UNL     1     -20.100  -4.781  -6.490  1.00  0.00     0.001 C 
BRANCH  21  22
HETATM   22  C   UNL     1     -20.377  -5.193  -5.052  1.00  0.00     0.004 C 
BRANCH  22  23
HETATM   23  C   UNL     1     -21.162  -6.516  -4.960  1.00  0.00    -0.019 C 
HETATM   24  C   UNL     1     -20.224  -7.723  -4.852  1.00  0.00     0.010 C 
BRANCH  23  25
HETATM   25  C   UNL     1     -22.138  -6.497  -3.767  1.00  0.00     0.004 C 
BRANCH  25  26
HETATM   26  C   UNL     1     -21.396  -6.501  -2.427  1.00  0.00     0.001 C 
BRANCH  26  27
HETATM   27  C   UNL     1     -22.340  -6.565  -1.230  1.00  0.00     0.004 C 
BRANCH  27  28
HETATM   28  C   UNL     1     -21.989  -7.728  -0.283  1.00  0.00    -0.023 C 
HETATM   29  C   UNL     1     -23.220  -8.290   0.436  1.00  0.00     0.009 C 
HETATM   30  C   UNL     1     -21.285  -8.838  -1.061  1.00  0.00     0.009 C 
ENDBRANCH  27  28
ENDBRANCH  26  27
ENDBRANCH  25  26
ENDBRANCH  23  25
ENDBRANCH  22  23
ENDBRANCH  21  22
ENDBRANCH  20  21
ENDBRANCH  18  20
ENDBRANCH  17  18
ENDBRANCH  16  17
ENDBRANCH  15  16
ENDBRANCH   8  15
BRANCH  12  31
HETATM   31  O   UNL     1     -26.935  -6.705 -17.254  1.00  0.00    -0.360 OA
HETATM   32  H   UNL     1     -27.273  -6.133 -17.957  1.00  0.00     0.217 HD
ENDBRANCH  12  31
TORSDOF 13
BEGIN_RES ARG D 557
REMARK  4 active torsions:
REMARK  status: ('A' for Active; 'I' for Inactive)
REMARK    1  A    between atoms: CA   and  CB  
REMARK    2  A    between atoms: CB   and  CG  
REMARK    3  A    between atoms: CG   and  CD  
REMARK    4  A    between atoms: CD   and  NE  
REMARK       I    between atoms: NE   and  CZ  
REMARK       I    between atoms: CZ   and  NH1 
REMARK       I    between atoms: CZ   and  NH2 
ROOT
ATOM      1  CA  ARG D 557     -26.217   2.705 -17.014  1.00 35.49     0.159 C 
ENDROOT
BRANCH   1   2
ATOM      2  CB  ARG D 557     -26.789   1.319 -17.183  1.00 35.49     0.034 C 
BRANCH   2   3
ATOM      3  CG  ARG D 557     -25.895   0.194 -16.882  1.00 35.49     0.027 C 
BRANCH   3   4
ATOM      4  CD  ARG D 557     -24.540   0.641 -16.484  1.00 35.49     0.116 C 
BRANCH   4   5
ATOM      5  NE  ARG D 557     -23.619  -0.459 -16.370  1.00 35.49    -0.212 N 
ATOM      6  CZ  ARG D 557     -23.384  -1.153 -15.279  1.00 35.49     0.666 C 
ATOM      7  NH1 ARG D 557     -23.981  -0.894 -14.130  1.00 35.49    -0.235 N 
ATOM      8  NH2 ARG D 557     -22.530  -2.132 -15.363  1.00 35.49    -0.235 N 
ATOM      9  HH  ARG D 557     -24.548  -0.256 -14.053  1.00 35.49     0.174 HD
ATOM     10  HH  ARG D 557     -23.790  -1.382 -13.453  1.00 35.49     0.174 HD
ATOM     11  HH  ARG D 557     -22.165  -2.281 -16.119  1.00 35.49     0.174 HD
ATOM     12  HH  ARG D 557     -22.356  -2.605 -14.681  1.00 35.49     0.174 HD
ATOM     13  HE  ARG D 557     -23.137  -0.648 -17.044  1.00 35.49     0.178 HD
ENDBRANCH   4   5
ENDBRANCH   3   4
ENDBRANCH   2   3
ENDBRANCH   1   2
END_RES ARG D 557
BEGIN_RES GLU D 570
REMARK  3 active torsions:
REMARK  status: ('A' for Active; 'I' for Inactive)
REMARK    5  A    between atoms: CA   and  CB  
REMARK    6  A    between atoms: CB   and  CG  
REMARK    7  A    between atoms: CG   and  CD  
ROOT
ATOM     14  CA  GLU D 570     -18.033  -6.348 -13.375  1.00 32.92     0.160 C 
ENDROOT
BRANCH  14  15
ATOM     15  CB  GLU D 570     -19.500  -6.345 -13.794  1.00 32.92     0.043 C 
BRANCH  15  16
ATOM     16  CG  GLU D 570     -20.101  -7.644 -14.192  1.00 32.92     0.100 C 
BRANCH  16  17
ATOM     17  CD  GLU D 570     -20.456  -7.704 -15.660  1.00 32.92     0.185 C 
ATOM     18  OE1 GLU D 570     -20.651  -6.641 -16.279  1.00 32.92    -0.647 OA
ATOM     19  OE2 GLU D 570     -20.556  -8.827 -16.191  1.00 32.92    -0.647 OA
ENDBRANCH  16  17
ENDBRANCH  15  16
ENDBRANCH  14  15
END_RES GLU D 570
ENDMDL
