MODEL 1
REMARK VINA RESULT:      -9.8      0.000      0.000
REMARK  4 active torsions:
REMARK  status: ('A' for Active; 'I' for Inactive)
REMARK    1  A    between atoms: C_9  and  O_25 
REMARK    2  A    between atoms: C_10  and  N_11 
REMARK    3  A    between atoms: N_13  and  C_15 
REMARK    4  A    between atoms: C_18  and  N_21 
ROOT
HETATM    1  N   UNL     1     -20.666  -7.025  -6.100  1.00  0.00    -0.297 N 
ATOM      2  HN  UNL     1     -21.301  -7.457  -6.772  1.00  0.00     0.187 HD
HETATM    3  N   UNL     1     -20.275  -5.841  -6.186  1.00  0.00    -0.299 N 
ATOM      4  HN  UNL     1     -19.658  -5.403  -5.502  1.00  0.00     0.187 HD
ENDROOT
BRANCH   1   5
HETATM    5  C   UNL     1     -20.138  -7.707  -4.973  1.00  0.00     0.092 A 
HETATM    6  C   UNL     1     -20.734  -7.480  -3.697  1.00  0.00     0.005 A 
HETATM    7  C   UNL     1     -21.766  -6.536  -3.482  1.00  0.00     0.014 A 
HETATM    8  C   UNL     1     -20.293  -8.232  -2.575  1.00  0.00    -0.024 A 
HETATM    9  C   UNL     1     -22.345  -6.354  -2.224  1.00  0.00     0.001 A 
HETATM   10  C   UNL     1     -21.910  -7.106  -1.142  1.00  0.00     0.001 A 
HETATM   11  C   UNL     1     -20.887  -8.039  -1.317  1.00  0.00     0.012 A 
HETATM   12  C   UNL     1     -19.274  -9.180  -2.729  1.00  0.00     0.015 A 
HETATM   13  C   UNL     1     -18.689  -9.405  -3.972  1.00  0.00     0.040 A 
HETATM   14  C   UNL     1     -19.125  -8.683  -5.082  1.00  0.00     0.094 A 
BRANCH  14  15
HETATM   15  O   UNL     1     -18.573  -8.971  -6.304  1.00  0.00    -0.358 OA
HETATM   16  H   UNL     1     -19.282  -9.144  -6.944  1.00  0.00     0.217 HD
ENDBRANCH  14  15
ENDBRANCH   1   5
BRANCH   3  17
HETATM   17  C   UNL     1     -20.776  -5.167  -7.329  1.00  0.00     0.070 A 
HETATM   18  C   UNL     1     -22.148  -4.863  -7.412  1.00  0.00     0.064 A 
HETATM   19  C   UNL     1     -22.695  -4.229  -8.537  1.00  0.00     0.062 A 
HETATM   20 CL   UNL     1     -23.230  -5.262  -6.120  1.00  0.00    -0.082 Cl
HETATM   21  C   UNL     1     -21.859  -3.877  -9.600  1.00  0.00     0.104 A 
HETATM   22  C   UNL     1     -20.486  -4.133  -9.535  1.00  0.00     0.038 A 
HETATM   23  C   UNL     1     -19.955  -4.765  -8.404  1.00  0.00     0.035 A 
BRANCH  21  24
HETATM   24  N   UNL     1     -22.425  -3.236 -10.794  1.00  0.00    -0.116 N 
HETATM   25  O   UNL     1     -21.653  -2.604 -11.527  1.00  0.00    -0.532 OA
HETATM   26  O   UNL     1     -23.642  -3.360 -10.991  1.00  0.00    -0.532 OA
ENDBRANCH  21  24
ENDBRANCH   3  17
TORSDOF 4
BEGIN_RES ARG D 557
REMARK  4 active torsions:
REMARK  status: ('A' for Active; 'I' for Inactive)
REMARK    1  A    between atoms: CA   and  CB  
REMARK    2  A    between atoms: CB   and  CG  
REMARK    3  A    between atoms: CG   and  CD  
REMARK    4  A    between atoms: CD   and  NE  
REMARK       I    between atoms: NE   and  CZ  
REMARK       I    between atoms: CZ   and  NH1 
REMARK       I    between atoms: CZ   and  NH2 
ROOT
ATOM      1  CA  ARG D 557     -26.217   2.705 -17.014  1.00 35.49     0.159 C 
ENDROOT
BRANCH   1   2
ATOM      2  CB  ARG D 557     -26.789   1.319 -17.183  1.00 35.49     0.034 C 
BRANCH   2   3
ATOM      3  CG  ARG D 557     -25.842   0.200 -17.107  1.00 35.49     0.027 C 
BRANCH   3   4
ATOM      4  CD  ARG D 557     -24.743   0.455 -16.147  1.00 35.49     0.116 C 
BRANCH   4   5
ATOM      5  NE  ARG D 557     -24.807  -0.419 -15.005  1.00 35.49    -0.212 N 
ATOM      6  CZ  ARG D 557     -23.951  -1.375 -14.721  1.00 35.49     0.666 C 
ATOM      7  NH1 ARG D 557     -22.915  -1.651 -15.491  1.00 35.49    -0.235 N 
ATOM      8  NH2 ARG D 557     -24.152  -2.056 -13.631  1.00 35.49    -0.235 N 
ATOM      9  HH  ARG D 557     -22.762  -1.214 -16.212  1.00 35.49     0.174 HD
ATOM     10  HH  ARG D 557     -22.388  -2.284 -15.253  1.00 35.49     0.174 HD
ATOM     11  HH  ARG D 557     -24.826  -1.851 -13.149  1.00 35.49     0.174 HD
ATOM     12  HH  ARG D 557     -23.619  -2.678 -13.412  1.00 35.49     0.174 HD
ATOM     13  HE  ARG D 557     -25.484  -0.359 -14.494  1.00 35.49     0.178 HD
ENDBRANCH   4   5
ENDBRANCH   3   4
ENDBRANCH   2   3
ENDBRANCH   1   2
END_RES ARG D 557
BEGIN_RES GLU D 570
REMARK  3 active torsions:
REMARK  status: ('A' for Active; 'I' for Inactive)
REMARK    5  A    between atoms: CA   and  CB  
REMARK    6  A    between atoms: CB   and  CG  
REMARK    7  A    between atoms: CG   and  CD  
ROOT
ATOM     14  CA  GLU D 570     -18.033  -6.348 -13.375  1.00 32.92     0.160 C 
ENDROOT
BRANCH  14  15
ATOM     15  CB  GLU D 570     -19.500  -6.345 -13.794  1.00 32.92     0.043 C 
BRANCH  15  16
ATOM     16  CG  GLU D 570     -20.431  -5.481 -13.022  1.00 32.92     0.100 C 
BRANCH  16  17
ATOM     17  CD  GLU D 570     -21.708  -5.177 -13.769  1.00 32.92     0.185 C 
ATOM     18  OE1 GLU D 570     -21.647  -4.543 -14.840  1.00 32.92    -0.647 OA
ATOM     19  OE2 GLU D 570     -22.784  -5.562 -13.269  1.00 32.92    -0.647 OA
ENDBRANCH  16  17
ENDBRANCH  15  16
ENDBRANCH  14  15
END_RES GLU D 570
ENDMDL
MODEL 2
REMARK VINA RESULT:      -9.7      1.573      2.718
REMARK  4 active torsions:
REMARK  status: ('A' for Active; 'I' for Inactive)
REMARK    1  A    between atoms: C_9  and  O_25 
REMARK    2  A    between atoms: C_10  and  N_11 
REMARK    3  A    between atoms: N_13  and  C_15 
REMARK    4  A    between atoms: C_18  and  N_21 
ROOT
HETATM    1  N   UNL     1     -21.595  -6.722  -5.312  1.00  0.00    -0.297 N 
ATOM      2  HN  UNL     1     -22.128  -7.241  -6.010  1.00  0.00     0.187 HD
HETATM    3  N   UNL     1     -21.250  -5.529  -5.457  1.00  0.00    -0.299 N 
ATOM      4  HN  UNL     1     -20.736  -5.004  -4.750  1.00  0.00     0.187 HD
ENDROOT
BRANCH   1   5
HETATM    5  C   UNL     1     -21.168  -7.281  -4.079  1.00  0.00     0.092 A 
HETATM    6  C   UNL     1     -20.081  -8.203  -4.087  1.00  0.00     0.005 A 
HETATM    7  C   UNL     1     -19.465  -8.663  -5.276  1.00  0.00     0.014 A 
HETATM    8  C   UNL     1     -19.568  -8.692  -2.856  1.00  0.00    -0.024 A 
HETATM    9  C   UNL     1     -18.386  -9.550  -5.249  1.00  0.00     0.001 A 
HETATM   10  C   UNL     1     -17.891 -10.007  -4.036  1.00  0.00     0.001 A 
HETATM   11  C   UNL     1     -18.481  -9.581  -2.845  1.00  0.00     0.012 A 
HETATM   12  C   UNL     1     -20.138  -8.271  -1.647  1.00  0.00     0.015 A 
HETATM   13  C   UNL     1     -21.199  -7.371  -1.634  1.00  0.00     0.040 A 
HETATM   14  C   UNL     1     -21.701  -6.874  -2.837  1.00  0.00     0.094 A 
BRANCH  14  15
HETATM   15  O   UNL     1     -22.706  -5.942  -2.789  1.00  0.00    -0.358 OA
HETATM   16  H   UNL     1     -22.710  -5.519  -1.915  1.00  0.00     0.217 HD
ENDBRANCH  14  15
ENDBRANCH   1   5
BRANCH   3  17
HETATM   17  C   UNL     1     -21.647  -4.979  -6.702  1.00  0.00     0.070 A 
HETATM   18  C   UNL     1     -20.667  -4.606  -7.642  1.00  0.00     0.064 A 
HETATM   19  C   UNL     1     -21.011  -4.026  -8.873  1.00  0.00     0.062 A 
HETATM   20 CL   UNL     1     -18.983  -4.846  -7.318  1.00  0.00    -0.082 Cl
HETATM   21  C   UNL     1     -22.358  -3.824  -9.184  1.00  0.00     0.104 A 
HETATM   22  C   UNL     1     -23.357  -4.215  -8.288  1.00  0.00     0.038 A 
HETATM   23  C   UNL     1     -22.999  -4.794  -7.065  1.00  0.00     0.035 A 
BRANCH  21  24
HETATM   24  N   UNL     1     -22.727  -3.195 -10.458  1.00  0.00    -0.116 N 
HETATM   25  O   UNL     1     -21.811  -2.773 -11.177  1.00  0.00    -0.532 OA
HETATM   26  O   UNL     1     -23.933  -3.120 -10.734  1.00  0.00    -0.532 OA
ENDBRANCH  21  24
ENDBRANCH   3  17
TORSDOF 4
BEGIN_RES ARG D 557
REMARK  4 active torsions:
REMARK  status: ('A' for Active; 'I' for Inactive)
REMARK    1  A    between atoms: CA   and  CB  
REMARK    2  A    between atoms: CB   and  CG  
REMARK    3  A    between atoms: CG   and  CD  
REMARK    4  A    between atoms: CD   and  NE  
REMARK       I    between atoms: NE   and  CZ  
REMARK       I    between atoms: CZ   and  NH1 
REMARK       I    between atoms: CZ   and  NH2 
ROOT
ATOM      1  CA  ARG D 557     -26.217   2.705 -17.014  1.00 35.49     0.159 C 
ENDROOT
BRANCH   1   2
ATOM      2  CB  ARG D 557     -26.789   1.319 -17.183  1.00 35.49     0.034 C 
BRANCH   2   3
ATOM      3  CG  ARG D 557     -25.865   0.195 -16.989  1.00 35.49     0.027 C 
BRANCH   3   4
ATOM      4  CD  ARG D 557     -26.258  -0.669 -15.852  1.00 35.49     0.116 C 
BRANCH   4   5
ATOM      5  NE  ARG D 557     -25.166  -0.901 -14.945  1.00 35.49    -0.212 N 
ATOM      6  CZ  ARG D 557     -24.870  -2.049 -14.376  1.00 35.49     0.666 C 
ATOM      7  NH1 ARG D 557     -25.581  -3.143 -14.577  1.00 35.49    -0.235 N 
ATOM      8  NH2 ARG D 557     -23.829  -2.082 -13.596  1.00 35.49    -0.235 N 
ATOM      9  HH  ARG D 557     -26.269  -3.145 -15.088  1.00 35.49     0.174 HD
ATOM     10  HH  ARG D 557     -25.339  -3.864 -14.181  1.00 35.49     0.174 HD
ATOM     11  HH  ARG D 557     -23.385  -1.361 -13.491  1.00 35.49     0.174 HD
ATOM     12  HH  ARG D 557     -23.605  -2.805 -13.215  1.00 35.49     0.174 HD
ATOM     13  HE  ARG D 557     -24.699  -0.233 -14.703  1.00 35.49     0.178 HD
ENDBRANCH   4   5
ENDBRANCH   3   4
ENDBRANCH   2   3
ENDBRANCH   1   2
END_RES ARG D 557
BEGIN_RES GLU D 570
REMARK  3 active torsions:
REMARK  status: ('A' for Active; 'I' for Inactive)
REMARK    5  A    between atoms: CA   and  CB  
REMARK    6  A    between atoms: CB   and  CG  
REMARK    7  A    between atoms: CG   and  CD  
ROOT
ATOM     14  CA  GLU D 570     -18.033  -6.348 -13.375  1.00 32.92     0.160 C 
ENDROOT
BRANCH  14  15
ATOM     15  CB  GLU D 570     -19.500  -6.345 -13.794  1.00 32.92     0.043 C 
BRANCH  15  16
ATOM     16  CG  GLU D 570     -20.433  -5.493 -13.012  1.00 32.92     0.100 C 
BRANCH  16  17
ATOM     17  CD  GLU D 570     -21.690  -5.142 -13.775  1.00 32.92     0.185 C 
ATOM     18  OE1 GLU D 570     -22.781  -5.140 -13.175  1.00 32.92    -0.647 OA
ATOM     19  OE2 GLU D 570     -21.583  -4.882 -14.990  1.00 32.92    -0.647 OA
ENDBRANCH  16  17
ENDBRANCH  15  16
ENDBRANCH  14  15
END_RES GLU D 570
ENDMDL
MODEL 3
REMARK VINA RESULT:      -9.2      1.792      2.117
REMARK  4 active torsions:
REMARK  status: ('A' for Active; 'I' for Inactive)
REMARK    1  A    between atoms: C_9  and  O_25 
REMARK    2  A    between atoms: C_10  and  N_11 
REMARK    3  A    between atoms: N_13  and  C_15 
REMARK    4  A    between atoms: C_18  and  N_21 
ROOT
HETATM    1  N   UNL     1     -20.741  -6.994  -5.959  1.00  0.00    -0.297 N 
ATOM      2  HN  UNL     1     -21.538  -7.318  -6.506  1.00  0.00     0.187 HD
HETATM    3  N   UNL     1     -20.133  -5.927  -6.193  1.00  0.00    -0.299 N 
ATOM      4  HN  UNL     1     -19.350  -5.592  -5.632  1.00  0.00     0.187 HD
ENDROOT
BRANCH   1   5
HETATM    5  C   UNL     1     -20.209  -7.708  -4.854  1.00  0.00     0.092 A 
HETATM    6  C   UNL     1     -20.781  -7.497  -3.565  1.00  0.00     0.005 A 
HETATM    7  C   UNL     1     -21.794  -6.540  -3.315  1.00  0.00     0.014 A 
HETATM    8  C   UNL     1     -20.338  -8.279  -2.465  1.00  0.00    -0.024 A 
HETATM    9  C   UNL     1     -22.351  -6.374  -2.045  1.00  0.00     0.001 A 
HETATM   10  C   UNL     1     -21.913  -7.156  -0.985  1.00  0.00     0.001 A 
HETATM   11  C   UNL     1     -20.909  -8.102  -1.194  1.00  0.00     0.012 A 
HETATM   12  C   UNL     1     -19.337  -9.242  -2.653  1.00  0.00     0.015 A 
HETATM   13  C   UNL     1     -18.776  -9.452  -3.909  1.00  0.00     0.040 A 
HETATM   14  C   UNL     1     -19.214  -8.699  -4.998  1.00  0.00     0.094 A 
BRANCH  14  15
HETATM   15  O   UNL     1     -18.685  -8.971  -6.234  1.00  0.00    -0.358 OA
HETATM   16  H   UNL     1     -18.075  -8.260  -6.485  1.00  0.00     0.217 HD
ENDBRANCH  14  15
ENDBRANCH   1   5
BRANCH   3  17
HETATM   17  C   UNL     1     -20.643  -5.228  -7.316  1.00  0.00     0.070 A 
HETATM   18  C   UNL     1     -22.016  -4.919  -7.380  1.00  0.00     0.064 A 
HETATM   19  C   UNL     1     -22.571  -4.260  -8.487  1.00  0.00     0.062 A 
HETATM   20 CL   UNL     1     -23.087  -5.345  -6.087  1.00  0.00    -0.082 Cl
HETATM   21  C   UNL     1     -21.744  -3.886  -9.549  1.00  0.00     0.104 A 
HETATM   22  C   UNL     1     -20.372  -4.147  -9.503  1.00  0.00     0.038 A 
HETATM   23  C   UNL     1     -19.832  -4.803  -8.390  1.00  0.00     0.035 A 
BRANCH  21  24
HETATM   24  N   UNL     1     -22.320  -3.218 -10.723  1.00  0.00    -0.116 N 
HETATM   25  O   UNL     1     -21.542  -2.637 -11.492  1.00  0.00    -0.532 OA
HETATM   26  O   UNL     1     -23.549  -3.273 -10.871  1.00  0.00    -0.532 OA
ENDBRANCH  21  24
ENDBRANCH   3  17
TORSDOF 4
BEGIN_RES ARG D 557
REMARK  4 active torsions:
REMARK  status: ('A' for Active; 'I' for Inactive)
REMARK    1  A    between atoms: CA   and  CB  
REMARK    2  A    between atoms: CB   and  CG  
REMARK    3  A    between atoms: CG   and  CD  
REMARK    4  A    between atoms: CD   and  NE  
REMARK       I    between atoms: NE   and  CZ  
REMARK       I    between atoms: CZ   and  NH1 
REMARK       I    between atoms: CZ   and  NH2 
ROOT
ATOM      1  CA  ARG D 557     -26.217   2.705 -17.014  1.00 35.49     0.159 C 
ENDROOT
BRANCH   1   2
ATOM      2  CB  ARG D 557     -26.789   1.319 -17.183  1.00 35.49     0.034 C 
BRANCH   2   3
ATOM      3  CG  ARG D 557     -28.154   1.103 -16.689  1.00 35.49     0.027 C 
BRANCH   3   4
ATOM      4  CD  ARG D 557     -28.791  -0.090 -17.292  1.00 35.49     0.116 C 
BRANCH   4   5
ATOM      5  NE  ARG D 557     -28.177  -1.315 -16.849  1.00 35.49    -0.212 N 
ATOM      6  CZ  ARG D 557     -28.659  -2.524 -17.031  1.00 35.49     0.666 C 
ATOM      7  NH1 ARG D 557     -29.804  -2.746 -17.649  1.00 35.49    -0.235 N 
ATOM      8  NH2 ARG D 557     -27.957  -3.523 -16.580  1.00 35.49    -0.235 N 
ATOM      9  HH  ARG D 557     -30.281  -2.104 -17.955  1.00 35.49     0.174 HD
ATOM     10  HH  ARG D 557     -30.067  -3.557 -17.740  1.00 35.49     0.174 HD
ATOM     11  HH  ARG D 557     -27.217  -3.350 -16.192  1.00 35.49     0.174 HD
ATOM     12  HH  ARG D 557     -28.233  -4.318 -16.682  1.00 35.49     0.174 HD
ATOM     13  HE  ARG D 557     -27.472  -1.260 -16.378  1.00 35.49     0.178 HD
ENDBRANCH   4   5
ENDBRANCH   3   4
ENDBRANCH   2   3
ENDBRANCH   1   2
END_RES ARG D 557
BEGIN_RES GLU D 570
REMARK  3 active torsions:
REMARK  status: ('A' for Active; 'I' for Inactive)
REMARK    5  A    between atoms: CA   and  CB  
REMARK    6  A    between atoms: CB   and  CG  
REMARK    7  A    between atoms: CG   and  CD  
ROOT
ATOM     14  CA  GLU D 570     -18.033  -6.348 -13.375  1.00 32.92     0.160 C 
ENDROOT
BRANCH  14  15
ATOM     15  CB  GLU D 570     -19.500  -6.345 -13.794  1.00 32.92     0.043 C 
BRANCH  15  16
ATOM     16  CG  GLU D 570     -20.433  -5.491 -13.014  1.00 32.92     0.100 C 
BRANCH  16  17
ATOM     17  CD  GLU D 570     -21.723  -5.205 -13.747  1.00 32.92     0.185 C 
ATOM     18  OE1 GLU D 570     -21.673  -4.710 -14.889  1.00 32.92    -0.647 OA
ATOM     19  OE2 GLU D 570     -22.795  -5.464 -13.166  1.00 32.92    -0.647 OA
ENDBRANCH  16  17
ENDBRANCH  15  16
ENDBRANCH  14  15
END_RES GLU D 570
ENDMDL
MODEL 4
REMARK VINA RESULT:      -8.9      6.487     10.324
REMARK  4 active torsions:
REMARK  status: ('A' for Active; 'I' for Inactive)
REMARK    1  A    between atoms: C_9  and  O_25 
REMARK    2  A    between atoms: C_10  and  N_11 
REMARK    3  A    between atoms: N_13  and  C_15 
REMARK    4  A    between atoms: C_18  and  N_21 
ROOT
HETATM    1  N   UNL     1     -25.528  -6.038 -15.479  1.00  0.00    -0.297 N 
ATOM      2  HN  UNL     1     -25.481  -6.708 -14.711  1.00  0.00     0.187 HD
HETATM    3  N   UNL     1     -25.027  -4.895 -15.427  1.00  0.00    -0.299 N 
ATOM      4  HN  UNL     1     -25.055  -4.234 -16.204  1.00  0.00     0.187 HD
ENDROOT
BRANCH   1   5
HETATM    5  C   UNL     1     -26.168  -6.311 -16.716  1.00  0.00     0.092 A 
HETATM    6  C   UNL     1     -27.590  -6.226 -16.783  1.00  0.00     0.005 A 
HETATM    7  C   UNL     1     -28.404  -5.975 -15.652  1.00  0.00     0.014 A 
HETATM    8  C   UNL     1     -28.244  -6.390 -18.033  1.00  0.00    -0.024 A 
HETATM    9  C   UNL     1     -29.793  -5.874 -15.754  1.00  0.00     0.001 A 
HETATM   10  C   UNL     1     -30.413  -6.024 -16.987  1.00  0.00     0.001 A 
HETATM   11  C   UNL     1     -29.642  -6.283 -18.120  1.00  0.00     0.012 A 
HETATM   12  C   UNL     1     -27.489  -6.641 -19.187  1.00  0.00     0.015 A 
HETATM   13  C   UNL     1     -26.101  -6.725 -19.127  1.00  0.00     0.040 A 
HETATM   14  C   UNL     1     -25.449  -6.552 -17.907  1.00  0.00     0.094 A 
BRANCH  14  15
HETATM   15  O   UNL     1     -24.078  -6.579 -17.891  1.00  0.00    -0.358 OA
HETATM   16  H   UNL     1     -23.759  -7.128 -18.625  1.00  0.00     0.217 HD
ENDBRANCH  14  15
ENDBRANCH   1   5
BRANCH   3  17
HETATM   17  C   UNL     1     -24.415  -4.608 -14.181  1.00  0.00     0.070 A 
HETATM   18  C   UNL     1     -24.497  -3.306 -13.648  1.00  0.00     0.064 A 
HETATM   19  C   UNL     1     -23.878  -2.967 -12.436  1.00  0.00     0.062 A 
HETATM   20 CL   UNL     1     -25.369  -2.058 -14.473  1.00  0.00    -0.082 Cl
HETATM   21  C   UNL     1     -23.173  -3.944 -11.728  1.00  0.00     0.104 A 
HETATM   22  C   UNL     1     -23.102  -5.254 -12.211  1.00  0.00     0.038 A 
HETATM   23  C   UNL     1     -23.726  -5.578 -13.421  1.00  0.00     0.035 A 
BRANCH  21  24
HETATM   24  N   UNL     1     -22.501  -3.593 -10.471  1.00  0.00    -0.116 N 
HETATM   25  O   UNL     1     -21.272  -3.445 -10.498  1.00  0.00    -0.532 OA
HETATM   26  O   UNL     1     -23.204  -3.472  -9.457  1.00  0.00    -0.532 OA
ENDBRANCH  21  24
ENDBRANCH   3  17
TORSDOF 4
BEGIN_RES ARG D 557
REMARK  4 active torsions:
REMARK  status: ('A' for Active; 'I' for Inactive)
REMARK    1  A    between atoms: CA   and  CB  
REMARK    2  A    between atoms: CB   and  CG  
REMARK    3  A    between atoms: CG   and  CD  
REMARK    4  A    between atoms: CD   and  NE  
REMARK       I    between atoms: NE   and  CZ  
REMARK       I    between atoms: CZ   and  NH1 
REMARK       I    between atoms: CZ   and  NH2 
ROOT
ATOM      1  CA  ARG D 557     -26.217   2.705 -17.014  1.00 35.49     0.159 C 
ENDROOT
BRANCH   1   2
ATOM      2  CB  ARG D 557     -26.789   1.319 -17.183  1.00 35.49     0.034 C 
BRANCH   2   3
ATOM      3  CG  ARG D 557     -28.252   1.203 -17.179  1.00 35.49     0.027 C 
BRANCH   3   4
ATOM      4  CD  ARG D 557     -28.729   0.105 -16.308  1.00 35.49     0.116 C 
BRANCH   4   5
ATOM      5  NE  ARG D 557     -29.414  -0.919 -17.053  1.00 35.49    -0.212 N 
ATOM      6  CZ  ARG D 557     -29.031  -2.171 -17.169  1.00 35.49     0.666 C 
ATOM      7  NH1 ARG D 557     -27.929  -2.630 -16.604  1.00 35.49    -0.235 N 
ATOM      8  NH2 ARG D 557     -29.787  -2.968 -17.866  1.00 35.49    -0.235 N 
ATOM      9  HH  ARG D 557     -27.418  -2.124 -16.139  1.00 35.49     0.174 HD
ATOM     10  HH  ARG D 557     -27.731  -3.457 -16.712  1.00 35.49     0.174 HD
ATOM     11  HH  ARG D 557     -30.496  -2.645 -18.213  1.00 35.49     0.174 HD
ATOM     12  HH  ARG D 557     -29.574  -3.783 -17.960  1.00 35.49     0.174 HD
ATOM     13  HE  ARG D 557     -30.096  -0.693 -17.508  1.00 35.49     0.178 HD
ENDBRANCH   4   5
ENDBRANCH   3   4
ENDBRANCH   2   3
ENDBRANCH   1   2
END_RES ARG D 557
BEGIN_RES GLU D 570
REMARK  3 active torsions:
REMARK  status: ('A' for Active; 'I' for Inactive)
REMARK    5  A    between atoms: CA   and  CB  
REMARK    6  A    between atoms: CB   and  CG  
REMARK    7  A    between atoms: CG   and  CD  
ROOT
ATOM     14  CA  GLU D 570     -18.033  -6.348 -13.375  1.00 32.92     0.160 C 
ENDROOT
BRANCH  14  15
ATOM     15  CB  GLU D 570     -19.500  -6.345 -13.794  1.00 32.92     0.043 C 
BRANCH  15  16
ATOM     16  CG  GLU D 570     -19.819  -5.869 -15.165  1.00 32.92     0.100 C 
BRANCH  16  17
ATOM     17  CD  GLU D 570     -21.121  -6.425 -15.693  1.00 32.92     0.185 C 
ATOM     18  OE1 GLU D 570     -21.904  -5.665 -16.296  1.00 32.92    -0.647 OA
ATOM     19  OE2 GLU D 570     -21.368  -7.630 -15.489  1.00 32.92    -0.647 OA
ENDBRANCH  16  17
ENDBRANCH  15  16
ENDBRANCH  14  15
END_RES GLU D 570
ENDMDL
MODEL 5
REMARK VINA RESULT:      -8.8      7.016     12.263
REMARK  4 active torsions:
REMARK  status: ('A' for Active; 'I' for Inactive)
REMARK    1  A    between atoms: C_9  and  O_25 
REMARK    2  A    between atoms: C_10  and  N_11 
REMARK    3  A    between atoms: N_13  and  C_15 
REMARK    4  A    between atoms: C_18  and  N_21 
ROOT
HETATM    1  N   UNL     1     -25.823  -6.356 -18.750  1.00  0.00    -0.297 N 
ATOM      2  HN  UNL     1     -26.229  -5.756 -19.468  1.00  0.00     0.187 HD
HETATM    3  N   UNL     1     -26.420  -6.672 -17.698  1.00  0.00    -0.299 N 
ATOM      4  HN  UNL     1     -26.023  -7.290 -16.991  1.00  0.00     0.187 HD
ENDROOT
BRANCH   1   5
HETATM    5  C   UNL     1     -24.524  -6.919 -18.844  1.00  0.00     0.092 A 
HETATM    6  C   UNL     1     -24.095  -7.440 -20.101  1.00  0.00     0.005 A 
HETATM    7  C   UNL     1     -24.936  -7.509 -21.238  1.00  0.00     0.014 A 
HETATM    8  C   UNL     1     -22.762  -7.909 -20.246  1.00  0.00    -0.024 A 
HETATM    9  C   UNL     1     -24.478  -8.003 -22.461  1.00  0.00     0.001 A 
HETATM   10  C   UNL     1     -23.168  -8.446 -22.587  1.00  0.00     0.001 A 
HETATM   11  C   UNL     1     -22.316  -8.401 -21.484  1.00  0.00     0.012 A 
HETATM   12  C   UNL     1     -21.884  -7.865 -19.154  1.00  0.00     0.015 A 
HETATM   13  C   UNL     1     -22.299  -7.357 -17.926  1.00  0.00     0.040 A 
HETATM   14  C   UNL     1     -23.601  -6.881 -17.778  1.00  0.00     0.094 A 
BRANCH  14  15
HETATM   15  O   UNL     1     -23.960  -6.331 -16.573  1.00  0.00    -0.358 OA
HETATM   16  H   UNL     1     -24.917  -6.431 -16.448  1.00  0.00     0.217 HD
ENDBRANCH  14  15
ENDBRANCH   1   5
BRANCH   3  17
HETATM   17  C   UNL     1     -27.706  -6.084 -17.587  1.00  0.00     0.070 A 
HETATM   18  C   UNL     1     -28.512  -6.379 -16.470  1.00  0.00     0.064 A 
HETATM   19  C   UNL     1     -29.804  -5.849 -16.335  1.00  0.00     0.062 A 
HETATM   20 CL   UNL     1     -27.940  -7.417 -15.208  1.00  0.00    -0.082 Cl
HETATM   21  C   UNL     1     -30.304  -4.997 -17.322  1.00  0.00     0.104 A 
HETATM   22  C   UNL     1     -29.517  -4.656 -18.427  1.00  0.00     0.038 A 
HETATM   23  C   UNL     1     -28.229  -5.191 -18.547  1.00  0.00     0.035 A 
BRANCH  21  24
HETATM   24  N   UNL     1     -31.664  -4.457 -17.202  1.00  0.00    -0.116 N 
HETATM   25  O   UNL     1     -32.564  -5.238 -16.865  1.00  0.00    -0.532 OA
HETATM   26  O   UNL     1     -31.829  -3.255 -17.451  1.00  0.00    -0.532 OA
ENDBRANCH  21  24
ENDBRANCH   3  17
TORSDOF 4
BEGIN_RES ARG D 557
REMARK  4 active torsions:
REMARK  status: ('A' for Active; 'I' for Inactive)
REMARK    1  A    between atoms: CA   and  CB  
REMARK    2  A    between atoms: CB   and  CG  
REMARK    3  A    between atoms: CG   and  CD  
REMARK    4  A    between atoms: CD   and  NE  
REMARK       I    between atoms: NE   and  CZ  
REMARK       I    between atoms: CZ   and  NH1 
REMARK       I    between atoms: CZ   and  NH2 
ROOT
ATOM      1  CA  ARG D 557     -26.217   2.705 -17.014  1.00 35.49     0.159 C 
ENDROOT
BRANCH   1   2
ATOM      2  CB  ARG D 557     -26.789   1.319 -17.183  1.00 35.49     0.034 C 
BRANCH   2   3
ATOM      3  CG  ARG D 557     -25.836   0.203 -17.150  1.00 35.49     0.027 C 
BRANCH   3   4
ATOM      4  CD  ARG D 557     -24.758   0.410 -16.156  1.00 35.49     0.116 C 
BRANCH   4   5
ATOM      5  NE  ARG D 557     -24.908  -0.445 -15.008  1.00 35.49    -0.212 N 
ATOM      6  CZ  ARG D 557     -24.094  -1.417 -14.663  1.00 35.49     0.666 C 
ATOM      7  NH1 ARG D 557     -23.023  -1.730 -15.369  1.00 35.49    -0.235 N 
ATOM      8  NH2 ARG D 557     -24.374  -2.077 -13.576  1.00 35.49    -0.235 N 
ATOM      9  HH  ARG D 557     -22.819  -1.308 -16.086  1.00 35.49     0.174 HD
ATOM     10  HH  ARG D 557     -22.528  -2.372 -15.094  1.00 35.49     0.174 HD
ATOM     11  HH  ARG D 557     -25.067  -1.848 -13.136  1.00 35.49     0.174 HD
ATOM     12  HH  ARG D 557     -23.870  -2.708 -13.319  1.00 35.49     0.174 HD
ATOM     13  HE  ARG D 557     -25.611  -0.361 -14.536  1.00 35.49     0.178 HD
ENDBRANCH   4   5
ENDBRANCH   3   4
ENDBRANCH   2   3
ENDBRANCH   1   2
END_RES ARG D 557
BEGIN_RES GLU D 570
REMARK  3 active torsions:
REMARK  status: ('A' for Active; 'I' for Inactive)
REMARK    5  A    between atoms: CA   and  CB  
REMARK    6  A    between atoms: CB   and  CG  
REMARK    7  A    between atoms: CG   and  CD  
ROOT
ATOM     14  CA  GLU D 570     -18.033  -6.348 -13.375  1.00 32.92     0.160 C 
ENDROOT
BRANCH  14  15
ATOM     15  CB  GLU D 570     -19.500  -6.345 -13.794  1.00 32.92     0.043 C 
BRANCH  15  16
ATOM     16  CG  GLU D 570     -20.440  -5.522 -12.990  1.00 32.92     0.100 C 
BRANCH  16  17
ATOM     17  CD  GLU D 570     -21.747  -5.257 -13.700  1.00 32.92     0.185 C 
ATOM     18  OE1 GLU D 570     -22.294  -4.146 -13.565  1.00 32.92    -0.647 OA
ATOM     19  OE2 GLU D 570     -22.237  -6.176 -14.385  1.00 32.92    -0.647 OA
ENDBRANCH  16  17
ENDBRANCH  15  16
ENDBRANCH  14  15
END_RES GLU D 570
ENDMDL
MODEL 6
REMARK VINA RESULT:      -8.6      3.150      6.149
REMARK  4 active torsions:
REMARK  status: ('A' for Active; 'I' for Inactive)
REMARK    1  A    between atoms: C_9  and  O_25 
REMARK    2  A    between atoms: C_10  and  N_11 
REMARK    3  A    between atoms: N_13  and  C_15 
REMARK    4  A    between atoms: C_18  and  N_21 
ROOT
HETATM    1  N   UNL     1     -19.658  -9.418  -3.873  1.00  0.00    -0.297 N 
ATOM      2  HN  UNL     1     -19.887 -10.411  -3.850  1.00  0.00     0.187 HD
HETATM    3  N   UNL     1     -18.595  -8.966  -4.351  1.00  0.00    -0.299 N 
ATOM      4  HN  UNL     1     -18.377  -7.971  -4.394  1.00  0.00     0.187 HD
ENDROOT
BRANCH   1   5
HETATM    5  C   UNL     1     -20.515  -8.407  -3.365  1.00  0.00     0.092 A 
HETATM    6  C   UNL     1     -20.943  -8.492  -2.007  1.00  0.00     0.005 A 
HETATM    7  C   UNL     1     -20.631  -9.587  -1.166  1.00  0.00     0.014 A 
HETATM    8  C   UNL     1     -21.712  -7.437  -1.447  1.00  0.00    -0.024 A 
HETATM    9  C   UNL     1     -21.046  -9.630   0.167  1.00  0.00     0.001 A 
HETATM   10  C   UNL     1     -21.786  -8.584   0.700  1.00  0.00     0.001 A 
HETATM   11  C   UNL     1     -22.119  -7.495  -0.104  1.00  0.00     0.012 A 
HETATM   12  C   UNL     1     -22.050  -6.328  -2.234  1.00  0.00     0.015 A 
HETATM   13  C   UNL     1     -21.635  -6.240  -3.559  1.00  0.00     0.040 A 
HETATM   14  C   UNL     1     -20.868  -7.264  -4.114  1.00  0.00     0.094 A 
BRANCH  14  15
HETATM   15  O   UNL     1     -20.422  -7.119  -5.403  1.00  0.00    -0.358 OA
HETATM   16  H   UNL     1     -21.026  -6.533  -5.887  1.00  0.00     0.217 HD
ENDBRANCH  14  15
ENDBRANCH   1   5
BRANCH   3  17
HETATM   17  C   UNL     1     -17.723  -9.977  -4.829  1.00  0.00     0.070 A 
HETATM   18  C   UNL     1     -16.495 -10.202  -4.179  1.00  0.00     0.064 A 
HETATM   19  C   UNL     1     -15.585 -11.167  -4.637  1.00  0.00     0.062 A 
HETATM   20 CL   UNL     1     -16.048  -9.289  -2.777  1.00  0.00    -0.082 Cl
HETATM   21  C   UNL     1     -15.907 -11.936  -5.757  1.00  0.00     0.104 A 
HETATM   22  C   UNL     1     -17.133 -11.763  -6.406  1.00  0.00     0.038 A 
HETATM   23  C   UNL     1     -18.031 -10.798  -5.936  1.00  0.00     0.035 A 
BRANCH  21  24
HETATM   24  N   UNL     1     -14.951 -12.931  -6.259  1.00  0.00    -0.116 N 
HETATM   25  O   UNL     1     -15.349 -14.097  -6.388  1.00  0.00    -0.532 OA
HETATM   26  O   UNL     1     -13.802 -12.545  -6.519  1.00  0.00    -0.532 OA
ENDBRANCH  21  24
ENDBRANCH   3  17
TORSDOF 4
BEGIN_RES ARG D 557
REMARK  4 active torsions:
REMARK  status: ('A' for Active; 'I' for Inactive)
REMARK    1  A    between atoms: CA   and  CB  
REMARK    2  A    between atoms: CB   and  CG  
REMARK    3  A    between atoms: CG   and  CD  
REMARK    4  A    between atoms: CD   and  NE  
REMARK       I    between atoms: NE   and  CZ  
REMARK       I    between atoms: CZ   and  NH1 
REMARK       I    between atoms: CZ   and  NH2 
ROOT
ATOM      1  CA  ARG D 557     -26.217   2.705 -17.014  1.00 35.49     0.159 C 
ENDROOT
BRANCH   1   2
ATOM      2  CB  ARG D 557     -26.789   1.319 -17.183  1.00 35.49     0.034 C 
BRANCH   2   3
ATOM      3  CG  ARG D 557     -25.837   0.202 -17.148  1.00 35.49     0.027 C 
BRANCH   3   4
ATOM      4  CD  ARG D 557     -24.754   0.415 -16.160  1.00 35.49     0.116 C 
BRANCH   4   5
ATOM      5  NE  ARG D 557     -24.895  -0.437 -15.009  1.00 35.49    -0.212 N 
ATOM      6  CZ  ARG D 557     -24.077  -1.408 -14.667  1.00 35.49     0.666 C 
ATOM      7  NH1 ARG D 557     -23.011  -1.720 -15.379  1.00 35.49    -0.235 N 
ATOM      8  NH2 ARG D 557     -24.349  -2.065 -13.577  1.00 35.49    -0.235 N 
ATOM      9  HH  ARG D 557     -22.812  -1.299 -16.099  1.00 35.49     0.174 HD
ATOM     10  HH  ARG D 557     -22.512  -2.361 -15.106  1.00 35.49     0.174 HD
ATOM     11  HH  ARG D 557     -25.040  -1.837 -13.133  1.00 35.49     0.174 HD
ATOM     12  HH  ARG D 557     -23.842  -2.696 -13.322  1.00 35.49     0.174 HD
ATOM     13  HE  ARG D 557     -25.595  -0.353 -14.533  1.00 35.49     0.178 HD
ENDBRANCH   4   5
ENDBRANCH   3   4
ENDBRANCH   2   3
ENDBRANCH   1   2
END_RES ARG D 557
BEGIN_RES GLU D 570
REMARK  3 active torsions:
REMARK  status: ('A' for Active; 'I' for Inactive)
REMARK    5  A    between atoms: CA   and  CB  
REMARK    6  A    between atoms: CB   and  CG  
REMARK    7  A    between atoms: CG   and  CD  
ROOT
ATOM     14  CA  GLU D 570     -18.033  -6.348 -13.375  1.00 32.92     0.160 C 
ENDROOT
BRANCH  14  15
ATOM     15  CB  GLU D 570     -19.500  -6.345 -13.794  1.00 32.92     0.043 C 
BRANCH  15  16
ATOM     16  CG  GLU D 570     -20.445  -5.546 -12.972  1.00 32.92     0.100 C 
BRANCH  16  17
ATOM     17  CD  GLU D 570     -21.738  -5.239 -13.691  1.00 32.92     0.185 C 
ATOM     18  OE1 GLU D 570     -22.268  -4.123 -13.532  1.00 32.92    -0.647 OA
ATOM     19  OE2 GLU D 570     -22.234  -6.130 -14.408  1.00 32.92    -0.647 OA
ENDBRANCH  16  17
ENDBRANCH  15  16
ENDBRANCH  14  15
END_RES GLU D 570
ENDMDL
MODEL 7
REMARK VINA RESULT:      -8.6      3.617      7.052
REMARK  4 active torsions:
REMARK  status: ('A' for Active; 'I' for Inactive)
REMARK    1  A    between atoms: C_9  and  O_25 
REMARK    2  A    between atoms: C_10  and  N_11 
REMARK    3  A    between atoms: N_13  and  C_15 
REMARK    4  A    between atoms: C_18  and  N_21 
ROOT
HETATM    1  N   UNL     1     -18.955  -9.590  -3.519  1.00  0.00    -0.297 N 
ATOM      2  HN  UNL     1     -19.224 -10.531  -3.231  1.00  0.00     0.187 HD
HETATM    3  N   UNL     1     -17.768  -9.229  -3.668  1.00  0.00    -0.299 N 
ATOM      4  HN  UNL     1     -17.500  -8.295  -3.978  1.00  0.00     0.187 HD
ENDROOT
BRANCH   1   5
HETATM    5  C   UNL     1     -19.891  -8.558  -3.793  1.00  0.00     0.092 A 
HETATM    6  C   UNL     1     -20.690  -8.060  -2.723  1.00  0.00     0.005 A 
HETATM    7  C   UNL     1     -20.664  -8.607  -1.417  1.00  0.00     0.014 A 
HETATM    8  C   UNL     1     -21.555  -6.956  -2.949  1.00  0.00    -0.024 A 
HETATM    9  C   UNL     1     -21.442  -8.081  -0.384  1.00  0.00     0.001 A 
HETATM   10  C   UNL     1     -22.272  -6.994  -0.622  1.00  0.00     0.001 A 
HETATM   11  C   UNL     1     -22.329  -6.436  -1.899  1.00  0.00     0.012 A 
HETATM   12  C   UNL     1     -21.622  -6.373  -4.222  1.00  0.00     0.015 A 
HETATM   13  C   UNL     1     -20.844  -6.856  -5.270  1.00  0.00     0.040 A 
HETATM   14  C   UNL     1     -19.981  -7.930  -5.054  1.00  0.00     0.094 A 
BRANCH  14  15
HETATM   15  O   UNL     1     -19.183  -8.344  -6.090  1.00  0.00    -0.358 OA
HETATM   16  H   UNL     1     -19.189  -9.313  -6.133  1.00  0.00     0.217 HD
ENDBRANCH  14  15
ENDBRANCH   1   5
BRANCH   3  17
HETATM   17  C   UNL     1     -16.830 -10.248  -3.364  1.00  0.00     0.070 A 
HETATM   18  C   UNL     1     -15.950 -10.705  -4.363  1.00  0.00     0.064 A 
HETATM   19  C   UNL     1     -15.029 -11.735  -4.119  1.00  0.00     0.062 A 
HETATM   20 CL   UNL     1     -15.965 -10.012  -5.951  1.00  0.00    -0.082 Cl
HETATM   21  C   UNL     1     -14.971 -12.317  -2.850  1.00  0.00     0.104 A 
HETATM   22  C   UNL     1     -15.807 -11.863  -1.825  1.00  0.00     0.038 A 
HETATM   23  C   UNL     1     -16.719 -10.833  -2.084  1.00  0.00     0.035 A 
BRANCH  21  24
HETATM   24  N   UNL     1     -14.029 -13.412  -2.590  1.00  0.00    -0.116 N 
HETATM   25  O   UNL     1     -13.176 -13.653  -3.455  1.00  0.00    -0.532 OA
HETATM   26  O   UNL     1     -14.149 -14.034  -1.525  1.00  0.00    -0.532 OA
ENDBRANCH  21  24
ENDBRANCH   3  17
TORSDOF 4
BEGIN_RES ARG D 557
REMARK  4 active torsions:
REMARK  status: ('A' for Active; 'I' for Inactive)
REMARK    1  A    between atoms: CA   and  CB  
REMARK    2  A    between atoms: CB   and  CG  
REMARK    3  A    between atoms: CG   and  CD  
REMARK    4  A    between atoms: CD   and  NE  
REMARK       I    between atoms: NE   and  CZ  
REMARK       I    between atoms: CZ   and  NH1 
REMARK       I    between atoms: CZ   and  NH2 
ROOT
ATOM      1  CA  ARG D 557     -26.217   2.705 -17.014  1.00 35.49     0.159 C 
ENDROOT
BRANCH   1   2
ATOM      2  CB  ARG D 557     -26.789   1.319 -17.183  1.00 35.49     0.034 C 
BRANCH   2   3
ATOM      3  CG  ARG D 557     -25.834   0.204 -17.168  1.00 35.49     0.027 C 
BRANCH   3   4
ATOM      4  CD  ARG D 557     -24.757   0.396 -16.171  1.00 35.49     0.116 C 
BRANCH   4   5
ATOM      5  NE  ARG D 557     -24.922  -0.456 -15.023  1.00 35.49    -0.212 N 
ATOM      6  CZ  ARG D 557     -24.109  -1.423 -14.661  1.00 35.49     0.666 C 
ATOM      7  NH1 ARG D 557     -23.025  -1.732 -15.347  1.00 35.49    -0.235 N 
ATOM      8  NH2 ARG D 557     -24.404  -2.081 -13.578  1.00 35.49    -0.235 N 
ATOM      9  HH  ARG D 557     -22.810  -1.311 -16.062  1.00 35.49     0.174 HD
ATOM     10  HH  ARG D 557     -22.531  -2.371 -15.062  1.00 35.49     0.174 HD
ATOM     11  HH  ARG D 557     -25.107  -1.855 -13.151  1.00 35.49     0.174 HD
ATOM     12  HH  ARG D 557     -23.902  -2.710 -13.310  1.00 35.49     0.174 HD
ATOM     13  HE  ARG D 557     -25.634  -0.374 -14.564  1.00 35.49     0.178 HD
ENDBRANCH   4   5
ENDBRANCH   3   4
ENDBRANCH   2   3
ENDBRANCH   1   2
END_RES ARG D 557
BEGIN_RES GLU D 570
REMARK  3 active torsions:
REMARK  status: ('A' for Active; 'I' for Inactive)
REMARK    5  A    between atoms: CA   and  CB  
REMARK    6  A    between atoms: CB   and  CG  
REMARK    7  A    between atoms: CG   and  CD  
ROOT
ATOM     14  CA  GLU D 570     -18.033  -6.348 -13.375  1.00 32.92     0.160 C 
ENDROOT
BRANCH  14  15
ATOM     15  CB  GLU D 570     -19.500  -6.345 -13.794  1.00 32.92     0.043 C 
BRANCH  15  16
ATOM     16  CG  GLU D 570     -20.441  -5.526 -12.987  1.00 32.92     0.100 C 
BRANCH  16  17
ATOM     17  CD  GLU D 570     -21.713  -5.188 -13.728  1.00 32.92     0.185 C 
ATOM     18  OE1 GLU D 570     -22.368  -4.186 -13.381  1.00 32.92    -0.647 OA
ATOM     19  OE2 GLU D 570     -22.068  -5.942 -14.655  1.00 32.92    -0.647 OA
ENDBRANCH  16  17
ENDBRANCH  15  16
ENDBRANCH  14  15
END_RES GLU D 570
ENDMDL
MODEL 8
REMARK VINA RESULT:      -8.6      2.174      3.274
REMARK  4 active torsions:
REMARK  status: ('A' for Active; 'I' for Inactive)
REMARK    1  A    between atoms: C_9  and  O_25 
REMARK    2  A    between atoms: C_10  and  N_11 
REMARK    3  A    between atoms: N_13  and  C_15 
REMARK    4  A    between atoms: C_18  and  N_21 
ROOT
HETATM    1  N   UNL     1     -20.831  -7.005  -5.955  1.00  0.00    -0.297 N 
ATOM      2  HN  UNL     1     -21.083  -7.539  -6.787  1.00  0.00     0.187 HD
HETATM    3  N   UNL     1     -20.717  -5.761  -5.944  1.00  0.00    -0.299 N 
ATOM      4  HN  UNL     1     -20.487  -5.226  -5.107  1.00  0.00     0.187 HD
ENDROOT
BRANCH   1   5
HETATM    5  C   UNL     1     -20.577  -7.600  -4.692  1.00  0.00     0.092 A 
HETATM    6  C   UNL     1     -19.502  -8.530  -4.579  1.00  0.00     0.005 A 
HETATM    7  C   UNL     1     -18.733  -8.962  -5.686  1.00  0.00     0.014 A 
HETATM    8  C   UNL     1     -19.161  -9.055  -3.304  1.00  0.00    -0.024 A 
HETATM    9  C   UNL     1     -17.671  -9.856  -5.539  1.00  0.00     0.001 A 
HETATM   10  C   UNL     1     -17.345 -10.350  -4.283  1.00  0.00     0.001 A 
HETATM   11  C   UNL     1     -18.089  -9.952  -3.172  1.00  0.00     0.012 A 
HETATM   12  C   UNL     1     -19.888  -8.663  -2.172  1.00  0.00     0.015 A 
HETATM   13  C   UNL     1     -20.938  -7.756  -2.277  1.00  0.00     0.040 A 
HETATM   14  C   UNL     1     -21.271  -7.224  -3.522  1.00  0.00     0.094 A 
BRANCH  14  15
HETATM   15  O   UNL     1     -22.270  -6.286  -3.583  1.00  0.00    -0.358 OA
HETATM   16  H   UNL     1     -23.077  -6.698  -3.931  1.00  0.00     0.217 HD
ENDBRANCH  14  15
ENDBRANCH   1   5
BRANCH   3  17
HETATM   17  C   UNL     1     -20.939  -5.168  -7.213  1.00  0.00     0.070 A 
HETATM   18  C   UNL     1     -22.238  -4.759  -7.573  1.00  0.00     0.064 A 
HETATM   19  C   UNL     1     -22.511  -4.200  -8.830  1.00  0.00     0.062 A 
HETATM   20 CL   UNL     1     -23.564  -4.933  -6.473  1.00  0.00    -0.082 Cl
HETATM   21  C   UNL     1     -21.471  -4.029  -9.747  1.00  0.00     0.104 A 
HETATM   22  C   UNL     1     -20.164  -4.391  -9.409  1.00  0.00     0.038 A 
HETATM   23  C   UNL     1     -19.906  -4.947  -8.150  1.00  0.00     0.035 A 
BRANCH  21  24
HETATM   24  N   UNL     1     -21.751  -3.467 -11.074  1.00  0.00    -0.116 N 
HETATM   25  O   UNL     1     -22.861  -3.698 -11.573  1.00  0.00    -0.532 OA
HETATM   26  O   UNL     1     -20.859  -2.801 -11.617  1.00  0.00    -0.532 OA
ENDBRANCH  21  24
ENDBRANCH   3  17
TORSDOF 4
BEGIN_RES ARG D 557
REMARK  4 active torsions:
REMARK  status: ('A' for Active; 'I' for Inactive)
REMARK    1  A    between atoms: CA   and  CB  
REMARK    2  A    between atoms: CB   and  CG  
REMARK    3  A    between atoms: CG   and  CD  
REMARK    4  A    between atoms: CD   and  NE  
REMARK       I    between atoms: NE   and  CZ  
REMARK       I    between atoms: CZ   and  NH1 
REMARK       I    between atoms: CZ   and  NH2 
ROOT
ATOM      1  CA  ARG D 557     -26.217   2.705 -17.014  1.00 35.49     0.159 C 
ENDROOT
BRANCH   1   2
ATOM      2  CB  ARG D 557     -26.789   1.319 -17.183  1.00 35.49     0.034 C 
BRANCH   2   3
ATOM      3  CG  ARG D 557     -28.230   1.227 -17.447  1.00 35.49     0.027 C 
BRANCH   3   4
ATOM      4  CD  ARG D 557     -28.918   0.308 -16.512  1.00 35.49     0.116 C 
BRANCH   4   5
ATOM      5  NE  ARG D 557     -29.288  -0.931 -17.142  1.00 35.49    -0.212 N 
ATOM      6  CZ  ARG D 557     -28.647  -2.073 -17.028  1.00 35.49     0.666 C 
ATOM      7  NH1 ARG D 557     -27.548  -2.200 -16.307  1.00 35.49    -0.235 N 
ATOM      8  NH2 ARG D 557     -29.138  -3.103 -17.654  1.00 35.49    -0.235 N 
ATOM      9  HH  ARG D 557     -27.208  -1.536 -15.885  1.00 35.49     0.174 HD
ATOM     10  HH  ARG D 557     -27.174  -2.970 -16.268  1.00 35.49     0.174 HD
ATOM     11  HH  ARG D 557     -29.853  -2.993 -18.106  1.00 35.49     0.174 HD
ATOM     12  HH  ARG D 557     -28.754  -3.857 -17.601  1.00 35.49     0.174 HD
ATOM     13  HE  ARG D 557     -29.944  -0.924 -17.684  1.00 35.49     0.178 HD
ENDBRANCH   4   5
ENDBRANCH   3   4
ENDBRANCH   2   3
ENDBRANCH   1   2
END_RES ARG D 557
BEGIN_RES GLU D 570
REMARK  3 active torsions:
REMARK  status: ('A' for Active; 'I' for Inactive)
REMARK    5  A    between atoms: CA   and  CB  
REMARK    6  A    between atoms: CB   and  CG  
REMARK    7  A    between atoms: CG   and  CD  
ROOT
ATOM     14  CA  GLU D 570     -18.033  -6.348 -13.375  1.00 32.92     0.160 C 
ENDROOT
BRANCH  14  15
ATOM     15  CB  GLU D 570     -19.500  -6.345 -13.794  1.00 32.92     0.043 C 
BRANCH  15  16
ATOM     16  CG  GLU D 570     -19.800  -6.131 -15.233  1.00 32.92     0.100 C 
BRANCH  16  17
ATOM     17  CD  GLU D 570     -21.081  -5.361 -15.460  1.00 32.92     0.185 C 
ATOM     18  OE1 GLU D 570     -21.716  -4.940 -14.474  1.00 32.92    -0.647 OA
ATOM     19  OE2 GLU D 570     -21.462  -5.193 -16.635  1.00 32.92    -0.647 OA
ENDBRANCH  16  17
ENDBRANCH  15  16
ENDBRANCH  14  15
END_RES GLU D 570
ENDMDL
MODEL 9
REMARK VINA RESULT:      -8.5      3.703      6.576
REMARK  4 active torsions:
REMARK  status: ('A' for Active; 'I' for Inactive)
REMARK    1  A    between atoms: C_9  and  O_25 
REMARK    2  A    between atoms: C_10  and  N_11 
REMARK    3  A    between atoms: N_13  and  C_15 
REMARK    4  A    between atoms: C_18  and  N_21 
ROOT
HETATM    1  N   UNL     1     -19.184 -10.176  -2.518  1.00  0.00    -0.297 N 
ATOM      2  HN  UNL     1     -19.511 -10.500  -3.428  1.00  0.00     0.187 HD
HETATM    3  N   UNL     1     -17.977 -10.118  -2.200  1.00  0.00    -0.299 N 
ATOM      4  HN  UNL     1     -17.649  -9.773  -1.298  1.00  0.00     0.187 HD
ENDROOT
BRANCH   1   5
HETATM    5  C   UNL     1     -20.054  -9.743  -1.483  1.00  0.00     0.092 A 
HETATM    6  C   UNL     1     -20.764  -8.518  -1.655  1.00  0.00     0.005 A 
HETATM    7  C   UNL     1     -20.573  -7.663  -2.767  1.00  0.00     0.014 A 
HETATM    8  C   UNL     1     -21.720  -8.120  -0.683  1.00  0.00    -0.024 A 
HETATM    9  C   UNL     1     -21.301  -6.481  -2.919  1.00  0.00     0.001 A 
HETATM   10  C   UNL     1     -22.240  -6.115  -1.964  1.00  0.00     0.001 A 
HETATM   11  C   UNL     1     -22.446  -6.929  -0.851  1.00  0.00     0.012 A 
HETATM   12  C   UNL     1     -21.951  -8.927   0.439  1.00  0.00     0.015 A 
HETATM   13  C   UNL     1     -21.261 -10.123   0.611  1.00  0.00     0.040 A 
HETATM   14  C   UNL     1     -20.330 -10.530  -0.345  1.00  0.00     0.094 A 
BRANCH  14  15
HETATM   15  O   UNL     1     -19.712 -11.743  -0.177  1.00  0.00    -0.358 OA
HETATM   16  H   UNL     1     -19.882 -12.300  -0.954  1.00  0.00     0.217 HD
ENDBRANCH  14  15
ENDBRANCH   1   5
BRANCH   3  17
HETATM   17  C   UNL     1     -17.107 -10.581  -3.221  1.00  0.00     0.070 A 
HETATM   18  C   UNL     1     -16.022 -11.413  -2.886  1.00  0.00     0.064 A 
HETATM   19  C   UNL     1     -15.116 -11.867  -3.856  1.00  0.00     0.062 A 
HETATM   20 CL   UNL     1     -15.755 -11.916  -1.251  1.00  0.00    -0.082 Cl
HETATM   21  C   UNL     1     -15.297 -11.497  -5.191  1.00  0.00     0.104 A 
HETATM   22  C   UNL     1     -16.384 -10.700  -5.563  1.00  0.00     0.038 A 
HETATM   23  C   UNL     1     -17.281 -10.257  -4.584  1.00  0.00     0.035 A 
BRANCH  21  24
HETATM   24  N   UNL     1     -14.341 -11.946  -6.211  1.00  0.00    -0.116 N 
HETATM   25  O   UNL     1     -14.699 -11.900  -7.395  1.00  0.00    -0.532 OA
HETATM   26  O   UNL     1     -13.234 -12.348  -5.823  1.00  0.00    -0.532 OA
ENDBRANCH  21  24
ENDBRANCH   3  17
TORSDOF 4
BEGIN_RES ARG D 557
REMARK  4 active torsions:
REMARK  status: ('A' for Active; 'I' for Inactive)
REMARK    1  A    between atoms: CA   and  CB  
REMARK    2  A    between atoms: CB   and  CG  
REMARK    3  A    between atoms: CG   and  CD  
REMARK    4  A    between atoms: CD   and  NE  
REMARK       I    between atoms: NE   and  CZ  
REMARK       I    between atoms: CZ   and  NH1 
REMARK       I    between atoms: CZ   and  NH2 
ROOT
ATOM      1  CA  ARG D 557     -26.217   2.705 -17.014  1.00 35.49     0.159 C 
ENDROOT
BRANCH   1   2
ATOM      2  CB  ARG D 557     -26.789   1.319 -17.183  1.00 35.49     0.034 C 
BRANCH   2   3
ATOM      3  CG  ARG D 557     -25.837   0.202 -17.147  1.00 35.49     0.027 C 
BRANCH   3   4
ATOM      4  CD  ARG D 557     -24.757   0.413 -16.155  1.00 35.49     0.116 C 
BRANCH   4   5
ATOM      5  NE  ARG D 557     -24.902  -0.443 -15.007  1.00 35.49    -0.212 N 
ATOM      6  CZ  ARG D 557     -24.086  -1.414 -14.666  1.00 35.49     0.666 C 
ATOM      7  NH1 ARG D 557     -23.017  -1.726 -15.376  1.00 35.49    -0.235 N 
ATOM      8  NH2 ARG D 557     -24.360  -2.075 -13.578  1.00 35.49    -0.235 N 
ATOM      9  HH  ARG D 557     -22.816  -1.303 -16.094  1.00 35.49     0.174 HD
ATOM     10  HH  ARG D 557     -22.520  -2.368 -15.103  1.00 35.49     0.174 HD
ATOM     11  HH  ARG D 557     -25.053  -1.847 -13.136  1.00 35.49     0.174 HD
ATOM     12  HH  ARG D 557     -23.855  -2.706 -13.324  1.00 35.49     0.174 HD
ATOM     13  HE  ARG D 557     -25.603  -0.359 -14.533  1.00 35.49     0.178 HD
ENDBRANCH   4   5
ENDBRANCH   3   4
ENDBRANCH   2   3
ENDBRANCH   1   2
END_RES ARG D 557
BEGIN_RES GLU D 570
REMARK  3 active torsions:
REMARK  status: ('A' for Active; 'I' for Inactive)
REMARK    5  A    between atoms: CA   and  CB  
REMARK    6  A    between atoms: CB   and  CG  
REMARK    7  A    between atoms: CG   and  CD  
ROOT
ATOM     14  CA  GLU D 570     -18.033  -6.348 -13.375  1.00 32.92     0.160 C 
ENDROOT
BRANCH  14  15
ATOM     15  CB  GLU D 570     -19.500  -6.345 -13.794  1.00 32.92     0.043 C 
BRANCH  15  16
ATOM     16  CG  GLU D 570     -20.450  -5.568 -12.956  1.00 32.92     0.100 C 
BRANCH  16  17
ATOM     17  CD  GLU D 570     -21.739  -5.244 -13.674  1.00 32.92     0.185 C 
ATOM     18  OE1 GLU D 570     -22.269  -6.116 -14.389  1.00 32.92    -0.647 OA
ATOM     19  OE2 GLU D 570     -22.216  -4.101 -13.532  1.00 32.92    -0.647 OA
ENDBRANCH  16  17
ENDBRANCH  15  16
ENDBRANCH  14  15
END_RES GLU D 570
ENDMDL
