MODEL 1
REMARK VINA RESULT:      -8.8      0.000      0.000
REMARK  15 active torsions:
REMARK  status: ('A' for Active; 'I' for Inactive)
REMARK    1  A    between atoms: C_3  and  C_4 
REMARK    2  A    between atoms: C_4  and  C_5 
REMARK    3  A    between atoms: C_5  and  C_6 
REMARK    4  A    between atoms: C_7  and  C_8 
REMARK    5  A    between atoms: C_8  and  C_9 
REMARK    6  A    between atoms: C_9  and  C_10 
REMARK    7  A    between atoms: C_11  and  C_12 
REMARK    8  A    between atoms: C_12  and  C_13 
REMARK    9  A    between atoms: C_13  and  C_14 
REMARK   10  A    between atoms: C_15  and  C_17 
REMARK   11  A    between atoms: C_17  and  C_18 
REMARK   12  A    between atoms: C_18  and  C_19 
REMARK   13  A    between atoms: C_20  and  C_22 
REMARK   14  A    between atoms: C_22  and  C_23 
REMARK   15  A    between atoms: C_23  and  C_24 
ROOT
HETATM    1  C   UNL     1     -21.319  -5.776  -2.676  1.00  0.00     0.031 C 
ENDROOT
BRANCH   1   2
HETATM    2  C   UNL     1     -21.308  -6.426  -4.033  1.00  0.00    -0.024 C 
HETATM    3  C   UNL     1     -20.850  -5.986  -5.233  1.00  0.00    -0.087 C 
HETATM    4  C   UNL     1     -21.108  -6.916  -6.405  1.00  0.00     0.043 C 
BRANCH   3   5
HETATM    5  C   UNL     1     -20.179  -4.629  -5.537  1.00  0.00     0.037 C 
BRANCH   5   6
HETATM    6  C   UNL     1     -20.378  -4.158  -7.015  1.00  0.00     0.031 C 
BRANCH   6   7
HETATM    7  C   UNL     1     -21.760  -3.894  -7.564  1.00  0.00    -0.024 C 
HETATM    8  C   UNL     1     -22.098  -3.938  -8.879  1.00  0.00    -0.087 C 
HETATM    9  C   UNL     1     -23.530  -3.611  -9.242  1.00  0.00     0.043 C 
BRANCH   8  10
HETATM   10  C   UNL     1     -21.122  -4.306 -10.022  1.00  0.00     0.037 C 
BRANCH  10  11
HETATM   11  C   UNL     1     -21.491  -3.770 -11.419  1.00  0.00     0.031 C 
BRANCH  11  12
HETATM   12  C   UNL     1     -22.234  -4.563 -12.472  1.00  0.00    -0.024 C 
HETATM   13  C   UNL     1     -23.369  -4.445 -13.195  1.00  0.00    -0.091 C 
HETATM   14  C   UNL     1     -24.382  -3.343 -13.130  1.00  0.00     0.042 C 
HETATM   15  C   UNL     1     -23.706  -5.522 -14.206  1.00  0.00     0.042 C 
ENDBRANCH  11  12
ENDBRANCH  10  11
ENDBRANCH   8  10
ENDBRANCH   6   7
ENDBRANCH   5   6
ENDBRANCH   3   5
ENDBRANCH   1   2
BRANCH   1  16
HETATM   16  C   UNL     1     -22.310  -6.448  -1.675  1.00  0.00     0.031 C 
BRANCH  16  17
HETATM   17  C   UNL     1     -21.621  -7.563  -0.919  1.00  0.00    -0.024 C 
HETATM   18  C   UNL     1     -22.029  -8.233   0.185  1.00  0.00    -0.087 C 
HETATM   19  C   UNL     1     -23.402  -8.129   0.788  1.00  0.00     0.043 C 
BRANCH  18  20
HETATM   20  C   UNL     1     -21.085  -9.173   0.946  1.00  0.00     0.037 C 
BRANCH  20  21
HETATM   21  C   UNL     1     -21.251 -10.660   0.585  1.00  0.00     0.031 C 
BRANCH  21  22
HETATM   22  C   UNL     1     -21.329 -10.955  -0.889  1.00  0.00    -0.024 C 
HETATM   23  C   UNL     1     -22.455 -11.191  -1.598  1.00  0.00    -0.087 C 
HETATM   24  C   UNL     1     -23.802 -11.386  -0.947  1.00  0.00     0.043 C 
BRANCH  23  25
HETATM   25  C   UNL     1     -22.504 -11.269  -3.123  1.00  0.00     0.037 C 
BRANCH  25  26
HETATM   26  C   UNL     1     -22.034 -10.010  -3.866  1.00  0.00     0.031 C 
BRANCH  26  27
HETATM   27  C   UNL     1     -20.880 -10.209  -4.814  1.00  0.00    -0.024 C 
HETATM   28  C   UNL     1     -19.617  -9.832  -4.534  1.00  0.00    -0.091 C 
HETATM   29  C   UNL     1     -19.211  -9.154  -3.248  1.00  0.00     0.042 C 
HETATM   30  C   UNL     1     -18.486 -10.061  -5.496  1.00  0.00     0.042 C 
ENDBRANCH  26  27
ENDBRANCH  25  26
ENDBRANCH  23  25
ENDBRANCH  21  22
ENDBRANCH  20  21
ENDBRANCH  18  20
ENDBRANCH  16  17
ENDBRANCH   1  16
TORSDOF 15
BEGIN_RES ARG D 557
REMARK  4 active torsions:
REMARK  status: ('A' for Active; 'I' for Inactive)
REMARK    1  A    between atoms: CA   and  CB  
REMARK    2  A    between atoms: CB   and  CG  
REMARK    3  A    between atoms: CG   and  CD  
REMARK    4  A    between atoms: CD   and  NE  
REMARK       I    between atoms: NE   and  CZ  
REMARK       I    between atoms: CZ   and  NH1 
REMARK       I    between atoms: CZ   and  NH2 
ROOT
ATOM      1  CA  ARG D 557     -26.217   2.705 -17.014  1.00 35.49     0.159 C 
ENDROOT
BRANCH   1   2
ATOM      2  CB  ARG D 557     -26.789   1.319 -17.183  1.00 35.49     0.034 C 
BRANCH   2   3
ATOM      3  CG  ARG D 557     -28.233   1.226 -17.432  1.00 35.49     0.027 C 
BRANCH   3   4
ATOM      4  CD  ARG D 557     -28.908   0.299 -16.495  1.00 35.49     0.116 C 
BRANCH   4   5
ATOM      5  NE  ARG D 557     -29.297  -0.930 -17.134  1.00 35.49    -0.212 N 
ATOM      6  CZ  ARG D 557     -28.665  -2.079 -17.038  1.00 35.49     0.666 C 
ATOM      7  NH1 ARG D 557     -27.560  -2.223 -16.331  1.00 35.49    -0.235 N 
ATOM      8  NH2 ARG D 557     -29.173  -3.097 -17.669  1.00 35.49    -0.235 N 
ATOM      9  HH  ARG D 557     -27.210  -1.567 -15.906  1.00 35.49     0.174 HD
ATOM     10  HH  ARG D 557     -27.193  -2.997 -16.303  1.00 35.49     0.174 HD
ATOM     11  HH  ARG D 557     -29.892  -2.976 -18.112  1.00 35.49     0.174 HD
ATOM     12  HH  ARG D 557     -28.796  -3.856 -17.628  1.00 35.49     0.174 HD
ATOM     13  HE  ARG D 557     -29.958  -0.911 -17.668  1.00 35.49     0.178 HD
ENDBRANCH   4   5
ENDBRANCH   3   4
ENDBRANCH   2   3
ENDBRANCH   1   2
END_RES ARG D 557
BEGIN_RES GLU D 570
REMARK  3 active torsions:
REMARK  status: ('A' for Active; 'I' for Inactive)
REMARK    5  A    between atoms: CA   and  CB  
REMARK    6  A    between atoms: CB   and  CG  
REMARK    7  A    between atoms: CG   and  CD  
ROOT
ATOM     14  CA  GLU D 570     -18.033  -6.348 -13.375  1.00 32.92     0.160 C 
ENDROOT
BRANCH  14  15
ATOM     15  CB  GLU D 570     -19.500  -6.345 -13.794  1.00 32.92     0.043 C 
BRANCH  15  16
ATOM     16  CG  GLU D 570     -20.094  -7.640 -14.217  1.00 32.92     0.100 C 
BRANCH  16  17
ATOM     17  CD  GLU D 570     -20.632  -7.608 -15.629  1.00 32.92     0.185 C 
ATOM     18  OE1 GLU D 570     -20.836  -8.684 -16.223  1.00 32.92    -0.647 OA
ATOM     19  OE2 GLU D 570     -20.835  -6.495 -16.152  1.00 32.92    -0.647 OA
ENDBRANCH  16  17
ENDBRANCH  15  16
ENDBRANCH  14  15
END_RES GLU D 570
ENDMDL
MODEL 2
REMARK VINA RESULT:      -8.5      1.192      8.792
REMARK  15 active torsions:
REMARK  status: ('A' for Active; 'I' for Inactive)
REMARK    1  A    between atoms: C_3  and  C_4 
REMARK    2  A    between atoms: C_4  and  C_5 
REMARK    3  A    between atoms: C_5  and  C_6 
REMARK    4  A    between atoms: C_7  and  C_8 
REMARK    5  A    between atoms: C_8  and  C_9 
REMARK    6  A    between atoms: C_9  and  C_10 
REMARK    7  A    between atoms: C_11  and  C_12 
REMARK    8  A    between atoms: C_12  and  C_13 
REMARK    9  A    between atoms: C_13  and  C_14 
REMARK   10  A    between atoms: C_15  and  C_17 
REMARK   11  A    between atoms: C_17  and  C_18 
REMARK   12  A    between atoms: C_18  and  C_19 
REMARK   13  A    between atoms: C_20  and  C_22 
REMARK   14  A    between atoms: C_22  and  C_23 
REMARK   15  A    between atoms: C_23  and  C_24 
ROOT
HETATM    1  C   UNL     1     -21.590  -6.333  -2.678  1.00  0.00     0.031 C 
ENDROOT
BRANCH   1   2
HETATM    2  C   UNL     1     -22.364  -6.708  -1.443  1.00  0.00    -0.024 C 
HETATM    3  C   UNL     1     -22.154  -7.673  -0.513  1.00  0.00    -0.087 C 
HETATM    4  C   UNL     1     -23.229  -7.794   0.552  1.00  0.00     0.043 C 
BRANCH   3   5
HETATM    5  C   UNL     1     -20.996  -8.695  -0.472  1.00  0.00     0.037 C 
BRANCH   5   6
HETATM    6  C   UNL     1     -21.053  -9.644   0.770  1.00  0.00     0.031 C 
BRANCH   6   7
HETATM    7  C   UNL     1     -20.927 -11.140   0.607  1.00  0.00    -0.024 C 
HETATM    8  C   UNL     1     -21.969 -12.003   0.484  1.00  0.00    -0.087 C 
HETATM    9  C   UNL     1     -21.644 -13.475   0.363  1.00  0.00     0.043 C 
BRANCH   8  10
HETATM   10  C   UNL     1     -23.456 -11.579   0.452  1.00  0.00     0.037 C 
BRANCH  10  11
HETATM   11  C   UNL     1     -24.063 -11.362  -0.949  1.00  0.00     0.031 C 
BRANCH  11  12
HETATM   12  C   UNL     1     -23.280 -10.899  -2.158  1.00  0.00    -0.024 C 
HETATM   13  C   UNL     1     -22.557 -11.459  -3.153  1.00  0.00    -0.091 C 
HETATM   14  C   UNL     1     -22.257 -12.912  -3.358  1.00  0.00     0.042 C 
HETATM   15  C   UNL     1     -21.959 -10.559  -4.215  1.00  0.00     0.042 C 
ENDBRANCH  11  12
ENDBRANCH  10  11
ENDBRANCH   8  10
ENDBRANCH   6   7
ENDBRANCH   5   6
ENDBRANCH   3   5
ENDBRANCH   1   2
BRANCH   1  16
HETATM   16  C   UNL     1     -22.318  -6.710  -4.005  1.00  0.00     0.031 C 
BRANCH  16  17
HETATM   17  C   UNL     1     -21.529  -6.217  -5.198  1.00  0.00    -0.024 C 
HETATM   18  C   UNL     1     -20.370  -6.689  -5.717  1.00  0.00    -0.087 C 
HETATM   19  C   UNL     1     -19.713  -7.977  -5.307  1.00  0.00     0.043 C 
BRANCH  18  20
HETATM   20  C   UNL     1     -19.597  -5.911  -6.791  1.00  0.00     0.037 C 
BRANCH  20  21
HETATM   21  C   UNL     1     -20.184  -4.523  -7.106  1.00  0.00     0.031 C 
BRANCH  21  22
HETATM   22  C   UNL     1     -20.374  -4.225  -8.569  1.00  0.00    -0.024 C 
HETATM   23  C   UNL     1     -21.555  -4.040  -9.200  1.00  0.00    -0.087 C 
HETATM   24  C   UNL     1     -22.883  -4.307  -8.536  1.00  0.00     0.043 C 
BRANCH  23  25
HETATM   25  C   UNL     1     -21.686  -3.525 -10.632  1.00  0.00     0.037 C 
BRANCH  25  26
HETATM   26  C   UNL     1     -23.049  -3.761 -11.298  1.00  0.00     0.031 C 
BRANCH  26  27
HETATM   27  C   UNL     1     -23.475  -2.714 -12.294  1.00  0.00    -0.024 C 
HETATM   28  C   UNL     1     -23.275  -2.829 -13.622  1.00  0.00    -0.091 C 
HETATM   29  C   UNL     1     -22.588  -4.008 -14.266  1.00  0.00     0.042 C 
HETATM   30  C   UNL     1     -23.728  -1.773 -14.590  1.00  0.00     0.042 C 
ENDBRANCH  26  27
ENDBRANCH  25  26
ENDBRANCH  23  25
ENDBRANCH  21  22
ENDBRANCH  20  21
ENDBRANCH  18  20
ENDBRANCH  16  17
ENDBRANCH   1  16
TORSDOF 15
BEGIN_RES ARG D 557
REMARK  4 active torsions:
REMARK  status: ('A' for Active; 'I' for Inactive)
REMARK    1  A    between atoms: CA   and  CB  
REMARK    2  A    between atoms: CB   and  CG  
REMARK    3  A    between atoms: CG   and  CD  
REMARK    4  A    between atoms: CD   and  NE  
REMARK       I    between atoms: NE   and  CZ  
REMARK       I    between atoms: CZ   and  NH1 
REMARK       I    between atoms: CZ   and  NH2 
ROOT
ATOM      1  CA  ARG D 557     -26.217   2.705 -17.014  1.00 35.49     0.159 C 
ENDROOT
BRANCH   1   2
ATOM      2  CB  ARG D 557     -26.789   1.319 -17.183  1.00 35.49     0.034 C 
BRANCH   2   3
ATOM      3  CG  ARG D 557     -28.227   1.227 -17.464  1.00 35.49     0.027 C 
BRANCH   3   4
ATOM      4  CD  ARG D 557     -28.892   0.173 -16.664  1.00 35.49     0.116 C 
BRANCH   4   5
ATOM      5  NE  ARG D 557     -27.960  -0.814 -16.187  1.00 35.49    -0.212 N 
ATOM      6  CZ  ARG D 557     -27.971  -2.092 -16.495  1.00 35.49     0.666 C 
ATOM      7  NH1 ARG D 557     -28.880  -2.622 -17.293  1.00 35.49    -0.235 N 
ATOM      8  NH2 ARG D 557     -27.035  -2.840 -15.987  1.00 35.49    -0.235 N 
ATOM      9  HH  ARG D 557     -29.503  -2.148 -17.640  1.00 35.49     0.174 HD
ATOM     10  HH  ARG D 557     -28.835  -3.461 -17.460  1.00 35.49     0.174 HD
ATOM     11  HH  ARG D 557     -26.457  -2.469 -15.481  1.00 35.49     0.174 HD
ATOM     12  HH  ARG D 557     -27.006  -3.668 -16.166  1.00 35.49     0.174 HD
ATOM     13  HE  ARG D 557     -27.384  -0.574 -15.610  1.00 35.49     0.178 HD
ENDBRANCH   4   5
ENDBRANCH   3   4
ENDBRANCH   2   3
ENDBRANCH   1   2
END_RES ARG D 557
BEGIN_RES GLU D 570
REMARK  3 active torsions:
REMARK  status: ('A' for Active; 'I' for Inactive)
REMARK    5  A    between atoms: CA   and  CB  
REMARK    6  A    between atoms: CB   and  CG  
REMARK    7  A    between atoms: CG   and  CD  
ROOT
ATOM     14  CA  GLU D 570     -18.033  -6.348 -13.375  1.00 32.92     0.160 C 
ENDROOT
BRANCH  14  15
ATOM     15  CB  GLU D 570     -19.500  -6.345 -13.794  1.00 32.92     0.043 C 
BRANCH  15  16
ATOM     16  CG  GLU D 570     -19.796  -6.362 -15.250  1.00 32.92     0.100 C 
BRANCH  16  17
ATOM     17  CD  GLU D 570     -20.824  -7.402 -15.630  1.00 32.92     0.185 C 
ATOM     18  OE1 GLU D 570     -20.495  -8.604 -15.637  1.00 32.92    -0.647 OA
ATOM     19  OE2 GLU D 570     -21.966  -7.009 -15.941  1.00 32.92    -0.647 OA
ENDBRANCH  16  17
ENDBRANCH  15  16
ENDBRANCH  14  15
END_RES GLU D 570
ENDMDL
MODEL 3
REMARK VINA RESULT:      -8.5      1.453      4.598
REMARK  15 active torsions:
REMARK  status: ('A' for Active; 'I' for Inactive)
REMARK    1  A    between atoms: C_3  and  C_4 
REMARK    2  A    between atoms: C_4  and  C_5 
REMARK    3  A    between atoms: C_5  and  C_6 
REMARK    4  A    between atoms: C_7  and  C_8 
REMARK    5  A    between atoms: C_8  and  C_9 
REMARK    6  A    between atoms: C_9  and  C_10 
REMARK    7  A    between atoms: C_11  and  C_12 
REMARK    8  A    between atoms: C_12  and  C_13 
REMARK    9  A    between atoms: C_13  and  C_14 
REMARK   10  A    between atoms: C_15  and  C_17 
REMARK   11  A    between atoms: C_17  and  C_18 
REMARK   12  A    between atoms: C_18  and  C_19 
REMARK   13  A    between atoms: C_20  and  C_22 
REMARK   14  A    between atoms: C_22  and  C_23 
REMARK   15  A    between atoms: C_23  and  C_24 
ROOT
HETATM    1  C   UNL     1     -19.995  -4.312  -8.352  1.00  0.00     0.031 C 
ENDROOT
BRANCH   1   2
HETATM    2  C   UNL     1     -21.496  -4.356  -8.261  1.00  0.00    -0.024 C 
HETATM    3  C   UNL     1     -22.458  -3.996  -9.148  1.00  0.00    -0.087 C 
HETATM    4  C   UNL     1     -23.884  -4.108  -8.640  1.00  0.00     0.043 C 
BRANCH   3   5
HETATM    5  C   UNL     1     -22.253  -3.421 -10.567  1.00  0.00     0.037 C 
BRANCH   5   6
HETATM    6  C   UNL     1     -23.554  -3.440 -11.436  1.00  0.00     0.031 C 
BRANCH   6   7
HETATM    7  C   UNL     1     -23.668  -2.589 -12.677  1.00  0.00    -0.024 C 
HETATM    8  C   UNL     1     -23.128  -2.893 -13.885  1.00  0.00    -0.087 C 
HETATM    9  C   UNL     1     -23.321  -1.898 -15.008  1.00  0.00     0.043 C 
BRANCH   8  10
HETATM   10  C   UNL     1     -22.337  -4.188 -14.188  1.00  0.00     0.037 C 
BRANCH  10  11
HETATM   11  C   UNL     1     -23.132  -5.504 -14.068  1.00  0.00     0.031 C 
BRANCH  11  12
HETATM   12  C   UNL     1     -24.476  -5.755 -14.717  1.00  0.00    -0.024 C 
HETATM   13  C   UNL     1     -24.982  -6.544 -15.690  1.00  0.00    -0.091 C 
HETATM   14  C   UNL     1     -24.242  -7.521 -16.551  1.00  0.00     0.042 C 
HETATM   15  C   UNL     1     -26.466  -6.475 -15.986  1.00  0.00     0.042 C 
ENDBRANCH  11  12
ENDBRANCH  10  11
ENDBRANCH   8  10
ENDBRANCH   6   7
ENDBRANCH   5   6
ENDBRANCH   3   5
ENDBRANCH   1   2
BRANCH   1  16
HETATM   16  C   UNL     1     -19.280  -4.953  -7.122  1.00  0.00     0.031 C 
BRANCH  16  17
HETATM   17  C   UNL     1     -20.259  -5.147  -5.985  1.00  0.00    -0.024 C 
HETATM   18  C   UNL     1     -20.600  -6.282  -5.328  1.00  0.00    -0.087 C 
HETATM   19  C   UNL     1     -19.893  -7.600  -5.478  1.00  0.00     0.043 C 
BRANCH  18  20
HETATM   20  C   UNL     1     -21.787  -6.319  -4.357  1.00  0.00     0.037 C 
BRANCH  20  21
HETATM   21  C   UNL     1     -21.443  -5.869  -2.926  1.00  0.00     0.031 C 
BRANCH  21  22
HETATM   22  C   UNL     1     -22.309  -6.458  -1.844  1.00  0.00    -0.024 C 
HETATM   23  C   UNL     1     -21.963  -7.451  -0.995  1.00  0.00    -0.087 C 
HETATM   24  C   UNL     1     -20.695  -8.253  -1.154  1.00  0.00     0.043 C 
BRANCH  23  25
HETATM   25  C   UNL     1     -22.790  -7.862   0.222  1.00  0.00     0.037 C 
BRANCH  25  26
HETATM   26  C   UNL     1     -22.702  -9.344   0.612  1.00  0.00     0.031 C 
BRANCH  26  27
HETATM   27  C   UNL     1     -23.475 -10.294  -0.266  1.00  0.00    -0.024 C 
HETATM   28  C   UNL     1     -23.336 -11.634  -0.211  1.00  0.00    -0.091 C 
HETATM   29  C   UNL     1     -22.381 -12.339   0.721  1.00  0.00     0.042 C 
HETATM   30  C   UNL     1     -24.135 -12.554  -1.089  1.00  0.00     0.042 C 
ENDBRANCH  26  27
ENDBRANCH  25  26
ENDBRANCH  23  25
ENDBRANCH  21  22
ENDBRANCH  20  21
ENDBRANCH  18  20
ENDBRANCH  16  17
ENDBRANCH   1  16
TORSDOF 15
BEGIN_RES ARG D 557
REMARK  4 active torsions:
REMARK  status: ('A' for Active; 'I' for Inactive)
REMARK    1  A    between atoms: CA   and  CB  
REMARK    2  A    between atoms: CB   and  CG  
REMARK    3  A    between atoms: CG   and  CD  
REMARK    4  A    between atoms: CD   and  NE  
REMARK       I    between atoms: NE   and  CZ  
REMARK       I    between atoms: CZ   and  NH1 
REMARK       I    between atoms: CZ   and  NH2 
ROOT
ATOM      1  CA  ARG D 557     -26.217   2.705 -17.014  1.00 35.49     0.159 C 
ENDROOT
BRANCH   1   2
ATOM      2  CB  ARG D 557     -26.789   1.319 -17.183  1.00 35.49     0.034 C 
BRANCH   2   3
ATOM      3  CG  ARG D 557     -28.251   1.212 -17.257  1.00 35.49     0.027 C 
BRANCH   3   4
ATOM      4  CD  ARG D 557     -28.784   0.146 -16.378  1.00 35.49     0.116 C 
BRANCH   4   5
ATOM      5  NE  ARG D 557     -29.246  -0.993 -17.127  1.00 35.49    -0.212 N 
ATOM      6  CZ  ARG D 557     -28.726  -2.200 -17.087  1.00 35.49     0.666 C 
ATOM      7  NH1 ARG D 557     -27.680  -2.498 -16.339  1.00 35.49    -0.235 N 
ATOM      8  NH2 ARG D 557     -29.288  -3.119 -17.818  1.00 35.49    -0.235 N 
ATOM      9  HH  ARG D 557     -27.297  -1.909 -15.848  1.00 35.49     0.174 HD
ATOM     10  HH  ARG D 557     -27.387  -3.303 -16.351  1.00 35.49     0.174 HD
ATOM     11  HH  ARG D 557     -29.966  -2.900 -18.285  1.00 35.49     0.174 HD
ATOM     12  HH  ARG D 557     -28.983  -3.911 -17.815  1.00 35.49     0.174 HD
ATOM     13  HE  ARG D 557     -29.871  -0.874 -17.690  1.00 35.49     0.178 HD
ENDBRANCH   4   5
ENDBRANCH   3   4
ENDBRANCH   2   3
ENDBRANCH   1   2
END_RES ARG D 557
BEGIN_RES GLU D 570
REMARK  3 active torsions:
REMARK  status: ('A' for Active; 'I' for Inactive)
REMARK    5  A    between atoms: CA   and  CB  
REMARK    6  A    between atoms: CB   and  CG  
REMARK    7  A    between atoms: CG   and  CD  
ROOT
ATOM     14  CA  GLU D 570     -18.033  -6.348 -13.375  1.00 32.92     0.160 C 
ENDROOT
BRANCH  14  15
ATOM     15  CB  GLU D 570     -19.500  -6.345 -13.794  1.00 32.92     0.043 C 
BRANCH  15  16
ATOM     16  CG  GLU D 570     -20.093  -7.639 -14.221  1.00 32.92     0.100 C 
BRANCH  16  17
ATOM     17  CD  GLU D 570     -20.551  -7.631 -15.661  1.00 32.92     0.185 C 
ATOM     18  OE1 GLU D 570     -20.856  -8.709 -16.205  1.00 32.92    -0.647 OA
ATOM     19  OE2 GLU D 570     -20.590  -6.536 -16.256  1.00 32.92    -0.647 OA
ENDBRANCH  16  17
ENDBRANCH  15  16
ENDBRANCH  14  15
END_RES GLU D 570
ENDMDL
MODEL 4
REMARK VINA RESULT:      -8.3      1.517      8.190
REMARK  15 active torsions:
REMARK  status: ('A' for Active; 'I' for Inactive)
REMARK    1  A    between atoms: C_3  and  C_4 
REMARK    2  A    between atoms: C_4  and  C_5 
REMARK    3  A    between atoms: C_5  and  C_6 
REMARK    4  A    between atoms: C_7  and  C_8 
REMARK    5  A    between atoms: C_8  and  C_9 
REMARK    6  A    between atoms: C_9  and  C_10 
REMARK    7  A    between atoms: C_11  and  C_12 
REMARK    8  A    between atoms: C_12  and  C_13 
REMARK    9  A    between atoms: C_13  and  C_14 
REMARK   10  A    between atoms: C_15  and  C_17 
REMARK   11  A    between atoms: C_17  and  C_18 
REMARK   12  A    between atoms: C_18  and  C_19 
REMARK   13  A    between atoms: C_20  and  C_22 
REMARK   14  A    between atoms: C_22  and  C_23 
REMARK   15  A    between atoms: C_23  and  C_24 
ROOT
HETATM    1  C   UNL     1     -17.465  -9.394  -3.314  1.00  0.00     0.031 C 
ENDROOT
BRANCH   1   2
HETATM    2  C   UNL     1     -17.323 -10.601  -2.427  1.00  0.00    -0.024 C 
HETATM    3  C   UNL     1     -18.248 -11.333  -1.755  1.00  0.00    -0.087 C 
HETATM    4  C   UNL     1     -17.688 -12.440  -0.880  1.00  0.00     0.043 C 
BRANCH   3   5
HETATM    5  C   UNL     1     -19.776 -11.109  -1.726  1.00  0.00     0.037 C 
BRANCH   5   6
HETATM    6  C   UNL     1     -20.202  -9.861  -0.884  1.00  0.00     0.031 C 
BRANCH   6   7
HETATM    7  C   UNL     1     -20.674  -8.596  -1.560  1.00  0.00    -0.024 C 
HETATM    8  C   UNL     1     -21.614  -7.751  -1.063  1.00  0.00    -0.087 C 
HETATM    9  C   UNL     1     -21.982  -6.546  -1.901  1.00  0.00     0.043 C 
BRANCH   8  10
HETATM   10  C   UNL     1     -22.323  -7.934   0.300  1.00  0.00     0.037 C 
BRANCH  10  11
HETATM   11  C   UNL     1     -23.631  -8.750   0.272  1.00  0.00     0.031 C 
BRANCH  11  12
HETATM   12  C   UNL     1     -23.696 -10.262   0.243  1.00  0.00    -0.024 C 
HETATM   13  C   UNL     1     -23.610 -11.247  -0.677  1.00  0.00    -0.091 C 
HETATM   14  C   UNL     1     -23.426 -11.100  -2.156  1.00  0.00     0.042 C 
HETATM   15  C   UNL     1     -23.701 -12.687  -0.215  1.00  0.00     0.042 C 
ENDBRANCH  11  12
ENDBRANCH  10  11
ENDBRANCH   8  10
ENDBRANCH   6   7
ENDBRANCH   5   6
ENDBRANCH   3   5
ENDBRANCH   1   2
BRANCH   1  16
HETATM   16  C   UNL     1     -18.216  -9.690  -4.649  1.00  0.00     0.031 C 
BRANCH  16  17
HETATM   17  C   UNL     1     -19.260  -8.628  -4.914  1.00  0.00    -0.024 C 
HETATM   18  C   UNL     1     -20.589  -8.767  -5.138  1.00  0.00    -0.087 C 
HETATM   19  C   UNL     1     -21.356 -10.047  -4.963  1.00  0.00     0.043 C 
BRANCH  18  20
HETATM   20  C   UNL     1     -21.447  -7.589  -5.621  1.00  0.00     0.037 C 
BRANCH  20  21
HETATM   21  C   UNL     1     -20.768  -6.216  -5.476  1.00  0.00     0.031 C 
BRANCH  21  22
HETATM   22  C   UNL     1     -20.173  -5.659  -6.741  1.00  0.00    -0.024 C 
HETATM   23  C   UNL     1     -20.714  -4.699  -7.524  1.00  0.00    -0.087 C 
HETATM   24  C   UNL     1     -22.119  -4.185  -7.328  1.00  0.00     0.043 C 
BRANCH  23  25
HETATM   25  C   UNL     1     -19.974  -4.015  -8.672  1.00  0.00     0.037 C 
BRANCH  25  26
HETATM   26  C   UNL     1     -20.266  -4.570 -10.073  1.00  0.00     0.031 C 
BRANCH  26  27
HETATM   27  C   UNL     1     -20.899  -3.601 -11.037  1.00  0.00    -0.024 C 
HETATM   28  C   UNL     1     -22.200  -3.647 -11.388  1.00  0.00    -0.091 C 
HETATM   29  C   UNL     1     -23.170  -4.683 -10.873  1.00  0.00     0.042 C 
HETATM   30  C   UNL     1     -22.804  -2.654 -12.339  1.00  0.00     0.042 C 
ENDBRANCH  26  27
ENDBRANCH  25  26
ENDBRANCH  23  25
ENDBRANCH  21  22
ENDBRANCH  20  21
ENDBRANCH  18  20
ENDBRANCH  16  17
ENDBRANCH   1  16
TORSDOF 15
BEGIN_RES ARG D 557
REMARK  4 active torsions:
REMARK  status: ('A' for Active; 'I' for Inactive)
REMARK    1  A    between atoms: CA   and  CB  
REMARK    2  A    between atoms: CB   and  CG  
REMARK    3  A    between atoms: CG   and  CD  
REMARK    4  A    between atoms: CD   and  NE  
REMARK       I    between atoms: NE   and  CZ  
REMARK       I    between atoms: CZ   and  NH1 
REMARK       I    between atoms: CZ   and  NH2 
ROOT
ATOM      1  CA  ARG D 557     -26.217   2.705 -17.014  1.00 35.49     0.159 C 
ENDROOT
BRANCH   1   2
ATOM      2  CB  ARG D 557     -26.789   1.319 -17.183  1.00 35.49     0.034 C 
BRANCH   2   3
ATOM      3  CG  ARG D 557     -28.147   1.098 -16.672  1.00 35.49     0.027 C 
BRANCH   3   4
ATOM      4  CD  ARG D 557     -28.785  -0.100 -17.265  1.00 35.49     0.116 C 
BRANCH   4   5
ATOM      5  NE  ARG D 557     -28.159  -1.320 -16.829  1.00 35.49    -0.212 N 
ATOM      6  CZ  ARG D 557     -28.633  -2.533 -17.008  1.00 35.49     0.666 C 
ATOM      7  NH1 ARG D 557     -29.781  -2.763 -17.617  1.00 35.49    -0.235 N 
ATOM      8  NH2 ARG D 557     -27.920  -3.527 -16.564  1.00 35.49    -0.235 N 
ATOM      9  HH  ARG D 557     -30.265  -2.124 -17.919  1.00 35.49     0.174 HD
ATOM     10  HH  ARG D 557     -30.038  -3.575 -17.708  1.00 35.49     0.174 HD
ATOM     11  HH  ARG D 557     -27.179  -3.348 -16.181  1.00 35.49     0.174 HD
ATOM     12  HH  ARG D 557     -28.191  -4.324 -16.664  1.00 35.49     0.174 HD
ATOM     13  HE  ARG D 557     -27.450  -1.260 -16.363  1.00 35.49     0.178 HD
ENDBRANCH   4   5
ENDBRANCH   3   4
ENDBRANCH   2   3
ENDBRANCH   1   2
END_RES ARG D 557
BEGIN_RES GLU D 570
REMARK  3 active torsions:
REMARK  status: ('A' for Active; 'I' for Inactive)
REMARK    5  A    between atoms: CA   and  CB  
REMARK    6  A    between atoms: CB   and  CG  
REMARK    7  A    between atoms: CG   and  CD  
ROOT
ATOM     14  CA  GLU D 570     -18.033  -6.348 -13.375  1.00 32.92     0.160 C 
ENDROOT
BRANCH  14  15
ATOM     15  CB  GLU D 570     -19.500  -6.345 -13.794  1.00 32.92     0.043 C 
BRANCH  15  16
ATOM     16  CG  GLU D 570     -19.832  -5.765 -15.121  1.00 32.92     0.100 C 
BRANCH  16  17
ATOM     17  CD  GLU D 570     -21.316  -5.564 -15.322  1.00 32.92     0.185 C 
ATOM     18  OE1 GLU D 570     -22.099  -6.479 -15.003  1.00 32.92    -0.647 OA
ATOM     19  OE2 GLU D 570     -21.697  -4.486 -15.819  1.00 32.92    -0.647 OA
ENDBRANCH  16  17
ENDBRANCH  15  16
ENDBRANCH  14  15
END_RES GLU D 570
ENDMDL
MODEL 5
REMARK VINA RESULT:      -8.3      2.009      6.495
REMARK  15 active torsions:
REMARK  status: ('A' for Active; 'I' for Inactive)
REMARK    1  A    between atoms: C_3  and  C_4 
REMARK    2  A    between atoms: C_4  and  C_5 
REMARK    3  A    between atoms: C_5  and  C_6 
REMARK    4  A    between atoms: C_7  and  C_8 
REMARK    5  A    between atoms: C_8  and  C_9 
REMARK    6  A    between atoms: C_9  and  C_10 
REMARK    7  A    between atoms: C_11  and  C_12 
REMARK    8  A    between atoms: C_12  and  C_13 
REMARK    9  A    between atoms: C_13  and  C_14 
REMARK   10  A    between atoms: C_15  and  C_17 
REMARK   11  A    between atoms: C_17  and  C_18 
REMARK   12  A    between atoms: C_18  and  C_19 
REMARK   13  A    between atoms: C_20  and  C_22 
REMARK   14  A    between atoms: C_22  and  C_23 
REMARK   15  A    between atoms: C_23  and  C_24 
ROOT
HETATM    1  C   UNL     1     -20.539  -3.294 -10.917  1.00  0.00     0.031 C 
ENDROOT
BRANCH   1   2
HETATM    2  C   UNL     1     -22.035  -3.151 -10.999  1.00  0.00    -0.024 C 
HETATM    3  C   UNL     1     -22.926  -3.584 -11.926  1.00  0.00    -0.087 C 
HETATM    4  C   UNL     1     -24.364  -3.154 -11.695  1.00  0.00     0.043 C 
BRANCH   3   5
HETATM    5  C   UNL     1     -22.623  -4.386 -13.211  1.00  0.00     0.037 C 
BRANCH   5   6
HETATM    6  C   UNL     1     -23.791  -5.336 -13.637  1.00  0.00     0.031 C 
BRANCH   6   7
HETATM    7  C   UNL     1     -23.615  -6.321 -14.767  1.00  0.00    -0.024 C 
HETATM    8  C   UNL     1     -24.580  -6.667 -15.658  1.00  0.00    -0.087 C 
HETATM    9  C   UNL     1     -24.225  -7.700 -16.705  1.00  0.00     0.043 C 
BRANCH   8  10
HETATM   10  C   UNL     1     -26.008  -6.072 -15.676  1.00  0.00     0.037 C 
BRANCH  10  11
HETATM   11  C   UNL     1     -27.162  -7.094 -15.653  1.00  0.00     0.031 C 
BRANCH  11  12
HETATM   12  C   UNL     1     -28.580  -6.793 -16.087  1.00  0.00    -0.024 C 
HETATM   13  C   UNL     1     -29.216  -6.390 -17.209  1.00  0.00    -0.091 C 
HETATM   14  C   UNL     1     -28.604  -6.049 -18.533  1.00  0.00     0.042 C 
HETATM   15  C   UNL     1     -30.725  -6.253 -17.184  1.00  0.00     0.042 C 
ENDBRANCH  11  12
ENDBRANCH  10  11
ENDBRANCH   8  10
ENDBRANCH   6   7
ENDBRANCH   5   6
ENDBRANCH   3   5
ENDBRANCH   1   2
BRANCH   1  16
HETATM   16  C   UNL     1     -20.079  -4.514 -10.061  1.00  0.00     0.031 C 
BRANCH  16  17
HETATM   17  C   UNL     1     -20.634  -4.414  -8.657  1.00  0.00    -0.024 C 
HETATM   18  C   UNL     1     -19.978  -4.404  -7.472  1.00  0.00    -0.087 C 
HETATM   19  C   UNL     1     -18.487  -4.285  -7.322  1.00  0.00     0.043 C 
BRANCH  18  20
HETATM   20  C   UNL     1     -20.729  -4.532  -6.140  1.00  0.00     0.037 C 
BRANCH  20  21
HETATM   21  C   UNL     1     -21.813  -5.624  -6.132  1.00  0.00     0.031 C 
BRANCH  21  22
HETATM   22  C   UNL     1     -21.858  -6.474  -4.891  1.00  0.00    -0.024 C 
HETATM   23  C   UNL     1     -20.978  -7.444  -4.555  1.00  0.00    -0.087 C 
HETATM   24  C   UNL     1     -19.916  -7.945  -5.503  1.00  0.00     0.043 C 
BRANCH  23  25
HETATM   25  C   UNL     1     -20.939  -8.126  -3.188  1.00  0.00     0.037 C 
BRANCH  25  26
HETATM   26  C   UNL     1     -20.923  -7.182  -1.977  1.00  0.00     0.031 C 
BRANCH  26  27
HETATM   27  C   UNL     1     -22.145  -7.235  -1.097  1.00  0.00    -0.024 C 
HETATM   28  C   UNL     1     -22.243  -8.029  -0.012  1.00  0.00    -0.091 C 
HETATM   29  C   UNL     1     -21.152  -8.968   0.440  1.00  0.00     0.042 C 
HETATM   30  C   UNL     1     -23.470  -8.044   0.855  1.00  0.00     0.042 C 
ENDBRANCH  26  27
ENDBRANCH  25  26
ENDBRANCH  23  25
ENDBRANCH  21  22
ENDBRANCH  20  21
ENDBRANCH  18  20
ENDBRANCH  16  17
ENDBRANCH   1  16
TORSDOF 15
BEGIN_RES ARG D 557
REMARK  4 active torsions:
REMARK  status: ('A' for Active; 'I' for Inactive)
REMARK    1  A    between atoms: CA   and  CB  
REMARK    2  A    between atoms: CB   and  CG  
REMARK    3  A    between atoms: CG   and  CD  
REMARK    4  A    between atoms: CD   and  NE  
REMARK       I    between atoms: NE   and  CZ  
REMARK       I    between atoms: CZ   and  NH1 
REMARK       I    between atoms: CZ   and  NH2 
ROOT
ATOM      1  CA  ARG D 557     -26.217   2.705 -17.014  1.00 35.49     0.159 C 
ENDROOT
BRANCH   1   2
ATOM      2  CB  ARG D 557     -26.789   1.319 -17.183  1.00 35.49     0.034 C 
BRANCH   2   3
ATOM      3  CG  ARG D 557     -28.232   1.168 -16.959  1.00 35.49     0.027 C 
BRANCH   3   4
ATOM      4  CD  ARG D 557     -28.602  -0.215 -16.582  1.00 35.49     0.116 C 
BRANCH   4   5
ATOM      5  NE  ARG D 557     -27.555  -0.877 -15.849  1.00 35.49    -0.212 N 
ATOM      6  CZ  ARG D 557     -27.262  -2.156 -15.914  1.00 35.49     0.666 C 
ATOM      7  NH1 ARG D 557     -27.933  -2.999 -16.677  1.00 35.49    -0.235 N 
ATOM      8  NH2 ARG D 557     -26.264  -2.581 -15.194  1.00 35.49    -0.235 N 
ATOM      9  HH  ARG D 557     -28.591  -2.741 -17.160  1.00 35.49     0.174 HD
ATOM     10  HH  ARG D 557     -27.694  -3.822 -16.681  1.00 35.49     0.174 HD
ATOM     11  HH  ARG D 557     -25.845  -2.012 -14.717  1.00 35.49     0.174 HD
ATOM     12  HH  ARG D 557     -26.043  -3.399 -15.213  1.00 35.49     0.174 HD
ATOM     13  HE  ARG D 557     -27.119  -0.422 -15.277  1.00 35.49     0.178 HD
ENDBRANCH   4   5
ENDBRANCH   3   4
ENDBRANCH   2   3
ENDBRANCH   1   2
END_RES ARG D 557
BEGIN_RES GLU D 570
REMARK  3 active torsions:
REMARK  status: ('A' for Active; 'I' for Inactive)
REMARK    5  A    between atoms: CA   and  CB  
REMARK    6  A    between atoms: CB   and  CG  
REMARK    7  A    between atoms: CG   and  CD  
ROOT
ATOM     14  CA  GLU D 570     -18.033  -6.348 -13.375  1.00 32.92     0.160 C 
ENDROOT
BRANCH  14  15
ATOM     15  CB  GLU D 570     -19.500  -6.345 -13.794  1.00 32.92     0.043 C 
BRANCH  15  16
ATOM     16  CG  GLU D 570     -20.103  -7.645 -14.186  1.00 32.92     0.100 C 
BRANCH  16  17
ATOM     17  CD  GLU D 570     -20.481  -7.703 -15.647  1.00 32.92     0.185 C 
ATOM     18  OE1 GLU D 570     -20.665  -6.638 -16.267  1.00 32.92    -0.647 OA
ATOM     19  OE2 GLU D 570     -20.612  -8.826 -16.173  1.00 32.92    -0.647 OA
ENDBRANCH  16  17
ENDBRANCH  15  16
ENDBRANCH  14  15
END_RES GLU D 570
ENDMDL
MODEL 6
REMARK VINA RESULT:      -8.3      2.858      8.577
REMARK  15 active torsions:
REMARK  status: ('A' for Active; 'I' for Inactive)
REMARK    1  A    between atoms: C_3  and  C_4 
REMARK    2  A    between atoms: C_4  and  C_5 
REMARK    3  A    between atoms: C_5  and  C_6 
REMARK    4  A    between atoms: C_7  and  C_8 
REMARK    5  A    between atoms: C_8  and  C_9 
REMARK    6  A    between atoms: C_9  and  C_10 
REMARK    7  A    between atoms: C_11  and  C_12 
REMARK    8  A    between atoms: C_12  and  C_13 
REMARK    9  A    between atoms: C_13  and  C_14 
REMARK   10  A    between atoms: C_15  and  C_17 
REMARK   11  A    between atoms: C_17  and  C_18 
REMARK   12  A    between atoms: C_18  and  C_19 
REMARK   13  A    between atoms: C_20  and  C_22 
REMARK   14  A    between atoms: C_22  and  C_23 
REMARK   15  A    between atoms: C_23  and  C_24 
ROOT
HETATM    1  C   UNL     1     -23.078  -5.614 -14.091  1.00  0.00     0.031 C 
ENDROOT
BRANCH   1   2
HETATM    2  C   UNL     1     -24.476  -5.874 -14.582  1.00  0.00    -0.024 C 
HETATM    3  C   UNL     1     -24.942  -6.660 -15.587  1.00  0.00    -0.087 C 
HETATM    4  C   UNL     1     -26.438  -6.582 -15.831  1.00  0.00     0.043 C 
BRANCH   3   5
HETATM    5  C   UNL     1     -24.112  -7.547 -16.540  1.00  0.00     0.037 C 
BRANCH   5   6
HETATM    6  C   UNL     1     -23.714  -6.823 -17.869  1.00  0.00     0.031 C 
BRANCH   6   7
HETATM    7  C   UNL     1     -23.925  -7.490 -19.207  1.00  0.00    -0.024 C 
HETATM    8  C   UNL     1     -24.924  -7.193 -20.078  1.00  0.00    -0.087 C 
HETATM    9  C   UNL     1     -24.992  -7.993 -21.360  1.00  0.00     0.043 C 
BRANCH   8  10
HETATM   10  C   UNL     1     -25.985  -6.091 -19.849  1.00  0.00     0.037 C 
BRANCH  10  11
HETATM   11  C   UNL     1     -27.438  -6.582 -19.686  1.00  0.00     0.031 C 
BRANCH  11  12
HETATM   12  C   UNL     1     -28.379  -6.122 -18.593  1.00  0.00    -0.024 C 
HETATM   13  C   UNL     1     -29.559  -6.512 -18.064  1.00  0.00    -0.091 C 
HETATM   14  C   UNL     1     -30.415  -7.665 -18.490  1.00  0.00     0.042 C 
HETATM   15  C   UNL     1     -30.131  -5.728 -16.900  1.00  0.00     0.042 C 
ENDBRANCH  11  12
ENDBRANCH  10  11
ENDBRANCH   8  10
ENDBRANCH   6   7
ENDBRANCH   5   6
ENDBRANCH   3   5
ENDBRANCH   1   2
BRANCH   1  16
HETATM   16  C   UNL     1     -22.935  -4.272 -13.310  1.00  0.00     0.031 C 
BRANCH  16  17
HETATM   17  C   UNL     1     -22.176  -4.491 -12.019  1.00  0.00    -0.024 C 
HETATM   18  C   UNL     1     -22.543  -4.206 -10.747  1.00  0.00    -0.087 C 
HETATM   19  C   UNL     1     -23.923  -3.778 -10.332  1.00  0.00     0.043 C 
BRANCH  18  20
HETATM   20  C   UNL     1     -21.541  -4.285  -9.587  1.00  0.00     0.037 C 
BRANCH  20  21
HETATM   21  C   UNL     1     -22.099  -3.796  -8.239  1.00  0.00     0.031 C 
BRANCH  21  22
HETATM   22  C   UNL     1     -22.363  -4.876  -7.225  1.00  0.00    -0.024 C 
HETATM   23  C   UNL     1     -21.505  -5.306  -6.273  1.00  0.00    -0.087 C 
HETATM   24  C   UNL     1     -20.059  -4.879  -6.228  1.00  0.00     0.043 C 
BRANCH  23  25
HETATM   25  C   UNL     1     -21.894  -6.246  -5.134  1.00  0.00     0.037 C 
BRANCH  25  26
HETATM   26  C   UNL     1     -21.185  -5.994  -3.796  1.00  0.00     0.031 C 
BRANCH  26  27
HETATM   27  C   UNL     1     -22.014  -6.246  -2.563  1.00  0.00    -0.024 C 
HETATM   28  C   UNL     1     -21.683  -7.148  -1.618  1.00  0.00    -0.091 C 
HETATM   29  C   UNL     1     -20.455  -8.022  -1.689  1.00  0.00     0.042 C 
HETATM   30  C   UNL     1     -22.524  -7.361  -0.392  1.00  0.00     0.042 C 
ENDBRANCH  26  27
ENDBRANCH  25  26
ENDBRANCH  23  25
ENDBRANCH  21  22
ENDBRANCH  20  21
ENDBRANCH  18  20
ENDBRANCH  16  17
ENDBRANCH   1  16
TORSDOF 15
BEGIN_RES ARG D 557
REMARK  4 active torsions:
REMARK  status: ('A' for Active; 'I' for Inactive)
REMARK    1  A    between atoms: CA   and  CB  
REMARK    2  A    between atoms: CB   and  CG  
REMARK    3  A    between atoms: CG   and  CD  
REMARK    4  A    between atoms: CD   and  NE  
REMARK       I    between atoms: NE   and  CZ  
REMARK       I    between atoms: CZ   and  NH1 
REMARK       I    between atoms: CZ   and  NH2 
ROOT
ATOM      1  CA  ARG D 557     -26.217   2.705 -17.014  1.00 35.49     0.159 C 
ENDROOT
BRANCH   1   2
ATOM      2  CB  ARG D 557     -26.789   1.319 -17.183  1.00 35.49     0.034 C 
BRANCH   2   3
ATOM      3  CG  ARG D 557     -28.235   1.225 -17.418  1.00 35.49     0.027 C 
BRANCH   3   4
ATOM      4  CD  ARG D 557     -28.904   0.315 -16.461  1.00 35.49     0.116 C 
BRANCH   4   5
ATOM      5  NE  ARG D 557     -28.137  -0.879 -16.221  1.00 35.49    -0.212 N 
ATOM      6  CZ  ARG D 557     -28.387  -2.067 -16.725  1.00 35.49     0.666 C 
ATOM      7  NH1 ARG D 557     -29.414  -2.298 -17.521  1.00 35.49    -0.235 N 
ATOM      8  NH2 ARG D 557     -27.572  -3.033 -16.416  1.00 35.49    -0.235 N 
ATOM      9  HH  ARG D 557     -29.962  -1.676 -17.739  1.00 35.49     0.174 HD
ATOM     10  HH  ARG D 557     -29.525  -3.092 -17.822  1.00 35.49     0.174 HD
ATOM     11  HH  ARG D 557     -26.913  -2.853 -15.905  1.00 35.49     0.174 HD
ATOM     12  HH  ARG D 557     -27.698  -3.813 -16.725  1.00 35.49     0.174 HD
ATOM     13  HE  ARG D 557     -27.499  -0.837 -15.661  1.00 35.49     0.178 HD
ENDBRANCH   4   5
ENDBRANCH   3   4
ENDBRANCH   2   3
ENDBRANCH   1   2
END_RES ARG D 557
BEGIN_RES GLU D 570
REMARK  3 active torsions:
REMARK  status: ('A' for Active; 'I' for Inactive)
REMARK    5  A    between atoms: CA   and  CB  
REMARK    6  A    between atoms: CB   and  CG  
REMARK    7  A    between atoms: CG   and  CD  
ROOT
ATOM     14  CA  GLU D 570     -18.033  -6.348 -13.375  1.00 32.92     0.160 C 
ENDROOT
BRANCH  14  15
ATOM     15  CB  GLU D 570     -19.500  -6.345 -13.794  1.00 32.92     0.043 C 
BRANCH  15  16
ATOM     16  CG  GLU D 570     -20.088  -7.635 -14.238  1.00 32.92     0.100 C 
BRANCH  16  17
ATOM     17  CD  GLU D 570     -20.492  -7.628 -15.694  1.00 32.92     0.185 C 
ATOM     18  OE1 GLU D 570     -20.790  -8.706 -16.245  1.00 32.92    -0.647 OA
ATOM     19  OE2 GLU D 570     -20.496  -6.536 -16.295  1.00 32.92    -0.647 OA
ENDBRANCH  16  17
ENDBRANCH  15  16
ENDBRANCH  14  15
END_RES GLU D 570
ENDMDL
MODEL 7
REMARK VINA RESULT:      -8.2      1.293      8.650
REMARK  15 active torsions:
REMARK  status: ('A' for Active; 'I' for Inactive)
REMARK    1  A    between atoms: C_3  and  C_4 
REMARK    2  A    between atoms: C_4  and  C_5 
REMARK    3  A    between atoms: C_5  and  C_6 
REMARK    4  A    between atoms: C_7  and  C_8 
REMARK    5  A    between atoms: C_8  and  C_9 
REMARK    6  A    between atoms: C_9  and  C_10 
REMARK    7  A    between atoms: C_11  and  C_12 
REMARK    8  A    between atoms: C_12  and  C_13 
REMARK    9  A    between atoms: C_13  and  C_14 
REMARK   10  A    between atoms: C_15  and  C_17 
REMARK   11  A    between atoms: C_17  and  C_18 
REMARK   12  A    between atoms: C_18  and  C_19 
REMARK   13  A    between atoms: C_20  and  C_22 
REMARK   14  A    between atoms: C_22  and  C_23 
REMARK   15  A    between atoms: C_23  and  C_24 
ROOT
HETATM    1  C   UNL     1     -22.243  -6.812  -1.887  1.00  0.00     0.031 C 
ENDROOT
BRANCH   1   2
HETATM    2  C   UNL     1     -21.630  -7.393  -0.643  1.00  0.00    -0.024 C 
HETATM    3  C   UNL     1     -22.093  -8.318   0.237  1.00  0.00    -0.087 C 
HETATM    4  C   UNL     1     -21.199  -8.576   1.437  1.00  0.00     0.043 C 
BRANCH   3   5
HETATM    5  C   UNL     1     -23.446  -9.061   0.186  1.00  0.00     0.037 C 
BRANCH   5   6
HETATM    6  C   UNL     1     -23.320 -10.540  -0.309  1.00  0.00     0.031 C 
BRANCH   6   7
HETATM    7  C   UNL     1     -23.324 -10.866  -1.784  1.00  0.00    -0.024 C 
HETATM    8  C   UNL     1     -22.216 -10.965  -2.563  1.00  0.00    -0.087 C 
HETATM    9  C   UNL     1     -22.421 -11.269  -4.031  1.00  0.00     0.043 C 
BRANCH   8  10
HETATM   10  C   UNL     1     -20.767 -10.797  -2.049  1.00  0.00     0.037 C 
BRANCH  10  11
HETATM   11  C   UNL     1     -19.906  -9.757  -2.795  1.00  0.00     0.031 C 
BRANCH  11  12
HETATM   12  C   UNL     1     -18.403  -9.638  -2.664  1.00  0.00    -0.024 C 
HETATM   13  C   UNL     1     -17.322  -9.727  -3.469  1.00  0.00    -0.091 C 
HETATM   14  C   UNL     1     -17.296 -10.044  -4.932  1.00  0.00     0.042 C 
HETATM   15  C   UNL     1     -15.949  -9.485  -2.875  1.00  0.00     0.042 C 
ENDBRANCH  11  12
ENDBRANCH  10  11
ENDBRANCH   8  10
ENDBRANCH   6   7
ENDBRANCH   5   6
ENDBRANCH   3   5
ENDBRANCH   1   2
BRANCH   1  16
HETATM   16  C   UNL     1     -21.192  -6.407  -2.966  1.00  0.00     0.031 C 
BRANCH  16  17
HETATM   17  C   UNL     1     -21.846  -6.300  -4.327  1.00  0.00    -0.024 C 
HETATM   18  C   UNL     1     -21.456  -5.593  -5.415  1.00  0.00    -0.087 C 
HETATM   19  C   UNL     1     -20.130  -4.900  -5.552  1.00  0.00     0.043 C 
BRANCH  18  20
HETATM   20  C   UNL     1     -22.377  -5.423  -6.631  1.00  0.00     0.037 C 
BRANCH  20  21
HETATM   21  C   UNL     1     -22.248  -4.058  -7.331  1.00  0.00     0.031 C 
BRANCH  21  22
HETATM   22  C   UNL     1     -22.506  -4.073  -8.814  1.00  0.00    -0.024 C 
HETATM   23  C   UNL     1     -21.573  -4.181  -9.786  1.00  0.00    -0.087 C 
HETATM   24  C   UNL     1     -20.092  -4.106  -9.505  1.00  0.00     0.043 C 
BRANCH  23  25
HETATM   25  C   UNL     1     -21.898  -4.411 -11.261  1.00  0.00     0.037 C 
BRANCH  25  26
HETATM   26  C   UNL     1     -22.347  -3.168 -12.041  1.00  0.00     0.031 C 
BRANCH  26  27
HETATM   27  C   UNL     1     -23.805  -3.128 -12.416  1.00  0.00    -0.024 C 
HETATM   28  C   UNL     1     -24.255  -2.649 -13.594  1.00  0.00    -0.091 C 
HETATM   29  C   UNL     1     -23.357  -2.082 -14.665  1.00  0.00     0.042 C 
HETATM   30  C   UNL     1     -25.716  -2.640 -13.943  1.00  0.00     0.042 C 
ENDBRANCH  26  27
ENDBRANCH  25  26
ENDBRANCH  23  25
ENDBRANCH  21  22
ENDBRANCH  20  21
ENDBRANCH  18  20
ENDBRANCH  16  17
ENDBRANCH   1  16
TORSDOF 15
BEGIN_RES ARG D 557
REMARK  4 active torsions:
REMARK  status: ('A' for Active; 'I' for Inactive)
REMARK    1  A    between atoms: CA   and  CB  
REMARK    2  A    between atoms: CB   and  CG  
REMARK    3  A    between atoms: CG   and  CD  
REMARK    4  A    between atoms: CD   and  NE  
REMARK       I    between atoms: NE   and  CZ  
REMARK       I    between atoms: CZ   and  NH1 
REMARK       I    between atoms: CZ   and  NH2 
ROOT
ATOM      1  CA  ARG D 557     -26.217   2.705 -17.014  1.00 35.49     0.159 C 
ENDROOT
BRANCH   1   2
ATOM      2  CB  ARG D 557     -26.789   1.319 -17.183  1.00 35.49     0.034 C 
BRANCH   2   3
ATOM      3  CG  ARG D 557     -28.205   1.230 -17.561  1.00 35.49     0.027 C 
BRANCH   3   4
ATOM      4  CD  ARG D 557     -28.956   0.276 -16.714  1.00 35.49     0.116 C 
BRANCH   4   5
ATOM      5  NE  ARG D 557     -28.251  -0.967 -16.541  1.00 35.49    -0.212 N 
ATOM      6  CZ  ARG D 557     -28.661  -2.147 -16.948  1.00 35.49     0.666 C 
ATOM      7  NH1 ARG D 557     -29.813  -2.321 -17.569  1.00 35.49    -0.235 N 
ATOM      8  NH2 ARG D 557     -27.882  -3.164 -16.724  1.00 35.49    -0.235 N 
ATOM      9  HH  ARG D 557     -30.341  -1.665 -17.729  1.00 35.49     0.174 HD
ATOM     10  HH  ARG D 557     -30.028  -3.114 -17.814  1.00 35.49     0.174 HD
ATOM     11  HH  ARG D 557     -27.140  -3.021 -16.327  1.00 35.49     0.174 HD
ATOM     12  HH  ARG D 557     -28.111  -3.941 -16.976  1.00 35.49     0.174 HD
ATOM     13  HE  ARG D 557     -27.532  -0.958 -16.086  1.00 35.49     0.178 HD
ENDBRANCH   4   5
ENDBRANCH   3   4
ENDBRANCH   2   3
ENDBRANCH   1   2
END_RES ARG D 557
BEGIN_RES GLU D 570
REMARK  3 active torsions:
REMARK  status: ('A' for Active; 'I' for Inactive)
REMARK    5  A    between atoms: CA   and  CB  
REMARK    6  A    between atoms: CB   and  CG  
REMARK    7  A    between atoms: CG   and  CD  
ROOT
ATOM     14  CA  GLU D 570     -18.033  -6.348 -13.375  1.00 32.92     0.160 C 
ENDROOT
BRANCH  14  15
ATOM     15  CB  GLU D 570     -19.500  -6.345 -13.794  1.00 32.92     0.043 C 
BRANCH  15  16
ATOM     16  CG  GLU D 570     -19.812  -5.945 -15.190  1.00 32.92     0.100 C 
BRANCH  16  17
ATOM     17  CD  GLU D 570     -21.294  -5.786 -15.440  1.00 32.92     0.185 C 
ATOM     18  OE1 GLU D 570     -21.696  -4.800 -16.088  1.00 32.92    -0.647 OA
ATOM     19  OE2 GLU D 570     -22.062  -6.647 -14.969  1.00 32.92    -0.647 OA
ENDBRANCH  16  17
ENDBRANCH  15  16
ENDBRANCH  14  15
END_RES GLU D 570
ENDMDL
MODEL 8
REMARK VINA RESULT:      -8.1      1.732      7.342
REMARK  15 active torsions:
REMARK  status: ('A' for Active; 'I' for Inactive)
REMARK    1  A    between atoms: C_3  and  C_4 
REMARK    2  A    between atoms: C_4  and  C_5 
REMARK    3  A    between atoms: C_5  and  C_6 
REMARK    4  A    between atoms: C_7  and  C_8 
REMARK    5  A    between atoms: C_8  and  C_9 
REMARK    6  A    between atoms: C_9  and  C_10 
REMARK    7  A    between atoms: C_11  and  C_12 
REMARK    8  A    between atoms: C_12  and  C_13 
REMARK    9  A    between atoms: C_13  and  C_14 
REMARK   10  A    between atoms: C_15  and  C_17 
REMARK   11  A    between atoms: C_17  and  C_18 
REMARK   12  A    between atoms: C_18  and  C_19 
REMARK   13  A    between atoms: C_20  and  C_22 
REMARK   14  A    between atoms: C_22  and  C_23 
REMARK   15  A    between atoms: C_23  and  C_24 
ROOT
HETATM    1  C   UNL     1     -20.555 -10.851  -0.078  1.00  0.00     0.031 C 
ENDROOT
BRANCH   1   2
HETATM    2  C   UNL     1     -21.289 -12.020   0.519  1.00  0.00    -0.024 C 
HETATM    3  C   UNL     1     -22.615 -12.255   0.688  1.00  0.00    -0.087 C 
HETATM    4  C   UNL     1     -22.959 -13.535   1.427  1.00  0.00     0.043 C 
BRANCH   3   5
HETATM    5  C   UNL     1     -23.786 -11.332   0.283  1.00  0.00     0.037 C 
BRANCH   5   6
HETATM    6  C   UNL     1     -24.029 -11.283  -1.261  1.00  0.00     0.031 C 
BRANCH   6   7
HETATM    7  C   UNL     1     -23.297 -12.221  -2.191  1.00  0.00    -0.024 C 
HETATM    8  C   UNL     1     -22.412 -11.839  -3.147  1.00  0.00    -0.087 C 
HETATM    9  C   UNL     1     -21.801 -12.924  -4.006  1.00  0.00     0.043 C 
BRANCH   8  10
HETATM   10  C   UNL     1     -21.985 -10.375  -3.408  1.00  0.00     0.037 C 
BRANCH  10  11
HETATM   11  C   UNL     1     -21.397 -10.086  -4.804  1.00  0.00     0.031 C 
BRANCH  11  12
HETATM   12  C   UNL     1     -19.919  -9.950  -5.099  1.00  0.00    -0.024 C 
HETATM   13  C   UNL     1     -18.788  -9.664  -4.417  1.00  0.00    -0.091 C 
HETATM   14  C   UNL     1     -18.659  -9.323  -2.964  1.00  0.00     0.042 C 
HETATM   15  C   UNL     1     -17.467  -9.679  -5.157  1.00  0.00     0.042 C 
ENDBRANCH  11  12
ENDBRANCH  10  11
ENDBRANCH   8  10
ENDBRANCH   6   7
ENDBRANCH   5   6
ENDBRANCH   3   5
ENDBRANCH   1   2
BRANCH   1  16
HETATM   16  C   UNL     1     -20.725  -9.530   0.735  1.00  0.00     0.031 C 
BRANCH  16  17
HETATM   17  C   UNL     1     -21.019  -8.372  -0.193  1.00  0.00    -0.024 C 
HETATM   18  C   UNL     1     -22.164  -7.664  -0.347  1.00  0.00    -0.087 C 
HETATM   19  C   UNL     1     -23.360  -7.767   0.555  1.00  0.00     0.043 C 
BRANCH  18  20
HETATM   20  C   UNL     1     -22.343  -6.675  -1.508  1.00  0.00     0.037 C 
BRANCH  20  21
HETATM   21  C   UNL     1     -21.174  -6.661  -2.508  1.00  0.00     0.031 C 
BRANCH  21  22
HETATM   22  C   UNL     1     -21.571  -6.732  -3.958  1.00  0.00    -0.024 C 
HETATM   23  C   UNL     1     -21.045  -6.003  -4.968  1.00  0.00    -0.087 C 
HETATM   24  C   UNL     1     -20.097  -4.852  -4.733  1.00  0.00     0.043 C 
BRANCH  23  25
HETATM   25  C   UNL     1     -21.324  -6.264  -6.447  1.00  0.00     0.037 C 
BRANCH  25  26
HETATM   26  C   UNL     1     -21.294  -5.027  -7.355  1.00  0.00     0.031 C 
BRANCH  26  27
HETATM   27  C   UNL     1     -22.640  -4.491  -7.767  1.00  0.00    -0.024 C 
HETATM   28  C   UNL     1     -22.887  -3.961  -8.982  1.00  0.00    -0.091 C 
HETATM   29  C   UNL     1     -21.844  -3.825 -10.064  1.00  0.00     0.042 C 
HETATM   30  C   UNL     1     -24.247  -3.452  -9.367  1.00  0.00     0.042 C 
ENDBRANCH  26  27
ENDBRANCH  25  26
ENDBRANCH  23  25
ENDBRANCH  21  22
ENDBRANCH  20  21
ENDBRANCH  18  20
ENDBRANCH  16  17
ENDBRANCH   1  16
TORSDOF 15
BEGIN_RES ARG D 557
REMARK  4 active torsions:
REMARK  status: ('A' for Active; 'I' for Inactive)
REMARK    1  A    between atoms: CA   and  CB  
REMARK    2  A    between atoms: CB   and  CG  
REMARK    3  A    between atoms: CG   and  CD  
REMARK    4  A    between atoms: CD   and  NE  
REMARK       I    between atoms: NE   and  CZ  
REMARK       I    between atoms: CZ   and  NH1 
REMARK       I    between atoms: CZ   and  NH2 
ROOT
ATOM      1  CA  ARG D 557     -26.217   2.705 -17.014  1.00 35.49     0.159 C 
ENDROOT
BRANCH   1   2
ATOM      2  CB  ARG D 557     -26.789   1.319 -17.183  1.00 35.49     0.034 C 
BRANCH   2   3
ATOM      3  CG  ARG D 557     -26.054   0.219 -16.547  1.00 35.49     0.027 C 
BRANCH   3   4
ATOM      4  CD  ARG D 557     -26.946  -0.883 -16.120  1.00 35.49     0.116 C 
BRANCH   4   5
ATOM      5  NE  ARG D 557     -26.218  -1.966 -15.513  1.00 35.49    -0.212 N 
ATOM      6  CZ  ARG D 557     -25.125  -1.849 -14.793  1.00 35.49     0.666 C 
ATOM      7  NH1 ARG D 557     -24.554  -0.682 -14.556  1.00 35.49    -0.235 N 
ATOM      8  NH2 ARG D 557     -24.610  -2.938 -14.302  1.00 35.49    -0.235 N 
ATOM      9  HH  ARG D 557     -24.877   0.048 -14.867  1.00 35.49     0.174 HD
ATOM     10  HH  ARG D 557     -23.844  -0.667 -14.077  1.00 35.49     0.174 HD
ATOM     11  HH  ARG D 557     -25.004  -3.677 -14.466  1.00 35.49     0.174 HD
ATOM     12  HH  ARG D 557     -23.907  -2.902 -13.829  1.00 35.49     0.174 HD
ATOM     13  HE  ARG D 557     -26.475  -2.761 -15.676  1.00 35.49     0.178 HD
ENDBRANCH   4   5
ENDBRANCH   3   4
ENDBRANCH   2   3
ENDBRANCH   1   2
END_RES ARG D 557
BEGIN_RES GLU D 570
REMARK  3 active torsions:
REMARK  status: ('A' for Active; 'I' for Inactive)
REMARK    5  A    between atoms: CA   and  CB  
REMARK    6  A    between atoms: CB   and  CG  
REMARK    7  A    between atoms: CG   and  CD  
ROOT
ATOM     14  CA  GLU D 570     -18.033  -6.348 -13.375  1.00 32.92     0.160 C 
ENDROOT
BRANCH  14  15
ATOM     15  CB  GLU D 570     -19.500  -6.345 -13.794  1.00 32.92     0.043 C 
BRANCH  15  16
ATOM     16  CG  GLU D 570     -20.438  -5.513 -12.997  1.00 32.92     0.100 C 
BRANCH  16  17
ATOM     17  CD  GLU D 570     -21.699  -5.160 -13.751  1.00 32.92     0.185 C 
ATOM     18  OE1 GLU D 570     -21.622  -4.880 -14.962  1.00 32.92    -0.647 OA
ATOM     19  OE2 GLU D 570     -22.774  -5.147 -13.118  1.00 32.92    -0.647 OA
ENDBRANCH  16  17
ENDBRANCH  15  16
ENDBRANCH  14  15
END_RES GLU D 570
ENDMDL
MODEL 9
REMARK VINA RESULT:      -8.1      2.031      3.353
REMARK  15 active torsions:
REMARK  status: ('A' for Active; 'I' for Inactive)
REMARK    1  A    between atoms: C_3  and  C_4 
REMARK    2  A    between atoms: C_4  and  C_5 
REMARK    3  A    between atoms: C_5  and  C_6 
REMARK    4  A    between atoms: C_7  and  C_8 
REMARK    5  A    between atoms: C_8  and  C_9 
REMARK    6  A    between atoms: C_9  and  C_10 
REMARK    7  A    between atoms: C_11  and  C_12 
REMARK    8  A    between atoms: C_12  and  C_13 
REMARK    9  A    between atoms: C_13  and  C_14 
REMARK   10  A    between atoms: C_15  and  C_17 
REMARK   11  A    between atoms: C_17  and  C_18 
REMARK   12  A    between atoms: C_18  and  C_19 
REMARK   13  A    between atoms: C_20  and  C_22 
REMARK   14  A    between atoms: C_22  and  C_23 
REMARK   15  A    between atoms: C_23  and  C_24 
ROOT
HETATM    1  C   UNL     1     -22.293  -7.049  -0.923  1.00  0.00     0.031 C 
ENDROOT
BRANCH   1   2
HETATM    2  C   UNL     1     -21.368  -7.734  -1.890  1.00  0.00    -0.024 C 
HETATM    3  C   UNL     1     -21.066  -7.464  -3.186  1.00  0.00    -0.087 C 
HETATM    4  C   UNL     1     -20.138  -8.460  -3.857  1.00  0.00     0.043 C 
BRANCH   3   5
HETATM    5  C   UNL     1     -21.620  -6.313  -4.054  1.00  0.00     0.037 C 
BRANCH   5   6
HETATM    6  C   UNL     1     -21.393  -6.530  -5.586  1.00  0.00     0.031 C 
BRANCH   6   7
HETATM    7  C   UNL     1     -20.201  -5.920  -6.286  1.00  0.00    -0.024 C 
HETATM    8  C   UNL     1     -20.226  -4.772  -7.010  1.00  0.00    -0.087 C 
HETATM    9  C   UNL     1     -18.935  -4.334  -7.667  1.00  0.00     0.043 C 
BRANCH   8  10
HETATM   10  C   UNL     1     -21.478  -3.884  -7.201  1.00  0.00     0.037 C 
BRANCH  10  11
HETATM   11  C   UNL     1     -22.466  -4.341  -8.293  1.00  0.00     0.031 C 
BRANCH  11  12
HETATM   12  C   UNL     1     -22.609  -3.681  -9.647  1.00  0.00    -0.024 C 
HETATM   13  C   UNL     1     -21.882  -3.563 -10.781  1.00  0.00    -0.091 C 
HETATM   14  C   UNL     1     -20.513  -4.107 -11.049  1.00  0.00     0.042 C 
HETATM   15  C   UNL     1     -22.474  -2.802 -11.950  1.00  0.00     0.042 C 
ENDBRANCH  11  12
ENDBRANCH  10  11
ENDBRANCH   8  10
ENDBRANCH   6   7
ENDBRANCH   5   6
ENDBRANCH   3   5
ENDBRANCH   1   2
BRANCH   1  16
HETATM   16  C   UNL     1     -22.810  -7.986   0.213  1.00  0.00     0.031 C 
BRANCH  16  17
HETATM   17  C   UNL     1     -21.993  -9.259   0.258  1.00  0.00    -0.024 C 
HETATM   18  C   UNL     1     -22.400 -10.547   0.149  1.00  0.00    -0.087 C 
HETATM   19  C   UNL     1     -23.783 -10.973  -0.254  1.00  0.00     0.043 C 
BRANCH  18  20
HETATM   20  C   UNL     1     -21.454 -11.715   0.456  1.00  0.00     0.037 C 
BRANCH  20  21
HETATM   21  C   UNL     1     -19.968 -11.319   0.526  1.00  0.00     0.031 C 
BRANCH  21  22
HETATM   22  C   UNL     1     -19.138 -11.733  -0.659  1.00  0.00    -0.024 C 
HETATM   23  C   UNL     1     -17.872 -12.205  -0.623  1.00  0.00    -0.087 C 
HETATM   24  C   UNL     1     -17.035 -12.196   0.633  1.00  0.00     0.043 C 
BRANCH  23  25
HETATM   25  C   UNL     1     -17.153 -12.815  -1.825  1.00  0.00     0.037 C 
BRANCH  25  26
HETATM   26  C   UNL     1     -15.776 -12.218  -2.145  1.00  0.00     0.031 C 
BRANCH  26  27
HETATM   27  C   UNL     1     -15.615 -11.670  -3.539  1.00  0.00    -0.024 C 
HETATM   28  C   UNL     1     -15.868 -10.386  -3.865  1.00  0.00    -0.091 C 
HETATM   29  C   UNL     1     -16.359  -9.354  -2.880  1.00  0.00     0.042 C 
HETATM   30  C   UNL     1     -15.681  -9.868  -5.262  1.00  0.00     0.042 C 
ENDBRANCH  26  27
ENDBRANCH  25  26
ENDBRANCH  23  25
ENDBRANCH  21  22
ENDBRANCH  20  21
ENDBRANCH  18  20
ENDBRANCH  16  17
ENDBRANCH   1  16
TORSDOF 15
BEGIN_RES ARG D 557
REMARK  4 active torsions:
REMARK  status: ('A' for Active; 'I' for Inactive)
REMARK    1  A    between atoms: CA   and  CB  
REMARK    2  A    between atoms: CB   and  CG  
REMARK    3  A    between atoms: CG   and  CD  
REMARK    4  A    between atoms: CD   and  NE  
REMARK       I    between atoms: NE   and  CZ  
REMARK       I    between atoms: CZ   and  NH1 
REMARK       I    between atoms: CZ   and  NH2 
ROOT
ATOM      1  CA  ARG D 557     -26.217   2.705 -17.014  1.00 35.49     0.159 C 
ENDROOT
BRANCH   1   2
ATOM      2  CB  ARG D 557     -26.789   1.319 -17.183  1.00 35.49     0.034 C 
BRANCH   2   3
ATOM      3  CG  ARG D 557     -28.206   1.143 -16.841  1.00 35.49     0.027 C 
BRANCH   3   4
ATOM      4  CD  ARG D 557     -28.715  -0.195 -17.219  1.00 35.49     0.116 C 
BRANCH   4   5
ATOM      5  NE  ARG D 557     -27.955  -1.256 -16.613  1.00 35.49    -0.212 N 
ATOM      6  CZ  ARG D 557     -28.185  -2.543 -16.754  1.00 35.49     0.666 C 
ATOM      7  NH1 ARG D 557     -29.182  -3.010 -17.482  1.00 35.49    -0.235 N 
ATOM      8  NH2 ARG D 557     -27.380  -3.366 -16.147  1.00 35.49    -0.235 N 
ATOM      9  HH  ARG D 557     -29.723  -2.486 -17.891  1.00 35.49     0.174 HD
ATOM     10  HH  ARG D 557     -29.281  -3.859 -17.539  1.00 35.49     0.174 HD
ATOM     11  HH  ARG D 557     -26.740  -3.036 -15.690  1.00 35.49     0.174 HD
ATOM     12  HH  ARG D 557     -27.494  -4.203 -16.217  1.00 35.49     0.174 HD
ATOM     13  HE  ARG D 557     -27.337  -1.044 -16.068  1.00 35.49     0.178 HD
ENDBRANCH   4   5
ENDBRANCH   3   4
ENDBRANCH   2   3
ENDBRANCH   1   2
END_RES ARG D 557
BEGIN_RES GLU D 570
REMARK  3 active torsions:
REMARK  status: ('A' for Active; 'I' for Inactive)
REMARK    5  A    between atoms: CA   and  CB  
REMARK    6  A    between atoms: CB   and  CG  
REMARK    7  A    between atoms: CG   and  CD  
ROOT
ATOM     14  CA  GLU D 570     -18.033  -6.348 -13.375  1.00 32.92     0.160 C 
ENDROOT
BRANCH  14  15
ATOM     15  CB  GLU D 570     -19.500  -6.345 -13.794  1.00 32.92     0.043 C 
BRANCH  15  16
ATOM     16  CG  GLU D 570     -19.798  -6.206 -15.243  1.00 32.92     0.100 C 
BRANCH  16  17
ATOM     17  CD  GLU D 570     -21.084  -5.459 -15.511  1.00 32.92     0.185 C 
ATOM     18  OE1 GLU D 570     -21.326  -5.068 -16.669  1.00 32.92    -0.647 OA
ATOM     19  OE2 GLU D 570     -21.849  -5.249 -14.550  1.00 32.92    -0.647 OA
ENDBRANCH  16  17
ENDBRANCH  15  16
ENDBRANCH  14  15
END_RES GLU D 570
ENDMDL
