MODEL 1
REMARK VINA RESULT:      -7.9      0.000      0.000
REMARK  21 active torsions:
REMARK  status: ('A' for Active; 'I' for Inactive)
REMARK    1  A    between atoms: C_2  and  C_3 
REMARK    2  A    between atoms: C_3  and  C_4 
REMARK    3  A    between atoms: C_4  and  C_5 
REMARK    4  A    between atoms: C_5  and  C_6 
REMARK    5  A    between atoms: C_6  and  C_7 
REMARK    6  A    between atoms: C_7  and  C_8 
REMARK    7  A    between atoms: C_8  and  C_9 
REMARK    8  A    between atoms: C_10  and  C_11 
REMARK    9  A    between atoms: C_11  and  C_12 
REMARK   10  A    between atoms: C_12  and  C_13 
REMARK   11  A    between atoms: C_13  and  C_14 
REMARK   12  A    between atoms: C_14  and  C_15 
REMARK   13  A    between atoms: C_15  and  C_16 
REMARK   14  A    between atoms: C_16  and  C_17 
REMARK   15  A    between atoms: C_17  and  C_18 
REMARK   16  A    between atoms: C_18  and  O_20 
REMARK   17  A    between atoms: O_20  and  C_21 
REMARK   18  A    between atoms: C_21  and  C_22 
REMARK   19  A    between atoms: C_22  and  C_23 
REMARK   20  A    between atoms: C_22  and  O_25 
REMARK   21  A    between atoms: C_23  and  O_24 
ROOT
HETATM    1  C   UNL     1     -20.423  -4.343  -8.355  1.00  0.00     0.000 C 
ENDROOT
BRANCH   1   2
HETATM    2  C   UNL     1     -21.076  -3.919  -7.047  1.00  0.00     0.000 C 
BRANCH   2   3
HETATM    3  C   UNL     1     -20.761  -4.912  -5.933  1.00  0.00     0.004 C 
BRANCH   3   4
HETATM    4  C   UNL     1     -21.318  -6.289  -6.275  1.00  0.00     0.027 C 
BRANCH   4   5
HETATM    5  C   UNL     1     -21.644  -7.048  -5.026  1.00  0.00    -0.031 C 
HETATM    6  C   UNL     1     -21.033  -6.830  -3.854  1.00  0.00    -0.031 C 
BRANCH   6   7
HETATM    7  C   UNL     1     -21.360  -7.585  -2.605  1.00  0.00     0.027 C 
BRANCH   7   8
HETATM    8  C   UNL     1     -22.277  -6.760  -1.710  1.00  0.00     0.004 C 
BRANCH   8   9
HETATM    9  C   UNL     1     -22.112  -7.172  -0.252  1.00  0.00     0.000 C 
BRANCH   9  10
HETATM   10  C   UNL     1     -23.218  -8.133   0.169  1.00  0.00     0.000 C 
BRANCH  10  11
HETATM   11  C   UNL     1     -22.816  -9.577  -0.116  1.00  0.00     0.000 C 
BRANCH  11  12
HETATM   12  C   UNL     1     -24.024 -10.503  -0.014  1.00  0.00    -0.000 C 
BRANCH  12  13
HETATM   13  C   UNL     1     -23.958 -11.606  -1.065  1.00  0.00    -0.005 C 
HETATM   14  C   UNL     1     -23.131 -11.170  -2.262  1.00  0.00     0.005 C 
ENDBRANCH  12  13
ENDBRANCH  11  12
ENDBRANCH  10  11
ENDBRANCH   9  10
ENDBRANCH   8   9
ENDBRANCH   7   8
ENDBRANCH   6   7
ENDBRANCH   4   5
ENDBRANCH   3   4
ENDBRANCH   2   3
ENDBRANCH   1   2
BRANCH   1  15
HETATM   15  C   UNL     1     -21.338  -4.052  -9.544  1.00  0.00     0.000 C 
BRANCH  15  16
HETATM   16  C   UNL     1     -22.735  -4.585  -9.265  1.00  0.00     0.010 C 
BRANCH  16  17
HETATM   17  C   UNL     1     -23.632  -4.558 -10.500  1.00  0.00     0.111 C 
BRANCH  17  18
HETATM   18  C   UNL     1     -24.601  -3.406 -10.400  1.00  0.00     0.258 C 
HETATM   19  O   UNL     1     -24.919  -2.863  -9.345  1.00  0.00    -0.265 OA
BRANCH  18  20
HETATM   20  O   UNL     1     -25.130  -3.118 -11.617  1.00  0.00    -0.319 OA
BRANCH  20  21
HETATM   21  C   UNL     1     -24.167  -2.821 -12.626  1.00  0.00     0.212 C 
BRANCH  21  22
HETATM   22  C   UNL     1     -24.780  -2.586 -13.999  1.00  0.00     0.166 C 
BRANCH  22  23
HETATM   23  C   UNL     1     -24.115  -1.427 -14.746  1.00  0.00     0.198 C 
BRANCH  23  24
HETATM   24  O   UNL     1     -23.007  -1.918 -15.492  1.00  0.00    -0.398 OA
HETATM   25  H   UNL     1     -23.033  -2.892 -15.416  1.00  0.00     0.209 HD
ENDBRANCH  23  24
ENDBRANCH  22  23
BRANCH  22  26
HETATM   26  O   UNL     1     -24.638  -3.776 -14.793  1.00  0.00    -0.391 OA
HETATM   27  H   UNL     1     -23.934  -4.331 -14.409  1.00  0.00     0.210 HD
ENDBRANCH  22  26
ENDBRANCH  21  22
ENDBRANCH  20  21
ENDBRANCH  18  20
ENDBRANCH  17  18
ENDBRANCH  16  17
ENDBRANCH  15  16
ENDBRANCH   1  15
TORSDOF 21
BEGIN_RES ARG D 557
REMARK  4 active torsions:
REMARK  status: ('A' for Active; 'I' for Inactive)
REMARK    1  A    between atoms: CA   and  CB  
REMARK    2  A    between atoms: CB   and  CG  
REMARK    3  A    between atoms: CG   and  CD  
REMARK    4  A    between atoms: CD   and  NE  
REMARK       I    between atoms: NE   and  CZ  
REMARK       I    between atoms: CZ   and  NH1 
REMARK       I    between atoms: CZ   and  NH2 
ROOT
ATOM      1  CA  ARG D 557     -26.217   2.705 -17.014  1.00 35.49     0.159 C 
ENDROOT
BRANCH   1   2
ATOM      2  CB  ARG D 557     -26.789   1.319 -17.183  1.00 35.49     0.034 C 
BRANCH   2   3
ATOM      3  CG  ARG D 557     -28.233   1.226 -17.430  1.00 35.49     0.027 C 
BRANCH   3   4
ATOM      4  CD  ARG D 557     -28.905   0.291 -16.499  1.00 35.49     0.116 C 
BRANCH   4   5
ATOM      5  NE  ARG D 557     -29.301  -0.931 -17.149  1.00 35.49    -0.212 N 
ATOM      6  CZ  ARG D 557     -28.682  -2.086 -17.057  1.00 35.49     0.666 C 
ATOM      7  NH1 ARG D 557     -27.584  -2.247 -16.342  1.00 35.49    -0.235 N 
ATOM      8  NH2 ARG D 557     -29.195  -3.095 -17.698  1.00 35.49    -0.235 N 
ATOM      9  HH  ARG D 557     -27.230  -1.597 -15.909  1.00 35.49     0.174 HD
ATOM     10  HH  ARG D 557     -27.225  -3.024 -16.316  1.00 35.49     0.174 HD
ATOM     11  HH  ARG D 557     -29.909  -2.964 -18.146  1.00 35.49     0.174 HD
ATOM     12  HH  ARG D 557     -28.825  -3.858 -17.659  1.00 35.49     0.174 HD
ATOM     13  HE  ARG D 557     -29.958  -0.901 -17.689  1.00 35.49     0.178 HD
ENDBRANCH   4   5
ENDBRANCH   3   4
ENDBRANCH   2   3
ENDBRANCH   1   2
END_RES ARG D 557
BEGIN_RES GLU D 570
REMARK  3 active torsions:
REMARK  status: ('A' for Active; 'I' for Inactive)
REMARK    5  A    between atoms: CA   and  CB  
REMARK    6  A    between atoms: CB   and  CG  
REMARK    7  A    between atoms: CG   and  CD  
ROOT
ATOM     14  CA  GLU D 570     -18.033  -6.348 -13.375  1.00 32.92     0.160 C 
ENDROOT
BRANCH  14  15
ATOM     15  CB  GLU D 570     -19.500  -6.345 -13.794  1.00 32.92     0.043 C 
BRANCH  15  16
ATOM     16  CG  GLU D 570     -20.409  -5.399 -13.097  1.00 32.92     0.100 C 
BRANCH  16  17
ATOM     17  CD  GLU D 570     -21.703  -5.168 -13.842  1.00 32.92     0.185 C 
ATOM     18  OE1 GLU D 570     -21.739  -4.304 -14.739  1.00 32.92    -0.647 OA
ATOM     19  OE2 GLU D 570     -22.696  -5.847 -13.513  1.00 32.92    -0.647 OA
ENDBRANCH  16  17
ENDBRANCH  15  16
ENDBRANCH  14  15
END_RES GLU D 570
ENDMDL
MODEL 2
REMARK VINA RESULT:      -7.4      1.395      1.640
REMARK  21 active torsions:
REMARK  status: ('A' for Active; 'I' for Inactive)
REMARK    1  A    between atoms: C_2  and  C_3 
REMARK    2  A    between atoms: C_3  and  C_4 
REMARK    3  A    between atoms: C_4  and  C_5 
REMARK    4  A    between atoms: C_5  and  C_6 
REMARK    5  A    between atoms: C_6  and  C_7 
REMARK    6  A    between atoms: C_7  and  C_8 
REMARK    7  A    between atoms: C_8  and  C_9 
REMARK    8  A    between atoms: C_10  and  C_11 
REMARK    9  A    between atoms: C_11  and  C_12 
REMARK   10  A    between atoms: C_12  and  C_13 
REMARK   11  A    between atoms: C_13  and  C_14 
REMARK   12  A    between atoms: C_14  and  C_15 
REMARK   13  A    between atoms: C_15  and  C_16 
REMARK   14  A    between atoms: C_16  and  C_17 
REMARK   15  A    between atoms: C_17  and  C_18 
REMARK   16  A    between atoms: C_18  and  O_20 
REMARK   17  A    between atoms: O_20  and  C_21 
REMARK   18  A    between atoms: C_21  and  C_22 
REMARK   19  A    between atoms: C_22  and  C_23 
REMARK   20  A    between atoms: C_22  and  O_25 
REMARK   21  A    between atoms: C_23  and  O_24 
ROOT
HETATM    1  C   UNL     1     -20.865  -4.562  -8.812  1.00  0.00     0.000 C 
ENDROOT
BRANCH   1   2
HETATM    2  C   UNL     1     -19.607  -4.388  -7.972  1.00  0.00     0.000 C 
BRANCH   2   3
HETATM    3  C   UNL     1     -19.533  -5.444  -6.874  1.00  0.00     0.004 C 
BRANCH   3   4
HETATM    4  C   UNL     1     -20.897  -6.092  -6.667  1.00  0.00     0.027 C 
BRANCH   4   5
HETATM    5  C   UNL     1     -21.179  -6.266  -5.207  1.00  0.00    -0.031 C 
HETATM    6  C   UNL     1     -20.870  -7.378  -4.526  1.00  0.00    -0.031 C 
BRANCH   6   7
HETATM    7  C   UNL     1     -21.149  -7.551  -3.067  1.00  0.00     0.027 C 
BRANCH   7   8
HETATM    8  C   UNL     1     -21.864  -6.325  -2.513  1.00  0.00     0.004 C 
BRANCH   8   9
HETATM    9  C   UNL     1     -22.412  -6.611  -1.120  1.00  0.00     0.000 C 
BRANCH   9  10
HETATM   10  C   UNL     1     -21.675  -7.779  -0.476  1.00  0.00     0.000 C 
BRANCH  10  11
HETATM   11  C   UNL     1     -22.655  -8.716   0.222  1.00  0.00     0.000 C 
BRANCH  11  12
HETATM   12  C   UNL     1     -22.373 -10.168  -0.151  1.00  0.00    -0.000 C 
BRANCH  12  13
HETATM   13  C   UNL     1     -23.564 -10.790  -0.874  1.00  0.00    -0.005 C 
HETATM   14  C   UNL     1     -23.177 -11.240  -2.272  1.00  0.00     0.005 C 
ENDBRANCH  12  13
ENDBRANCH  11  12
ENDBRANCH  10  11
ENDBRANCH   9  10
ENDBRANCH   8   9
ENDBRANCH   7   8
ENDBRANCH   6   7
ENDBRANCH   4   5
ENDBRANCH   3   4
ENDBRANCH   2   3
ENDBRANCH   1   2
BRANCH   1  15
HETATM   15  C   UNL     1     -20.587  -4.269 -10.285  1.00  0.00     0.000 C 
BRANCH  15  16
HETATM   16  C   UNL     1     -21.834  -3.700 -10.944  1.00  0.00     0.010 C 
BRANCH  16  17
HETATM   17  C   UNL     1     -23.001  -3.557  -9.970  1.00  0.00     0.111 C 
BRANCH  17  18
HETATM   18  C   UNL     1     -24.293  -3.433 -10.740  1.00  0.00     0.258 C 
HETATM   19  O   UNL     1     -25.378  -3.173 -10.226  1.00  0.00    -0.265 OA
BRANCH  18  20
HETATM   20  O   UNL     1     -24.100  -3.731 -12.050  1.00  0.00    -0.319 OA
BRANCH  20  21
HETATM   21  C   UNL     1     -24.777  -2.868 -12.961  1.00  0.00     0.212 C 
BRANCH  21  22
HETATM   22  C   UNL     1     -24.371  -3.079 -14.413  1.00  0.00     0.166 C 
BRANCH  22  23
HETATM   23  C   UNL     1     -22.854  -3.017 -14.610  1.00  0.00     0.198 C 
BRANCH  23  24
HETATM   24  O   UNL     1     -22.549  -2.097 -15.652  1.00  0.00    -0.398 OA
HETATM   25  H   UNL     1     -21.983  -1.407 -15.254  1.00  0.00     0.209 HD
ENDBRANCH  23  24
ENDBRANCH  22  23
BRANCH  22  26
HETATM   26  O   UNL     1     -24.832  -4.369 -14.851  1.00  0.00    -0.391 OA
HETATM   27  H   UNL     1     -25.169  -4.292 -15.762  1.00  0.00     0.210 HD
ENDBRANCH  22  26
ENDBRANCH  21  22
ENDBRANCH  20  21
ENDBRANCH  18  20
ENDBRANCH  17  18
ENDBRANCH  16  17
ENDBRANCH  15  16
ENDBRANCH   1  15
TORSDOF 21
BEGIN_RES ARG D 557
REMARK  4 active torsions:
REMARK  status: ('A' for Active; 'I' for Inactive)
REMARK    1  A    between atoms: CA   and  CB  
REMARK    2  A    between atoms: CB   and  CG  
REMARK    3  A    between atoms: CG   and  CD  
REMARK    4  A    between atoms: CD   and  NE  
REMARK       I    between atoms: NE   and  CZ  
REMARK       I    between atoms: CZ   and  NH1 
REMARK       I    between atoms: CZ   and  NH2 
ROOT
ATOM      1  CA  ARG D 557     -26.217   2.705 -17.014  1.00 35.49     0.159 C 
ENDROOT
BRANCH   1   2
ATOM      2  CB  ARG D 557     -26.789   1.319 -17.183  1.00 35.49     0.034 C 
BRANCH   2   3
ATOM      3  CG  ARG D 557     -28.185   1.125 -16.771  1.00 35.49     0.027 C 
BRANCH   3   4
ATOM      4  CD  ARG D 557     -28.716  -0.195 -17.180  1.00 35.49     0.116 C 
BRANCH   4   5
ATOM      5  NE  ARG D 557     -27.973  -1.282 -16.599  1.00 35.49    -0.212 N 
ATOM      6  CZ  ARG D 557     -28.221  -2.561 -16.773  1.00 35.49     0.666 C 
ATOM      7  NH1 ARG D 557     -29.222  -2.995 -17.516  1.00 35.49    -0.235 N 
ATOM      8  NH2 ARG D 557     -27.430  -3.411 -16.185  1.00 35.49    -0.235 N 
ATOM      9  HH  ARG D 557     -29.754  -2.453 -17.914  1.00 35.49     0.174 HD
ATOM     10  HH  ARG D 557     -29.333  -3.841 -17.595  1.00 35.49     0.174 HD
ATOM     11  HH  ARG D 557     -26.787  -3.102 -15.718  1.00 35.49     0.174 HD
ATOM     12  HH  ARG D 557     -27.555  -4.244 -16.277  1.00 35.49     0.174 HD
ATOM     13  HE  ARG D 557     -27.354  -1.093 -16.047  1.00 35.49     0.178 HD
ENDBRANCH   4   5
ENDBRANCH   3   4
ENDBRANCH   2   3
ENDBRANCH   1   2
END_RES ARG D 557
BEGIN_RES GLU D 570
REMARK  3 active torsions:
REMARK  status: ('A' for Active; 'I' for Inactive)
REMARK    5  A    between atoms: CA   and  CB  
REMARK    6  A    between atoms: CB   and  CG  
REMARK    7  A    between atoms: CG   and  CD  
ROOT
ATOM     14  CA  GLU D 570     -18.033  -6.348 -13.375  1.00 32.92     0.160 C 
ENDROOT
BRANCH  14  15
ATOM     15  CB  GLU D 570     -19.500  -6.345 -13.794  1.00 32.92     0.043 C 
BRANCH  15  16
ATOM     16  CG  GLU D 570     -20.105  -7.647 -14.178  1.00 32.92     0.100 C 
BRANCH  16  17
ATOM     17  CD  GLU D 570     -20.823  -7.594 -15.506  1.00 32.92     0.185 C 
ATOM     18  OE1 GLU D 570     -21.052  -8.657 -16.113  1.00 32.92    -0.647 OA
ATOM     19  OE2 GLU D 570     -21.145  -6.475 -15.953  1.00 32.92    -0.647 OA
ENDBRANCH  16  17
ENDBRANCH  15  16
ENDBRANCH  14  15
END_RES GLU D 570
ENDMDL
MODEL 3
REMARK VINA RESULT:      -7.3      1.381      2.273
REMARK  21 active torsions:
REMARK  status: ('A' for Active; 'I' for Inactive)
REMARK    1  A    between atoms: C_2  and  C_3 
REMARK    2  A    between atoms: C_3  and  C_4 
REMARK    3  A    between atoms: C_4  and  C_5 
REMARK    4  A    between atoms: C_5  and  C_6 
REMARK    5  A    between atoms: C_6  and  C_7 
REMARK    6  A    between atoms: C_7  and  C_8 
REMARK    7  A    between atoms: C_8  and  C_9 
REMARK    8  A    between atoms: C_10  and  C_11 
REMARK    9  A    between atoms: C_11  and  C_12 
REMARK   10  A    between atoms: C_12  and  C_13 
REMARK   11  A    between atoms: C_13  and  C_14 
REMARK   12  A    between atoms: C_14  and  C_15 
REMARK   13  A    between atoms: C_15  and  C_16 
REMARK   14  A    between atoms: C_16  and  C_17 
REMARK   15  A    between atoms: C_17  and  C_18 
REMARK   16  A    between atoms: C_18  and  O_20 
REMARK   17  A    between atoms: O_20  and  C_21 
REMARK   18  A    between atoms: C_21  and  C_22 
REMARK   19  A    between atoms: C_22  and  C_23 
REMARK   20  A    between atoms: C_22  and  O_25 
REMARK   21  A    between atoms: C_23  and  O_24 
ROOT
HETATM    1  C   UNL     1     -20.703  -4.445  -6.298  1.00  0.00     0.000 C 
ENDROOT
BRANCH   1   2
HETATM    2  C   UNL     1     -20.602  -5.326  -5.060  1.00  0.00     0.000 C 
BRANCH   2   3
HETATM    3  C   UNL     1     -20.868  -6.787  -5.408  1.00  0.00     0.004 C 
BRANCH   3   4
HETATM    4  C   UNL     1     -20.761  -7.658  -4.161  1.00  0.00     0.027 C 
BRANCH   4   5
HETATM    5  C   UNL     1     -21.580  -7.084  -3.048  1.00  0.00    -0.031 C 
HETATM    6  C   UNL     1     -21.572  -7.577  -1.801  1.00  0.00    -0.031 C 
BRANCH   6   7
HETATM    7  C   UNL     1     -22.387  -7.003  -0.686  1.00  0.00     0.027 C 
BRANCH   7   8
HETATM    8  C   UNL     1     -22.699  -8.075   0.351  1.00  0.00     0.004 C 
BRANCH   8   9
HETATM    9  C   UNL     1     -21.555  -9.079   0.440  1.00  0.00     0.000 C 
BRANCH   9  10
HETATM   10  C   UNL     1     -22.073 -10.505   0.295  1.00  0.00     0.000 C 
BRANCH  10  11
HETATM   11  C   UNL     1     -23.544 -10.507  -0.109  1.00  0.00     0.000 C 
BRANCH  11  12
HETATM   12  C   UNL     1     -23.731 -11.185  -1.462  1.00  0.00    -0.000 C 
BRANCH  12  13
HETATM   13  C   UNL     1     -22.425 -11.208  -2.250  1.00  0.00    -0.005 C 
HETATM   14  C   UNL     1     -22.682 -11.015  -3.734  1.00  0.00     0.005 C 
ENDBRANCH  12  13
ENDBRANCH  11  12
ENDBRANCH  10  11
ENDBRANCH   9  10
ENDBRANCH   8   9
ENDBRANCH   7   8
ENDBRANCH   6   7
ENDBRANCH   4   5
ENDBRANCH   3   4
ENDBRANCH   2   3
ENDBRANCH   1   2
BRANCH   1  15
HETATM   15  C   UNL     1     -19.484  -4.626  -7.201  1.00  0.00     0.000 C 
BRANCH  15  16
HETATM   16  C   UNL     1     -19.680  -3.854  -8.497  1.00  0.00     0.010 C 
BRANCH  16  17
HETATM   17  C   UNL     1     -20.490  -4.635  -9.529  1.00  0.00     0.111 C 
BRANCH  17  18
HETATM   18  C   UNL     1     -21.587  -3.759 -10.083  1.00  0.00     0.258 C 
HETATM   19  O   UNL     1     -22.662  -3.565  -9.522  1.00  0.00    -0.265 OA
BRANCH  18  20
HETATM   20  O   UNL     1     -21.252  -3.294 -11.314  1.00  0.00    -0.319 OA
BRANCH  20  21
HETATM   21  C   UNL     1     -22.157  -3.660 -12.353  1.00  0.00     0.212 C 
BRANCH  21  22
HETATM   22  C   UNL     1     -23.059  -2.519 -12.803  1.00  0.00     0.166 C 
BRANCH  22  23
HETATM   23  C   UNL     1     -23.335  -2.551 -14.308  1.00  0.00     0.198 C 
BRANCH  23  24
HETATM   24  O   UNL     1     -23.910  -3.804 -14.658  1.00  0.00    -0.398 OA
HETATM   25  H   UNL     1     -24.814  -3.807 -14.286  1.00  0.00     0.209 HD
ENDBRANCH  23  24
ENDBRANCH  22  23
BRANCH  22  26
HETATM   26  O   UNL     1     -24.316  -2.606 -12.110  1.00  0.00    -0.391 OA
HETATM   27  H   UNL     1     -24.343  -1.925 -11.414  1.00  0.00     0.210 HD
ENDBRANCH  22  26
ENDBRANCH  21  22
ENDBRANCH  20  21
ENDBRANCH  18  20
ENDBRANCH  17  18
ENDBRANCH  16  17
ENDBRANCH  15  16
ENDBRANCH   1  15
TORSDOF 21
BEGIN_RES ARG D 557
REMARK  4 active torsions:
REMARK  status: ('A' for Active; 'I' for Inactive)
REMARK    1  A    between atoms: CA   and  CB  
REMARK    2  A    between atoms: CB   and  CG  
REMARK    3  A    between atoms: CG   and  CD  
REMARK    4  A    between atoms: CD   and  NE  
REMARK       I    between atoms: NE   and  CZ  
REMARK       I    between atoms: CZ   and  NH1 
REMARK       I    between atoms: CZ   and  NH2 
ROOT
ATOM      1  CA  ARG D 557     -26.217   2.705 -17.014  1.00 35.49     0.159 C 
ENDROOT
BRANCH   1   2
ATOM      2  CB  ARG D 557     -26.789   1.319 -17.183  1.00 35.49     0.034 C 
BRANCH   2   3
ATOM      3  CG  ARG D 557     -28.226   1.161 -16.926  1.00 35.49     0.027 C 
BRANCH   3   4
ATOM      4  CD  ARG D 557     -28.639  -0.260 -16.886  1.00 35.49     0.116 C 
BRANCH   4   5
ATOM      5  NE  ARG D 557     -27.690  -1.081 -16.181  1.00 35.49    -0.212 N 
ATOM      6  CZ  ARG D 557     -27.600  -2.390 -16.259  1.00 35.49     0.666 C 
ATOM      7  NH1 ARG D 557     -28.411  -3.113 -17.008  1.00 35.49    -0.235 N 
ATOM      8  NH2 ARG D 557     -26.663  -2.969 -15.565  1.00 35.49    -0.235 N 
ATOM      9  HH  ARG D 557     -29.033  -2.753 -17.474  1.00 35.49     0.174 HD
ATOM     10  HH  ARG D 557     -28.303  -3.963 -17.021  1.00 35.49     0.174 HD
ATOM     11  HH  ARG D 557     -26.149  -2.476 -15.096  1.00 35.49     0.174 HD
ATOM     12  HH  ARG D 557     -26.571  -3.812 -15.593  1.00 35.49     0.174 HD
ATOM     13  HE  ARG D 557     -27.175  -0.704 -15.619  1.00 35.49     0.178 HD
ENDBRANCH   4   5
ENDBRANCH   3   4
ENDBRANCH   2   3
ENDBRANCH   1   2
END_RES ARG D 557
BEGIN_RES GLU D 570
REMARK  3 active torsions:
REMARK  status: ('A' for Active; 'I' for Inactive)
REMARK    5  A    between atoms: CA   and  CB  
REMARK    6  A    between atoms: CB   and  CG  
REMARK    7  A    between atoms: CG   and  CD  
ROOT
ATOM     14  CA  GLU D 570     -18.033  -6.348 -13.375  1.00 32.92     0.160 C 
ENDROOT
BRANCH  14  15
ATOM     15  CB  GLU D 570     -19.500  -6.345 -13.794  1.00 32.92     0.043 C 
BRANCH  15  16
ATOM     16  CG  GLU D 570     -19.805  -6.048 -15.218  1.00 32.92     0.100 C 
BRANCH  16  17
ATOM     17  CD  GLU D 570     -21.255  -5.692 -15.448  1.00 32.92     0.185 C 
ATOM     18  OE1 GLU D 570     -21.540  -4.857 -16.328  1.00 32.92    -0.647 OA
ATOM     19  OE2 GLU D 570     -22.113  -6.241 -14.729  1.00 32.92    -0.647 OA
ENDBRANCH  16  17
ENDBRANCH  15  16
ENDBRANCH  14  15
END_RES GLU D 570
ENDMDL
MODEL 4
REMARK VINA RESULT:      -7.2      2.040      3.392
REMARK  21 active torsions:
REMARK  status: ('A' for Active; 'I' for Inactive)
REMARK    1  A    between atoms: C_2  and  C_3 
REMARK    2  A    between atoms: C_3  and  C_4 
REMARK    3  A    between atoms: C_4  and  C_5 
REMARK    4  A    between atoms: C_5  and  C_6 
REMARK    5  A    between atoms: C_6  and  C_7 
REMARK    6  A    between atoms: C_7  and  C_8 
REMARK    7  A    between atoms: C_8  and  C_9 
REMARK    8  A    between atoms: C_10  and  C_11 
REMARK    9  A    between atoms: C_11  and  C_12 
REMARK   10  A    between atoms: C_12  and  C_13 
REMARK   11  A    between atoms: C_13  and  C_14 
REMARK   12  A    between atoms: C_14  and  C_15 
REMARK   13  A    between atoms: C_15  and  C_16 
REMARK   14  A    between atoms: C_16  and  C_17 
REMARK   15  A    between atoms: C_17  and  C_18 
REMARK   16  A    between atoms: C_18  and  O_20 
REMARK   17  A    between atoms: O_20  and  C_21 
REMARK   18  A    between atoms: C_21  and  C_22 
REMARK   19  A    between atoms: C_22  and  C_23 
REMARK   20  A    between atoms: C_22  and  O_25 
REMARK   21  A    between atoms: C_23  and  O_24 
ROOT
HETATM    1  C   UNL     1     -22.539  -4.328 -10.129  1.00  0.00     0.000 C 
ENDROOT
BRANCH   1   2
HETATM    2  C   UNL     1     -21.139  -3.877 -10.519  1.00  0.00     0.000 C 
BRANCH   2   3
HETATM    3  C   UNL     1     -20.079  -4.717  -9.813  1.00  0.00     0.004 C 
BRANCH   3   4
HETATM    4  C   UNL     1     -19.942  -4.286  -8.357  1.00  0.00     0.027 C 
BRANCH   4   5
HETATM    5  C   UNL     1     -20.232  -5.433  -7.440  1.00  0.00    -0.031 C 
HETATM    6  C   UNL     1     -20.702  -5.276  -6.195  1.00  0.00    -0.031 C 
BRANCH   6   7
HETATM    7  C   UNL     1     -20.996  -6.421  -5.279  1.00  0.00     0.027 C 
BRANCH   7   8
HETATM    8  C   UNL     1     -21.208  -5.921  -3.855  1.00  0.00     0.004 C 
BRANCH   8   9
HETATM    9  C   UNL     1     -21.600  -7.074  -2.937  1.00  0.00     0.000 C 
BRANCH   9  10
HETATM   10  C   UNL     1     -22.261  -6.555  -1.666  1.00  0.00     0.000 C 
BRANCH  10  11
HETATM   11  C   UNL     1     -21.858  -7.402  -0.464  1.00  0.00     0.000 C 
BRANCH  11  12
HETATM   12  C   UNL     1     -23.057  -8.172   0.080  1.00  0.00    -0.000 C 
BRANCH  12  13
HETATM   13  C   UNL     1     -22.917  -9.667  -0.189  1.00  0.00    -0.005 C 
HETATM   14  C   UNL     1     -21.617 -10.203   0.386  1.00  0.00     0.005 C 
ENDBRANCH  12  13
ENDBRANCH  11  12
ENDBRANCH  10  11
ENDBRANCH   9  10
ENDBRANCH   8   9
ENDBRANCH   7   8
ENDBRANCH   6   7
ENDBRANCH   4   5
ENDBRANCH   3   4
ENDBRANCH   2   3
ENDBRANCH   1   2
BRANCH   1  15
HETATM   15  C   UNL     1     -23.602  -3.448 -10.786  1.00  0.00     0.000 C 
BRANCH  15  16
HETATM   16  C   UNL     1     -23.035  -2.803 -12.041  1.00  0.00     0.010 C 
BRANCH  16  17
HETATM   17  C   UNL     1     -24.011  -2.842 -13.215  1.00  0.00     0.111 C 
BRANCH  17  18
HETATM   18  C   UNL     1     -23.552  -3.867 -14.223  1.00  0.00     0.258 C 
HETATM   19  O   UNL     1     -22.390  -3.987 -14.603  1.00  0.00    -0.265 OA
BRANCH  18  20
HETATM   20  O   UNL     1     -24.609  -4.569 -14.706  1.00  0.00    -0.319 OA
BRANCH  20  21
HETATM   21  C   UNL     1     -24.367  -5.965 -14.873  1.00  0.00     0.212 C 
BRANCH  21  22
HETATM   22  C   UNL     1     -25.149  -6.582 -16.025  1.00  0.00     0.166 C 
BRANCH  22  23
HETATM   23  C   UNL     1     -24.253  -7.373 -16.981  1.00  0.00     0.198 C 
BRANCH  23  24
HETATM   24  O   UNL     1     -23.850  -8.587 -16.359  1.00  0.00    -0.398 OA
HETATM   25  H   UNL     1     -22.899  -8.697 -16.558  1.00  0.00     0.209 HD
ENDBRANCH  23  24
ENDBRANCH  22  23
BRANCH  22  26
HETATM   26  O   UNL     1     -26.145  -7.475 -15.496  1.00  0.00    -0.391 OA
HETATM   27  H   UNL     1     -27.029  -7.112 -15.686  1.00  0.00     0.210 HD
ENDBRANCH  22  26
ENDBRANCH  21  22
ENDBRANCH  20  21
ENDBRANCH  18  20
ENDBRANCH  17  18
ENDBRANCH  16  17
ENDBRANCH  15  16
ENDBRANCH   1  15
TORSDOF 21
BEGIN_RES ARG D 557
REMARK  4 active torsions:
REMARK  status: ('A' for Active; 'I' for Inactive)
REMARK    1  A    between atoms: CA   and  CB  
REMARK    2  A    between atoms: CB   and  CG  
REMARK    3  A    between atoms: CG   and  CD  
REMARK    4  A    between atoms: CD   and  NE  
REMARK       I    between atoms: NE   and  CZ  
REMARK       I    between atoms: CZ   and  NH1 
REMARK       I    between atoms: CZ   and  NH2 
ROOT
ATOM      1  CA  ARG D 557     -26.217   2.705 -17.014  1.00 35.49     0.159 C 
ENDROOT
BRANCH   1   2
ATOM      2  CB  ARG D 557     -26.789   1.319 -17.183  1.00 35.49     0.034 C 
BRANCH   2   3
ATOM      3  CG  ARG D 557     -28.220   1.229 -17.499  1.00 35.49     0.027 C 
BRANCH   3   4
ATOM      4  CD  ARG D 557     -28.949   0.340 -16.565  1.00 35.49     0.116 C 
BRANCH   4   5
ATOM      5  NE  ARG D 557     -28.998  -1.019 -17.037  1.00 35.49    -0.212 N 
ATOM      6  CZ  ARG D 557     -28.181  -1.985 -16.682  1.00 35.49     0.666 C 
ATOM      7  NH1 ARG D 557     -27.185  -1.796 -15.836  1.00 35.49    -0.235 N 
ATOM      8  NH2 ARG D 557     -28.387  -3.163 -17.194  1.00 35.49    -0.235 N 
ATOM      9  HH  ARG D 557     -27.032  -1.030 -15.486  1.00 35.49     0.174 HD
ATOM     10  HH  ARG D 557     -26.686  -2.465 -15.640  1.00 35.49     0.174 HD
ATOM     11  HH  ARG D 557     -29.042  -3.257 -17.732  1.00 35.49     0.174 HD
ATOM     12  HH  ARG D 557     -27.883  -3.813 -16.986  1.00 35.49     0.174 HD
ATOM     13  HE  ARG D 557     -29.565  -1.211 -17.641  1.00 35.49     0.178 HD
ENDBRANCH   4   5
ENDBRANCH   3   4
ENDBRANCH   2   3
ENDBRANCH   1   2
END_RES ARG D 557
BEGIN_RES GLU D 570
REMARK  3 active torsions:
REMARK  status: ('A' for Active; 'I' for Inactive)
REMARK    5  A    between atoms: CA   and  CB  
REMARK    6  A    between atoms: CB   and  CG  
REMARK    7  A    between atoms: CG   and  CD  
ROOT
ATOM     14  CA  GLU D 570     -18.033  -6.348 -13.375  1.00 32.92     0.160 C 
ENDROOT
BRANCH  14  15
ATOM     15  CB  GLU D 570     -19.500  -6.345 -13.794  1.00 32.92     0.043 C 
BRANCH  15  16
ATOM     16  CG  GLU D 570     -20.085  -7.633 -14.249  1.00 32.92     0.100 C 
BRANCH  16  17
ATOM     17  CD  GLU D 570     -20.610  -7.574 -15.665  1.00 32.92     0.185 C 
ATOM     18  OE1 GLU D 570     -20.861  -8.638 -16.262  1.00 32.92    -0.647 OA
ATOM     19  OE2 GLU D 570     -20.757  -6.452 -16.188  1.00 32.92    -0.647 OA
ENDBRANCH  16  17
ENDBRANCH  15  16
ENDBRANCH  14  15
END_RES GLU D 570
ENDMDL
MODEL 5
REMARK VINA RESULT:      -6.8      2.007      2.991
REMARK  21 active torsions:
REMARK  status: ('A' for Active; 'I' for Inactive)
REMARK    1  A    between atoms: C_2  and  C_3 
REMARK    2  A    between atoms: C_3  and  C_4 
REMARK    3  A    between atoms: C_4  and  C_5 
REMARK    4  A    between atoms: C_5  and  C_6 
REMARK    5  A    between atoms: C_6  and  C_7 
REMARK    6  A    between atoms: C_7  and  C_8 
REMARK    7  A    between atoms: C_8  and  C_9 
REMARK    8  A    between atoms: C_10  and  C_11 
REMARK    9  A    between atoms: C_11  and  C_12 
REMARK   10  A    between atoms: C_12  and  C_13 
REMARK   11  A    between atoms: C_13  and  C_14 
REMARK   12  A    between atoms: C_14  and  C_15 
REMARK   13  A    between atoms: C_15  and  C_16 
REMARK   14  A    between atoms: C_16  and  C_17 
REMARK   15  A    between atoms: C_17  and  C_18 
REMARK   16  A    between atoms: C_18  and  O_20 
REMARK   17  A    between atoms: O_20  and  C_21 
REMARK   18  A    between atoms: C_21  and  C_22 
REMARK   19  A    between atoms: C_22  and  C_23 
REMARK   20  A    between atoms: C_22  and  O_25 
REMARK   21  A    between atoms: C_23  and  O_24 
ROOT
HETATM    1  C   UNL     1     -20.583  -6.147  -6.460  1.00  0.00     0.000 C 
ENDROOT
BRANCH   1   2
HETATM    2  C   UNL     1     -20.549  -6.947  -5.165  1.00  0.00     0.000 C 
BRANCH   2   3
HETATM    3  C   UNL     1     -21.851  -6.784  -4.388  1.00  0.00     0.004 C 
BRANCH   3   4
HETATM    4  C   UNL     1     -21.586  -6.134  -3.036  1.00  0.00     0.027 C 
BRANCH   4   5
HETATM    5  C   UNL     1     -21.648  -7.154  -1.942  1.00  0.00    -0.031 C 
HETATM    6  C   UNL     1     -22.381  -6.996  -0.831  1.00  0.00    -0.031 C 
BRANCH   6   7
HETATM    7  C   UNL     1     -22.447  -8.015   0.262  1.00  0.00     0.027 C 
BRANCH   7   8
HETATM    8  C   UNL     1     -22.474  -9.421  -0.325  1.00  0.00     0.004 C 
BRANCH   8   9
HETATM    9  C   UNL     1     -21.201 -10.177   0.039  1.00  0.00     0.000 C 
BRANCH   9  10
HETATM   10  C   UNL     1     -21.530 -11.554   0.603  1.00  0.00     0.000 C 
BRANCH  10  11
HETATM   11  C   UNL     1     -22.971 -11.938   0.284  1.00  0.00     0.000 C 
BRANCH  11  12
HETATM   12  C   UNL     1     -23.392 -13.166   1.085  1.00  0.00    -0.000 C 
BRANCH  12  13
HETATM   13  C   UNL     1     -22.225 -13.716   1.900  1.00  0.00    -0.005 C 
HETATM   14  C   UNL     1     -22.716 -14.658   2.986  1.00  0.00     0.005 C 
ENDBRANCH  12  13
ENDBRANCH  11  12
ENDBRANCH  10  11
ENDBRANCH   9  10
ENDBRANCH   8   9
ENDBRANCH   7   8
ENDBRANCH   6   7
ENDBRANCH   4   5
ENDBRANCH   3   4
ENDBRANCH   2   3
ENDBRANCH   1   2
BRANCH   1  15
HETATM   15  C   UNL     1     -20.313  -4.667  -6.197  1.00  0.00     0.000 C 
BRANCH  15  16
HETATM   16  C   UNL     1     -21.187  -3.812  -7.102  1.00  0.00     0.010 C 
BRANCH  16  17
HETATM   17  C   UNL     1     -21.373  -4.425  -8.488  1.00  0.00     0.111 C 
BRANCH  17  18
HETATM   18  C   UNL     1     -22.663  -3.928  -9.094  1.00  0.00     0.258 C 
HETATM   19  O   UNL     1     -23.763  -4.041  -8.559  1.00  0.00    -0.265 OA
BRANCH  18  20
HETATM   20  O   UNL     1     -22.446  -3.425 -10.336  1.00  0.00    -0.319 OA
BRANCH  20  21
HETATM   21  C   UNL     1     -23.366  -3.875 -11.328  1.00  0.00     0.212 C 
BRANCH  21  22
HETATM   22  C   UNL     1     -22.836  -3.746 -12.750  1.00  0.00     0.166 C 
BRANCH  22  23
HETATM   23  C   UNL     1     -23.407  -2.528 -13.478  1.00  0.00     0.198 C 
BRANCH  23  24
HETATM   24  O   UNL     1     -23.523  -2.817 -14.866  1.00  0.00    -0.398 OA
HETATM   25  H   UNL     1     -22.771  -3.399 -15.091  1.00  0.00     0.209 HD
ENDBRANCH  23  24
ENDBRANCH  22  23
BRANCH  22  26
HETATM   26  O   UNL     1     -21.403  -3.620 -12.712  1.00  0.00    -0.391 OA
HETATM   27  H   UNL     1     -21.003  -4.465 -12.987  1.00  0.00     0.210 HD
ENDBRANCH  22  26
ENDBRANCH  21  22
ENDBRANCH  20  21
ENDBRANCH  18  20
ENDBRANCH  17  18
ENDBRANCH  16  17
ENDBRANCH  15  16
ENDBRANCH   1  15
TORSDOF 21
BEGIN_RES ARG D 557
REMARK  4 active torsions:
REMARK  status: ('A' for Active; 'I' for Inactive)
REMARK    1  A    between atoms: CA   and  CB  
REMARK    2  A    between atoms: CB   and  CG  
REMARK    3  A    between atoms: CG   and  CD  
REMARK    4  A    between atoms: CD   and  NE  
REMARK       I    between atoms: NE   and  CZ  
REMARK       I    between atoms: CZ   and  NH1 
REMARK       I    between atoms: CZ   and  NH2 
ROOT
ATOM      1  CA  ARG D 557     -26.217   2.705 -17.014  1.00 35.49     0.159 C 
ENDROOT
BRANCH   1   2
ATOM      2  CB  ARG D 557     -26.789   1.319 -17.183  1.00 35.49     0.034 C 
BRANCH   2   3
ATOM      3  CG  ARG D 557     -28.246   1.186 -17.062  1.00 35.49     0.027 C 
BRANCH   3   4
ATOM      4  CD  ARG D 557     -28.661  -0.196 -16.729  1.00 35.49     0.116 C 
BRANCH   4   5
ATOM      5  NE  ARG D 557     -27.620  -0.928 -16.057  1.00 35.49    -0.212 N 
ATOM      6  CZ  ARG D 557     -27.437  -2.228 -16.111  1.00 35.49     0.666 C 
ATOM      7  NH1 ARG D 557     -28.227  -3.027 -16.804  1.00 35.49    -0.235 N 
ATOM      8  NH2 ARG D 557     -26.427  -2.720 -15.454  1.00 35.49    -0.235 N 
ATOM      9  HH  ARG D 557     -28.897  -2.724 -17.245  1.00 35.49     0.174 HD
ATOM     10  HH  ARG D 557     -28.057  -3.867 -16.805  1.00 35.49     0.174 HD
ATOM     11  HH  ARG D 557     -25.929  -2.179 -15.022  1.00 35.49     0.174 HD
ATOM     12  HH  ARG D 557     -26.274  -3.554 -15.469  1.00 35.49     0.174 HD
ATOM     13  HE  ARG D 557     -27.108  -0.500 -15.529  1.00 35.49     0.178 HD
ENDBRANCH   4   5
ENDBRANCH   3   4
ENDBRANCH   2   3
ENDBRANCH   1   2
END_RES ARG D 557
BEGIN_RES GLU D 570
REMARK  3 active torsions:
REMARK  status: ('A' for Active; 'I' for Inactive)
REMARK    5  A    between atoms: CA   and  CB  
REMARK    6  A    between atoms: CB   and  CG  
REMARK    7  A    between atoms: CG   and  CD  
ROOT
ATOM     14  CA  GLU D 570     -18.033  -6.348 -13.375  1.00 32.92     0.160 C 
ENDROOT
BRANCH  14  15
ATOM     15  CB  GLU D 570     -19.500  -6.345 -13.794  1.00 32.92     0.043 C 
BRANCH  15  16
ATOM     16  CG  GLU D 570     -20.129  -7.657 -14.095  1.00 32.92     0.100 C 
BRANCH  16  17
ATOM     17  CD  GLU D 570     -20.900  -7.657 -15.394  1.00 32.92     0.185 C 
ATOM     18  OE1 GLU D 570     -20.692  -8.565 -16.221  1.00 32.92    -0.647 OA
ATOM     19  OE2 GLU D 570     -21.710  -6.730 -15.593  1.00 32.92    -0.647 OA
ENDBRANCH  16  17
ENDBRANCH  15  16
ENDBRANCH  14  15
END_RES GLU D 570
ENDMDL
MODEL 6
REMARK VINA RESULT:      -6.8      2.437      4.687
REMARK  21 active torsions:
REMARK  status: ('A' for Active; 'I' for Inactive)
REMARK    1  A    between atoms: C_2  and  C_3 
REMARK    2  A    between atoms: C_3  and  C_4 
REMARK    3  A    between atoms: C_4  and  C_5 
REMARK    4  A    between atoms: C_5  and  C_6 
REMARK    5  A    between atoms: C_6  and  C_7 
REMARK    6  A    between atoms: C_7  and  C_8 
REMARK    7  A    between atoms: C_8  and  C_9 
REMARK    8  A    between atoms: C_10  and  C_11 
REMARK    9  A    between atoms: C_11  and  C_12 
REMARK   10  A    between atoms: C_12  and  C_13 
REMARK   11  A    between atoms: C_13  and  C_14 
REMARK   12  A    between atoms: C_14  and  C_15 
REMARK   13  A    between atoms: C_15  and  C_16 
REMARK   14  A    between atoms: C_16  and  C_17 
REMARK   15  A    between atoms: C_17  and  C_18 
REMARK   16  A    between atoms: C_18  and  O_20 
REMARK   17  A    between atoms: O_20  and  C_21 
REMARK   18  A    between atoms: C_21  and  C_22 
REMARK   19  A    between atoms: C_22  and  C_23 
REMARK   20  A    between atoms: C_22  and  O_25 
REMARK   21  A    between atoms: C_23  and  O_24 
ROOT
HETATM    1  C   UNL     1     -21.596  -6.300  -3.903  1.00  0.00     0.000 C 
ENDROOT
BRANCH   1   2
HETATM    2  C   UNL     1     -21.370  -7.000  -2.570  1.00  0.00     0.000 C 
BRANCH   2   3
HETATM    3  C   UNL     1     -22.173  -6.331  -1.459  1.00  0.00     0.004 C 
BRANCH   3   4
HETATM    4  C   UNL     1     -22.656  -7.368  -0.453  1.00  0.00     0.027 C 
BRANCH   4   5
HETATM    5  C   UNL     1     -21.513  -8.205   0.029  1.00  0.00    -0.031 C 
HETATM    6  C   UNL     1     -21.673  -9.402   0.610  1.00  0.00    -0.031 C 
BRANCH   6   7
HETATM    7  C   UNL     1     -20.532 -10.241   1.090  1.00  0.00     0.027 C 
BRANCH   7   8
HETATM    8  C   UNL     1     -20.584 -11.624   0.450  1.00  0.00     0.004 C 
BRANCH   8   9
HETATM    9  C   UNL     1     -19.198 -12.043  -0.028  1.00  0.00     0.000 C 
BRANCH   9  10
HETATM   10  C   UNL     1     -19.133 -12.061  -1.551  1.00  0.00     0.000 C 
BRANCH  10  11
HETATM   11  C   UNL     1     -18.712 -10.698  -2.090  1.00  0.00     0.000 C 
BRANCH  11  12
HETATM   12  C   UNL     1     -19.800 -10.111  -2.982  1.00  0.00    -0.000 C 
BRANCH  12  13
HETATM   13  C   UNL     1     -20.914 -11.124  -3.227  1.00  0.00    -0.005 C 
HETATM   14  C   UNL     1     -22.276 -10.514  -2.943  1.00  0.00     0.005 C 
ENDBRANCH  12  13
ENDBRANCH  11  12
ENDBRANCH  10  11
ENDBRANCH   9  10
ENDBRANCH   8   9
ENDBRANCH   7   8
ENDBRANCH   6   7
ENDBRANCH   4   5
ENDBRANCH   3   4
ENDBRANCH   2   3
ENDBRANCH   1   2
BRANCH   1  15
HETATM   15  C   UNL     1     -21.549  -7.297  -5.060  1.00  0.00     0.000 C 
BRANCH  15  16
HETATM   16  C   UNL     1     -20.823  -6.680  -6.246  1.00  0.00     0.010 C 
BRANCH  16  17
HETATM   17  C   UNL     1     -20.571  -5.184  -6.068  1.00  0.00     0.111 C 
BRANCH  17  18
HETATM   18  C   UNL     1     -20.970  -4.448  -7.323  1.00  0.00     0.258 C 
HETATM   19  O   UNL     1     -20.594  -3.313  -7.604  1.00  0.00    -0.265 OA
BRANCH  18  20
HETATM   20  O   UNL     1     -21.859  -5.178  -8.043  1.00  0.00    -0.319 OA
BRANCH  20  21
HETATM   21  C   UNL     1     -22.140  -4.659  -9.341  1.00  0.00     0.212 C 
BRANCH  21  22
HETATM   22  C   UNL     1     -23.620  -4.681  -9.697  1.00  0.00     0.166 C 
BRANCH  22  23
HETATM   23  C   UNL     1     -24.257  -3.291  -9.634  1.00  0.00     0.198 C 
BRANCH  23  24
HETATM   24  O   UNL     1     -25.279  -3.192 -10.618  1.00  0.00    -0.398 OA
HETATM   25  H   UNL     1     -24.829  -3.010 -11.467  1.00  0.00     0.209 HD
ENDBRANCH  23  24
ENDBRANCH  22  23
BRANCH  22  26
HETATM   26  O   UNL     1     -23.779  -5.191 -11.032  1.00  0.00    -0.391 OA
HETATM   27  H   UNL     1     -23.665  -6.159 -11.017  1.00  0.00     0.210 HD
ENDBRANCH  22  26
ENDBRANCH  21  22
ENDBRANCH  20  21
ENDBRANCH  18  20
ENDBRANCH  17  18
ENDBRANCH  16  17
ENDBRANCH  15  16
ENDBRANCH   1  15
TORSDOF 21
BEGIN_RES ARG D 557
REMARK  4 active torsions:
REMARK  status: ('A' for Active; 'I' for Inactive)
REMARK    1  A    between atoms: CA   and  CB  
REMARK    2  A    between atoms: CB   and  CG  
REMARK    3  A    between atoms: CG   and  CD  
REMARK    4  A    between atoms: CD   and  NE  
REMARK       I    between atoms: NE   and  CZ  
REMARK       I    between atoms: CZ   and  NH1 
REMARK       I    between atoms: CZ   and  NH2 
ROOT
ATOM      1  CA  ARG D 557     -26.217   2.705 -17.014  1.00 35.49     0.159 C 
ENDROOT
BRANCH   1   2
ATOM      2  CB  ARG D 557     -26.789   1.319 -17.183  1.00 35.49     0.034 C 
BRANCH   2   3
ATOM      3  CG  ARG D 557     -25.848   0.198 -17.070  1.00 35.49     0.027 C 
BRANCH   3   4
ATOM      4  CD  ARG D 557     -24.804   0.438 -16.047  1.00 35.49     0.116 C 
BRANCH   4   5
ATOM      5  NE  ARG D 557     -24.944  -0.437 -14.913  1.00 35.49    -0.212 N 
ATOM      6  CZ  ARG D 557     -24.134  -1.424 -14.600  1.00 35.49     0.666 C 
ATOM      7  NH1 ARG D 557     -23.078  -1.733 -15.329  1.00 35.49    -0.235 N 
ATOM      8  NH2 ARG D 557     -24.403  -2.101 -13.522  1.00 35.49    -0.235 N 
ATOM      9  HH  ARG D 557     -22.881  -1.299 -16.041  1.00 35.49     0.174 HD
ATOM     10  HH  ARG D 557     -22.584  -2.385 -15.074  1.00 35.49     0.174 HD
ATOM     11  HH  ARG D 557     -25.088  -1.874 -13.067  1.00 35.49     0.174 HD
ATOM     12  HH  ARG D 557     -23.901  -2.743 -13.285  1.00 35.49     0.174 HD
ATOM     13  HE  ARG D 557     -25.638  -0.355 -14.429  1.00 35.49     0.178 HD
ENDBRANCH   4   5
ENDBRANCH   3   4
ENDBRANCH   2   3
ENDBRANCH   1   2
END_RES ARG D 557
BEGIN_RES GLU D 570
REMARK  3 active torsions:
REMARK  status: ('A' for Active; 'I' for Inactive)
REMARK    5  A    between atoms: CA   and  CB  
REMARK    6  A    between atoms: CB   and  CG  
REMARK    7  A    between atoms: CG   and  CD  
ROOT
ATOM     14  CA  GLU D 570     -18.033  -6.348 -13.375  1.00 32.92     0.160 C 
ENDROOT
BRANCH  14  15
ATOM     15  CB  GLU D 570     -19.500  -6.345 -13.794  1.00 32.92     0.043 C 
BRANCH  15  16
ATOM     16  CG  GLU D 570     -20.450  -5.571 -12.954  1.00 32.92     0.100 C 
BRANCH  16  17
ATOM     17  CD  GLU D 570     -21.735  -5.235 -13.675  1.00 32.92     0.185 C 
ATOM     18  OE1 GLU D 570     -22.199  -6.049 -14.496  1.00 32.92    -0.647 OA
ATOM     19  OE2 GLU D 570     -22.274  -4.138 -13.428  1.00 32.92    -0.647 OA
ENDBRANCH  16  17
ENDBRANCH  15  16
ENDBRANCH  14  15
END_RES GLU D 570
ENDMDL
MODEL 7
REMARK VINA RESULT:      -6.5      7.261     12.725
REMARK  21 active torsions:
REMARK  status: ('A' for Active; 'I' for Inactive)
REMARK    1  A    between atoms: C_2  and  C_3 
REMARK    2  A    between atoms: C_3  and  C_4 
REMARK    3  A    between atoms: C_4  and  C_5 
REMARK    4  A    between atoms: C_5  and  C_6 
REMARK    5  A    between atoms: C_6  and  C_7 
REMARK    6  A    between atoms: C_7  and  C_8 
REMARK    7  A    between atoms: C_8  and  C_9 
REMARK    8  A    between atoms: C_10  and  C_11 
REMARK    9  A    between atoms: C_11  and  C_12 
REMARK   10  A    between atoms: C_12  and  C_13 
REMARK   11  A    between atoms: C_13  and  C_14 
REMARK   12  A    between atoms: C_14  and  C_15 
REMARK   13  A    between atoms: C_15  and  C_16 
REMARK   14  A    between atoms: C_16  and  C_17 
REMARK   15  A    between atoms: C_17  and  C_18 
REMARK   16  A    between atoms: C_18  and  O_20 
REMARK   17  A    between atoms: O_20  and  C_21 
REMARK   18  A    between atoms: C_21  and  C_22 
REMARK   19  A    between atoms: C_22  and  C_23 
REMARK   20  A    between atoms: C_22  and  O_25 
REMARK   21  A    between atoms: C_23  and  O_24 
ROOT
HETATM    1  C   UNL     1     -33.736  -4.493 -11.205  1.00  0.00     0.000 C 
ENDROOT
BRANCH   1   2
HETATM    2  C   UNL     1     -34.348  -4.925 -12.530  1.00  0.00     0.000 C 
BRANCH   2   3
HETATM    3  C   UNL     1     -34.037  -3.916 -13.630  1.00  0.00     0.004 C 
BRANCH   3   4
HETATM    4  C   UNL     1     -34.354  -4.505 -14.999  1.00  0.00     0.027 C 
BRANCH   4   5
HETATM    5  C   UNL     1     -33.480  -3.895 -16.049  1.00  0.00    -0.031 C 
HETATM    6  C   UNL     1     -32.400  -4.508 -16.553  1.00  0.00    -0.031 C 
BRANCH   6   7
HETATM    7  C   UNL     1     -31.527  -3.900 -17.605  1.00  0.00     0.027 C 
BRANCH   7   8
HETATM    8  C   UNL     1     -30.057  -4.104 -17.258  1.00  0.00     0.004 C 
BRANCH   8   9
HETATM    9  C   UNL     1     -29.307  -4.697 -18.445  1.00  0.00     0.000 C 
BRANCH   9  10
HETATM   10  C   UNL     1     -29.038  -6.182 -18.230  1.00  0.00     0.000 C 
BRANCH  10  11
HETATM   11  C   UNL     1     -29.458  -6.609 -16.828  1.00  0.00     0.000 C 
BRANCH  11  12
HETATM   12  C   UNL     1     -28.281  -7.219 -16.074  1.00  0.00    -0.000 C 
BRANCH  12  13
HETATM   13  C   UNL     1     -27.229  -6.162 -15.752  1.00  0.00    -0.005 C 
HETATM   14  C   UNL     1     -25.852  -6.605 -16.219  1.00  0.00     0.005 C 
ENDBRANCH  12  13
ENDBRANCH  11  12
ENDBRANCH  10  11
ENDBRANCH   9  10
ENDBRANCH   8   9
ENDBRANCH   7   8
ENDBRANCH   6   7
ENDBRANCH   4   5
ENDBRANCH   3   4
ENDBRANCH   2   3
ENDBRANCH   1   2
BRANCH   1  15
HETATM   15  C   UNL     1     -33.189  -3.069 -11.291  1.00  0.00     0.000 C 
BRANCH  15  16
HETATM   16  C   UNL     1     -33.991  -2.150 -10.382  1.00  0.00     0.010 C 
BRANCH  16  17
HETATM   17  C   UNL     1     -35.486  -2.177 -10.690  1.00  0.00     0.111 C 
BRANCH  17  18
HETATM   18  C   UNL     1     -35.858  -0.965 -11.508  1.00  0.00     0.258 C 
HETATM   19  O   UNL     1     -35.961   0.170 -11.049  1.00  0.00    -0.265 OA
BRANCH  18  20
HETATM   20  O   UNL     1     -36.143  -1.320 -12.786  1.00  0.00    -0.319 OA
BRANCH  20  21
HETATM   21  C   UNL     1     -35.405  -0.608 -13.778  1.00  0.00     0.212 C 
BRANCH  21  22
HETATM   22  C   UNL     1     -36.222  -0.274 -15.019  1.00  0.00     0.166 C 
BRANCH  22  23
HETATM   23  C   UNL     1     -35.700  -0.983 -16.270  1.00  0.00     0.198 C 
BRANCH  23  24
HETATM   24  O   UNL     1     -36.579  -0.730 -17.360  1.00  0.00    -0.398 OA
HETATM   25  H   UNL     1     -37.386  -0.333 -16.978  1.00  0.00     0.209 HD
ENDBRANCH  23  24
ENDBRANCH  22  23
BRANCH  22  26
HETATM   26  O   UNL     1     -37.588  -0.673 -14.809  1.00  0.00    -0.391 OA
HETATM   27  H   UNL     1     -37.848  -0.447 -13.897  1.00  0.00     0.210 HD
ENDBRANCH  22  26
ENDBRANCH  21  22
ENDBRANCH  20  21
ENDBRANCH  18  20
ENDBRANCH  17  18
ENDBRANCH  16  17
ENDBRANCH  15  16
ENDBRANCH   1  15
TORSDOF 21
BEGIN_RES ARG D 557
REMARK  4 active torsions:
REMARK  status: ('A' for Active; 'I' for Inactive)
REMARK    1  A    between atoms: CA   and  CB  
REMARK    2  A    between atoms: CB   and  CG  
REMARK    3  A    between atoms: CG   and  CD  
REMARK    4  A    between atoms: CD   and  NE  
REMARK       I    between atoms: NE   and  CZ  
REMARK       I    between atoms: CZ   and  NH1 
REMARK       I    between atoms: CZ   and  NH2 
ROOT
ATOM      1  CA  ARG D 557     -26.217   2.705 -17.014  1.00 35.49     0.159 C 
ENDROOT
BRANCH   1   2
ATOM      2  CB  ARG D 557     -26.789   1.319 -17.183  1.00 35.49     0.034 C 
BRANCH   2   3
ATOM      3  CG  ARG D 557     -25.868   0.195 -16.976  1.00 35.49     0.027 C 
BRANCH   3   4
ATOM      4  CD  ARG D 557     -26.268  -0.660 -15.834  1.00 35.49     0.116 C 
BRANCH   4   5
ATOM      5  NE  ARG D 557     -25.184  -0.876 -14.914  1.00 35.49    -0.212 N 
ATOM      6  CZ  ARG D 557     -24.863  -2.025 -14.361  1.00 35.49     0.666 C 
ATOM      7  NH1 ARG D 557     -25.538  -3.136 -14.592  1.00 35.49    -0.235 N 
ATOM      8  NH2 ARG D 557     -23.834  -2.041 -13.564  1.00 35.49    -0.235 N 
ATOM      9  HH  ARG D 557     -26.217  -3.148 -15.114  1.00 35.49     0.174 HD
ATOM     10  HH  ARG D 557     -25.281  -3.856 -14.205  1.00 35.49     0.174 HD
ATOM     11  HH  ARG D 557     -23.413  -1.310 -13.440  1.00 35.49     0.174 HD
ATOM     12  HH  ARG D 557     -23.594  -2.765 -13.192  1.00 35.49     0.174 HD
ATOM     13  HE  ARG D 557     -24.740  -0.199 -14.652  1.00 35.49     0.178 HD
ENDBRANCH   4   5
ENDBRANCH   3   4
ENDBRANCH   2   3
ENDBRANCH   1   2
END_RES ARG D 557
BEGIN_RES GLU D 570
REMARK  3 active torsions:
REMARK  status: ('A' for Active; 'I' for Inactive)
REMARK    5  A    between atoms: CA   and  CB  
REMARK    6  A    between atoms: CB   and  CG  
REMARK    7  A    between atoms: CG   and  CD  
ROOT
ATOM     14  CA  GLU D 570     -18.033  -6.348 -13.375  1.00 32.92     0.160 C 
ENDROOT
BRANCH  14  15
ATOM     15  CB  GLU D 570     -19.500  -6.345 -13.794  1.00 32.92     0.043 C 
BRANCH  15  16
ATOM     16  CG  GLU D 570     -20.446  -5.552 -12.968  1.00 32.92     0.100 C 
BRANCH  16  17
ATOM     17  CD  GLU D 570     -21.698  -5.160 -13.718  1.00 32.92     0.185 C 
ATOM     18  OE1 GLU D 570     -21.667  -5.111 -14.962  1.00 32.92    -0.647 OA
ATOM     19  OE2 GLU D 570     -22.716  -4.883 -13.052  1.00 32.92    -0.647 OA
ENDBRANCH  16  17
ENDBRANCH  15  16
ENDBRANCH  14  15
END_RES GLU D 570
ENDMDL
MODEL 8
REMARK VINA RESULT:      -6.5      2.543      3.910
REMARK  21 active torsions:
REMARK  status: ('A' for Active; 'I' for Inactive)
REMARK    1  A    between atoms: C_2  and  C_3 
REMARK    2  A    between atoms: C_3  and  C_4 
REMARK    3  A    between atoms: C_4  and  C_5 
REMARK    4  A    between atoms: C_5  and  C_6 
REMARK    5  A    between atoms: C_6  and  C_7 
REMARK    6  A    between atoms: C_7  and  C_8 
REMARK    7  A    between atoms: C_8  and  C_9 
REMARK    8  A    between atoms: C_10  and  C_11 
REMARK    9  A    between atoms: C_11  and  C_12 
REMARK   10  A    between atoms: C_12  and  C_13 
REMARK   11  A    between atoms: C_13  and  C_14 
REMARK   12  A    between atoms: C_14  and  C_15 
REMARK   13  A    between atoms: C_15  and  C_16 
REMARK   14  A    between atoms: C_16  and  C_17 
REMARK   15  A    between atoms: C_17  and  C_18 
REMARK   16  A    between atoms: C_18  and  O_20 
REMARK   17  A    between atoms: O_20  and  C_21 
REMARK   18  A    between atoms: C_21  and  C_22 
REMARK   19  A    between atoms: C_22  and  C_23 
REMARK   20  A    between atoms: C_22  and  O_25 
REMARK   21  A    between atoms: C_23  and  O_24 
ROOT
HETATM    1  C   UNL     1     -22.651  -4.189 -10.340  1.00  0.00     0.000 C 
ENDROOT
BRANCH   1   2
HETATM    2  C   UNL     1     -21.147  -4.179 -10.575  1.00  0.00     0.000 C 
BRANCH   2   3
HETATM    3  C   UNL     1     -20.389  -4.407  -9.272  1.00  0.00     0.004 C 
BRANCH   3   4
HETATM    4  C   UNL     1     -21.200  -3.893  -8.088  1.00  0.00     0.027 C 
BRANCH   4   5
HETATM    5  C   UNL     1     -20.729  -4.523  -6.815  1.00  0.00    -0.031 C 
HETATM    6  C   UNL     1     -21.322  -5.589  -6.259  1.00  0.00    -0.031 C 
BRANCH   6   7
HETATM    7  C   UNL     1     -20.850  -6.222  -4.989  1.00  0.00     0.027 C 
BRANCH   7   8
HETATM    8  C   UNL     1     -22.022  -6.450  -4.042  1.00  0.00     0.004 C 
BRANCH   8   9
HETATM    9  C   UNL     1     -21.603  -6.185  -2.601  1.00  0.00     0.000 C 
BRANCH   9  10
HETATM   10  C   UNL     1     -21.686  -7.460  -1.769  1.00  0.00     0.000 C 
BRANCH  10  11
HETATM   11  C   UNL     1     -20.314  -8.113  -1.644  1.00  0.00     0.000 C 
BRANCH  11  12
HETATM   12  C   UNL     1     -20.142  -9.210  -2.689  1.00  0.00    -0.000 C 
BRANCH  12  13
HETATM   13  C   UNL     1     -18.790  -9.095  -3.387  1.00  0.00    -0.005 C 
HETATM   14  C   UNL     1     -18.919  -9.386  -4.873  1.00  0.00     0.005 C 
ENDBRANCH  12  13
ENDBRANCH  11  12
ENDBRANCH  10  11
ENDBRANCH   9  10
ENDBRANCH   8   9
ENDBRANCH   7   8
ENDBRANCH   6   7
ENDBRANCH   4   5
ENDBRANCH   3   4
ENDBRANCH   2   3
ENDBRANCH   1   2
BRANCH   1  15
HETATM   15  C   UNL     1     -23.412  -3.959 -11.645  1.00  0.00     0.000 C 
BRANCH  15  16
HETATM   16  C   UNL     1     -22.643  -4.570 -12.807  1.00  0.00     0.010 C 
BRANCH  16  17
HETATM   17  C   UNL     1     -23.305  -5.834 -13.350  1.00  0.00     0.111 C 
BRANCH  17  18
HETATM   18  C   UNL     1     -24.199  -5.481 -14.513  1.00  0.00     0.258 C 
HETATM   19  O   UNL     1     -24.266  -4.361 -15.015  1.00  0.00    -0.265 OA
BRANCH  18  20
HETATM   20  O   UNL     1     -24.969  -6.541 -14.864  1.00  0.00    -0.319 OA
BRANCH  20  21
HETATM   21  C   UNL     1     -25.746  -6.346 -16.044  1.00  0.00     0.212 C 
BRANCH  21  22
HETATM   22  C   UNL     1     -27.151  -6.925 -15.948  1.00  0.00     0.166 C 
BRANCH  22  23
HETATM   23  C   UNL     1     -28.081  -6.063 -15.092  1.00  0.00     0.198 C 
BRANCH  23  24
HETATM   24  O   UNL     1     -29.221  -5.691 -15.858  1.00  0.00    -0.398 OA
HETATM   25  H   UNL     1     -29.484  -4.803 -15.549  1.00  0.00     0.209 HD
ENDBRANCH  23  24
ENDBRANCH  22  23
BRANCH  22  26
HETATM   26  O   UNL     1     -27.714  -7.025 -17.268  1.00  0.00    -0.391 OA
HETATM   27  H   UNL     1     -27.164  -6.510 -17.887  1.00  0.00     0.210 HD
ENDBRANCH  22  26
ENDBRANCH  21  22
ENDBRANCH  20  21
ENDBRANCH  18  20
ENDBRANCH  17  18
ENDBRANCH  16  17
ENDBRANCH  15  16
ENDBRANCH   1  15
TORSDOF 21
BEGIN_RES ARG D 557
REMARK  4 active torsions:
REMARK  status: ('A' for Active; 'I' for Inactive)
REMARK    1  A    between atoms: CA   and  CB  
REMARK    2  A    between atoms: CB   and  CG  
REMARK    3  A    between atoms: CG   and  CD  
REMARK    4  A    between atoms: CD   and  NE  
REMARK       I    between atoms: NE   and  CZ  
REMARK       I    between atoms: CZ   and  NH1 
REMARK       I    between atoms: CZ   and  NH2 
ROOT
ATOM      1  CA  ARG D 557     -26.217   2.705 -17.014  1.00 35.49     0.159 C 
ENDROOT
BRANCH   1   2
ATOM      2  CB  ARG D 557     -26.789   1.319 -17.183  1.00 35.49     0.034 C 
BRANCH   2   3
ATOM      3  CG  ARG D 557     -28.238   1.175 -16.996  1.00 35.49     0.027 C 
BRANCH   3   4
ATOM      4  CD  ARG D 557     -28.650  -0.240 -16.849  1.00 35.49     0.116 C 
BRANCH   4   5
ATOM      5  NE  ARG D 557     -27.686  -1.012 -16.110  1.00 35.49    -0.212 N 
ATOM      6  CZ  ARG D 557     -27.526  -2.314 -16.183  1.00 35.49     0.666 C 
ATOM      7  NH1 ARG D 557     -28.271  -3.078 -16.960  1.00 35.49    -0.235 N 
ATOM      8  NH2 ARG D 557     -26.587  -2.845 -15.455  1.00 35.49    -0.235 N 
ATOM      9  HH  ARG D 557     -28.894  -2.749 -17.449  1.00 35.49     0.174 HD
ATOM     10  HH  ARG D 557     -28.120  -3.921 -16.969  1.00 35.49     0.174 HD
ATOM     11  HH  ARG D 557     -26.117  -2.327 -14.968  1.00 35.49     0.174 HD
ATOM     12  HH  ARG D 557     -26.451  -3.682 -15.478  1.00 35.49     0.174 HD
ATOM     13  HE  ARG D 557     -27.212  -0.609 -15.530  1.00 35.49     0.178 HD
ENDBRANCH   4   5
ENDBRANCH   3   4
ENDBRANCH   2   3
ENDBRANCH   1   2
END_RES ARG D 557
BEGIN_RES GLU D 570
REMARK  3 active torsions:
REMARK  status: ('A' for Active; 'I' for Inactive)
REMARK    5  A    between atoms: CA   and  CB  
REMARK    6  A    between atoms: CB   and  CG  
REMARK    7  A    between atoms: CG   and  CD  
ROOT
ATOM     14  CA  GLU D 570     -18.033  -6.348 -13.375  1.00 32.92     0.160 C 
ENDROOT
BRANCH  14  15
ATOM     15  CB  GLU D 570     -19.500  -6.345 -13.794  1.00 32.92     0.043 C 
BRANCH  15  16
ATOM     16  CG  GLU D 570     -20.092  -7.639 -14.222  1.00 32.92     0.100 C 
BRANCH  16  17
ATOM     17  CD  GLU D 570     -20.760  -7.562 -15.575  1.00 32.92     0.185 C 
ATOM     18  OE1 GLU D 570     -21.031  -8.619 -16.177  1.00 32.92    -0.647 OA
ATOM     19  OE2 GLU D 570     -20.998  -6.433 -16.047  1.00 32.92    -0.647 OA
ENDBRANCH  16  17
ENDBRANCH  15  16
ENDBRANCH  14  15
END_RES GLU D 570
ENDMDL
MODEL 9
REMARK VINA RESULT:      -6.4      2.350      3.376
REMARK  21 active torsions:
REMARK  status: ('A' for Active; 'I' for Inactive)
REMARK    1  A    between atoms: C_2  and  C_3 
REMARK    2  A    between atoms: C_3  and  C_4 
REMARK    3  A    between atoms: C_4  and  C_5 
REMARK    4  A    between atoms: C_5  and  C_6 
REMARK    5  A    between atoms: C_6  and  C_7 
REMARK    6  A    between atoms: C_7  and  C_8 
REMARK    7  A    between atoms: C_8  and  C_9 
REMARK    8  A    between atoms: C_10  and  C_11 
REMARK    9  A    between atoms: C_11  and  C_12 
REMARK   10  A    between atoms: C_12  and  C_13 
REMARK   11  A    between atoms: C_13  and  C_14 
REMARK   12  A    between atoms: C_14  and  C_15 
REMARK   13  A    between atoms: C_15  and  C_16 
REMARK   14  A    between atoms: C_16  and  C_17 
REMARK   15  A    between atoms: C_17  and  C_18 
REMARK   16  A    between atoms: C_18  and  O_20 
REMARK   17  A    between atoms: O_20  and  C_21 
REMARK   18  A    between atoms: C_21  and  C_22 
REMARK   19  A    between atoms: C_22  and  C_23 
REMARK   20  A    between atoms: C_22  and  O_25 
REMARK   21  A    between atoms: C_23  and  O_24 
ROOT
HETATM    1  C   UNL     1     -20.482  -4.411  -7.408  1.00  0.00     0.000 C 
ENDROOT
BRANCH   1   2
HETATM    2  C   UNL     1     -20.084  -4.922  -6.031  1.00  0.00     0.000 C 
BRANCH   2   3
HETATM    3  C   UNL     1     -20.041  -6.446  -6.006  1.00  0.00     0.004 C 
BRANCH   3   4
HETATM    4  C   UNL     1     -20.705  -6.977  -4.741  1.00  0.00     0.027 C 
BRANCH   4   5
HETATM    5  C   UNL     1     -20.964  -8.446  -4.861  1.00  0.00    -0.031 C 
HETATM    6  C   UNL     1     -21.603  -9.159  -3.923  1.00  0.00    -0.031 C 
BRANCH   6   7
HETATM    7  C   UNL     1     -21.865 -10.626  -4.042  1.00  0.00     0.027 C 
BRANCH   7   8
HETATM    8  C   UNL     1     -22.757 -11.101  -2.901  1.00  0.00     0.004 C 
BRANCH   8   9
HETATM    9  C   UNL     1     -22.526 -10.254  -1.655  1.00  0.00     0.000 C 
BRANCH   9  10
HETATM   10  C   UNL     1     -23.136 -10.918  -0.427  1.00  0.00     0.000 C 
BRANCH  10  11
HETATM   11  C   UNL     1     -24.101 -12.027  -0.836  1.00  0.00     0.000 C 
BRANCH  11  12
HETATM   12  C   UNL     1     -23.731 -13.341  -0.156  1.00  0.00    -0.000 C 
BRANCH  12  13
HETATM   13  C   UNL     1     -22.980 -13.092   1.148  1.00  0.00    -0.005 C 
HETATM   14  C   UNL     1     -23.492 -14.000   2.253  1.00  0.00     0.005 C 
ENDBRANCH  12  13
ENDBRANCH  11  12
ENDBRANCH  10  11
ENDBRANCH   9  10
ENDBRANCH   8   9
ENDBRANCH   7   8
ENDBRANCH   6   7
ENDBRANCH   4   5
ENDBRANCH   3   4
ENDBRANCH   2   3
ENDBRANCH   1   2
BRANCH   1  15
HETATM   15  C   UNL     1     -22.001  -4.310  -7.539  1.00  0.00     0.000 C 
BRANCH  15  16
HETATM   16  C   UNL     1     -22.362  -3.545  -8.803  1.00  0.00     0.010 C 
BRANCH  16  17
HETATM   17  C   UNL     1     -23.870  -3.466  -9.032  1.00  0.00     0.111 C 
BRANCH  17  18
HETATM   18  C   UNL     1     -24.172  -3.657 -10.498  1.00  0.00     0.258 C 
HETATM   19  O   UNL     1     -25.170  -3.211 -11.058  1.00  0.00    -0.265 OA
BRANCH  18  20
HETATM   20  O   UNL     1     -23.239  -4.453 -11.079  1.00  0.00    -0.319 OA
BRANCH  20  21
HETATM   21  C   UNL     1     -23.720  -5.227 -12.176  1.00  0.00     0.212 C 
BRANCH  21  22
HETATM   22  C   UNL     1     -22.807  -5.186 -13.393  1.00  0.00     0.166 C 
BRANCH  22  23
HETATM   23  C   UNL     1     -23.575  -5.358 -14.706  1.00  0.00     0.198 C 
BRANCH  23  24
HETATM   24  O   UNL     1     -24.322  -6.569 -14.663  1.00  0.00    -0.398 OA
HETATM   25  H   UNL     1     -23.958  -7.142 -15.366  1.00  0.00     0.209 HD
ENDBRANCH  23  24
ENDBRANCH  22  23
BRANCH  22  26
HETATM   26  O   UNL     1     -22.123  -3.921 -13.432  1.00  0.00    -0.391 OA
HETATM   27  H   UNL     1     -22.715  -3.231 -13.081  1.00  0.00     0.210 HD
ENDBRANCH  22  26
ENDBRANCH  21  22
ENDBRANCH  20  21
ENDBRANCH  18  20
ENDBRANCH  17  18
ENDBRANCH  16  17
ENDBRANCH  15  16
ENDBRANCH   1  15
TORSDOF 21
BEGIN_RES ARG D 557
REMARK  4 active torsions:
REMARK  status: ('A' for Active; 'I' for Inactive)
REMARK    1  A    between atoms: CA   and  CB  
REMARK    2  A    between atoms: CB   and  CG  
REMARK    3  A    between atoms: CG   and  CD  
REMARK    4  A    between atoms: CD   and  NE  
REMARK       I    between atoms: NE   and  CZ  
REMARK       I    between atoms: CZ   and  NH1 
REMARK       I    between atoms: CZ   and  NH2 
ROOT
ATOM      1  CA  ARG D 557     -26.217   2.705 -17.014  1.00 35.49     0.159 C 
ENDROOT
BRANCH   1   2
ATOM      2  CB  ARG D 557     -26.789   1.319 -17.183  1.00 35.49     0.034 C 
BRANCH   2   3
ATOM      3  CG  ARG D 557     -25.833   0.205 -17.178  1.00 35.49     0.027 C 
BRANCH   3   4
ATOM      4  CD  ARG D 557     -24.693   0.444 -16.264  1.00 35.49     0.116 C 
BRANCH   4   5
ATOM      5  NE  ARG D 557     -24.784  -0.346 -15.065  1.00 35.49    -0.212 N 
ATOM      6  CZ  ARG D 557     -23.959  -1.307 -14.713  1.00 35.49     0.666 C 
ATOM      7  NH1 ARG D 557     -22.933  -1.669 -15.460  1.00 35.49    -0.235 N 
ATOM      8  NH2 ARG D 557     -24.182  -1.904 -13.579  1.00 35.49    -0.235 N 
ATOM      9  HH  ARG D 557     -22.766  -1.288 -16.210  1.00 35.49     0.174 HD
ATOM     10  HH  ARG D 557     -22.427  -2.301 -15.179  1.00 35.49     0.174 HD
ATOM     11  HH  ARG D 557     -24.848  -1.645 -13.114  1.00 35.49     0.174 HD
ATOM     12  HH  ARG D 557     -23.669  -2.527 -13.317  1.00 35.49     0.174 HD
ATOM     13  HE  ARG D 557     -25.458  -0.229 -14.560  1.00 35.49     0.178 HD
ENDBRANCH   4   5
ENDBRANCH   3   4
ENDBRANCH   2   3
ENDBRANCH   1   2
END_RES ARG D 557
BEGIN_RES GLU D 570
REMARK  3 active torsions:
REMARK  status: ('A' for Active; 'I' for Inactive)
REMARK    5  A    between atoms: CA   and  CB  
REMARK    6  A    between atoms: CB   and  CG  
REMARK    7  A    between atoms: CG   and  CD  
ROOT
ATOM     14  CA  GLU D 570     -18.033  -6.348 -13.375  1.00 32.92     0.160 C 
ENDROOT
BRANCH  14  15
ATOM     15  CB  GLU D 570     -19.500  -6.345 -13.794  1.00 32.92     0.043 C 
BRANCH  15  16
ATOM     16  CG  GLU D 570     -19.799  -6.179 -15.240  1.00 32.92     0.100 C 
BRANCH  16  17
ATOM     17  CD  GLU D 570     -20.637  -7.303 -15.802  1.00 32.92     0.185 C 
ATOM     18  OE1 GLU D 570     -20.644  -8.403 -15.217  1.00 32.92    -0.647 OA
ATOM     19  OE2 GLU D 570     -21.280  -7.086 -16.848  1.00 32.92    -0.647 OA
ENDBRANCH  16  17
ENDBRANCH  15  16
ENDBRANCH  14  15
END_RES GLU D 570
ENDMDL
