MODEL 1
REMARK VINA RESULT:      -7.9      0.000      0.000
REMARK  17 active torsions:
REMARK  status: ('A' for Active; 'I' for Inactive)
REMARK    1  A    between atoms: C_1  and  O_37 
REMARK    2  A    between atoms: C_2  and  O_36 
REMARK    3  A    between atoms: C_3  and  C_33 
REMARK    4  A    between atoms: C_5  and  O_8 
REMARK    5  A    between atoms: C_6  and  O_7 
REMARK    6  A    between atoms: O_8  and  C_9 
REMARK    7  A    between atoms: C_10  and  O_32 
REMARK    8  A    between atoms: C_11  and  O_31 
REMARK    9  A    between atoms: C_12  and  O_18 
REMARK   10  A    between atoms: C_14  and  C_15 
REMARK   11  A    between atoms: C_15  and  O_17 
REMARK   12  A    between atoms: O_18  and  C_19 
REMARK   13  A    between atoms: C_20  and  O_30 
REMARK   14  A    between atoms: C_21  and  O_29 
REMARK   15  A    between atoms: C_22  and  O_28 
REMARK   16  A    between atoms: C_24  and  C_25 
REMARK   17  A    between atoms: C_25  and  O_26 
ROOT
HETATM    1  C   UNL     1     -23.995  -3.430 -14.916  1.00  0.00     0.195 C 
HETATM    2  C   UNL     1     -23.165  -4.512 -14.223  1.00  0.00     0.183 C 
HETATM    3  C   UNL     1     -23.554  -4.599 -12.738  1.00  0.00     0.204 C 
HETATM    4  C   UNL     1     -23.566  -3.228 -11.976  1.00  0.00     0.293 C 
HETATM    5  O   UNL     1     -24.104  -2.169 -12.770  1.00  0.00    -0.340 OA
HETATM    6  C   UNL     1     -23.661  -2.118 -14.143  1.00  0.00     0.253 C 
ENDROOT
BRANCH   4   7
HETATM    7  O   UNL     1     -22.379  -2.942 -11.221  1.00  0.00    -0.347 OA
BRANCH   7   8
HETATM    8  C   UNL     1     -22.401  -2.914  -9.764  1.00  0.00     0.195 C 
HETATM    9  C   UNL     1     -20.938  -3.193  -9.284  1.00  0.00     0.183 C 
HETATM   10  C   UNL     1     -20.547  -4.689  -9.376  1.00  0.00     0.204 C 
HETATM   11  C   UNL     1     -21.616  -5.614  -8.759  1.00  0.00     0.289 C 
HETATM   12  O   UNL     1     -22.914  -5.294  -9.256  1.00  0.00    -0.341 OA
HETATM   13  C   UNL     1     -23.286  -3.916  -8.979  1.00  0.00     0.258 C 
BRANCH   9  14
HETATM   14  O   UNL     1     -20.757  -2.768  -7.921  1.00  0.00    -0.390 OA
HETATM   15  H   UNL     1     -20.832  -3.585  -7.385  1.00  0.00     0.210 HD
ENDBRANCH   9  14
BRANCH  10  16
HETATM   16  O   UNL     1     -19.287  -4.891  -8.699  1.00  0.00    -0.388 OA
HETATM   17  H   UNL     1     -18.940  -5.762  -8.971  1.00  0.00     0.210 HD
ENDBRANCH  10  16
BRANCH  11  18
HETATM   18  O   UNL     1     -21.563  -5.640  -7.336  1.00  0.00    -0.368 OA
HETATM   19  H   UNL     1     -21.153  -4.799  -7.055  1.00  0.00     0.212 HD
ENDBRANCH  11  18
BRANCH  13  20
HETATM   20  C   UNL     1     -24.782  -3.719  -9.210  1.00  0.00     0.321 C 
HETATM   21  O   UNL     1     -25.267  -2.565  -9.308  1.00  0.00    -0.260 OA
BRANCH  20  22
HETATM   22  O   UNL     1     -25.468  -4.787  -9.439  1.00  0.00    -0.147 OA
HETATM   23 CA   UNL     2     -27.083  -5.860  -9.110  1.00  0.00     0.000 Ca
ENDBRANCH  20  22
ENDBRANCH  13  20
ENDBRANCH   7   8
ENDBRANCH   4   7
BRANCH   3  24
HETATM   24  O   UNL     1     -22.798  -5.602 -12.055  1.00  0.00    -0.388 OA
HETATM   25  H   UNL     1     -21.896  -5.245 -11.944  1.00  0.00     0.210 HD
ENDBRANCH   3  24
BRANCH   2  26
HETATM   26  O   UNL     1     -21.787  -4.189 -14.370  1.00  0.00    -0.390 OA
HETATM   27  H   UNL     1     -21.600  -4.083 -15.325  1.00  0.00     0.210 HD
ENDBRANCH   2  26
BRANCH   6  28
HETATM   28  C   UNL     1     -24.313  -0.941 -14.871  1.00  0.00     0.172 C 
HETATM   29  O   UNL     1     -23.705  -0.030 -15.410  1.00  0.00    -0.648 OA
BRANCH  28  30
HETATM   30  O   UNL     1     -25.671  -1.015 -14.884  1.00  0.00    -0.774 OA
HETATM   31  H   UNL     1     -26.037  -1.394 -14.035  1.00  0.00     0.167 HD
ENDBRANCH  28  30
ENDBRANCH   6  28
BRANCH   1  32
HETATM   32  O   UNL     1     -25.414  -3.704 -14.849  1.00  0.00    -0.347 OA
BRANCH  32  33
HETATM   33  C   UNL     1     -25.955  -4.796 -15.653  1.00  0.00     0.293 C 
HETATM   34  O   UNL     1     -27.374  -4.887 -15.554  1.00  0.00    -0.340 OA
HETATM   35  C   UNL     1     -27.886  -5.828 -16.566  1.00  0.00     0.256 C 
HETATM   36  C   UNL     1     -27.384  -7.251 -16.292  1.00  0.00     0.189 C 
HETATM   37  C   UNL     1     -25.859  -7.249 -16.393  1.00  0.00     0.183 C 
HETATM   38  C   UNL     1     -25.247  -6.177 -15.482  1.00  0.00     0.204 C 
BRANCH  35  39
HETATM   39  C   UNL     1     -29.427  -5.765 -16.656  1.00  0.00     0.206 C 
HETATM   40  O   UNL     1     -29.922  -5.994 -17.798  1.00  0.00    -0.646 OA
HETATM   41  O   UNL     1     -30.008  -5.498 -15.561  1.00  0.00    -0.646 OA
ENDBRANCH  35  39
BRANCH  36  42
HETATM   42  O   UNL     1     -27.764  -7.680 -14.975  1.00  0.00    -0.390 OA
HETATM   43  H   UNL     1     -28.604  -8.181 -15.138  1.00  0.00     0.210 HD
ENDBRANCH  36  42
BRANCH  37  44
HETATM   44  O   UNL     1     -25.457  -7.011 -17.754  1.00  0.00    -0.390 OA
HETATM   45  H   UNL     1     -24.492  -6.858 -17.697  1.00  0.00     0.210 HD
ENDBRANCH  37  44
BRANCH  38  46
HETATM   46  O   UNL     1     -23.847  -6.045 -15.813  1.00  0.00    -0.388 OA
HETATM   47  H   UNL     1     -23.783  -5.983 -16.789  1.00  0.00     0.210 HD
ENDBRANCH  38  46
ENDBRANCH  32  33
ENDBRANCH   1  32
TORSDOF 17
BEGIN_RES ARG D 557
REMARK  4 active torsions:
REMARK  status: ('A' for Active; 'I' for Inactive)
REMARK    1  A    between atoms: CA   and  CB  
REMARK    2  A    between atoms: CB   and  CG  
REMARK    3  A    between atoms: CG   and  CD  
REMARK    4  A    between atoms: CD   and  NE  
REMARK       I    between atoms: NE   and  CZ  
REMARK       I    between atoms: CZ   and  NH1 
REMARK       I    between atoms: CZ   and  NH2 
ROOT
ATOM      1  CA  ARG D 557     -26.217   2.705 -17.014  1.00 35.49     0.159 C 
ENDROOT
BRANCH   1   2
ATOM      2  CB  ARG D 557     -26.789   1.319 -17.183  1.00 35.49     0.034 C 
BRANCH   2   3
ATOM      3  CG  ARG D 557     -28.218   1.229 -17.507  1.00 35.49     0.027 C 
BRANCH   3   4
ATOM      4  CD  ARG D 557     -28.966   0.399 -16.535  1.00 35.49     0.116 C 
BRANCH   4   5
ATOM      5  NE  ARG D 557     -29.462  -0.815 -17.127  1.00 35.49    -0.212 N 
ATOM      6  CZ  ARG D 557     -28.867  -1.986 -17.092  1.00 35.49     0.666 C 
ATOM      7  NH1 ARG D 557     -27.702  -2.172 -16.500  1.00 35.49    -0.235 N 
ATOM      8  NH2 ARG D 557     -29.474  -2.985 -17.665  1.00 35.49    -0.235 N 
ATOM      9  HH  ARG D 557     -27.286  -1.529 -16.115  1.00 35.49     0.174 HD
ATOM     10  HH  ARG D 557     -27.363  -2.959 -16.507  1.00 35.49     0.174 HD
ATOM     11  HH  ARG D 557     -30.229  -2.837 -18.033  1.00 35.49     0.174 HD
ATOM     12  HH  ARG D 557     -29.123  -3.757 -17.660  1.00 35.49     0.174 HD
ATOM     13  HE  ARG D 557     -30.173  -0.771 -17.591  1.00 35.49     0.178 HD
ENDBRANCH   4   5
ENDBRANCH   3   4
ENDBRANCH   2   3
ENDBRANCH   1   2
END_RES ARG D 557
BEGIN_RES GLU D 570
REMARK  3 active torsions:
REMARK  status: ('A' for Active; 'I' for Inactive)
REMARK    5  A    between atoms: CA   and  CB  
REMARK    6  A    between atoms: CB   and  CG  
REMARK    7  A    between atoms: CG   and  CD  
ROOT
ATOM     14  CA  GLU D 570     -18.033  -6.348 -13.375  1.00 32.92     0.160 C 
ENDROOT
BRANCH  14  15
ATOM     15  CB  GLU D 570     -19.500  -6.345 -13.794  1.00 32.92     0.043 C 
BRANCH  15  16
ATOM     16  CG  GLU D 570     -20.040  -7.587 -14.404  1.00 32.92     0.100 C 
BRANCH  16  17
ATOM     17  CD  GLU D 570     -20.846  -7.327 -15.655  1.00 32.92     0.185 C 
ATOM     18  OE1 GLU D 570     -21.610  -8.216 -16.079  1.00 32.92    -0.647 OA
ATOM     19  OE2 GLU D 570     -20.700  -6.228 -16.227  1.00 32.92    -0.647 OA
ENDBRANCH  16  17
ENDBRANCH  15  16
ENDBRANCH  14  15
END_RES GLU D 570
ENDMDL
MODEL 2
REMARK VINA RESULT:      -7.8      1.383      2.229
REMARK  17 active torsions:
REMARK  status: ('A' for Active; 'I' for Inactive)
REMARK    1  A    between atoms: C_1  and  O_37 
REMARK    2  A    between atoms: C_2  and  O_36 
REMARK    3  A    between atoms: C_3  and  C_33 
REMARK    4  A    between atoms: C_5  and  O_8 
REMARK    5  A    between atoms: C_6  and  O_7 
REMARK    6  A    between atoms: O_8  and  C_9 
REMARK    7  A    between atoms: C_10  and  O_32 
REMARK    8  A    between atoms: C_11  and  O_31 
REMARK    9  A    between atoms: C_12  and  O_18 
REMARK   10  A    between atoms: C_14  and  C_15 
REMARK   11  A    between atoms: C_15  and  O_17 
REMARK   12  A    between atoms: O_18  and  C_19 
REMARK   13  A    between atoms: C_20  and  O_30 
REMARK   14  A    between atoms: C_21  and  O_29 
REMARK   15  A    between atoms: C_22  and  O_28 
REMARK   16  A    between atoms: C_24  and  C_25 
REMARK   17  A    between atoms: C_25  and  O_26 
ROOT
HETATM    1  C   UNL     1     -24.938  -4.041 -15.473  1.00  0.00     0.195 C 
HETATM    2  C   UNL     1     -24.049  -5.274 -15.295  1.00  0.00     0.183 C 
HETATM    3  C   UNL     1     -24.202  -5.828 -13.870  1.00  0.00     0.204 C 
HETATM    4  C   UNL     1     -24.044  -4.766 -12.725  1.00  0.00     0.293 C 
HETATM    5  O   UNL     1     -24.661  -3.519 -13.052  1.00  0.00    -0.340 OA
HETATM    6  C   UNL     1     -24.438  -3.033 -14.392  1.00  0.00     0.253 C 
ENDROOT
BRANCH   4   7
HETATM    7  O   UNL     1     -22.742  -4.714 -12.122  1.00  0.00    -0.347 OA
BRANCH   7   8
HETATM    8  C   UNL     1     -22.397  -3.667 -11.168  1.00  0.00     0.195 C 
HETATM    9  C   UNL     1     -20.835  -3.638 -11.074  1.00  0.00     0.183 C 
HETATM   10  C   UNL     1     -20.261  -4.789 -10.211  1.00  0.00     0.204 C 
HETATM   11  C   UNL     1     -20.986  -4.927  -8.857  1.00  0.00     0.289 C 
HETATM   12  O   UNL     1     -22.401  -4.950  -9.037  1.00  0.00    -0.341 OA
HETATM   13  C   UNL     1     -22.892  -3.754  -9.702  1.00  0.00     0.258 C 
BRANCH   9  14
HETATM   14  O   UNL     1     -20.378  -2.393 -10.516  1.00  0.00    -0.390 OA
HETATM   15  H   UNL     1     -19.400  -2.446 -10.535  1.00  0.00     0.210 HD
ENDBRANCH   9  14
BRANCH  10  16
HETATM   16  O   UNL     1     -18.855  -4.553  -9.982  1.00  0.00    -0.388 OA
HETATM   17  H   UNL     1     -18.428  -5.418  -9.835  1.00  0.00     0.210 HD
ENDBRANCH  10  16
BRANCH  11  18
HETATM   18  O   UNL     1     -20.569  -3.948  -7.911  1.00  0.00    -0.368 OA
HETATM   19  H   UNL     1     -20.160  -4.432  -7.168  1.00  0.00     0.212 HD
ENDBRANCH  11  18
BRANCH  13  20
HETATM   20  C   UNL     1     -24.409  -3.663  -9.564  1.00  0.00     0.321 C 
HETATM   21  O   UNL     1     -24.983  -2.546  -9.532  1.00  0.00    -0.260 OA
BRANCH  20  22
HETATM   22  O   UNL     1     -25.056  -4.777  -9.631  1.00  0.00    -0.147 OA
HETATM   23 CA   UNL     2     -26.651  -5.835  -9.178  1.00  0.00     0.000 Ca
ENDBRANCH  20  22
ENDBRANCH  13  20
ENDBRANCH   7   8
ENDBRANCH   4   7
BRANCH   3  24
HETATM   24  O   UNL     1     -23.386  -6.983 -13.665  1.00  0.00    -0.388 OA
HETATM   25  H   UNL     1     -22.907  -7.140 -14.502  1.00  0.00     0.210 HD
ENDBRANCH   3  24
BRANCH   2  26
HETATM   26  O   UNL     1     -22.701  -4.900 -15.554  1.00  0.00    -0.390 OA
HETATM   27  H   UNL     1     -22.116  -5.506 -15.053  1.00  0.00     0.210 HD
ENDBRANCH   2  26
BRANCH   6  28
HETATM   28  C   UNL     1     -25.153  -1.697 -14.602  1.00  0.00     0.172 C 
HETATM   29  O   UNL     1     -24.601  -0.647 -14.891  1.00  0.00    -0.648 OA
BRANCH  28  30
HETATM   30  O   UNL     1     -26.502  -1.791 -14.454  1.00  0.00    -0.774 OA
HETATM   31  H   UNL     1     -26.942  -0.895 -14.421  1.00  0.00     0.167 HD
ENDBRANCH  28  30
ENDBRANCH   6  28
BRANCH   1  32
HETATM   32  O   UNL     1     -26.337  -4.343 -15.267  1.00  0.00    -0.347 OA
BRANCH  32  33
HETATM   33  C   UNL     1     -26.966  -5.358 -16.108  1.00  0.00     0.293 C 
HETATM   34  O   UNL     1     -26.594  -5.230 -17.478  1.00  0.00    -0.340 OA
HETATM   35  C   UNL     1     -27.046  -6.415 -18.230  1.00  0.00     0.256 C 
HETATM   36  C   UNL     1     -28.577  -6.498 -18.248  1.00  0.00     0.189 C 
HETATM   37  C   UNL     1     -29.066  -6.650 -16.808  1.00  0.00     0.183 C 
HETATM   38  C   UNL     1     -28.505  -5.539 -15.913  1.00  0.00     0.204 C 
BRANCH  35  39
HETATM   39  C   UNL     1     -26.448  -6.431 -19.654  1.00  0.00     0.206 C 
HETATM   40  O   UNL     1     -27.213  -6.024 -20.577  1.00  0.00    -0.646 OA
HETATM   41  O   UNL     1     -25.252  -6.846 -19.720  1.00  0.00    -0.646 OA
ENDBRANCH  35  39
BRANCH  36  42
HETATM   42  O   UNL     1     -29.145  -5.303 -18.809  1.00  0.00    -0.390 OA
HETATM   43  H   UNL     1     -28.946  -4.618 -18.121  1.00  0.00     0.210 HD
ENDBRANCH  36  42
BRANCH  37  44
HETATM   44  O   UNL     1     -28.670  -7.933 -16.289  1.00  0.00    -0.390 OA
HETATM   45  H   UNL     1     -28.389  -8.437 -17.080  1.00  0.00     0.210 HD
ENDBRANCH  37  44
BRANCH  38  46
HETATM   46  O   UNL     1     -28.780  -5.881 -14.537  1.00  0.00    -0.388 OA
HETATM   47  H   UNL     1     -29.750  -5.992 -14.453  1.00  0.00     0.210 HD
ENDBRANCH  38  46
ENDBRANCH  32  33
ENDBRANCH   1  32
TORSDOF 17
BEGIN_RES ARG D 557
REMARK  4 active torsions:
REMARK  status: ('A' for Active; 'I' for Inactive)
REMARK    1  A    between atoms: CA   and  CB  
REMARK    2  A    between atoms: CB   and  CG  
REMARK    3  A    between atoms: CG   and  CD  
REMARK    4  A    between atoms: CD   and  NE  
REMARK       I    between atoms: NE   and  CZ  
REMARK       I    between atoms: CZ   and  NH1 
REMARK       I    between atoms: CZ   and  NH2 
ROOT
ATOM      1  CA  ARG D 557     -26.217   2.705 -17.014  1.00 35.49     0.159 C 
ENDROOT
BRANCH   1   2
ATOM      2  CB  ARG D 557     -26.789   1.319 -17.183  1.00 35.49     0.034 C 
BRANCH   2   3
ATOM      3  CG  ARG D 557     -28.238   1.224 -17.398  1.00 35.49     0.027 C 
BRANCH   3   4
ATOM      4  CD  ARG D 557     -28.904   0.374 -16.384  1.00 35.49     0.116 C 
BRANCH   4   5
ATOM      5  NE  ARG D 557     -29.603  -0.734 -16.981  1.00 35.49    -0.212 N 
ATOM      6  CZ  ARG D 557     -29.110  -1.936 -17.180  1.00 35.49     0.666 C 
ATOM      7  NH1 ARG D 557     -27.872  -2.257 -16.854  1.00 35.49    -0.235 N 
ATOM      8  NH2 ARG D 557     -29.895  -2.825 -17.714  1.00 35.49    -0.235 N 
ATOM      9  HH  ARG D 557     -27.339  -1.688 -16.499  1.00 35.49     0.174 HD
ATOM     10  HH  ARG D 557     -27.606  -3.058 -17.005  1.00 35.49     0.174 HD
ATOM     11  HH  ARG D 557     -30.692  -2.591 -17.908  1.00 35.49     0.174 HD
ATOM     12  HH  ARG D 557     -29.614  -3.613 -17.854  1.00 35.49     0.174 HD
ATOM     13  HE  ARG D 557     -30.384  -0.595 -17.287  1.00 35.49     0.178 HD
ENDBRANCH   4   5
ENDBRANCH   3   4
ENDBRANCH   2   3
ENDBRANCH   1   2
END_RES ARG D 557
BEGIN_RES GLU D 570
REMARK  3 active torsions:
REMARK  status: ('A' for Active; 'I' for Inactive)
REMARK    5  A    between atoms: CA   and  CB  
REMARK    6  A    between atoms: CB   and  CG  
REMARK    7  A    between atoms: CG   and  CD  
ROOT
ATOM     14  CA  GLU D 570     -18.033  -6.348 -13.375  1.00 32.92     0.160 C 
ENDROOT
BRANCH  14  15
ATOM     15  CB  GLU D 570     -19.500  -6.345 -13.794  1.00 32.92     0.043 C 
BRANCH  15  16
ATOM     16  CG  GLU D 570     -20.021  -7.560 -14.472  1.00 32.92     0.100 C 
BRANCH  16  17
ATOM     17  CD  GLU D 570     -20.744  -7.251 -15.762  1.00 32.92     0.185 C 
ATOM     18  OE1 GLU D 570     -20.322  -6.329 -16.486  1.00 32.92    -0.647 OA
ATOM     19  OE2 GLU D 570     -21.752  -7.927 -16.044  1.00 32.92    -0.647 OA
ENDBRANCH  16  17
ENDBRANCH  15  16
ENDBRANCH  14  15
END_RES GLU D 570
ENDMDL
MODEL 3
REMARK VINA RESULT:      -7.5      7.830     12.439
REMARK  17 active torsions:
REMARK  status: ('A' for Active; 'I' for Inactive)
REMARK    1  A    between atoms: C_1  and  O_37 
REMARK    2  A    between atoms: C_2  and  O_36 
REMARK    3  A    between atoms: C_3  and  C_33 
REMARK    4  A    between atoms: C_5  and  O_8 
REMARK    5  A    between atoms: C_6  and  O_7 
REMARK    6  A    between atoms: O_8  and  C_9 
REMARK    7  A    between atoms: C_10  and  O_32 
REMARK    8  A    between atoms: C_11  and  O_31 
REMARK    9  A    between atoms: C_12  and  O_18 
REMARK   10  A    between atoms: C_14  and  C_15 
REMARK   11  A    between atoms: C_15  and  O_17 
REMARK   12  A    between atoms: O_18  and  C_19 
REMARK   13  A    between atoms: C_20  and  O_30 
REMARK   14  A    between atoms: C_21  and  O_29 
REMARK   15  A    between atoms: C_22  and  O_28 
REMARK   16  A    between atoms: C_24  and  C_25 
REMARK   17  A    between atoms: C_25  and  O_26 
ROOT
HETATM    1  C   UNL     1     -19.081 -10.187  -4.354  1.00  0.00     0.195 C 
HETATM    2  C   UNL     1     -18.226  -9.781  -3.152  1.00  0.00     0.183 C 
HETATM    3  C   UNL     1     -16.792  -9.467  -3.611  1.00  0.00     0.204 C 
HETATM    4  C   UNL     1     -16.131 -10.567  -4.514  1.00  0.00     0.293 C 
HETATM    5  O   UNL     1     -17.051 -11.125  -5.454  1.00  0.00    -0.340 OA
HETATM    6  C   UNL     1     -18.364 -11.440  -4.945  1.00  0.00     0.253 C 
ENDROOT
BRANCH   4   7
HETATM    7  O   UNL     1     -15.267 -11.481  -3.822  1.00  0.00    -0.347 OA
BRANCH   7   8
HETATM    8  C   UNL     1     -15.384 -12.921  -4.018  1.00  0.00     0.195 C 
HETATM    9  C   UNL     1     -15.532 -13.560  -2.596  1.00  0.00     0.183 C 
HETATM   10  C   UNL     1     -14.188 -13.645  -1.831  1.00  0.00     0.204 C 
HETATM   11  C   UNL     1     -13.057 -14.243  -2.693  1.00  0.00     0.289 C 
HETATM   12  O   UNL     1     -12.992 -13.600  -3.964  1.00  0.00    -0.341 OA
HETATM   13  C   UNL     1     -14.240 -13.710  -4.702  1.00  0.00     0.258 C 
BRANCH   9  14
HETATM   14  O   UNL     1     -16.078 -14.887  -2.686  1.00  0.00    -0.390 OA
HETATM   15  H   UNL     1     -17.007 -14.805  -2.384  1.00  0.00     0.210 HD
ENDBRANCH   9  14
BRANCH  10  16
HETATM   16  O   UNL     1     -14.369 -14.453  -0.647  1.00  0.00    -0.388 OA
HETATM   17  H   UNL     1     -15.324 -14.626  -0.547  1.00  0.00     0.210 HD
ENDBRANCH  10  16
BRANCH  11  18
HETATM   18  O   UNL     1     -13.141 -15.661  -2.798  1.00  0.00    -0.368 OA
HETATM   19  H   UNL     1     -14.003 -15.862  -3.211  1.00  0.00     0.212 HD
ENDBRANCH  11  18
BRANCH  13  20
HETATM   20  C   UNL     1     -14.021 -13.323  -6.163  1.00  0.00     0.321 C 
HETATM   21  O   UNL     1     -12.861 -13.265  -6.642  1.00  0.00    -0.260 OA
BRANCH  20  22
HETATM   22  O   UNL     1     -15.082 -13.207  -6.887  1.00  0.00    -0.147 OA
HETATM   23 CA   UNL     2     -16.590 -12.109  -7.511  1.00  0.00     0.000 Ca
ENDBRANCH  20  22
ENDBRANCH  13  20
ENDBRANCH   7   8
ENDBRANCH   4   7
BRANCH   3  24
HETATM   24  O   UNL     1     -15.961  -9.083  -2.513  1.00  0.00    -0.388 OA
HETATM   25  H   UNL     1     -15.235  -8.548  -2.887  1.00  0.00     0.210 HD
ENDBRANCH   3  24
BRANCH   2  26
HETATM   26  O   UNL     1     -18.236 -10.847  -2.209  1.00  0.00    -0.390 OA
HETATM   27  H   UNL     1     -17.907 -10.500  -1.354  1.00  0.00     0.210 HD
ENDBRANCH   2  26
BRANCH   6  28
HETATM   28  C   UNL     1     -19.240 -12.026  -6.053  1.00  0.00     0.172 C 
HETATM   29  O   UNL     1     -19.138 -11.758  -7.240  1.00  0.00    -0.648 OA
BRANCH  28  30
HETATM   30  O   UNL     1     -20.157 -12.916  -5.587  1.00  0.00    -0.774 OA
HETATM   31  H   UNL     1     -19.805 -13.851  -5.579  1.00  0.00     0.167 HD
ENDBRANCH  28  30
ENDBRANCH   6  28
BRANCH   1  32
HETATM   32  O   UNL     1     -19.158  -9.139  -5.347  1.00  0.00    -0.347 OA
BRANCH  32  33
HETATM   33  C   UNL     1     -19.784  -7.871  -4.981  1.00  0.00     0.293 C 
HETATM   34  O   UNL     1     -20.658  -8.004  -3.863  1.00  0.00    -0.340 OA
HETATM   35  C   UNL     1     -21.060  -6.669  -3.383  1.00  0.00     0.256 C 
HETATM   36  C   UNL     1     -21.892  -5.937  -4.442  1.00  0.00     0.189 C 
HETATM   37  C   UNL     1     -21.021  -5.738  -5.683  1.00  0.00     0.183 C 
HETATM   38  C   UNL     1     -20.426  -7.069  -6.158  1.00  0.00     0.204 C 
BRANCH  35  39
HETATM   39  C   UNL     1     -21.800  -6.764  -2.030  1.00  0.00     0.206 C 
HETATM   40  O   UNL     1     -22.681  -5.881  -1.821  1.00  0.00    -0.646 OA
HETATM   41  O   UNL     1     -21.432  -7.730  -1.295  1.00  0.00    -0.646 OA
ENDBRANCH  35  39
BRANCH  36  42
HETATM   42  O   UNL     1     -23.050  -6.707  -4.804  1.00  0.00    -0.390 OA
HETATM   43  H   UNL     1     -23.586  -6.066  -5.337  1.00  0.00     0.210 HD
ENDBRANCH  36  42
BRANCH  37  44
HETATM   44  O   UNL     1     -19.960  -4.811  -5.394  1.00  0.00    -0.390 OA
HETATM   45  H   UNL     1     -20.249  -3.975  -5.814  1.00  0.00     0.210 HD
ENDBRANCH  37  44
BRANCH  38  46
HETATM   46  O   UNL     1     -19.418  -6.786  -7.154  1.00  0.00    -0.388 OA
HETATM   47  H   UNL     1     -19.094  -5.876  -6.989  1.00  0.00     0.210 HD
ENDBRANCH  38  46
ENDBRANCH  32  33
ENDBRANCH   1  32
TORSDOF 17
BEGIN_RES ARG D 557
REMARK  4 active torsions:
REMARK  status: ('A' for Active; 'I' for Inactive)
REMARK    1  A    between atoms: CA   and  CB  
REMARK    2  A    between atoms: CB   and  CG  
REMARK    3  A    between atoms: CG   and  CD  
REMARK    4  A    between atoms: CD   and  NE  
REMARK       I    between atoms: NE   and  CZ  
REMARK       I    between atoms: CZ   and  NH1 
REMARK       I    between atoms: CZ   and  NH2 
ROOT
ATOM      1  CA  ARG D 557     -26.217   2.705 -17.014  1.00 35.49     0.159 C 
ENDROOT
BRANCH   1   2
ATOM      2  CB  ARG D 557     -26.789   1.319 -17.183  1.00 35.49     0.034 C 
BRANCH   2   3
ATOM      3  CG  ARG D 557     -25.835   0.203 -17.159  1.00 35.49     0.027 C 
BRANCH   3   4
ATOM      4  CD  ARG D 557     -24.754   0.407 -16.168  1.00 35.49     0.116 C 
BRANCH   4   5
ATOM      5  NE  ARG D 557     -24.909  -0.439 -15.014  1.00 35.49    -0.212 N 
ATOM      6  CZ  ARG D 557     -24.106  -1.421 -14.668  1.00 35.49     0.666 C 
ATOM      7  NH1 ARG D 557     -23.044  -1.752 -15.377  1.00 35.49    -0.235 N 
ATOM      8  NH2 ARG D 557     -24.389  -2.070 -13.576  1.00 35.49    -0.235 N 
ATOM      9  HH  ARG D 557     -22.838  -1.336 -16.098  1.00 35.49     0.174 HD
ATOM     10  HH  ARG D 557     -22.555  -2.399 -15.101  1.00 35.49     0.174 HD
ATOM     11  HH  ARG D 557     -25.078  -1.830 -13.134  1.00 35.49     0.174 HD
ATOM     12  HH  ARG D 557     -23.892  -2.707 -13.318  1.00 35.49     0.174 HD
ATOM     13  HE  ARG D 557     -25.608  -0.343 -14.539  1.00 35.49     0.178 HD
ENDBRANCH   4   5
ENDBRANCH   3   4
ENDBRANCH   2   3
ENDBRANCH   1   2
END_RES ARG D 557
BEGIN_RES GLU D 570
REMARK  3 active torsions:
REMARK  status: ('A' for Active; 'I' for Inactive)
REMARK    5  A    between atoms: CA   and  CB  
REMARK    6  A    between atoms: CB   and  CG  
REMARK    7  A    between atoms: CG   and  CD  
ROOT
ATOM     14  CA  GLU D 570     -18.033  -6.348 -13.375  1.00 32.92     0.160 C 
ENDROOT
BRANCH  14  15
ATOM     15  CB  GLU D 570     -19.500  -6.345 -13.794  1.00 32.92     0.043 C 
BRANCH  15  16
ATOM     16  CG  GLU D 570     -20.442  -5.529 -12.984  1.00 32.92     0.100 C 
BRANCH  16  17
ATOM     17  CD  GLU D 570     -21.756  -5.277 -13.685  1.00 32.92     0.185 C 
ATOM     18  OE1 GLU D 570     -22.235  -6.168 -14.413  1.00 32.92    -0.647 OA
ATOM     19  OE2 GLU D 570     -22.304  -4.170 -13.518  1.00 32.92    -0.647 OA
ENDBRANCH  16  17
ENDBRANCH  15  16
ENDBRANCH  14  15
END_RES GLU D 570
ENDMDL
MODEL 4
REMARK VINA RESULT:      -7.4      8.460     13.761
REMARK  17 active torsions:
REMARK  status: ('A' for Active; 'I' for Inactive)
REMARK    1  A    between atoms: C_1  and  O_37 
REMARK    2  A    between atoms: C_2  and  O_36 
REMARK    3  A    between atoms: C_3  and  C_33 
REMARK    4  A    between atoms: C_5  and  O_8 
REMARK    5  A    between atoms: C_6  and  O_7 
REMARK    6  A    between atoms: O_8  and  C_9 
REMARK    7  A    between atoms: C_10  and  O_32 
REMARK    8  A    between atoms: C_11  and  O_31 
REMARK    9  A    between atoms: C_12  and  O_18 
REMARK   10  A    between atoms: C_14  and  C_15 
REMARK   11  A    between atoms: C_15  and  O_17 
REMARK   12  A    between atoms: O_18  and  C_19 
REMARK   13  A    between atoms: C_20  and  O_30 
REMARK   14  A    between atoms: C_21  and  O_29 
REMARK   15  A    between atoms: C_22  and  O_28 
REMARK   16  A    between atoms: C_24  and  C_25 
REMARK   17  A    between atoms: C_25  and  O_26 
ROOT
HETATM    1  C   UNL     1     -15.924 -11.326  -3.320  1.00  0.00     0.195 C 
HETATM    2  C   UNL     1     -16.762 -10.418  -2.417  1.00  0.00     0.183 C 
HETATM    3  C   UNL     1     -18.239 -10.479  -2.839  1.00  0.00     0.204 C 
HETATM    4  C   UNL     1     -18.500 -10.261  -4.371  1.00  0.00     0.293 C 
HETATM    5  O   UNL     1     -17.521 -10.907  -5.187  1.00  0.00    -0.340 OA
HETATM    6  C   UNL     1     -16.149 -10.770  -4.759  1.00  0.00     0.253 C 
ENDROOT
BRANCH   4   7
HETATM    7  O   UNL     1     -18.880  -8.926  -4.737  1.00  0.00    -0.347 OA
BRANCH   7   8
HETATM    8  C   UNL     1     -20.175  -8.653  -5.347  1.00  0.00     0.195 C 
HETATM    9  C   UNL     1     -20.137  -7.170  -5.846  1.00  0.00     0.183 C 
HETATM   10  C   UNL     1     -20.319  -6.144  -4.700  1.00  0.00     0.204 C 
HETATM   11  C   UNL     1     -21.514  -6.487  -3.787  1.00  0.00     0.289 C 
HETATM   12  O   UNL     1     -21.465  -7.853  -3.377  1.00  0.00    -0.341 OA
HETATM   13  C   UNL     1     -21.472  -8.768  -4.508  1.00  0.00     0.258 C 
BRANCH   9  14
HETATM   14  O   UNL     1     -21.164  -6.931  -6.824  1.00  0.00    -0.390 OA
HETATM   15  H   UNL     1     -21.279  -7.785  -7.290  1.00  0.00     0.210 HD
ENDBRANCH   9  14
BRANCH  10  16
HETATM   16  O   UNL     1     -20.509  -4.829  -5.267  1.00  0.00    -0.388 OA
HETATM   17  H   UNL     1     -20.613  -4.199  -4.529  1.00  0.00     0.210 HD
ENDBRANCH  10  16
BRANCH  11  18
HETATM   18  O   UNL     1     -22.765  -6.132  -4.366  1.00  0.00    -0.368 OA
HETATM   19  H   UNL     1     -23.395  -6.839  -4.129  1.00  0.00     0.212 HD
ENDBRANCH  11  18
BRANCH  13  20
HETATM   20  C   UNL     1     -21.766 -10.188  -4.031  1.00  0.00     0.321 C 
HETATM   21  O   UNL     1     -21.820 -11.139  -4.850  1.00  0.00    -0.260 OA
BRANCH  20  22
HETATM   22  O   UNL     1     -21.808 -10.363  -2.754  1.00  0.00    -0.147 OA
HETATM   23 CA   UNL     2     -21.201  -9.843  -0.956  1.00  0.00     0.000 Ca
ENDBRANCH  20  22
ENDBRANCH  13  20
ENDBRANCH   7   8
ENDBRANCH   4   7
BRANCH   3  24
HETATM   24  O   UNL     1     -19.055  -9.643  -2.017  1.00  0.00    -0.388 OA
HETATM   25  H   UNL     1     -19.821  -9.376  -2.562  1.00  0.00     0.210 HD
ENDBRANCH   3  24
BRANCH   2  26
HETATM   26  O   UNL     1     -16.259  -9.091  -2.519  1.00  0.00    -0.390 OA
HETATM   27  H   UNL     1     -15.695  -8.919  -1.736  1.00  0.00     0.210 HD
ENDBRANCH   2  26
BRANCH   6  28
HETATM   28  C   UNL     1     -15.214 -11.507  -5.720  1.00  0.00     0.172 C 
HETATM   29  O   UNL     1     -15.464 -11.748  -6.891  1.00  0.00    -0.648 OA
BRANCH  28  30
HETATM   30  O   UNL     1     -14.035 -11.862  -5.142  1.00  0.00    -0.774 OA
HETATM   31  H   UNL     1     -14.107 -11.929  -4.148  1.00  0.00     0.167 HD
ENDBRANCH  28  30
ENDBRANCH   6  28
BRANCH   1  32
HETATM   32  O   UNL     1     -16.344 -12.708  -3.246  1.00  0.00    -0.347 OA
BRANCH  32  33
HETATM   33  C   UNL     1     -15.819 -13.543  -2.169  1.00  0.00     0.293 C 
HETATM   34  O   UNL     1     -16.574 -13.411  -0.967  1.00  0.00    -0.340 OA
HETATM   35  C   UNL     1     -16.164 -14.449  -0.004  1.00  0.00     0.256 C 
HETATM   36  C   UNL     1     -14.706 -14.248   0.428  1.00  0.00     0.189 C 
HETATM   37  C   UNL     1     -13.818 -14.387  -0.808  1.00  0.00     0.183 C 
HETATM   38  C   UNL     1     -14.279 -13.448  -1.929  1.00  0.00     0.204 C 
BRANCH  35  39
HETATM   39  C   UNL     1     -17.124 -14.496   1.206  1.00  0.00     0.206 C 
HETATM   40  O   UNL     1     -18.359 -14.515   0.928  1.00  0.00    -0.646 OA
HETATM   41  O   UNL     1     -16.548 -14.519   2.336  1.00  0.00    -0.646 OA
ENDBRANCH  35  39
BRANCH  36  42
HETATM   42  O   UNL     1     -14.518 -12.941   0.993  1.00  0.00    -0.390 OA
HETATM   43  H   UNL     1     -14.890 -13.038   1.907  1.00  0.00     0.210 HD
ENDBRANCH  36  42
BRANCH  37  44
HETATM   44  O   UNL     1     -13.840 -15.747  -1.278  1.00  0.00    -0.390 OA
HETATM   45  H   UNL     1     -13.330 -16.243  -0.606  1.00  0.00     0.210 HD
ENDBRANCH  37  44
BRANCH  38  46
HETATM   46  O   UNL     1     -13.580 -13.809  -3.141  1.00  0.00    -0.388 OA
HETATM   47  H   UNL     1     -13.479 -14.783  -3.139  1.00  0.00     0.210 HD
ENDBRANCH  38  46
ENDBRANCH  32  33
ENDBRANCH   1  32
TORSDOF 17
BEGIN_RES ARG D 557
REMARK  4 active torsions:
REMARK  status: ('A' for Active; 'I' for Inactive)
REMARK    1  A    between atoms: CA   and  CB  
REMARK    2  A    between atoms: CB   and  CG  
REMARK    3  A    between atoms: CG   and  CD  
REMARK    4  A    between atoms: CD   and  NE  
REMARK       I    between atoms: NE   and  CZ  
REMARK       I    between atoms: CZ   and  NH1 
REMARK       I    between atoms: CZ   and  NH2 
ROOT
ATOM      1  CA  ARG D 557     -26.217   2.705 -17.014  1.00 35.49     0.159 C 
ENDROOT
BRANCH   1   2
ATOM      2  CB  ARG D 557     -26.789   1.319 -17.183  1.00 35.49     0.034 C 
BRANCH   2   3
ATOM      3  CG  ARG D 557     -25.864   0.195 -16.995  1.00 35.49     0.027 C 
BRANCH   3   4
ATOM      4  CD  ARG D 557     -26.290  -0.710 -15.904  1.00 35.49     0.116 C 
BRANCH   4   5
ATOM      5  NE  ARG D 557     -25.244  -0.926 -14.939  1.00 35.49    -0.212 N 
ATOM      6  CZ  ARG D 557     -24.958  -2.070 -14.359  1.00 35.49     0.666 C 
ATOM      7  NH1 ARG D 557     -25.635  -3.177 -14.602  1.00 35.49    -0.235 N 
ATOM      8  NH2 ARG D 557     -23.961  -2.087 -13.523  1.00 35.49    -0.235 N 
ATOM      9  HH  ARG D 557     -26.294  -3.190 -15.150  1.00 35.49     0.174 HD
ATOM     10  HH  ARG D 557     -25.401  -3.895 -14.196  1.00 35.49     0.174 HD
ATOM     11  HH  ARG D 557     -23.537  -1.358 -13.391  1.00 35.49     0.174 HD
ATOM     12  HH  ARG D 557     -23.744  -2.807 -13.132  1.00 35.49     0.174 HD
ATOM     13  HE  ARG D 557     -24.804  -0.250 -14.669  1.00 35.49     0.178 HD
ENDBRANCH   4   5
ENDBRANCH   3   4
ENDBRANCH   2   3
ENDBRANCH   1   2
END_RES ARG D 557
BEGIN_RES GLU D 570
REMARK  3 active torsions:
REMARK  status: ('A' for Active; 'I' for Inactive)
REMARK    5  A    between atoms: CA   and  CB  
REMARK    6  A    between atoms: CB   and  CG  
REMARK    7  A    between atoms: CG   and  CD  
ROOT
ATOM     14  CA  GLU D 570     -18.033  -6.348 -13.375  1.00 32.92     0.160 C 
ENDROOT
BRANCH  14  15
ATOM     15  CB  GLU D 570     -19.500  -6.345 -13.794  1.00 32.92     0.043 C 
BRANCH  15  16
ATOM     16  CG  GLU D 570     -20.451  -5.576 -12.951  1.00 32.92     0.100 C 
BRANCH  16  17
ATOM     17  CD  GLU D 570     -21.681  -5.130 -13.706  1.00 32.92     0.185 C 
ATOM     18  OE1 GLU D 570     -22.713  -4.845 -13.069  1.00 32.92    -0.647 OA
ATOM     19  OE2 GLU D 570     -21.618  -5.082 -14.951  1.00 32.92    -0.647 OA
ENDBRANCH  16  17
ENDBRANCH  15  16
ENDBRANCH  14  15
END_RES GLU D 570
ENDMDL
MODEL 5
REMARK VINA RESULT:      -7.4      7.599     12.487
REMARK  17 active torsions:
REMARK  status: ('A' for Active; 'I' for Inactive)
REMARK    1  A    between atoms: C_1  and  O_37 
REMARK    2  A    between atoms: C_2  and  O_36 
REMARK    3  A    between atoms: C_3  and  C_33 
REMARK    4  A    between atoms: C_5  and  O_8 
REMARK    5  A    between atoms: C_6  and  O_7 
REMARK    6  A    between atoms: O_8  and  C_9 
REMARK    7  A    between atoms: C_10  and  O_32 
REMARK    8  A    between atoms: C_11  and  O_31 
REMARK    9  A    between atoms: C_12  and  O_18 
REMARK   10  A    between atoms: C_14  and  C_15 
REMARK   11  A    between atoms: C_15  and  O_17 
REMARK   12  A    between atoms: O_18  and  C_19 
REMARK   13  A    between atoms: C_20  and  O_30 
REMARK   14  A    between atoms: C_21  and  O_29 
REMARK   15  A    between atoms: C_22  and  O_28 
REMARK   16  A    between atoms: C_24  and  C_25 
REMARK   17  A    between atoms: C_25  and  O_26 
ROOT
HETATM    1  C   UNL     1     -17.877 -11.772  -4.213  1.00  0.00     0.195 C 
HETATM    2  C   UNL     1     -19.209 -11.978  -3.487  1.00  0.00     0.183 C 
HETATM    3  C   UNL     1     -20.377 -11.746  -4.460  1.00  0.00     0.204 C 
HETATM    4  C   UNL     1     -20.303 -10.408  -5.276  1.00  0.00     0.293 C 
HETATM    5  O   UNL     1     -18.974 -10.106  -5.707  1.00  0.00    -0.340 OA
HETATM    6  C   UNL     1     -17.931 -10.301  -4.729  1.00  0.00     0.253 C 
ENDROOT
BRANCH   4   7
HETATM    7  O   UNL     1     -21.079  -9.326  -4.739  1.00  0.00    -0.347 OA
BRANCH   7   8
HETATM    8  C   UNL     1     -20.435  -8.162  -4.144  1.00  0.00     0.195 C 
HETATM    9  C   UNL     1     -20.578  -8.309  -2.592  1.00  0.00     0.183 C 
HETATM   10  C   UNL     1     -21.994  -7.944  -2.081  1.00  0.00     0.204 C 
HETATM   11  C   UNL     1     -22.499  -6.603  -2.652  1.00  0.00     0.289 C 
HETATM   12  O   UNL     1     -22.335  -6.559  -4.068  1.00  0.00    -0.341 OA
HETATM   13  C   UNL     1     -20.948  -6.736  -4.468  1.00  0.00     0.258 C 
BRANCH   9  14
HETATM   14  O   UNL     1     -19.629  -7.471  -1.909  1.00  0.00    -0.390 OA
HETATM   15  H   UNL     1     -20.170  -6.849  -1.378  1.00  0.00     0.210 HD
ENDBRANCH   9  14
BRANCH  10  16
HETATM   16  O   UNL     1     -21.973  -7.875  -0.638  1.00  0.00    -0.388 OA
HETATM   17  H   UNL     1     -22.733  -8.388  -0.304  1.00  0.00     0.210 HD
ENDBRANCH  10  16
BRANCH  11  18
HETATM   18  O   UNL     1     -21.922  -5.478  -1.997  1.00  0.00    -0.368 OA
HETATM   19  H   UNL     1     -21.098  -5.790  -1.576  1.00  0.00     0.212 HD
ENDBRANCH  11  18
BRANCH  13  20
HETATM   20  C   UNL     1     -20.771  -6.343  -5.932  1.00  0.00     0.321 C 
HETATM   21  O   UNL     1     -21.567  -5.539  -6.479  1.00  0.00    -0.260 OA
BRANCH  20  22
HETATM   22  O   UNL     1     -19.696  -6.762  -6.509  1.00  0.00    -0.147 OA
HETATM   23 CA   UNL     2     -18.507  -8.255  -6.986  1.00  0.00     0.000 Ca
ENDBRANCH  20  22
ENDBRANCH  13  20
ENDBRANCH   7   8
ENDBRANCH   4   7
BRANCH   3  24
HETATM   24  O   UNL     1     -21.640 -11.931  -3.818  1.00  0.00    -0.388 OA
HETATM   25  H   UNL     1     -21.795 -11.136  -3.272  1.00  0.00     0.210 HD
ENDBRANCH   3  24
BRANCH   2  26
HETATM   26  O   UNL     1     -19.272 -11.072  -2.392  1.00  0.00    -0.390 OA
HETATM   27  H   UNL     1     -20.065 -10.508  -2.509  1.00  0.00     0.210 HD
ENDBRANCH   2  26
BRANCH   6  28
HETATM   28  C   UNL     1     -16.568  -9.941  -5.323  1.00  0.00     0.172 C 
HETATM   29  O   UNL     1     -16.400  -9.290  -6.342  1.00  0.00    -0.648 OA
BRANCH  28  30
HETATM   30  O   UNL     1     -15.528 -10.408  -4.580  1.00  0.00    -0.774 OA
HETATM   31  H   UNL     1     -14.645 -10.108  -4.937  1.00  0.00     0.167 HD
ENDBRANCH  28  30
ENDBRANCH   6  28
BRANCH   1  32
HETATM   32  O   UNL     1     -17.713 -12.686  -5.321  1.00  0.00    -0.347 OA
BRANCH  32  33
HETATM   33  C   UNL     1     -16.653 -13.688  -5.251  1.00  0.00     0.293 C 
HETATM   34  O   UNL     1     -15.510 -13.216  -4.542  1.00  0.00    -0.340 OA
HETATM   35  C   UNL     1     -14.586 -14.336  -4.284  1.00  0.00     0.256 C 
HETATM   36  C   UNL     1     -14.026 -14.896  -5.598  1.00  0.00     0.189 C 
HETATM   37  C   UNL     1     -15.193 -15.440  -6.422  1.00  0.00     0.183 C 
HETATM   38  C   UNL     1     -16.284 -14.378  -6.603  1.00  0.00     0.204 C 
BRANCH  35  39
HETATM   39  C   UNL     1     -13.464 -13.917  -3.309  1.00  0.00     0.206 C 
HETATM   40  O   UNL     1     -13.162 -14.766  -2.420  1.00  0.00    -0.646 OA
HETATM   41  O   UNL     1     -12.976 -12.767  -3.528  1.00  0.00    -0.646 OA
ENDBRANCH  35  39
BRANCH  36  42
HETATM   42  O   UNL     1     -13.365 -13.865  -6.349  1.00  0.00    -0.390 OA
HETATM   43  H   UNL     1     -13.943 -13.074  -6.198  1.00  0.00     0.210 HD
ENDBRANCH  36  42
BRANCH  37  44
HETATM   44  O   UNL     1     -15.750 -16.599  -5.778  1.00  0.00    -0.390 OA
HETATM   45  H   UNL     1     -15.650 -16.416  -4.822  1.00  0.00     0.210 HD
ENDBRANCH  37  44
BRANCH  38  46
HETATM   46  O   UNL     1     -17.457 -15.020  -7.152  1.00  0.00    -0.388 OA
HETATM   47  H   UNL     1     -18.238 -14.618  -6.719  1.00  0.00     0.210 HD
ENDBRANCH  38  46
ENDBRANCH  32  33
ENDBRANCH   1  32
TORSDOF 17
BEGIN_RES ARG D 557
REMARK  4 active torsions:
REMARK  status: ('A' for Active; 'I' for Inactive)
REMARK    1  A    between atoms: CA   and  CB  
REMARK    2  A    between atoms: CB   and  CG  
REMARK    3  A    between atoms: CG   and  CD  
REMARK    4  A    between atoms: CD   and  NE  
REMARK       I    between atoms: NE   and  CZ  
REMARK       I    between atoms: CZ   and  NH1 
REMARK       I    between atoms: CZ   and  NH2 
ROOT
ATOM      1  CA  ARG D 557     -26.217   2.705 -17.014  1.00 35.49     0.159 C 
ENDROOT
BRANCH   1   2
ATOM      2  CB  ARG D 557     -26.789   1.319 -17.183  1.00 35.49     0.034 C 
BRANCH   2   3
ATOM      3  CG  ARG D 557     -25.837   0.202 -17.141  1.00 35.49     0.027 C 
BRANCH   3   4
ATOM      4  CD  ARG D 557     -24.755   0.419 -16.154  1.00 35.49     0.116 C 
BRANCH   4   5
ATOM      5  NE  ARG D 557     -24.890  -0.436 -15.005  1.00 35.49    -0.212 N 
ATOM      6  CZ  ARG D 557     -24.067  -1.403 -14.666  1.00 35.49     0.666 C 
ATOM      7  NH1 ARG D 557     -23.000  -1.709 -15.380  1.00 35.49    -0.235 N 
ATOM      8  NH2 ARG D 557     -24.334  -2.064 -13.577  1.00 35.49    -0.235 N 
ATOM      9  HH  ARG D 557     -22.804  -1.286 -16.099  1.00 35.49     0.174 HD
ATOM     10  HH  ARG D 557     -22.498  -2.348 -15.109  1.00 35.49     0.174 HD
ATOM     11  HH  ARG D 557     -25.025  -1.840 -13.131  1.00 35.49     0.174 HD
ATOM     12  HH  ARG D 557     -23.823  -2.692 -13.324  1.00 35.49     0.174 HD
ATOM     13  HE  ARG D 557     -25.590  -0.356 -14.527  1.00 35.49     0.178 HD
ENDBRANCH   4   5
ENDBRANCH   3   4
ENDBRANCH   2   3
ENDBRANCH   1   2
END_RES ARG D 557
BEGIN_RES GLU D 570
REMARK  3 active torsions:
REMARK  status: ('A' for Active; 'I' for Inactive)
REMARK    5  A    between atoms: CA   and  CB  
REMARK    6  A    between atoms: CB   and  CG  
REMARK    7  A    between atoms: CG   and  CD  
ROOT
ATOM     14  CA  GLU D 570     -18.033  -6.348 -13.375  1.00 32.92     0.160 C 
ENDROOT
BRANCH  14  15
ATOM     15  CB  GLU D 570     -19.500  -6.345 -13.794  1.00 32.92     0.043 C 
BRANCH  15  16
ATOM     16  CG  GLU D 570     -20.444  -5.539 -12.977  1.00 32.92     0.100 C 
BRANCH  16  17
ATOM     17  CD  GLU D 570     -21.730  -5.223 -13.703  1.00 32.92     0.185 C 
ATOM     18  OE1 GLU D 570     -22.197  -6.060 -14.500  1.00 32.92    -0.647 OA
ATOM     19  OE2 GLU D 570     -22.269  -4.120 -13.486  1.00 32.92    -0.647 OA
ENDBRANCH  16  17
ENDBRANCH  15  16
ENDBRANCH  14  15
END_RES GLU D 570
ENDMDL
MODEL 6
REMARK VINA RESULT:      -7.4      8.147     12.958
REMARK  17 active torsions:
REMARK  status: ('A' for Active; 'I' for Inactive)
REMARK    1  A    between atoms: C_1  and  O_37 
REMARK    2  A    between atoms: C_2  and  O_36 
REMARK    3  A    between atoms: C_3  and  C_33 
REMARK    4  A    between atoms: C_5  and  O_8 
REMARK    5  A    between atoms: C_6  and  O_7 
REMARK    6  A    between atoms: O_8  and  C_9 
REMARK    7  A    between atoms: C_10  and  O_32 
REMARK    8  A    between atoms: C_11  and  O_31 
REMARK    9  A    between atoms: C_12  and  O_18 
REMARK   10  A    between atoms: C_14  and  C_15 
REMARK   11  A    between atoms: C_15  and  O_17 
REMARK   12  A    between atoms: O_18  and  C_19 
REMARK   13  A    between atoms: C_20  and  O_30 
REMARK   14  A    between atoms: C_21  and  O_29 
REMARK   15  A    between atoms: C_22  and  O_28 
REMARK   16  A    between atoms: C_24  and  C_25 
REMARK   17  A    between atoms: C_25  and  O_26 
ROOT
HETATM    1  C   UNL     1     -16.239 -11.676  -5.604  1.00  0.00     0.195 C 
HETATM    2  C   UNL     1     -15.874 -10.504  -4.690  1.00  0.00     0.183 C 
HETATM    3  C   UNL     1     -16.963 -10.314  -3.622  1.00  0.00     0.204 C 
HETATM    4  C   UNL     1     -18.430 -10.250  -4.175  1.00  0.00     0.293 C 
HETATM    5  O   UNL     1     -18.654 -11.185  -5.232  1.00  0.00    -0.340 OA
HETATM    6  C   UNL     1     -17.613 -11.279  -6.227  1.00  0.00     0.253 C 
ENDROOT
BRANCH   4   7
HETATM    7  O   UNL     1     -18.954  -8.925  -4.352  1.00  0.00    -0.347 OA
BRANCH   7   8
HETATM    8  C   UNL     1     -20.196  -8.698  -5.081  1.00  0.00     0.195 C 
HETATM    9  C   UNL     1     -20.108  -7.257  -5.685  1.00  0.00     0.183 C 
HETATM   10  C   UNL     1     -20.372  -6.147  -4.638  1.00  0.00     0.204 C 
HETATM   11  C   UNL     1     -21.637  -6.419  -3.798  1.00  0.00     0.289 C 
HETATM   12  O   UNL     1     -21.630  -7.749  -3.284  1.00  0.00    -0.341 OA
HETATM   13  C   UNL     1     -21.555  -8.747  -4.339  1.00  0.00     0.258 C 
BRANCH   9  14
HETATM   14  O   UNL     1     -21.055  -7.092  -6.756  1.00  0.00    -0.390 OA
HETATM   15  H   UNL     1     -21.925  -6.990  -6.317  1.00  0.00     0.210 HD
ENDBRANCH   9  14
BRANCH  10  16
HETATM   16  O   UNL     1     -20.509  -4.879  -5.317  1.00  0.00    -0.388 OA
HETATM   17  H   UNL     1     -19.754  -4.318  -5.055  1.00  0.00     0.210 HD
ENDBRANCH  10  16
BRANCH  11  18
HETATM   18  O   UNL     1     -22.837  -6.107  -4.499  1.00  0.00    -0.368 OA
HETATM   19  H   UNL     1     -22.799  -5.153  -4.709  1.00  0.00     0.212 HD
ENDBRANCH  11  18
BRANCH  13  20
HETATM   20  C   UNL     1     -21.895 -10.127  -3.780  1.00  0.00     0.321 C 
HETATM   21  O   UNL     1     -22.236 -10.264  -2.579  1.00  0.00    -0.260 OA
BRANCH  20  22
HETATM   22  O   UNL     1     -21.951 -11.090  -4.636  1.00  0.00    -0.147 OA
HETATM   23 CA   UNL     2     -22.440 -12.948  -5.059  1.00  0.00     0.000 Ca
ENDBRANCH  20  22
ENDBRANCH  13  20
ENDBRANCH   7   8
ENDBRANCH   4   7
BRANCH   3  24
HETATM   24  O   UNL     1     -16.656  -9.227  -2.747  1.00  0.00    -0.388 OA
HETATM   25  H   UNL     1     -16.736  -8.410  -3.277  1.00  0.00     0.210 HD
ENDBRANCH   3  24
BRANCH   2  26
HETATM   26  O   UNL     1     -15.735  -9.334  -5.488  1.00  0.00    -0.390 OA
HETATM   27  H   UNL     1     -16.612  -8.900  -5.545  1.00  0.00     0.210 HD
ENDBRANCH   2  26
BRANCH   6  28
HETATM   28  C   UNL     1     -17.983 -12.313  -7.293  1.00  0.00     0.172 C 
HETATM   29  O   UNL     1     -19.033 -12.327  -7.917  1.00  0.00    -0.648 OA
BRANCH  28  30
HETATM   30  O   UNL     1     -17.001 -13.230  -7.503  1.00  0.00    -0.774 OA
HETATM   31  H   UNL     1     -16.848 -13.809  -6.704  1.00  0.00     0.167 HD
ENDBRANCH  28  30
ENDBRANCH   6  28
BRANCH   1  32
HETATM   32  O   UNL     1     -16.360 -12.919  -4.876  1.00  0.00    -0.347 OA
BRANCH  32  33
HETATM   33  C   UNL     1     -15.151 -13.692  -4.604  1.00  0.00     0.293 C 
HETATM   34  O   UNL     1     -14.944 -14.725  -5.564  1.00  0.00    -0.340 OA
HETATM   35  C   UNL     1     -13.598 -15.302  -5.393  1.00  0.00     0.256 C 
HETATM   36  C   UNL     1     -13.473 -16.002  -4.034  1.00  0.00     0.189 C 
HETATM   37  C   UNL     1     -13.670 -14.957  -2.937  1.00  0.00     0.183 C 
HETATM   38  C   UNL     1     -14.984 -14.191  -3.133  1.00  0.00     0.204 C 
BRANCH  35  39
HETATM   39  C   UNL     1     -13.244 -16.244  -6.565  1.00  0.00     0.206 C 
HETATM   40  O   UNL     1     -14.225 -16.785  -7.152  1.00  0.00    -0.646 OA
HETATM   41  O   UNL     1     -12.001 -16.353  -6.797  1.00  0.00    -0.646 OA
ENDBRANCH  35  39
BRANCH  36  42
HETATM   42  O   UNL     1     -14.475 -17.022  -3.893  1.00  0.00    -0.390 OA
HETATM   43  H   UNL     1     -14.959 -16.745  -3.073  1.00  0.00     0.210 HD
ENDBRANCH  36  42
BRANCH  37  44
HETATM   44  O   UNL     1     -12.568 -14.031  -2.936  1.00  0.00    -0.390 OA
HETATM   45  H   UNL     1     -11.809 -14.560  -2.616  1.00  0.00     0.210 HD
ENDBRANCH  37  44
BRANCH  38  46
HETATM   46  O   UNL     1     -14.988 -13.058  -2.237  1.00  0.00    -0.388 OA
HETATM   47  H   UNL     1     -15.303 -13.377  -1.366  1.00  0.00     0.210 HD
ENDBRANCH  38  46
ENDBRANCH  32  33
ENDBRANCH   1  32
TORSDOF 17
BEGIN_RES ARG D 557
REMARK  4 active torsions:
REMARK  status: ('A' for Active; 'I' for Inactive)
REMARK    1  A    between atoms: CA   and  CB  
REMARK    2  A    between atoms: CB   and  CG  
REMARK    3  A    between atoms: CG   and  CD  
REMARK    4  A    between atoms: CD   and  NE  
REMARK       I    between atoms: NE   and  CZ  
REMARK       I    between atoms: CZ   and  NH1 
REMARK       I    between atoms: CZ   and  NH2 
ROOT
ATOM      1  CA  ARG D 557     -26.217   2.705 -17.014  1.00 35.49     0.159 C 
ENDROOT
BRANCH   1   2
ATOM      2  CB  ARG D 557     -26.789   1.319 -17.183  1.00 35.49     0.034 C 
BRANCH   2   3
ATOM      3  CG  ARG D 557     -25.840   0.200 -17.119  1.00 35.49     0.027 C 
BRANCH   3   4
ATOM      4  CD  ARG D 557     -24.760   0.433 -16.134  1.00 35.49     0.116 C 
BRANCH   4   5
ATOM      5  NE  ARG D 557     -24.859  -0.451 -15.002  1.00 35.49    -0.212 N 
ATOM      6  CZ  ARG D 557     -24.014  -1.411 -14.701  1.00 35.49     0.666 C 
ATOM      7  NH1 ARG D 557     -22.956  -1.684 -15.443  1.00 35.49    -0.235 N 
ATOM      8  NH2 ARG D 557     -24.249  -2.101 -13.623  1.00 35.49    -0.235 N 
ATOM      9  HH  ARG D 557     -22.781  -1.241 -16.156  1.00 35.49     0.174 HD
ATOM     10  HH  ARG D 557     -22.439  -2.320 -15.196  1.00 35.49     0.174 HD
ATOM     11  HH  ARG D 557     -24.935  -1.898 -13.160  1.00 35.49     0.174 HD
ATOM     12  HH  ARG D 557     -23.724  -2.727 -13.394  1.00 35.49     0.174 HD
ATOM     13  HE  ARG D 557     -25.550  -0.393 -14.510  1.00 35.49     0.178 HD
ENDBRANCH   4   5
ENDBRANCH   3   4
ENDBRANCH   2   3
ENDBRANCH   1   2
END_RES ARG D 557
BEGIN_RES GLU D 570
REMARK  3 active torsions:
REMARK  status: ('A' for Active; 'I' for Inactive)
REMARK    5  A    between atoms: CA   and  CB  
REMARK    6  A    between atoms: CB   and  CG  
REMARK    7  A    between atoms: CG   and  CD  
ROOT
ATOM     14  CA  GLU D 570     -18.033  -6.348 -13.375  1.00 32.92     0.160 C 
ENDROOT
BRANCH  14  15
ATOM     15  CB  GLU D 570     -19.500  -6.345 -13.794  1.00 32.92     0.043 C 
BRANCH  15  16
ATOM     16  CG  GLU D 570     -20.449  -5.565 -12.959  1.00 32.92     0.100 C 
BRANCH  16  17
ATOM     17  CD  GLU D 570     -21.649  -5.072 -13.734  1.00 32.92     0.185 C 
ATOM     18  OE1 GLU D 570     -22.640  -4.646 -13.109  1.00 32.92    -0.647 OA
ATOM     19  OE2 GLU D 570     -21.604  -5.128 -14.978  1.00 32.92    -0.647 OA
ENDBRANCH  16  17
ENDBRANCH  15  16
ENDBRANCH  14  15
END_RES GLU D 570
ENDMDL
MODEL 7
REMARK VINA RESULT:      -7.3      9.050     13.953
REMARK  17 active torsions:
REMARK  status: ('A' for Active; 'I' for Inactive)
REMARK    1  A    between atoms: C_1  and  O_37 
REMARK    2  A    between atoms: C_2  and  O_36 
REMARK    3  A    between atoms: C_3  and  C_33 
REMARK    4  A    between atoms: C_5  and  O_8 
REMARK    5  A    between atoms: C_6  and  O_7 
REMARK    6  A    between atoms: O_8  and  C_9 
REMARK    7  A    between atoms: C_10  and  O_32 
REMARK    8  A    between atoms: C_11  and  O_31 
REMARK    9  A    between atoms: C_12  and  O_18 
REMARK   10  A    between atoms: C_14  and  C_15 
REMARK   11  A    between atoms: C_15  and  O_17 
REMARK   12  A    between atoms: O_18  and  C_19 
REMARK   13  A    between atoms: C_20  and  O_30 
REMARK   14  A    between atoms: C_21  and  O_29 
REMARK   15  A    between atoms: C_22  and  O_28 
REMARK   16  A    between atoms: C_24  and  C_25 
REMARK   17  A    between atoms: C_25  and  O_26 
ROOT
HETATM    1  C   UNL     1     -18.358 -10.959  -1.508  1.00  0.00     0.195 C 
HETATM    2  C   UNL     1     -18.449 -10.769  -3.023  1.00  0.00     0.183 C 
HETATM    3  C   UNL     1     -18.581 -12.136  -3.715  1.00  0.00     0.204 C 
HETATM    4  C   UNL     1     -17.520 -13.205  -3.275  1.00  0.00     0.293 C 
HETATM    5  O   UNL     1     -17.255 -13.163  -1.871  1.00  0.00    -0.340 OA
HETATM    6  C   UNL     1     -17.096 -11.850  -1.295  1.00  0.00     0.253 C 
ENDROOT
BRANCH   4   7
HETATM    7  O   UNL     1     -16.389 -13.335  -4.151  1.00  0.00    -0.347 OA
BRANCH   7   8
HETATM    8  C   UNL     1     -16.199 -14.531  -4.961  1.00  0.00     0.195 C 
HETATM    9  C   UNL     1     -15.107 -15.393  -4.245  1.00  0.00     0.183 C 
HETATM   10  C   UNL     1     -13.671 -14.858  -4.471  1.00  0.00     0.204 C 
HETATM   11  C   UNL     1     -13.384 -14.556  -5.956  1.00  0.00     0.289 C 
HETATM   12  O   UNL     1     -14.424 -13.763  -6.525  1.00  0.00    -0.341 OA
HETATM   13  C   UNL     1     -15.723 -14.409  -6.431  1.00  0.00     0.258 C 
BRANCH   9  14
HETATM   14  O   UNL     1     -15.150 -16.757  -4.701  1.00  0.00    -0.390 OA
HETATM   15  H   UNL     1     -14.448 -17.220  -4.197  1.00  0.00     0.210 HD
ENDBRANCH   9  14
BRANCH  10  16
HETATM   16  O   UNL     1     -12.721 -15.831  -3.985  1.00  0.00    -0.388 OA
HETATM   17  H   UNL     1     -12.635 -16.527  -4.664  1.00  0.00     0.210 HD
ENDBRANCH  10  16
BRANCH  11  18
HETATM   18  O   UNL     1     -13.113 -15.732  -6.712  1.00  0.00    -0.368 OA
HETATM   19  H   UNL     1     -13.674 -16.440  -6.339  1.00  0.00     0.212 HD
ENDBRANCH  11  18
BRANCH  13  20
HETATM   20  C   UNL     1     -16.727 -13.704  -7.340  1.00  0.00     0.321 C 
HETATM   21  O   UNL     1     -17.466 -14.366  -8.111  1.00  0.00    -0.260 OA
BRANCH  20  22
HETATM   22  O   UNL     1     -16.864 -12.434  -7.161  1.00  0.00    -0.147 OA
HETATM   23 CA   UNL     2     -16.799 -10.881  -5.955  1.00  0.00     0.000 Ca
ENDBRANCH  20  22
ENDBRANCH  13  20
ENDBRANCH   7   8
ENDBRANCH   4   7
BRANCH   3  24
HETATM   24  O   UNL     1     -18.669 -12.000  -5.135  1.00  0.00    -0.388 OA
HETATM   25  H   UNL     1     -17.764 -11.822  -5.455  1.00  0.00     0.210 HD
ENDBRANCH   3  24
BRANCH   2  26
HETATM   26  O   UNL     1     -17.282 -10.086  -3.465  1.00  0.00    -0.390 OA
HETATM   27  H   UNL     1     -17.105  -9.352  -2.841  1.00  0.00     0.210 HD
ENDBRANCH   2  26
BRANCH   6  28
HETATM   28  C   UNL     1     -16.819 -11.955   0.206  1.00  0.00     0.172 C 
HETATM   29  O   UNL     1     -15.821 -11.526   0.764  1.00  0.00    -0.648 OA
BRANCH  28  30
HETATM   30  O   UNL     1     -17.824 -12.569   0.887  1.00  0.00    -0.774 OA
HETATM   31  H   UNL     1     -17.479 -13.185   1.594  1.00  0.00     0.167 HD
ENDBRANCH  28  30
ENDBRANCH   6  28
BRANCH   1  32
HETATM   32  O   UNL     1     -19.529 -11.612  -0.968  1.00  0.00    -0.347 OA
BRANCH  32  33
HETATM   33  C   UNL     1     -20.801 -10.894  -0.980  1.00  0.00     0.293 C 
HETATM   34  O   UNL     1     -20.623  -9.484  -1.098  1.00  0.00    -0.340 OA
HETATM   35  C   UNL     1     -21.922  -8.838  -1.358  1.00  0.00     0.256 C 
HETATM   36  C   UNL     1     -22.868  -9.013  -0.163  1.00  0.00     0.189 C 
HETATM   37  C   UNL     1     -23.126 -10.507   0.028  1.00  0.00     0.183 C 
HETATM   38  C   UNL     1     -21.809 -11.284   0.147  1.00  0.00     0.204 C 
BRANCH  35  39
HETATM   39  C   UNL     1     -21.737  -7.351  -1.737  1.00  0.00     0.206 C 
HETATM   40  O   UNL     1     -20.837  -7.109  -2.592  1.00  0.00    -0.646 OA
HETATM   41  O   UNL     1     -22.525  -6.554  -1.143  1.00  0.00    -0.646 OA
ENDBRANCH  35  39
BRANCH  36  42
HETATM   42  O   UNL     1     -22.278  -8.484   1.035  1.00  0.00    -0.390 OA
HETATM   43  H   UNL     1     -21.466  -8.024   0.699  1.00  0.00     0.210 HD
ENDBRANCH  36  42
BRANCH  37  44
HETATM   44  O   UNL     1     -23.890 -11.019  -1.078  1.00  0.00    -0.390 OA
HETATM   45  H   UNL     1     -24.374 -11.783  -0.704  1.00  0.00     0.210 HD
ENDBRANCH  37  44
BRANCH  38  46
HETATM   46  O   UNL     1     -22.105 -12.696   0.060  1.00  0.00    -0.388 OA
HETATM   47  H   UNL     1     -22.849 -12.875   0.673  1.00  0.00     0.210 HD
ENDBRANCH  38  46
ENDBRANCH  32  33
ENDBRANCH   1  32
TORSDOF 17
BEGIN_RES ARG D 557
REMARK  4 active torsions:
REMARK  status: ('A' for Active; 'I' for Inactive)
REMARK    1  A    between atoms: CA   and  CB  
REMARK    2  A    between atoms: CB   and  CG  
REMARK    3  A    between atoms: CG   and  CD  
REMARK    4  A    between atoms: CD   and  NE  
REMARK       I    between atoms: NE   and  CZ  
REMARK       I    between atoms: CZ   and  NH1 
REMARK       I    between atoms: CZ   and  NH2 
ROOT
ATOM      1  CA  ARG D 557     -26.217   2.705 -17.014  1.00 35.49     0.159 C 
ENDROOT
BRANCH   1   2
ATOM      2  CB  ARG D 557     -26.789   1.319 -17.183  1.00 35.49     0.034 C 
BRANCH   2   3
ATOM      3  CG  ARG D 557     -25.924   0.196 -16.800  1.00 35.49     0.027 C 
BRANCH   3   4
ATOM      4  CD  ARG D 557     -26.667  -0.874 -16.097  1.00 35.49     0.116 C 
BRANCH   4   5
ATOM      5  NE  ARG D 557     -25.870  -1.510 -15.081  1.00 35.49    -0.212 N 
ATOM      6  CZ  ARG D 557     -25.909  -2.784 -14.760  1.00 35.49     0.666 C 
ATOM      7  NH1 ARG D 557     -26.725  -3.639 -15.349  1.00 35.49    -0.235 N 
ATOM      8  NH2 ARG D 557     -25.098  -3.193 -13.828  1.00 35.49    -0.235 N 
ATOM      9  HH  ARG D 557     -27.265  -3.392 -15.966  1.00 35.49     0.174 HD
ATOM     10  HH  ARG D 557     -26.704  -4.459 -15.100  1.00 35.49     0.174 HD
ATOM     11  HH  ARG D 557     -24.578  -2.620 -13.471  1.00 35.49     0.174 HD
ATOM     12  HH  ARG D 557     -25.092  -4.009 -13.596  1.00 35.49     0.174 HD
ATOM     13  HE  ARG D 557     -25.368  -1.019 -14.602  1.00 35.49     0.178 HD
ENDBRANCH   4   5
ENDBRANCH   3   4
ENDBRANCH   2   3
ENDBRANCH   1   2
END_RES ARG D 557
BEGIN_RES GLU D 570
REMARK  3 active torsions:
REMARK  status: ('A' for Active; 'I' for Inactive)
REMARK    5  A    between atoms: CA   and  CB  
REMARK    6  A    between atoms: CB   and  CG  
REMARK    7  A    between atoms: CG   and  CD  
ROOT
ATOM     14  CA  GLU D 570     -18.033  -6.348 -13.375  1.00 32.92     0.160 C 
ENDROOT
BRANCH  14  15
ATOM     15  CB  GLU D 570     -19.500  -6.345 -13.794  1.00 32.92     0.043 C 
BRANCH  15  16
ATOM     16  CG  GLU D 570     -20.441  -5.527 -12.986  1.00 32.92     0.100 C 
BRANCH  16  17
ATOM     17  CD  GLU D 570     -21.733  -5.228 -13.710  1.00 32.92     0.185 C 
ATOM     18  OE1 GLU D 570     -22.169  -6.053 -14.535  1.00 32.92    -0.647 OA
ATOM     19  OE2 GLU D 570     -22.306  -4.149 -13.461  1.00 32.92    -0.647 OA
ENDBRANCH  16  17
ENDBRANCH  15  16
ENDBRANCH  14  15
END_RES GLU D 570
ENDMDL
MODEL 8
REMARK VINA RESULT:      -7.3     10.021     14.684
REMARK  17 active torsions:
REMARK  status: ('A' for Active; 'I' for Inactive)
REMARK    1  A    between atoms: C_1  and  O_37 
REMARK    2  A    between atoms: C_2  and  O_36 
REMARK    3  A    between atoms: C_3  and  C_33 
REMARK    4  A    between atoms: C_5  and  O_8 
REMARK    5  A    between atoms: C_6  and  O_7 
REMARK    6  A    between atoms: O_8  and  C_9 
REMARK    7  A    between atoms: C_10  and  O_32 
REMARK    8  A    between atoms: C_11  and  O_31 
REMARK    9  A    between atoms: C_12  and  O_18 
REMARK   10  A    between atoms: C_14  and  C_15 
REMARK   11  A    between atoms: C_15  and  O_17 
REMARK   12  A    between atoms: O_18  and  C_19 
REMARK   13  A    between atoms: C_20  and  O_30 
REMARK   14  A    between atoms: C_21  and  O_29 
REMARK   15  A    between atoms: C_22  and  O_28 
REMARK   16  A    between atoms: C_24  and  C_25 
REMARK   17  A    between atoms: C_25  and  O_26 
ROOT
HETATM    1  C   UNL     1     -18.707 -11.557  -2.143  1.00  0.00     0.195 C 
HETATM    2  C   UNL     1     -18.932 -13.053  -1.910  1.00  0.00     0.183 C 
HETATM    3  C   UNL     1     -18.138 -13.515  -0.677  1.00  0.00     0.204 C 
HETATM    4  C   UNL     1     -16.626 -13.095  -0.667  1.00  0.00     0.293 C 
HETATM    5  O   UNL     1     -16.428 -11.768  -1.160  1.00  0.00    -0.340 OA
HETATM    6  C   UNL     1     -17.167 -11.416  -2.347  1.00  0.00     0.253 C 
ENDROOT
BRANCH   4   7
HETATM    7  O   UNL     1     -15.713 -14.105  -1.120  1.00  0.00    -0.347 OA
BRANCH   7   8
HETATM    8  C   UNL     1     -14.457 -13.748  -1.768  1.00  0.00     0.195 C 
HETATM    9  C   UNL     1     -14.690 -13.882  -3.310  1.00  0.00     0.183 C 
HETATM   10  C   UNL     1     -14.669 -15.353  -3.797  1.00  0.00     0.204 C 
HETATM   11  C   UNL     1     -13.454 -16.134  -3.257  1.00  0.00     0.289 C 
HETATM   12  O   UNL     1     -13.322 -15.959  -1.848  1.00  0.00    -0.341 OA
HETATM   13  C   UNL     1     -13.171 -14.561  -1.478  1.00  0.00     0.258 C 
BRANCH   9  14
HETATM   14  O   UNL     1     -13.688 -13.156  -4.045  1.00  0.00    -0.390 OA
HETATM   15  H   UNL     1     -12.863 -13.673  -3.935  1.00  0.00     0.210 HD
ENDBRANCH   9  14
BRANCH  10  16
HETATM   16  O   UNL     1     -14.651 -15.373  -5.242  1.00  0.00    -0.388 OA
HETATM   17  H   UNL     1     -14.608 -14.448  -5.551  1.00  0.00     0.210 HD
ENDBRANCH  10  16
BRANCH  11  18
HETATM   18  O   UNL     1     -12.253 -15.835  -3.963  1.00  0.00    -0.368 OA
HETATM   19  H   UNL     1     -12.503 -15.255  -4.708  1.00  0.00     0.212 HD
ENDBRANCH  11  18
BRANCH  13  20
HETATM   20  C   UNL     1     -12.693 -14.450  -0.032  1.00  0.00     0.321 C 
HETATM   21  O   UNL     1     -13.403 -14.880   0.911  1.00  0.00    -0.260 OA
BRANCH  20  22
HETATM   22  O   UNL     1     -11.484 -14.034   0.139  1.00  0.00    -0.147 OA
HETATM   23 CA   UNL     2     -10.244 -12.551   0.505  1.00  0.00     0.000 Ca
ENDBRANCH  20  22
ENDBRANCH  13  20
ENDBRANCH   7   8
ENDBRANCH   4   7
BRANCH   3  24
HETATM   24  O   UNL     1     -18.324 -14.910  -0.425  1.00  0.00    -0.388 OA
HETATM   25  H   UNL     1     -19.232 -15.014  -0.081  1.00  0.00     0.210 HD
ENDBRANCH   3  24
BRANCH   2  26
HETATM   26  O   UNL     1     -18.520 -13.759  -3.074  1.00  0.00    -0.390 OA
HETATM   27  H   UNL     1     -17.551 -13.648  -3.171  1.00  0.00     0.210 HD
ENDBRANCH   2  26
BRANCH   6  28
HETATM   28  C   UNL     1     -16.860  -9.975  -2.760  1.00  0.00     0.172 C 
HETATM   29  O   UNL     1     -15.766  -9.440  -2.666  1.00  0.00    -0.648 OA
BRANCH  28  30
HETATM   30  O   UNL     1     -17.941  -9.331  -3.275  1.00  0.00    -0.774 OA
HETATM   31  H   UNL     1     -18.782  -9.552  -2.784  1.00  0.00     0.167 HD
ENDBRANCH  28  30
ENDBRANCH   6  28
BRANCH   1  32
HETATM   32  O   UNL     1     -19.139 -10.758  -1.018  1.00  0.00    -0.347 OA
BRANCH  32  33
HETATM   33  C   UNL     1     -20.452 -10.121  -1.075  1.00  0.00     0.293 C 
HETATM   34  O   UNL     1     -20.381  -8.780  -1.552  1.00  0.00    -0.340 OA
HETATM   35  C   UNL     1     -21.738  -8.275  -1.827  1.00  0.00     0.256 C 
HETATM   36  C   UNL     1     -22.560  -8.186  -0.535  1.00  0.00     0.189 C 
HETATM   37  C   UNL     1     -22.699  -9.594   0.042  1.00  0.00     0.183 C 
HETATM   38  C   UNL     1     -21.327 -10.260   0.211  1.00  0.00     0.204 C 
BRANCH  35  39
HETATM   39  C   UNL     1     -21.689  -6.925  -2.576  1.00  0.00     0.206 C 
HETATM   40  O   UNL     1     -20.934  -6.885  -3.591  1.00  0.00    -0.646 OA
HETATM   41  O   UNL     1     -22.424  -6.019  -2.078  1.00  0.00    -0.646 OA
ENDBRANCH  35  39
BRANCH  36  42
HETATM   42  O   UNL     1     -21.902  -7.349   0.430  1.00  0.00    -0.390 OA
HETATM   43  H   UNL     1     -22.399  -7.542   1.266  1.00  0.00     0.210 HD
ENDBRANCH  36  42
BRANCH  37  44
HETATM   44  O   UNL     1     -23.522 -10.399  -0.820  1.00  0.00    -0.390 OA
HETATM   45  H   UNL     1     -23.946  -9.753  -1.422  1.00  0.00     0.210 HD
ENDBRANCH  37  44
BRANCH  38  46
HETATM   46  O   UNL     1     -21.534 -11.659   0.504  1.00  0.00    -0.388 OA
HETATM   47  H   UNL     1     -21.943 -12.065  -0.288  1.00  0.00     0.210 HD
ENDBRANCH  38  46
ENDBRANCH  32  33
ENDBRANCH   1  32
TORSDOF 17
BEGIN_RES ARG D 557
REMARK  4 active torsions:
REMARK  status: ('A' for Active; 'I' for Inactive)
REMARK    1  A    between atoms: CA   and  CB  
REMARK    2  A    between atoms: CB   and  CG  
REMARK    3  A    between atoms: CG   and  CD  
REMARK    4  A    between atoms: CD   and  NE  
REMARK       I    between atoms: NE   and  CZ  
REMARK       I    between atoms: CZ   and  NH1 
REMARK       I    between atoms: CZ   and  NH2 
ROOT
ATOM      1  CA  ARG D 557     -26.217   2.705 -17.014  1.00 35.49     0.159 C 
ENDROOT
BRANCH   1   2
ATOM      2  CB  ARG D 557     -26.789   1.319 -17.183  1.00 35.49     0.034 C 
BRANCH   2   3
ATOM      3  CG  ARG D 557     -25.835   0.204 -17.163  1.00 35.49     0.027 C 
BRANCH   3   4
ATOM      4  CD  ARG D 557     -24.762   0.397 -16.161  1.00 35.49     0.116 C 
BRANCH   4   5
ATOM      5  NE  ARG D 557     -24.931  -0.456 -15.014  1.00 35.49    -0.212 N 
ATOM      6  CZ  ARG D 557     -24.124  -1.429 -14.654  1.00 35.49     0.666 C 
ATOM      7  NH1 ARG D 557     -23.042  -1.744 -15.343  1.00 35.49    -0.235 N 
ATOM      8  NH2 ARG D 557     -24.421  -2.086 -13.571  1.00 35.49    -0.235 N 
ATOM      9  HH  ARG D 557     -22.826  -1.323 -16.057  1.00 35.49     0.174 HD
ATOM     10  HH  ARG D 557     -22.552  -2.386 -15.059  1.00 35.49     0.174 HD
ATOM     11  HH  ARG D 557     -25.122  -1.856 -13.143  1.00 35.49     0.174 HD
ATOM     12  HH  ARG D 557     -23.922  -2.718 -13.306  1.00 35.49     0.174 HD
ATOM     13  HE  ARG D 557     -25.641  -0.370 -14.554  1.00 35.49     0.178 HD
ENDBRANCH   4   5
ENDBRANCH   3   4
ENDBRANCH   2   3
ENDBRANCH   1   2
END_RES ARG D 557
BEGIN_RES GLU D 570
REMARK  3 active torsions:
REMARK  status: ('A' for Active; 'I' for Inactive)
REMARK    5  A    between atoms: CA   and  CB  
REMARK    6  A    between atoms: CB   and  CG  
REMARK    7  A    between atoms: CG   and  CD  
ROOT
ATOM     14  CA  GLU D 570     -18.033  -6.348 -13.375  1.00 32.92     0.160 C 
ENDROOT
BRANCH  14  15
ATOM     15  CB  GLU D 570     -19.500  -6.345 -13.794  1.00 32.92     0.043 C 
BRANCH  15  16
ATOM     16  CG  GLU D 570     -20.441  -5.527 -12.986  1.00 32.92     0.100 C 
BRANCH  16  17
ATOM     17  CD  GLU D 570     -21.615  -5.015 -13.788  1.00 32.92     0.185 C 
ATOM     18  OE1 GLU D 570     -22.388  -4.188 -13.268  1.00 32.92    -0.647 OA
ATOM     19  OE2 GLU D 570     -21.772  -5.458 -14.943  1.00 32.92    -0.647 OA
ENDBRANCH  16  17
ENDBRANCH  15  16
ENDBRANCH  14  15
END_RES GLU D 570
ENDMDL
MODEL 9
REMARK VINA RESULT:      -7.2      7.224     11.813
REMARK  17 active torsions:
REMARK  status: ('A' for Active; 'I' for Inactive)
REMARK    1  A    between atoms: C_1  and  O_37 
REMARK    2  A    between atoms: C_2  and  O_36 
REMARK    3  A    between atoms: C_3  and  C_33 
REMARK    4  A    between atoms: C_5  and  O_8 
REMARK    5  A    between atoms: C_6  and  O_7 
REMARK    6  A    between atoms: O_8  and  C_9 
REMARK    7  A    between atoms: C_10  and  O_32 
REMARK    8  A    between atoms: C_11  and  O_31 
REMARK    9  A    between atoms: C_12  and  O_18 
REMARK   10  A    between atoms: C_14  and  C_15 
REMARK   11  A    between atoms: C_15  and  O_17 
REMARK   12  A    between atoms: O_18  and  C_19 
REMARK   13  A    between atoms: C_20  and  O_30 
REMARK   14  A    between atoms: C_21  and  O_29 
REMARK   15  A    between atoms: C_22  and  O_28 
REMARK   16  A    between atoms: C_24  and  C_25 
REMARK   17  A    between atoms: C_25  and  O_26 
ROOT
HETATM    1  C   UNL     1     -19.026  -9.381  -4.064  1.00  0.00     0.195 C 
HETATM    2  C   UNL     1     -17.514  -9.436  -4.297  1.00  0.00     0.183 C 
HETATM    3  C   UNL     1     -17.169 -10.620  -5.215  1.00  0.00     0.204 C 
HETATM    4  C   UNL     1     -17.791 -11.995  -4.786  1.00  0.00     0.293 C 
HETATM    5  O   UNL     1     -19.131 -11.859  -4.307  1.00  0.00    -0.340 OA
HETATM    6  C   UNL     1     -19.375 -10.754  -3.411  1.00  0.00     0.253 C 
ENDROOT
BRANCH   4   7
HETATM    7  O   UNL     1     -16.913 -12.852  -4.041  1.00  0.00    -0.347 OA
BRANCH   7   8
HETATM    8  C   UNL     1     -16.472 -14.131  -4.583  1.00  0.00     0.195 C 
HETATM    9  C   UNL     1     -15.157 -14.514  -3.824  1.00  0.00     0.183 C 
HETATM   10  C   UNL     1     -13.920 -13.730  -4.328  1.00  0.00     0.204 C 
HETATM   11  C   UNL     1     -13.804 -13.740  -5.866  1.00  0.00     0.289 C 
HETATM   12  O   UNL     1     -15.043 -13.374  -6.472  1.00  0.00    -0.341 OA
HETATM   13  C   UNL     1     -16.128 -14.263  -6.088  1.00  0.00     0.258 C 
BRANCH   9  14
HETATM   14  O   UNL     1     -14.879 -15.919  -3.959  1.00  0.00    -0.390 OA
HETATM   15  H   UNL     1     -15.129 -16.144  -4.880  1.00  0.00     0.210 HD
ENDBRANCH   9  14
BRANCH  10  16
HETATM   16  O   UNL     1     -12.728 -14.307  -3.752  1.00  0.00    -0.388 OA
HETATM   17  H   UNL     1     -12.045 -14.337  -4.449  1.00  0.00     0.210 HD
ENDBRANCH  10  16
BRANCH  11  18
HETATM   18  O   UNL     1     -13.288 -14.969  -6.368  1.00  0.00    -0.368 OA
HETATM   19  H   UNL     1     -13.875 -15.242  -7.100  1.00  0.00     0.212 HD
ENDBRANCH  11  18
BRANCH  13  20
HETATM   20  C   UNL     1     -17.327 -14.054  -7.008  1.00  0.00     0.321 C 
HETATM   21  O   UNL     1     -18.430 -14.601  -6.756  1.00  0.00    -0.260 OA
BRANCH  20  22
HETATM   22  O   UNL     1     -17.178 -13.186  -7.951  1.00  0.00    -0.147 OA
HETATM   23 CA   UNL     2     -17.876 -12.314  -9.571  1.00  0.00     0.000 Ca
ENDBRANCH  20  22
ENDBRANCH  13  20
ENDBRANCH   7   8
ENDBRANCH   4   7
BRANCH   3  24
HETATM   24  O   UNL     1     -15.763 -10.703  -5.458  1.00  0.00    -0.388 OA
HETATM   25  H   UNL     1     -15.632 -10.528  -6.410  1.00  0.00     0.210 HD
ENDBRANCH   3  24
BRANCH   2  26
HETATM   26  O   UNL     1     -16.866  -9.564  -3.037  1.00  0.00    -0.390 OA
HETATM   27  H   UNL     1     -15.899  -9.515  -3.186  1.00  0.00     0.210 HD
ENDBRANCH   2  26
BRANCH   6  28
HETATM   28  C   UNL     1     -20.843 -10.731  -2.980  1.00  0.00     0.172 C 
HETATM   29  O   UNL     1     -21.236 -10.477  -1.852  1.00  0.00    -0.648 OA
BRANCH  28  30
HETATM   30  O   UNL     1     -21.698 -11.006  -4.002  1.00  0.00    -0.774 OA
HETATM   31  H   UNL     1     -21.246 -11.483  -4.755  1.00  0.00     0.167 HD
ENDBRANCH  28  30
ENDBRANCH   6  28
BRANCH   1  32
HETATM   32  O   UNL     1     -19.762  -9.210  -5.296  1.00  0.00    -0.347 OA
BRANCH  32  33
HETATM   33  C   UNL     1     -20.455  -7.946  -5.528  1.00  0.00     0.293 C 
HETATM   34  O   UNL     1     -19.731  -7.087  -6.406  1.00  0.00    -0.340 OA
HETATM   35  C   UNL     1     -20.580  -5.949  -6.802  1.00  0.00     0.256 C 
HETATM   36  C   UNL     1     -20.919  -5.072  -5.591  1.00  0.00     0.189 C 
HETATM   37  C   UNL     1     -21.714  -5.917  -4.595  1.00  0.00     0.183 C 
HETATM   38  C   UNL     1     -20.968  -7.211  -4.249  1.00  0.00     0.204 C 
BRANCH  35  39
HETATM   39  C   UNL     1     -19.924  -5.135  -7.940  1.00  0.00     0.206 C 
HETATM   40  O   UNL     1     -18.861  -4.521  -7.635  1.00  0.00    -0.646 OA
HETATM   41  O   UNL     1     -20.535  -5.193  -9.050  1.00  0.00    -0.646 OA
ENDBRANCH  35  39
BRANCH  36  42
HETATM   42  O   UNL     1     -19.721  -4.602  -4.951  1.00  0.00    -0.390 OA
HETATM   43  H   UNL     1     -19.023  -4.775  -5.634  1.00  0.00     0.210 HD
ENDBRANCH  36  42
BRANCH  37  44
HETATM   44  O   UNL     1     -23.005  -6.237  -5.145  1.00  0.00    -0.390 OA
HETATM   45  H   UNL     1     -23.603  -6.240  -4.370  1.00  0.00     0.210 HD
ENDBRANCH  37  44
BRANCH  38  46
HETATM   46  O   UNL     1     -21.871  -8.076  -3.525  1.00  0.00    -0.388 OA
HETATM   47  H   UNL     1     -22.733  -8.050  -3.989  1.00  0.00     0.210 HD
ENDBRANCH  38  46
ENDBRANCH  32  33
ENDBRANCH   1  32
TORSDOF 17
BEGIN_RES ARG D 557
REMARK  4 active torsions:
REMARK  status: ('A' for Active; 'I' for Inactive)
REMARK    1  A    between atoms: CA   and  CB  
REMARK    2  A    between atoms: CB   and  CG  
REMARK    3  A    between atoms: CG   and  CD  
REMARK    4  A    between atoms: CD   and  NE  
REMARK       I    between atoms: NE   and  CZ  
REMARK       I    between atoms: CZ   and  NH1 
REMARK       I    between atoms: CZ   and  NH2 
ROOT
ATOM      1  CA  ARG D 557     -26.217   2.705 -17.014  1.00 35.49     0.159 C 
ENDROOT
BRANCH   1   2
ATOM      2  CB  ARG D 557     -26.789   1.319 -17.183  1.00 35.49     0.034 C 
BRANCH   2   3
ATOM      3  CG  ARG D 557     -25.839   0.201 -17.128  1.00 35.49     0.027 C 
BRANCH   3   4
ATOM      4  CD  ARG D 557     -24.762   0.424 -16.136  1.00 35.49     0.116 C 
BRANCH   4   5
ATOM      5  NE  ARG D 557     -24.879  -0.454 -15.002  1.00 35.49    -0.212 N 
ATOM      6  CZ  ARG D 557     -24.043  -1.418 -14.688  1.00 35.49     0.666 C 
ATOM      7  NH1 ARG D 557     -22.978  -1.699 -15.416  1.00 35.49    -0.235 N 
ATOM      8  NH2 ARG D 557     -24.293  -2.102 -13.609  1.00 35.49    -0.235 N 
ATOM      9  HH  ARG D 557     -22.793  -1.260 -16.129  1.00 35.49     0.174 HD
ATOM     10  HH  ARG D 557     -22.467  -2.337 -15.161  1.00 35.49     0.174 HD
ATOM     11  HH  ARG D 557     -24.984  -1.894 -13.155  1.00 35.49     0.174 HD
ATOM     12  HH  ARG D 557     -23.775  -2.730 -13.372  1.00 35.49     0.174 HD
ATOM     13  HE  ARG D 557     -25.575  -0.391 -14.518  1.00 35.49     0.178 HD
ENDBRANCH   4   5
ENDBRANCH   3   4
ENDBRANCH   2   3
ENDBRANCH   1   2
END_RES ARG D 557
BEGIN_RES GLU D 570
REMARK  3 active torsions:
REMARK  status: ('A' for Active; 'I' for Inactive)
REMARK    5  A    between atoms: CA   and  CB  
REMARK    6  A    between atoms: CB   and  CG  
REMARK    7  A    between atoms: CG   and  CD  
ROOT
ATOM     14  CA  GLU D 570     -18.033  -6.348 -13.375  1.00 32.92     0.160 C 
ENDROOT
BRANCH  14  15
ATOM     15  CB  GLU D 570     -19.500  -6.345 -13.794  1.00 32.92     0.043 C 
BRANCH  15  16
ATOM     16  CG  GLU D 570     -20.450  -5.568 -12.956  1.00 32.92     0.100 C 
BRANCH  16  17
ATOM     17  CD  GLU D 570     -21.648  -5.072 -13.731  1.00 32.92     0.185 C 
ATOM     18  OE1 GLU D 570     -21.629  -5.124 -14.975  1.00 32.92    -0.647 OA
ATOM     19  OE2 GLU D 570     -22.611  -4.610 -13.086  1.00 32.92    -0.647 OA
ENDBRANCH  16  17
ENDBRANCH  15  16
ENDBRANCH  14  15
END_RES GLU D 570
ENDMDL
