MODEL 1
REMARK VINA RESULT:      -7.5      0.000      0.000
REMARK  22 active torsions:
REMARK  status: ('A' for Active; 'I' for Inactive)
REMARK    1  A    between atoms: C_2  and  C_3 
REMARK    2  A    between atoms: C_3  and  C_4 
REMARK    3  A    between atoms: C_4  and  C_5 
REMARK    4  A    between atoms: C_5  and  C_6 
REMARK    5  A    between atoms: C_6  and  C_7 
REMARK    6  A    between atoms: C_7  and  C_8 
REMARK    7  A    between atoms: C_8  and  C_9 
REMARK    8  A    between atoms: C_9  and  C_10 
REMARK    9  A    between atoms: C_10  and  O_12 
REMARK   10  A    between atoms: O_12  and  C_13 
REMARK   11  A    between atoms: C_13  and  C_14 
REMARK   12  A    between atoms: C_14  and  C_17 
REMARK   13  A    between atoms: C_17  and  O_18 
REMARK   14  A    between atoms: O_18  and  C_19 
REMARK   15  A    between atoms: C_19  and  C_21 
REMARK   16  A    between atoms: C_21  and  C_22 
REMARK   17  A    between atoms: C_22  and  C_23 
REMARK   18  A    between atoms: C_23  and  C_24 
REMARK   19  A    between atoms: C_24  and  C_25 
REMARK   20  A    between atoms: C_25  and  C_26 
REMARK   21  A    between atoms: C_26  and  C_27 
REMARK   22  A    between atoms: C_27  and  C_28 
ROOT
HETATM    1  C   UNL     1     -23.793  -3.429 -13.769  1.00  0.00    -0.004 C 
HETATM    2  C   UNL     1     -23.355  -2.233 -14.630  1.00  0.00     0.019 C 
HETATM    3  C   UNL     1     -22.601  -4.383 -13.579  1.00  0.00     0.019 C 
ENDROOT
BRANCH   1   4
HETATM    4  C   UNL     1     -24.261  -2.929 -12.383  1.00  0.00     0.189 C 
BRANCH   4   5
HETATM    5  O   UNL     1     -23.982  -3.906 -11.359  1.00  0.00    -0.321 OA
BRANCH   5   6
HETATM    6  C   UNL     1     -24.398  -3.568 -10.105  1.00  0.00     0.258 C 
HETATM    7  O   UNL     1     -25.504  -3.125  -9.827  1.00  0.00    -0.265 OA
BRANCH   6   8
HETATM    8  C   UNL     1     -23.335  -3.854  -9.072  1.00  0.00     0.111 C 
BRANCH   8   9
HETATM    9  C   UNL     1     -22.101  -4.439  -9.748  1.00  0.00     0.010 C 
BRANCH   9  10
HETATM   10  C   UNL     1     -20.816  -4.066  -9.010  1.00  0.00     0.000 C 
BRANCH  10  11
HETATM   11  C   UNL     1     -20.218  -5.290  -8.328  1.00  0.00     0.000 C 
BRANCH  11  12
HETATM   12  C   UNL     1     -19.494  -4.889  -7.052  1.00  0.00     0.000 C 
BRANCH  12  13
HETATM   13  C   UNL     1     -20.494  -4.564  -5.951  1.00  0.00     0.000 C 
BRANCH  13  14
HETATM   14  C   UNL     1     -21.495  -5.700  -5.792  1.00  0.00    -0.000 C 
BRANCH  14  15
HETATM   15  C   UNL     1     -21.352  -6.363  -4.428  1.00  0.00    -0.005 C 
HETATM   16  C   UNL     1     -21.612  -7.855  -4.530  1.00  0.00     0.005 C 
ENDBRANCH  14  15
ENDBRANCH  13  14
ENDBRANCH  12  13
ENDBRANCH  11  12
ENDBRANCH  10  11
ENDBRANCH   9  10
ENDBRANCH   8   9
ENDBRANCH   6   8
ENDBRANCH   5   6
ENDBRANCH   4   5
ENDBRANCH   1   4
BRANCH   1  17
HETATM   17  C   UNL     1     -24.939  -4.174 -14.486  1.00  0.00     0.189 C 
BRANCH  17  18
HETATM   18  O   UNL     1     -24.425  -5.290 -15.246  1.00  0.00    -0.321 OA
BRANCH  18  19
HETATM   19  C   UNL     1     -25.324  -6.269 -15.521  1.00  0.00     0.258 C 
HETATM   20  O   UNL     1     -25.145  -7.473 -15.329  1.00  0.00    -0.265 OA
BRANCH  19  21
HETATM   21  C   UNL     1     -26.630  -5.718 -16.030  1.00  0.00     0.111 C 
BRANCH  21  22
HETATM   22  C   UNL     1     -27.671  -6.832 -16.117  1.00  0.00     0.010 C 
BRANCH  22  23
HETATM   23  C   UNL     1     -28.917  -6.391 -16.882  1.00  0.00     0.000 C 
BRANCH  23  24
HETATM   24  C   UNL     1     -28.847  -6.854 -18.332  1.00  0.00     0.000 C 
BRANCH  24  25
HETATM   25  C   UNL     1     -27.752  -6.105 -19.078  1.00  0.00     0.000 C 
BRANCH  25  26
HETATM   26  C   UNL     1     -27.179  -6.970 -20.193  1.00  0.00     0.000 C 
BRANCH  26  27
HETATM   27  C   UNL     1     -25.730  -6.592 -20.466  1.00  0.00    -0.000 C 
BRANCH  27  28
HETATM   28  C   UNL     1     -24.887  -7.834 -20.730  1.00  0.00    -0.005 C 
HETATM   29  C   UNL     1     -24.236  -7.755 -22.098  1.00  0.00     0.005 C 
ENDBRANCH  27  28
ENDBRANCH  26  27
ENDBRANCH  25  26
ENDBRANCH  24  25
ENDBRANCH  23  24
ENDBRANCH  22  23
ENDBRANCH  21  22
ENDBRANCH  19  21
ENDBRANCH  18  19
ENDBRANCH  17  18
ENDBRANCH   1  17
TORSDOF 22
BEGIN_RES ARG D 557
REMARK  4 active torsions:
REMARK  status: ('A' for Active; 'I' for Inactive)
REMARK    1  A    between atoms: CA   and  CB  
REMARK    2  A    between atoms: CB   and  CG  
REMARK    3  A    between atoms: CG   and  CD  
REMARK    4  A    between atoms: CD   and  NE  
REMARK       I    between atoms: NE   and  CZ  
REMARK       I    between atoms: CZ   and  NH1 
REMARK       I    between atoms: CZ   and  NH2 
ROOT
ATOM      1  CA  ARG D 557     -26.217   2.705 -17.014  1.00 35.49     0.159 C 
ENDROOT
BRANCH   1   2
ATOM      2  CB  ARG D 557     -26.789   1.319 -17.183  1.00 35.49     0.034 C 
BRANCH   2   3
ATOM      3  CG  ARG D 557     -28.230   1.227 -17.449  1.00 35.49     0.027 C 
BRANCH   3   4
ATOM      4  CD  ARG D 557     -28.923   0.328 -16.498  1.00 35.49     0.116 C 
BRANCH   4   5
ATOM      5  NE  ARG D 557     -29.344  -0.900 -17.121  1.00 35.49    -0.212 N 
ATOM      6  CZ  ARG D 557     -28.721  -2.054 -17.040  1.00 35.49     0.666 C 
ATOM      7  NH1 ARG D 557     -27.596  -2.208 -16.366  1.00 35.49    -0.235 N 
ATOM      8  NH2 ARG D 557     -29.258  -3.070 -17.652  1.00 35.49    -0.235 N 
ATOM      9  HH  ARG D 557     -27.226  -1.554 -15.954  1.00 35.49     0.174 HD
ATOM     10  HH  ARG D 557     -27.237  -2.986 -16.347  1.00 35.49     0.174 HD
ATOM     11  HH  ARG D 557     -29.989  -2.942 -18.073  1.00 35.49     0.174 HD
ATOM     12  HH  ARG D 557     -28.888  -3.832 -17.619  1.00 35.49     0.174 HD
ATOM     13  HE  ARG D 557     -30.020  -0.875 -17.635  1.00 35.49     0.178 HD
ENDBRANCH   4   5
ENDBRANCH   3   4
ENDBRANCH   2   3
ENDBRANCH   1   2
END_RES ARG D 557
BEGIN_RES GLU D 570
REMARK  3 active torsions:
REMARK  status: ('A' for Active; 'I' for Inactive)
REMARK    5  A    between atoms: CA   and  CB  
REMARK    6  A    between atoms: CB   and  CG  
REMARK    7  A    between atoms: CG   and  CD  
ROOT
ATOM     14  CA  GLU D 570     -18.033  -6.348 -13.375  1.00 32.92     0.160 C 
ENDROOT
BRANCH  14  15
ATOM     15  CB  GLU D 570     -19.500  -6.345 -13.794  1.00 32.92     0.043 C 
BRANCH  15  16
ATOM     16  CG  GLU D 570     -20.042  -7.590 -14.397  1.00 32.92     0.100 C 
BRANCH  16  17
ATOM     17  CD  GLU D 570     -20.856  -7.335 -15.644  1.00 32.92     0.185 C 
ATOM     18  OE1 GLU D 570     -21.671  -8.199 -16.022  1.00 32.92    -0.647 OA
ATOM     19  OE2 GLU D 570     -20.664  -6.268 -16.259  1.00 32.92    -0.647 OA
ENDBRANCH  16  17
ENDBRANCH  15  16
ENDBRANCH  14  15
END_RES GLU D 570
ENDMDL
MODEL 2
REMARK VINA RESULT:      -7.4      0.805      9.720
REMARK  22 active torsions:
REMARK  status: ('A' for Active; 'I' for Inactive)
REMARK    1  A    between atoms: C_2  and  C_3 
REMARK    2  A    between atoms: C_3  and  C_4 
REMARK    3  A    between atoms: C_4  and  C_5 
REMARK    4  A    between atoms: C_5  and  C_6 
REMARK    5  A    between atoms: C_6  and  C_7 
REMARK    6  A    between atoms: C_7  and  C_8 
REMARK    7  A    between atoms: C_8  and  C_9 
REMARK    8  A    between atoms: C_9  and  C_10 
REMARK    9  A    between atoms: C_10  and  O_12 
REMARK   10  A    between atoms: O_12  and  C_13 
REMARK   11  A    between atoms: C_13  and  C_14 
REMARK   12  A    between atoms: C_14  and  C_17 
REMARK   13  A    between atoms: C_17  and  O_18 
REMARK   14  A    between atoms: O_18  and  C_19 
REMARK   15  A    between atoms: C_19  and  C_21 
REMARK   16  A    between atoms: C_21  and  C_22 
REMARK   17  A    between atoms: C_22  and  C_23 
REMARK   18  A    between atoms: C_23  and  C_24 
REMARK   19  A    between atoms: C_24  and  C_25 
REMARK   20  A    between atoms: C_25  and  C_26 
REMARK   21  A    between atoms: C_26  and  C_27 
REMARK   22  A    between atoms: C_27  and  C_28 
ROOT
HETATM    1  C   UNL     1     -23.818  -3.799 -13.898  1.00  0.00    -0.004 C 
HETATM    2  C   UNL     1     -22.775  -3.108 -14.792  1.00  0.00     0.019 C 
HETATM    3  C   UNL     1     -25.195  -3.151 -14.130  1.00  0.00     0.019 C 
ENDROOT
BRANCH   1   4
HETATM    4  C   UNL     1     -23.903  -5.299 -14.262  1.00  0.00     0.189 C 
BRANCH   4   5
HETATM    5  O   UNL     1     -24.689  -5.499 -15.455  1.00  0.00    -0.321 OA
BRANCH   5   6
HETATM    6  C   UNL     1     -25.037  -6.792 -15.712  1.00  0.00     0.258 C 
HETATM    7  O   UNL     1     -24.248  -7.708 -15.899  1.00  0.00    -0.265 OA
BRANCH   6   8
HETATM    8  C   UNL     1     -26.535  -6.979 -15.690  1.00  0.00     0.111 C 
BRANCH   8   9
HETATM    9  C   UNL     1     -27.209  -5.834 -16.437  1.00  0.00     0.010 C 
BRANCH   9  10
HETATM   10  C   UNL     1     -28.635  -6.188 -16.854  1.00  0.00     0.000 C 
BRANCH  10  11
HETATM   11  C   UNL     1     -28.671  -6.627 -18.313  1.00  0.00     0.000 C 
BRANCH  11  12
HETATM   12  C   UNL     1     -27.598  -5.903 -19.114  1.00  0.00     0.000 C 
BRANCH  12  13
HETATM   13  C   UNL     1     -27.010  -6.825 -20.173  1.00  0.00     0.000 C 
BRANCH  13  14
HETATM   14  C   UNL     1     -25.492  -6.861 -20.060  1.00  0.00    -0.000 C 
BRANCH  14  15
HETATM   15  C   UNL     1     -24.871  -7.480 -21.306  1.00  0.00    -0.005 C 
HETATM   16  C   UNL     1     -23.588  -8.210 -20.955  1.00  0.00     0.005 C 
ENDBRANCH  14  15
ENDBRANCH  13  14
ENDBRANCH  12  13
ENDBRANCH  11  12
ENDBRANCH  10  11
ENDBRANCH   9  10
ENDBRANCH   8   9
ENDBRANCH   6   8
ENDBRANCH   5   6
ENDBRANCH   4   5
ENDBRANCH   1   4
BRANCH   1  17
HETATM   17  C   UNL     1     -23.410  -3.626 -12.421  1.00  0.00     0.189 C 
BRANCH  17  18
HETATM   18  O   UNL     1     -24.439  -2.929 -11.684  1.00  0.00    -0.321 OA
BRANCH  18  19
HETATM   19  C   UNL     1     -24.687  -3.407 -10.438  1.00  0.00     0.258 C 
HETATM   20  O   UNL     1     -25.645  -3.086  -9.731  1.00  0.00    -0.265 OA
BRANCH  19  21
HETATM   21  C   UNL     1     -23.691  -4.456 -10.021  1.00  0.00     0.111 C 
BRANCH  21  22
HETATM   22  C   UNL     1     -22.812  -3.924  -8.891  1.00  0.00     0.010 C 
BRANCH  22  23
HETATM   23  C   UNL     1     -21.577  -4.794  -8.669  1.00  0.00     0.000 C 
BRANCH  23  24
HETATM   24  C   UNL     1     -20.357  -3.928  -8.382  1.00  0.00     0.000 C 
BRANCH  24  25
HETATM   25  C   UNL     1     -19.417  -4.635  -7.415  1.00  0.00     0.000 C 
BRANCH  25  26
HETATM   26  C   UNL     1     -20.041  -5.931  -6.915  1.00  0.00     0.000 C 
BRANCH  26  27
HETATM   27  C   UNL     1     -20.307  -5.849  -5.419  1.00  0.00    -0.000 C 
BRANCH  27  28
HETATM   28  C   UNL     1     -21.743  -6.249  -5.102  1.00  0.00    -0.005 C 
HETATM   29  C   UNL     1     -21.895  -6.562  -3.625  1.00  0.00     0.005 C 
ENDBRANCH  27  28
ENDBRANCH  26  27
ENDBRANCH  25  26
ENDBRANCH  24  25
ENDBRANCH  23  24
ENDBRANCH  22  23
ENDBRANCH  21  22
ENDBRANCH  19  21
ENDBRANCH  18  19
ENDBRANCH  17  18
ENDBRANCH   1  17
TORSDOF 22
BEGIN_RES ARG D 557
REMARK  4 active torsions:
REMARK  status: ('A' for Active; 'I' for Inactive)
REMARK    1  A    between atoms: CA   and  CB  
REMARK    2  A    between atoms: CB   and  CG  
REMARK    3  A    between atoms: CG   and  CD  
REMARK    4  A    between atoms: CD   and  NE  
REMARK       I    between atoms: NE   and  CZ  
REMARK       I    between atoms: CZ   and  NH1 
REMARK       I    between atoms: CZ   and  NH2 
ROOT
ATOM      1  CA  ARG D 557     -26.217   2.705 -17.014  1.00 35.49     0.159 C 
ENDROOT
BRANCH   1   2
ATOM      2  CB  ARG D 557     -26.789   1.319 -17.183  1.00 35.49     0.034 C 
BRANCH   2   3
ATOM      3  CG  ARG D 557     -28.224   1.228 -17.480  1.00 35.49     0.027 C 
BRANCH   3   4
ATOM      4  CD  ARG D 557     -28.942   0.349 -16.529  1.00 35.49     0.116 C 
BRANCH   4   5
ATOM      5  NE  ARG D 557     -29.365  -0.882 -17.142  1.00 35.49    -0.212 N 
ATOM      6  CZ  ARG D 557     -28.741  -2.036 -17.057  1.00 35.49     0.666 C 
ATOM      7  NH1 ARG D 557     -27.613  -2.185 -16.387  1.00 35.49    -0.235 N 
ATOM      8  NH2 ARG D 557     -29.280  -3.056 -17.660  1.00 35.49    -0.235 N 
ATOM      9  HH  ARG D 557     -27.242  -1.528 -15.981  1.00 35.49     0.174 HD
ATOM     10  HH  ARG D 557     -27.253  -2.962 -16.364  1.00 35.49     0.174 HD
ATOM     11  HH  ARG D 557     -30.013  -2.932 -18.079  1.00 35.49     0.174 HD
ATOM     12  HH  ARG D 557     -28.909  -3.817 -17.624  1.00 35.49     0.174 HD
ATOM     13  HE  ARG D 557     -30.044  -0.862 -17.653  1.00 35.49     0.178 HD
ENDBRANCH   4   5
ENDBRANCH   3   4
ENDBRANCH   2   3
ENDBRANCH   1   2
END_RES ARG D 557
BEGIN_RES GLU D 570
REMARK  3 active torsions:
REMARK  status: ('A' for Active; 'I' for Inactive)
REMARK    5  A    between atoms: CA   and  CB  
REMARK    6  A    between atoms: CB   and  CG  
REMARK    7  A    between atoms: CG   and  CD  
ROOT
ATOM     14  CA  GLU D 570     -18.033  -6.348 -13.375  1.00 32.92     0.160 C 
ENDROOT
BRANCH  14  15
ATOM     15  CB  GLU D 570     -19.500  -6.345 -13.794  1.00 32.92     0.043 C 
BRANCH  15  16
ATOM     16  CG  GLU D 570     -19.950  -7.418 -14.718  1.00 32.92     0.100 C 
BRANCH  16  17
ATOM     17  CD  GLU D 570     -20.682  -6.885 -15.928  1.00 32.92     0.185 C 
ATOM     18  OE1 GLU D 570     -20.764  -5.652 -16.091  1.00 32.92    -0.647 OA
ATOM     19  OE2 GLU D 570     -21.192  -7.709 -16.713  1.00 32.92    -0.647 OA
ENDBRANCH  16  17
ENDBRANCH  15  16
ENDBRANCH  14  15
END_RES GLU D 570
ENDMDL
MODEL 3
REMARK VINA RESULT:      -7.3      1.985      3.984
REMARK  22 active torsions:
REMARK  status: ('A' for Active; 'I' for Inactive)
REMARK    1  A    between atoms: C_2  and  C_3 
REMARK    2  A    between atoms: C_3  and  C_4 
REMARK    3  A    between atoms: C_4  and  C_5 
REMARK    4  A    between atoms: C_5  and  C_6 
REMARK    5  A    between atoms: C_6  and  C_7 
REMARK    6  A    between atoms: C_7  and  C_8 
REMARK    7  A    between atoms: C_8  and  C_9 
REMARK    8  A    between atoms: C_9  and  C_10 
REMARK    9  A    between atoms: C_10  and  O_12 
REMARK   10  A    between atoms: O_12  and  C_13 
REMARK   11  A    between atoms: C_13  and  C_14 
REMARK   12  A    between atoms: C_14  and  C_17 
REMARK   13  A    between atoms: C_17  and  O_18 
REMARK   14  A    between atoms: O_18  and  C_19 
REMARK   15  A    between atoms: C_19  and  C_21 
REMARK   16  A    between atoms: C_21  and  C_22 
REMARK   17  A    between atoms: C_22  and  C_23 
REMARK   18  A    between atoms: C_23  and  C_24 
REMARK   19  A    between atoms: C_24  and  C_25 
REMARK   20  A    between atoms: C_25  and  C_26 
REMARK   21  A    between atoms: C_26  and  C_27 
REMARK   22  A    between atoms: C_27  and  C_28 
ROOT
HETATM    1  C   UNL     1     -23.567  -3.760 -10.482  1.00  0.00    -0.004 C 
HETATM    2  C   UNL     1     -23.732  -5.257 -10.794  1.00  0.00     0.019 C 
HETATM    3  C   UNL     1     -24.805  -3.261  -9.717  1.00  0.00     0.019 C 
ENDROOT
BRANCH   1   4
HETATM    4  C   UNL     1     -22.315  -3.546  -9.603  1.00  0.00     0.189 C 
BRANCH   4   5
HETATM    5  O   UNL     1     -22.022  -4.724  -8.823  1.00  0.00    -0.321 OA
BRANCH   5   6
HETATM    6  C   UNL     1     -21.295  -4.506  -7.690  1.00  0.00     0.258 C 
HETATM    7  O   UNL     1     -21.218  -3.436  -7.100  1.00  0.00    -0.265 OA
BRANCH   6   8
HETATM    8  C   UNL     1     -20.623  -5.769  -7.210  1.00  0.00     0.111 C 
BRANCH   8   9
HETATM    9  C   UNL     1     -20.632  -5.812  -5.686  1.00  0.00     0.010 C 
BRANCH   9  10
HETATM   10  C   UNL     1     -21.948  -6.362  -5.140  1.00  0.00     0.000 C 
BRANCH  10  11
HETATM   11  C   UNL     1     -21.716  -7.689  -4.427  1.00  0.00     0.000 C 
BRANCH  11  12
HETATM   12  C   UNL     1     -21.248  -7.452  -2.999  1.00  0.00     0.000 C 
BRANCH  12  13
HETATM   13  C   UNL     1     -22.142  -6.433  -2.306  1.00  0.00     0.000 C 
BRANCH  13  14
HETATM   14  C   UNL     1     -22.264  -6.756  -0.823  1.00  0.00    -0.000 C 
BRANCH  14  15
HETATM   15  C   UNL     1     -21.796  -8.177  -0.538  1.00  0.00    -0.005 C 
HETATM   16  C   UNL     1     -22.955  -9.036  -0.066  1.00  0.00     0.005 C 
ENDBRANCH  14  15
ENDBRANCH  13  14
ENDBRANCH  12  13
ENDBRANCH  11  12
ENDBRANCH  10  11
ENDBRANCH   9  10
ENDBRANCH   8   9
ENDBRANCH   6   8
ENDBRANCH   5   6
ENDBRANCH   4   5
ENDBRANCH   1   4
BRANCH   1  17
HETATM   17  C   UNL     1     -23.433  -2.981 -11.808  1.00  0.00     0.189 C 
BRANCH  17  18
HETATM   18  O   UNL     1     -24.393  -3.455 -12.778  1.00  0.00    -0.321 OA
BRANCH  18  19
HETATM   19  C   UNL     1     -23.950  -3.500 -14.060  1.00  0.00     0.258 C 
HETATM   20  O   UNL     1     -24.120  -2.616 -14.903  1.00  0.00    -0.265 OA
BRANCH  19  21
HETATM   21  C   UNL     1     -23.140  -4.738 -14.341  1.00  0.00     0.111 C 
BRANCH  21  22
HETATM   22  C   UNL     1     -24.058  -5.955 -14.435  1.00  0.00     0.010 C 
BRANCH  22  23
HETATM   23  C   UNL     1     -23.765  -6.798 -15.673  1.00  0.00     0.000 C 
BRANCH  23  24
HETATM   24  C   UNL     1     -25.056  -7.145 -16.403  1.00  0.00     0.000 C 
BRANCH  24  25
HETATM   25  C   UNL     1     -26.201  -6.274 -15.904  1.00  0.00     0.000 C 
BRANCH  25  26
HETATM   26  C   UNL     1     -27.224  -6.052 -17.011  1.00  0.00     0.000 C 
BRANCH  26  27
HETATM   27  C   UNL     1     -28.637  -6.176 -16.459  1.00  0.00    -0.000 C 
BRANCH  27  28
HETATM   28  C   UNL     1     -29.343  -7.390 -17.049  1.00  0.00    -0.005 C 
HETATM   29  C   UNL     1     -30.675  -6.990 -17.656  1.00  0.00     0.005 C 
ENDBRANCH  27  28
ENDBRANCH  26  27
ENDBRANCH  25  26
ENDBRANCH  24  25
ENDBRANCH  23  24
ENDBRANCH  22  23
ENDBRANCH  21  22
ENDBRANCH  19  21
ENDBRANCH  18  19
ENDBRANCH  17  18
ENDBRANCH   1  17
TORSDOF 22
BEGIN_RES ARG D 557
REMARK  4 active torsions:
REMARK  status: ('A' for Active; 'I' for Inactive)
REMARK    1  A    between atoms: CA   and  CB  
REMARK    2  A    between atoms: CB   and  CG  
REMARK    3  A    between atoms: CG   and  CD  
REMARK    4  A    between atoms: CD   and  NE  
REMARK       I    between atoms: NE   and  CZ  
REMARK       I    between atoms: CZ   and  NH1 
REMARK       I    between atoms: CZ   and  NH2 
ROOT
ATOM      1  CA  ARG D 557     -26.217   2.705 -17.014  1.00 35.49     0.159 C 
ENDROOT
BRANCH   1   2
ATOM      2  CB  ARG D 557     -26.789   1.319 -17.183  1.00 35.49     0.034 C 
BRANCH   2   3
ATOM      3  CG  ARG D 557     -28.235   1.225 -17.418  1.00 35.49     0.027 C 
BRANCH   3   4
ATOM      4  CD  ARG D 557     -28.891   0.251 -16.517  1.00 35.49     0.116 C 
BRANCH   4   5
ATOM      5  NE  ARG D 557     -27.976  -0.757 -16.049  1.00 35.49    -0.212 N 
ATOM      6  CZ  ARG D 557     -27.944  -2.009 -16.447  1.00 35.49     0.666 C 
ATOM      7  NH1 ARG D 557     -28.789  -2.491 -17.340  1.00 35.49    -0.235 N 
ATOM      8  NH2 ARG D 557     -27.031  -2.780 -15.931  1.00 35.49    -0.235 N 
ATOM      9  HH  ARG D 557     -29.396  -2.002 -17.694  1.00 35.49     0.174 HD
ATOM     10  HH  ARG D 557     -28.718  -3.316 -17.563  1.00 35.49     0.174 HD
ATOM     11  HH  ARG D 557     -26.494  -2.439 -15.363  1.00 35.49     0.174 HD
ATOM     12  HH  ARG D 557     -26.976  -3.593 -16.166  1.00 35.49     0.174 HD
ATOM     13  HE  ARG D 557     -27.443  -0.552 -15.419  1.00 35.49     0.178 HD
ENDBRANCH   4   5
ENDBRANCH   3   4
ENDBRANCH   2   3
ENDBRANCH   1   2
END_RES ARG D 557
BEGIN_RES GLU D 570
REMARK  3 active torsions:
REMARK  status: ('A' for Active; 'I' for Inactive)
REMARK    5  A    between atoms: CA   and  CB  
REMARK    6  A    between atoms: CB   and  CG  
REMARK    7  A    between atoms: CG   and  CD  
ROOT
ATOM     14  CA  GLU D 570     -18.033  -6.348 -13.375  1.00 32.92     0.160 C 
ENDROOT
BRANCH  14  15
ATOM     15  CB  GLU D 570     -19.500  -6.345 -13.794  1.00 32.92     0.043 C 
BRANCH  15  16
ATOM     16  CG  GLU D 570     -20.080  -7.630 -14.264  1.00 32.92     0.100 C 
BRANCH  16  17
ATOM     17  CD  GLU D 570     -20.456  -7.607 -15.727  1.00 32.92     0.185 C 
ATOM     18  OE1 GLU D 570     -20.414  -6.526 -16.346  1.00 32.92    -0.647 OA
ATOM     19  OE2 GLU D 570     -20.812  -8.678 -16.256  1.00 32.92    -0.647 OA
ENDBRANCH  16  17
ENDBRANCH  15  16
ENDBRANCH  14  15
END_RES GLU D 570
ENDMDL
MODEL 4
REMARK VINA RESULT:      -7.2      3.111      6.492
REMARK  22 active torsions:
REMARK  status: ('A' for Active; 'I' for Inactive)
REMARK    1  A    between atoms: C_2  and  C_3 
REMARK    2  A    between atoms: C_3  and  C_4 
REMARK    3  A    between atoms: C_4  and  C_5 
REMARK    4  A    between atoms: C_5  and  C_6 
REMARK    5  A    between atoms: C_6  and  C_7 
REMARK    6  A    between atoms: C_7  and  C_8 
REMARK    7  A    between atoms: C_8  and  C_9 
REMARK    8  A    between atoms: C_9  and  C_10 
REMARK    9  A    between atoms: C_10  and  O_12 
REMARK   10  A    between atoms: O_12  and  C_13 
REMARK   11  A    between atoms: C_13  and  C_14 
REMARK   12  A    between atoms: C_14  and  C_17 
REMARK   13  A    between atoms: C_17  and  O_18 
REMARK   14  A    between atoms: O_18  and  C_19 
REMARK   15  A    between atoms: C_19  and  C_21 
REMARK   16  A    between atoms: C_21  and  C_22 
REMARK   17  A    between atoms: C_22  and  C_23 
REMARK   18  A    between atoms: C_23  and  C_24 
REMARK   19  A    between atoms: C_24  and  C_25 
REMARK   20  A    between atoms: C_25  and  C_26 
REMARK   21  A    between atoms: C_26  and  C_27 
REMARK   22  A    between atoms: C_27  and  C_28 
ROOT
HETATM    1  C   UNL     1     -20.917  -5.306  -6.747  1.00  0.00    -0.004 C 
HETATM    2  C   UNL     1     -22.224  -4.514  -6.930  1.00  0.00     0.019 C 
HETATM    3  C   UNL     1     -20.090  -4.667  -5.617  1.00  0.00     0.019 C 
ENDROOT
BRANCH   1   4
HETATM    4  C   UNL     1     -21.244  -6.767  -6.364  1.00  0.00     0.189 C 
BRANCH   4   5
HETATM    5  O   UNL     1     -20.102  -7.412  -5.762  1.00  0.00    -0.321 OA
BRANCH   5   6
HETATM    6  C   UNL     1     -20.357  -8.617  -5.177  1.00  0.00     0.258 C 
HETATM    7  O   UNL     1     -19.796  -9.667  -5.457  1.00  0.00    -0.265 OA
BRANCH   6   8
HETATM    8  C   UNL     1     -21.396  -8.496  -4.088  1.00  0.00     0.111 C 
BRANCH   8   9
HETATM    9  C   UNL     1     -20.798  -7.783  -2.880  1.00  0.00     0.010 C 
BRANCH   9  10
HETATM   10  C   UNL     1     -21.484  -6.444  -2.613  1.00  0.00     0.000 C 
BRANCH  10  11
HETATM   11  C   UNL     1     -22.335  -6.523  -1.352  1.00  0.00     0.000 C 
BRANCH  11  12
HETATM   12  C   UNL     1     -21.818  -7.615  -0.427  1.00  0.00     0.000 C 
BRANCH  12  13
HETATM   13  C   UNL     1     -22.967  -8.476   0.077  1.00  0.00     0.000 C 
BRANCH  13  14
HETATM   14  C   UNL     1     -22.677  -9.949  -0.175  1.00  0.00    -0.000 C 
BRANCH  14  15
HETATM   15  C   UNL     1     -23.962 -10.767  -0.149  1.00  0.00    -0.005 C 
HETATM   16  C   UNL     1     -23.669 -12.210   0.217  1.00  0.00     0.005 C 
ENDBRANCH  14  15
ENDBRANCH  13  14
ENDBRANCH  12  13
ENDBRANCH  11  12
ENDBRANCH  10  11
ENDBRANCH   9  10
ENDBRANCH   8   9
ENDBRANCH   6   8
ENDBRANCH   5   6
ENDBRANCH   4   5
ENDBRANCH   1   4
BRANCH   1  17
HETATM   17  C   UNL     1     -20.113  -5.261  -8.062  1.00  0.00     0.189 C 
BRANCH  17  18
HETATM   18  O   UNL     1     -20.374  -4.034  -8.779  1.00  0.00    -0.321 OA
BRANCH  18  19
HETATM   19  C   UNL     1     -20.628  -4.178 -10.105  1.00  0.00     0.258 C 
HETATM   20  O   UNL     1     -19.853  -4.670 -10.928  1.00  0.00    -0.265 OA
BRANCH  19  21
HETATM   21  C   UNL     1     -22.020  -3.735 -10.470  1.00  0.00     0.111 C 
BRANCH  21  22
HETATM   22  C   UNL     1     -21.981  -2.862 -11.723  1.00  0.00     0.010 C 
BRANCH  22  23
HETATM   23  C   UNL     1     -23.131  -3.177 -12.675  1.00  0.00     0.000 C 
BRANCH  23  24
HETATM   24  C   UNL     1     -23.686  -4.569 -12.403  1.00  0.00     0.000 C 
BRANCH  24  25
HETATM   25  C   UNL     1     -23.175  -5.559 -13.439  1.00  0.00     0.000 C 
BRANCH  25  26
HETATM   26  C   UNL     1     -24.043  -5.520 -14.690  1.00  0.00     0.000 C 
BRANCH  26  27
HETATM   27  C   UNL     1     -24.046  -6.879 -15.375  1.00  0.00    -0.000 C 
BRANCH  27  28
HETATM   28  C   UNL     1     -25.163  -6.961 -16.410  1.00  0.00    -0.005 C 
HETATM   29  C   UNL     1     -26.499  -6.611 -15.781  1.00  0.00     0.005 C 
ENDBRANCH  27  28
ENDBRANCH  26  27
ENDBRANCH  25  26
ENDBRANCH  24  25
ENDBRANCH  23  24
ENDBRANCH  22  23
ENDBRANCH  21  22
ENDBRANCH  19  21
ENDBRANCH  18  19
ENDBRANCH  17  18
ENDBRANCH   1  17
TORSDOF 22
BEGIN_RES ARG D 557
REMARK  4 active torsions:
REMARK  status: ('A' for Active; 'I' for Inactive)
REMARK    1  A    between atoms: CA   and  CB  
REMARK    2  A    between atoms: CB   and  CG  
REMARK    3  A    between atoms: CG   and  CD  
REMARK    4  A    between atoms: CD   and  NE  
REMARK       I    between atoms: NE   and  CZ  
REMARK       I    between atoms: CZ   and  NH1 
REMARK       I    between atoms: CZ   and  NH2 
ROOT
ATOM      1  CA  ARG D 557     -26.217   2.705 -17.014  1.00 35.49     0.159 C 
ENDROOT
BRANCH   1   2
ATOM      2  CB  ARG D 557     -26.789   1.319 -17.183  1.00 35.49     0.034 C 
BRANCH   2   3
ATOM      3  CG  ARG D 557     -28.228   1.227 -17.459  1.00 35.49     0.027 C 
BRANCH   3   4
ATOM      4  CD  ARG D 557     -28.912   0.261 -16.570  1.00 35.49     0.116 C 
BRANCH   4   5
ATOM      5  NE  ARG D 557     -28.096  -0.891 -16.291  1.00 35.49    -0.212 N 
ATOM      6  CZ  ARG D 557     -28.325  -2.115 -16.712  1.00 35.49     0.666 C 
ATOM      7  NH1 ARG D 557     -29.373  -2.426 -17.452  1.00 35.49    -0.235 N 
ATOM      8  NH2 ARG D 557     -27.466  -3.034 -16.380  1.00 35.49    -0.235 N 
ATOM      9  HH  ARG D 557     -29.950  -1.836 -17.684  1.00 35.49     0.174 HD
ATOM     10  HH  ARG D 557     -29.469  -3.240 -17.700  1.00 35.49     0.174 HD
ATOM     11  HH  ARG D 557     -26.794  -2.803 -15.908  1.00 35.49     0.174 HD
ATOM     12  HH  ARG D 557     -27.578  -3.835 -16.637  1.00 35.49     0.174 HD
ATOM     13  HE  ARG D 557     -27.439  -0.796 -15.760  1.00 35.49     0.178 HD
ENDBRANCH   4   5
ENDBRANCH   3   4
ENDBRANCH   2   3
ENDBRANCH   1   2
END_RES ARG D 557
BEGIN_RES GLU D 570
REMARK  3 active torsions:
REMARK  status: ('A' for Active; 'I' for Inactive)
REMARK    5  A    between atoms: CA   and  CB  
REMARK    6  A    between atoms: CB   and  CG  
REMARK    7  A    between atoms: CG   and  CD  
ROOT
ATOM     14  CA  GLU D 570     -18.033  -6.348 -13.375  1.00 32.92     0.160 C 
ENDROOT
BRANCH  14  15
ATOM     15  CB  GLU D 570     -19.500  -6.345 -13.794  1.00 32.92     0.043 C 
BRANCH  15  16
ATOM     16  CG  GLU D 570     -20.087  -7.634 -14.242  1.00 32.92     0.100 C 
BRANCH  16  17
ATOM     17  CD  GLU D 570     -20.559  -7.600 -15.677  1.00 32.92     0.185 C 
ATOM     18  OE1 GLU D 570     -20.662  -6.500 -16.254  1.00 32.92    -0.647 OA
ATOM     19  OE2 GLU D 570     -20.847  -8.682 -16.224  1.00 32.92    -0.647 OA
ENDBRANCH  16  17
ENDBRANCH  15  16
ENDBRANCH  14  15
END_RES GLU D 570
ENDMDL
MODEL 5
REMARK VINA RESULT:      -7.0      3.035     10.811
REMARK  22 active torsions:
REMARK  status: ('A' for Active; 'I' for Inactive)
REMARK    1  A    between atoms: C_2  and  C_3 
REMARK    2  A    between atoms: C_3  and  C_4 
REMARK    3  A    between atoms: C_4  and  C_5 
REMARK    4  A    between atoms: C_5  and  C_6 
REMARK    5  A    between atoms: C_6  and  C_7 
REMARK    6  A    between atoms: C_7  and  C_8 
REMARK    7  A    between atoms: C_8  and  C_9 
REMARK    8  A    between atoms: C_9  and  C_10 
REMARK    9  A    between atoms: C_10  and  O_12 
REMARK   10  A    between atoms: O_12  and  C_13 
REMARK   11  A    between atoms: C_13  and  C_14 
REMARK   12  A    between atoms: C_14  and  C_17 
REMARK   13  A    between atoms: C_17  and  O_18 
REMARK   14  A    between atoms: O_18  and  C_19 
REMARK   15  A    between atoms: C_19  and  C_21 
REMARK   16  A    between atoms: C_21  and  C_22 
REMARK   17  A    between atoms: C_22  and  C_23 
REMARK   18  A    between atoms: C_23  and  C_24 
REMARK   19  A    between atoms: C_24  and  C_25 
REMARK   20  A    between atoms: C_25  and  C_26 
REMARK   21  A    between atoms: C_26  and  C_27 
REMARK   22  A    between atoms: C_27  and  C_28 
ROOT
HETATM    1  C   UNL     1     -20.835  -5.142  -6.881  1.00  0.00    -0.004 C 
HETATM    2  C   UNL     1     -20.083  -4.481  -5.714  1.00  0.00     0.019 C 
HETATM    3  C   UNL     1     -22.254  -4.552  -6.971  1.00  0.00     0.019 C 
ENDROOT
BRANCH   1   4
HETATM    4  C   UNL     1     -20.091  -4.861  -8.206  1.00  0.00     0.189 C 
BRANCH   4   5
HETATM    5  O   UNL     1     -20.917  -4.101  -9.113  1.00  0.00    -0.321 OA
BRANCH   5   6
HETATM    6  C   UNL     1     -20.561  -4.178 -10.427  1.00  0.00     0.258 C 
HETATM    7  O   UNL     1     -19.699  -4.920 -10.879  1.00  0.00    -0.265 OA
BRANCH   6   8
HETATM    8  C   UNL     1     -21.400  -3.262 -11.285  1.00  0.00     0.111 C 
BRANCH   8   9
HETATM    9  C   UNL     1     -22.878  -3.481 -10.981  1.00  0.00     0.010 C 
BRANCH   9  10
HETATM   10  C   UNL     1     -23.494  -4.544 -11.890  1.00  0.00     0.000 C 
BRANCH  10  11
HETATM   11  C   UNL     1     -22.663  -4.711 -13.155  1.00  0.00     0.000 C 
BRANCH  11  12
HETATM   12  C   UNL     1     -23.454  -4.264 -14.376  1.00  0.00     0.000 C 
BRANCH  12  13
HETATM   13  C   UNL     1     -24.843  -3.792 -13.968  1.00  0.00     0.000 C 
BRANCH  13  14
HETATM   14  C   UNL     1     -25.104  -2.390 -14.501  1.00  0.00    -0.000 C 
BRANCH  14  15
HETATM   15  C   UNL     1     -23.812  -1.586 -14.570  1.00  0.00    -0.005 C 
HETATM   16  C   UNL     1     -23.980  -0.381 -15.477  1.00  0.00     0.005 C 
ENDBRANCH  14  15
ENDBRANCH  13  14
ENDBRANCH  12  13
ENDBRANCH  11  12
ENDBRANCH  10  11
ENDBRANCH   9  10
ENDBRANCH   8   9
ENDBRANCH   6   8
ENDBRANCH   5   6
ENDBRANCH   4   5
ENDBRANCH   1   4
BRANCH   1  17
HETATM   17  C   UNL     1     -20.925  -6.661  -6.627  1.00  0.00     0.189 C 
BRANCH  17  18
HETATM   18  O   UNL     1     -20.261  -7.012  -5.393  1.00  0.00    -0.321 OA
BRANCH  18  19
HETATM   19  C   UNL     1     -20.875  -7.972  -4.654  1.00  0.00     0.258 C 
HETATM   20  O   UNL     1     -21.358  -9.014  -5.102  1.00  0.00    -0.265 OA
BRANCH  19  21
HETATM   21  C   UNL     1     -20.841  -7.666  -3.180  1.00  0.00     0.111 C 
BRANCH  21  22
HETATM   22  C   UNL     1     -21.608  -6.376  -2.895  1.00  0.00     0.010 C 
BRANCH  22  23
HETATM   23  C   UNL     1     -22.305  -6.414  -1.537  1.00  0.00     0.000 C 
BRANCH  23  24
HETATM   24  C   UNL     1     -21.757  -7.552  -0.686  1.00  0.00     0.000 C 
BRANCH  24  25
HETATM   25  C   UNL     1     -22.794  -8.002   0.334  1.00  0.00     0.000 C 
BRANCH  25  26
HETATM   26  C   UNL     1     -23.245  -9.428   0.043  1.00  0.00     0.000 C 
BRANCH  26  27
HETATM   27  C   UNL     1     -22.263 -10.113  -0.897  1.00  0.00    -0.000 C 
BRANCH  27  28
HETATM   28  C   UNL     1     -22.894 -11.346  -1.533  1.00  0.00    -0.005 C 
HETATM   29  C   UNL     1     -24.184 -11.711  -0.824  1.00  0.00     0.005 C 
ENDBRANCH  27  28
ENDBRANCH  26  27
ENDBRANCH  25  26
ENDBRANCH  24  25
ENDBRANCH  23  24
ENDBRANCH  22  23
ENDBRANCH  21  22
ENDBRANCH  19  21
ENDBRANCH  18  19
ENDBRANCH  17  18
ENDBRANCH   1  17
TORSDOF 22
BEGIN_RES ARG D 557
REMARK  4 active torsions:
REMARK  status: ('A' for Active; 'I' for Inactive)
REMARK    1  A    between atoms: CA   and  CB  
REMARK    2  A    between atoms: CB   and  CG  
REMARK    3  A    between atoms: CG   and  CD  
REMARK    4  A    between atoms: CD   and  NE  
REMARK       I    between atoms: NE   and  CZ  
REMARK       I    between atoms: CZ   and  NH1 
REMARK       I    between atoms: CZ   and  NH2 
ROOT
ATOM      1  CA  ARG D 557     -26.217   2.705 -17.014  1.00 35.49     0.159 C 
ENDROOT
BRANCH   1   2
ATOM      2  CB  ARG D 557     -26.789   1.319 -17.183  1.00 35.49     0.034 C 
BRANCH   2   3
ATOM      3  CG  ARG D 557     -28.144   1.096 -16.664  1.00 35.49     0.027 C 
BRANCH   3   4
ATOM      4  CD  ARG D 557     -28.786  -0.099 -17.259  1.00 35.49     0.116 C 
BRANCH   4   5
ATOM      5  NE  ARG D 557     -28.160  -1.322 -16.829  1.00 35.49    -0.212 N 
ATOM      6  CZ  ARG D 557     -28.631  -2.534 -17.017  1.00 35.49     0.666 C 
ATOM      7  NH1 ARG D 557     -29.778  -2.761 -17.631  1.00 35.49    -0.235 N 
ATOM      8  NH2 ARG D 557     -27.919  -3.530 -16.578  1.00 35.49    -0.235 N 
ATOM      9  HH  ARG D 557     -30.262  -2.120 -17.930  1.00 35.49     0.174 HD
ATOM     10  HH  ARG D 557     -30.034  -3.573 -17.727  1.00 35.49     0.174 HD
ATOM     11  HH  ARG D 557     -27.179  -3.354 -16.192  1.00 35.49     0.174 HD
ATOM     12  HH  ARG D 557     -28.188  -4.327 -16.684  1.00 35.49     0.174 HD
ATOM     13  HE  ARG D 557     -27.452  -1.265 -16.361  1.00 35.49     0.178 HD
ENDBRANCH   4   5
ENDBRANCH   3   4
ENDBRANCH   2   3
ENDBRANCH   1   2
END_RES ARG D 557
BEGIN_RES GLU D 570
REMARK  3 active torsions:
REMARK  status: ('A' for Active; 'I' for Inactive)
REMARK    5  A    between atoms: CA   and  CB  
REMARK    6  A    between atoms: CB   and  CG  
REMARK    7  A    between atoms: CG   and  CD  
ROOT
ATOM     14  CA  GLU D 570     -18.033  -6.348 -13.375  1.00 32.92     0.160 C 
ENDROOT
BRANCH  14  15
ATOM     15  CB  GLU D 570     -19.500  -6.345 -13.794  1.00 32.92     0.043 C 
BRANCH  15  16
ATOM     16  CG  GLU D 570     -19.943  -7.400 -14.741  1.00 32.92     0.100 C 
BRANCH  16  17
ATOM     17  CD  GLU D 570     -20.866  -6.876 -15.817  1.00 32.92     0.185 C 
ATOM     18  OE1 GLU D 570     -21.986  -7.403 -15.964  1.00 32.92    -0.647 OA
ATOM     19  OE2 GLU D 570     -20.458  -5.940 -16.532  1.00 32.92    -0.647 OA
ENDBRANCH  16  17
ENDBRANCH  15  16
ENDBRANCH  14  15
END_RES GLU D 570
ENDMDL
MODEL 6
REMARK VINA RESULT:      -6.9      3.915      9.005
REMARK  22 active torsions:
REMARK  status: ('A' for Active; 'I' for Inactive)
REMARK    1  A    between atoms: C_2  and  C_3 
REMARK    2  A    between atoms: C_3  and  C_4 
REMARK    3  A    between atoms: C_4  and  C_5 
REMARK    4  A    between atoms: C_5  and  C_6 
REMARK    5  A    between atoms: C_6  and  C_7 
REMARK    6  A    between atoms: C_7  and  C_8 
REMARK    7  A    between atoms: C_8  and  C_9 
REMARK    8  A    between atoms: C_9  and  C_10 
REMARK    9  A    between atoms: C_10  and  O_12 
REMARK   10  A    between atoms: O_12  and  C_13 
REMARK   11  A    between atoms: C_13  and  C_14 
REMARK   12  A    between atoms: C_14  and  C_17 
REMARK   13  A    between atoms: C_17  and  O_18 
REMARK   14  A    between atoms: O_18  and  C_19 
REMARK   15  A    between atoms: C_19  and  C_21 
REMARK   16  A    between atoms: C_21  and  C_22 
REMARK   17  A    between atoms: C_22  and  C_23 
REMARK   18  A    between atoms: C_23  and  C_24 
REMARK   19  A    between atoms: C_24  and  C_25 
REMARK   20  A    between atoms: C_25  and  C_26 
REMARK   21  A    between atoms: C_26  and  C_27 
REMARK   22  A    between atoms: C_27  and  C_28 
ROOT
HETATM    1  C   UNL     1     -20.390  -8.776  -4.469  1.00  0.00    -0.004 C 
HETATM    2  C   UNL     1     -19.393  -9.084  -3.339  1.00  0.00     0.019 C 
HETATM    3  C   UNL     1     -20.716 -10.075  -5.227  1.00  0.00     0.019 C 
ENDROOT
BRANCH   1   4
HETATM    4  C   UNL     1     -21.694  -8.204  -3.870  1.00  0.00     0.189 C 
BRANCH   4   5
HETATM    5  O   UNL     1     -21.575  -8.029  -2.443  1.00  0.00    -0.321 OA
BRANCH   5   6
HETATM    6  C   UNL     1     -22.112  -6.875  -1.952  1.00  0.00     0.258 C 
HETATM    7  O   UNL     1     -22.398  -5.892  -2.623  1.00  0.00    -0.265 OA
BRANCH   6   8
HETATM    8  C   UNL     1     -22.363  -6.967  -0.466  1.00  0.00     0.111 C 
BRANCH   8   9
HETATM    9  C   UNL     1     -22.306  -8.424  -0.022  1.00  0.00     0.010 C 
BRANCH   9  10
HETATM   10  C   UNL     1     -21.205  -8.663   1.010  1.00  0.00     0.000 C 
BRANCH  10  11
HETATM   11  C   UNL     1     -20.871 -10.146   1.101  1.00  0.00     0.000 C 
BRANCH  11  12
HETATM   12  C   UNL     1     -20.454 -10.683  -0.260  1.00  0.00     0.000 C 
BRANCH  12  13
HETATM   13  C   UNL     1     -21.297 -11.893  -0.638  1.00  0.00     0.000 C 
BRANCH  13  14
HETATM   14  C   UNL     1     -21.764 -11.784  -2.083  1.00  0.00    -0.000 C 
BRANCH  14  15
HETATM   15  C   UNL     1     -23.165 -11.191  -2.157  1.00  0.00    -0.005 C 
HETATM   16  C   UNL     1     -23.997 -11.638  -0.968  1.00  0.00     0.005 C 
ENDBRANCH  14  15
ENDBRANCH  13  14
ENDBRANCH  12  13
ENDBRANCH  11  12
ENDBRANCH  10  11
ENDBRANCH   9  10
ENDBRANCH   8   9
ENDBRANCH   6   8
ENDBRANCH   5   6
ENDBRANCH   4   5
ENDBRANCH   1   4
BRANCH   1  17
HETATM   17  C   UNL     1     -19.753  -7.760  -5.440  1.00  0.00     0.189 C 
BRANCH  17  18
HETATM   18  O   UNL     1     -20.716  -6.758  -5.835  1.00  0.00    -0.321 OA
BRANCH  18  19
HETATM   19  C   UNL     1     -20.251  -5.483  -5.863  1.00  0.00     0.258 C 
HETATM   20  O   UNL     1     -20.245  -4.707  -4.905  1.00  0.00    -0.265 OA
BRANCH  19  21
HETATM   21  C   UNL     1     -19.657  -5.122  -7.199  1.00  0.00     0.111 C 
BRANCH  21  22
HETATM   22  C   UNL     1     -20.755  -5.041  -8.257  1.00  0.00     0.010 C 
BRANCH  22  23
HETATM   23  C   UNL     1     -21.707  -3.874  -8.005  1.00  0.00     0.000 C 
BRANCH  23  24
HETATM   24  C   UNL     1     -23.151  -4.358  -7.980  1.00  0.00     0.000 C 
BRANCH  24  25
HETATM   25  C   UNL     1     -23.981  -3.615  -9.017  1.00  0.00     0.000 C 
BRANCH  25  26
HETATM   26  C   UNL     1     -23.746  -4.198 -10.405  1.00  0.00     0.000 C 
BRANCH  26  27
HETATM   27  C   UNL     1     -23.733  -3.090 -11.449  1.00  0.00    -0.000 C 
BRANCH  27  28
HETATM   28  C   UNL     1     -22.312  -2.814 -11.927  1.00  0.00    -0.005 C 
HETATM   29  C   UNL     1     -21.445  -4.048 -11.763  1.00  0.00     0.005 C 
ENDBRANCH  27  28
ENDBRANCH  26  27
ENDBRANCH  25  26
ENDBRANCH  24  25
ENDBRANCH  23  24
ENDBRANCH  22  23
ENDBRANCH  21  22
ENDBRANCH  19  21
ENDBRANCH  18  19
ENDBRANCH  17  18
ENDBRANCH   1  17
TORSDOF 22
BEGIN_RES ARG D 557
REMARK  4 active torsions:
REMARK  status: ('A' for Active; 'I' for Inactive)
REMARK    1  A    between atoms: CA   and  CB  
REMARK    2  A    between atoms: CB   and  CG  
REMARK    3  A    between atoms: CG   and  CD  
REMARK    4  A    between atoms: CD   and  NE  
REMARK       I    between atoms: NE   and  CZ  
REMARK       I    between atoms: CZ   and  NH1 
REMARK       I    between atoms: CZ   and  NH2 
ROOT
ATOM      1  CA  ARG D 557     -26.217   2.705 -17.014  1.00 35.49     0.159 C 
ENDROOT
BRANCH   1   2
ATOM      2  CB  ARG D 557     -26.789   1.319 -17.183  1.00 35.49     0.034 C 
BRANCH   2   3
ATOM      3  CG  ARG D 557     -25.995   0.207 -16.648  1.00 35.49     0.027 C 
BRANCH   3   4
ATOM      4  CD  ARG D 557     -26.840  -0.871 -16.086  1.00 35.49     0.116 C 
BRANCH   4   5
ATOM      5  NE  ARG D 557     -26.086  -1.778 -15.261  1.00 35.49    -0.212 N 
ATOM      6  CZ  ARG D 557     -26.291  -3.072 -15.156  1.00 35.49     0.666 C 
ATOM      7  NH1 ARG D 557     -27.255  -3.693 -15.810  1.00 35.49    -0.235 N 
ATOM      8  NH2 ARG D 557     -25.495  -3.744 -14.376  1.00 35.49    -0.235 N 
ATOM      9  HH  ARG D 557     -27.789  -3.271 -16.330  1.00 35.49     0.174 HD
ATOM     10  HH  ARG D 557     -27.339  -4.539 -15.704  1.00 35.49     0.174 HD
ATOM     11  HH  ARG D 557     -24.876  -3.318 -13.972  1.00 35.49     0.174 HD
ATOM     12  HH  ARG D 557     -25.593  -4.582 -14.285  1.00 35.49     0.174 HD
ATOM     13  HE  ARG D 557     -25.490  -1.451 -14.750  1.00 35.49     0.178 HD
ENDBRANCH   4   5
ENDBRANCH   3   4
ENDBRANCH   2   3
ENDBRANCH   1   2
END_RES ARG D 557
BEGIN_RES GLU D 570
REMARK  3 active torsions:
REMARK  status: ('A' for Active; 'I' for Inactive)
REMARK    5  A    between atoms: CA   and  CB  
REMARK    6  A    between atoms: CB   and  CG  
REMARK    7  A    between atoms: CG   and  CD  
ROOT
ATOM     14  CA  GLU D 570     -18.033  -6.348 -13.375  1.00 32.92     0.160 C 
ENDROOT
BRANCH  14  15
ATOM     15  CB  GLU D 570     -19.500  -6.345 -13.794  1.00 32.92     0.043 C 
BRANCH  15  16
ATOM     16  CG  GLU D 570     -19.813  -5.939 -15.189  1.00 32.92     0.100 C 
BRANCH  16  17
ATOM     17  CD  GLU D 570     -21.276  -5.624 -15.397  1.00 32.92     0.185 C 
ATOM     18  OE1 GLU D 570     -21.592  -4.539 -15.921  1.00 32.92    -0.647 OA
ATOM     19  OE2 GLU D 570     -22.115  -6.463 -15.016  1.00 32.92    -0.647 OA
ENDBRANCH  16  17
ENDBRANCH  15  16
ENDBRANCH  14  15
END_RES GLU D 570
ENDMDL
MODEL 7
REMARK VINA RESULT:      -6.8      4.511      9.212
REMARK  22 active torsions:
REMARK  status: ('A' for Active; 'I' for Inactive)
REMARK    1  A    between atoms: C_2  and  C_3 
REMARK    2  A    between atoms: C_3  and  C_4 
REMARK    3  A    between atoms: C_4  and  C_5 
REMARK    4  A    between atoms: C_5  and  C_6 
REMARK    5  A    between atoms: C_6  and  C_7 
REMARK    6  A    between atoms: C_7  and  C_8 
REMARK    7  A    between atoms: C_8  and  C_9 
REMARK    8  A    between atoms: C_9  and  C_10 
REMARK    9  A    between atoms: C_10  and  O_12 
REMARK   10  A    between atoms: O_12  and  C_13 
REMARK   11  A    between atoms: C_13  and  C_14 
REMARK   12  A    between atoms: C_14  and  C_17 
REMARK   13  A    between atoms: C_17  and  O_18 
REMARK   14  A    between atoms: O_18  and  C_19 
REMARK   15  A    between atoms: C_19  and  C_21 
REMARK   16  A    between atoms: C_21  and  C_22 
REMARK   17  A    between atoms: C_22  and  C_23 
REMARK   18  A    between atoms: C_23  and  C_24 
REMARK   19  A    between atoms: C_24  and  C_25 
REMARK   20  A    between atoms: C_25  and  C_26 
REMARK   21  A    between atoms: C_26  and  C_27 
REMARK   22  A    between atoms: C_27  and  C_28 
ROOT
HETATM    1  C   UNL     1     -20.120  -9.013  -4.160  1.00  0.00    -0.004 C 
HETATM    2  C   UNL     1     -18.961 -10.021  -4.246  1.00  0.00     0.019 C 
HETATM    3  C   UNL     1     -21.435  -9.717  -4.536  1.00  0.00     0.019 C 
ENDROOT
BRANCH   1   4
HETATM    4  C   UNL     1     -20.234  -8.473  -2.717  1.00  0.00     0.189 C 
BRANCH   4   5
HETATM    5  O   UNL     1     -21.055  -7.287  -2.671  1.00  0.00    -0.321 OA
BRANCH   5   6
HETATM    6  C   UNL     1     -21.772  -7.121  -1.523  1.00  0.00     0.258 C 
HETATM    7  O   UNL     1     -22.644  -6.279  -1.355  1.00  0.00    -0.265 OA
BRANCH   6   8
HETATM    8  C   UNL     1     -21.394  -8.144  -0.479  1.00  0.00     0.111 C 
BRANCH   8   9
HETATM    9  C   UNL     1     -22.652  -8.704   0.174  1.00  0.00     0.010 C 
BRANCH   9  10
HETATM   10  C   UNL     1     -22.895 -10.161  -0.215  1.00  0.00     0.000 C 
BRANCH  10  11
HETATM   11  C   UNL     1     -21.606 -10.965  -0.104  1.00  0.00     0.000 C 
BRANCH  11  12
HETATM   12  C   UNL     1     -21.811 -12.181   0.788  1.00  0.00     0.000 C 
BRANCH  12  13
HETATM   13  C   UNL     1     -23.277 -12.591   0.802  1.00  0.00     0.000 C 
BRANCH  13  14
HETATM   14  C   UNL     1     -23.500 -13.729   1.789  1.00  0.00    -0.000 C 
BRANCH  14  15
HETATM   15  C   UNL     1     -22.174 -14.345   2.214  1.00  0.00    -0.005 C 
HETATM   16  C   UNL     1     -22.272 -14.903   3.622  1.00  0.00     0.005 C 
ENDBRANCH  14  15
ENDBRANCH  13  14
ENDBRANCH  12  13
ENDBRANCH  11  12
ENDBRANCH  10  11
ENDBRANCH   9  10
ENDBRANCH   8   9
ENDBRANCH   6   8
ENDBRANCH   5   6
ENDBRANCH   4   5
ENDBRANCH   1   4
BRANCH   1  17
HETATM   17  C   UNL     1     -19.855  -7.857  -5.148  1.00  0.00     0.189 C 
BRANCH  17  18
HETATM   18  O   UNL     1     -21.036  -7.574  -5.931  1.00  0.00    -0.321 OA
BRANCH  18  19
HETATM   19  C   UNL     1     -21.446  -6.280  -5.919  1.00  0.00     0.258 C 
HETATM   20  O   UNL     1     -22.478  -5.866  -5.386  1.00  0.00    -0.265 OA
BRANCH  19  21
HETATM   21  C   UNL     1     -20.451  -5.360  -6.575  1.00  0.00     0.111 C 
BRANCH  21  22
HETATM   22  C   UNL     1     -21.153  -4.100  -7.076  1.00  0.00     0.010 C 
BRANCH  22  23
HETATM   23  C   UNL     1     -21.633  -4.248  -8.518  1.00  0.00     0.000 C 
BRANCH  23  24
HETATM   24  C   UNL     1     -23.141  -4.051  -8.603  1.00  0.00     0.000 C 
BRANCH  24  25
HETATM   25  C   UNL     1     -23.551  -3.680 -10.021  1.00  0.00     0.000 C 
BRANCH  25  26
HETATM   26  C   UNL     1     -22.394  -3.900 -10.986  1.00  0.00     0.000 C 
BRANCH  26  27
HETATM   27  C   UNL     1     -22.674  -3.210 -12.314  1.00  0.00    -0.000 C 
BRANCH  27  28
HETATM   28  C   UNL     1     -22.432  -4.162 -13.480  1.00  0.00    -0.005 C 
HETATM   29  C   UNL     1     -23.361  -5.358 -13.393  1.00  0.00     0.005 C 
ENDBRANCH  27  28
ENDBRANCH  26  27
ENDBRANCH  25  26
ENDBRANCH  24  25
ENDBRANCH  23  24
ENDBRANCH  22  23
ENDBRANCH  21  22
ENDBRANCH  19  21
ENDBRANCH  18  19
ENDBRANCH  17  18
ENDBRANCH   1  17
TORSDOF 22
BEGIN_RES ARG D 557
REMARK  4 active torsions:
REMARK  status: ('A' for Active; 'I' for Inactive)
REMARK    1  A    between atoms: CA   and  CB  
REMARK    2  A    between atoms: CB   and  CG  
REMARK    3  A    between atoms: CG   and  CD  
REMARK    4  A    between atoms: CD   and  NE  
REMARK       I    between atoms: NE   and  CZ  
REMARK       I    between atoms: CZ   and  NH1 
REMARK       I    between atoms: CZ   and  NH2 
ROOT
ATOM      1  CA  ARG D 557     -26.217   2.705 -17.014  1.00 35.49     0.159 C 
ENDROOT
BRANCH   1   2
ATOM      2  CB  ARG D 557     -26.789   1.319 -17.183  1.00 35.49     0.034 C 
BRANCH   2   3
ATOM      3  CG  ARG D 557     -28.231   1.226 -17.440  1.00 35.49     0.027 C 
BRANCH   3   4
ATOM      4  CD  ARG D 557     -28.913   0.303 -16.504  1.00 35.49     0.116 C 
BRANCH   4   5
ATOM      5  NE  ARG D 557     -29.298  -0.929 -17.141  1.00 35.49    -0.212 N 
ATOM      6  CZ  ARG D 557     -28.670  -2.079 -17.032  1.00 35.49     0.666 C 
ATOM      7  NH1 ARG D 557     -27.574  -2.223 -16.310  1.00 35.49    -0.235 N 
ATOM      8  NH2 ARG D 557     -29.174  -3.099 -17.664  1.00 35.49    -0.235 N 
ATOM      9  HH  ARG D 557     -27.227  -1.565 -15.885  1.00 35.49     0.174 HD
ATOM     10  HH  ARG D 557     -27.210  -2.998 -16.274  1.00 35.49     0.174 HD
ATOM     11  HH  ARG D 557     -29.886  -2.978 -18.116  1.00 35.49     0.174 HD
ATOM     12  HH  ARG D 557     -28.799  -3.858 -17.614  1.00 35.49     0.174 HD
ATOM     13  HE  ARG D 557     -29.952  -0.910 -17.684  1.00 35.49     0.178 HD
ENDBRANCH   4   5
ENDBRANCH   3   4
ENDBRANCH   2   3
ENDBRANCH   1   2
END_RES ARG D 557
BEGIN_RES GLU D 570
REMARK  3 active torsions:
REMARK  status: ('A' for Active; 'I' for Inactive)
REMARK    5  A    between atoms: CA   and  CB  
REMARK    6  A    between atoms: CB   and  CG  
REMARK    7  A    between atoms: CG   and  CD  
ROOT
ATOM     14  CA  GLU D 570     -18.033  -6.348 -13.375  1.00 32.92     0.160 C 
ENDROOT
BRANCH  14  15
ATOM     15  CB  GLU D 570     -19.500  -6.345 -13.794  1.00 32.92     0.043 C 
BRANCH  15  16
ATOM     16  CG  GLU D 570     -20.046  -7.594 -14.385  1.00 32.92     0.100 C 
BRANCH  16  17
ATOM     17  CD  GLU D 570     -20.808  -7.355 -15.667  1.00 32.92     0.185 C 
ATOM     18  OE1 GLU D 570     -21.638  -8.204 -16.045  1.00 32.92    -0.647 OA
ATOM     19  OE2 GLU D 570     -20.560  -6.316 -16.310  1.00 32.92    -0.647 OA
ENDBRANCH  16  17
ENDBRANCH  15  16
ENDBRANCH  14  15
END_RES GLU D 570
ENDMDL
MODEL 8
REMARK VINA RESULT:      -6.7      3.006     10.859
REMARK  22 active torsions:
REMARK  status: ('A' for Active; 'I' for Inactive)
REMARK    1  A    between atoms: C_2  and  C_3 
REMARK    2  A    between atoms: C_3  and  C_4 
REMARK    3  A    between atoms: C_4  and  C_5 
REMARK    4  A    between atoms: C_5  and  C_6 
REMARK    5  A    between atoms: C_6  and  C_7 
REMARK    6  A    between atoms: C_7  and  C_8 
REMARK    7  A    between atoms: C_8  and  C_9 
REMARK    8  A    between atoms: C_9  and  C_10 
REMARK    9  A    between atoms: C_10  and  O_12 
REMARK   10  A    between atoms: O_12  and  C_13 
REMARK   11  A    between atoms: C_13  and  C_14 
REMARK   12  A    between atoms: C_14  and  C_17 
REMARK   13  A    between atoms: C_17  and  O_18 
REMARK   14  A    between atoms: O_18  and  C_19 
REMARK   15  A    between atoms: C_19  and  C_21 
REMARK   16  A    between atoms: C_21  and  C_22 
REMARK   17  A    between atoms: C_22  and  C_23 
REMARK   18  A    between atoms: C_23  and  C_24 
REMARK   19  A    between atoms: C_24  and  C_25 
REMARK   20  A    between atoms: C_25  and  C_26 
REMARK   21  A    between atoms: C_26  and  C_27 
REMARK   22  A    between atoms: C_27  and  C_28 
ROOT
HETATM    1  C   UNL     1     -20.597  -5.009  -6.579  1.00  0.00    -0.004 C 
HETATM    2  C   UNL     1     -21.145  -6.336  -7.132  1.00  0.00     0.019 C 
HETATM    3  C   UNL     1     -19.130  -4.845  -7.014  1.00  0.00     0.019 C 
ENDROOT
BRANCH   1   4
HETATM    4  C   UNL     1     -21.422  -3.830  -7.141  1.00  0.00     0.189 C 
BRANCH   4   5
HETATM    5  O   UNL     1     -22.384  -4.289  -8.113  1.00  0.00    -0.321 OA
BRANCH   5   6
HETATM    6  C   UNL     1     -22.019  -4.122  -9.416  1.00  0.00     0.258 C 
HETATM    7  O   UNL     1     -20.943  -3.678  -9.794  1.00  0.00    -0.265 OA
BRANCH   6   8
HETATM    8  C   UNL     1     -23.096  -4.601 -10.360  1.00  0.00     0.111 C 
BRANCH   8   9
HETATM    9  C   UNL     1     -24.184  -3.541 -10.484  1.00  0.00     0.010 C 
BRANCH   9  10
HETATM   10  C   UNL     1     -24.373  -3.086 -11.930  1.00  0.00     0.000 C 
BRANCH  10  11
HETATM   11  C   UNL     1     -23.027  -2.978 -12.636  1.00  0.00     0.000 C 
BRANCH  11  12
HETATM   12  C   UNL     1     -23.161  -3.366 -14.101  1.00  0.00     0.000 C 
BRANCH  12  13
HETATM   13  C   UNL     1     -22.720  -4.807 -14.315  1.00  0.00     0.000 C 
BRANCH  13  14
HETATM   14  C   UNL     1     -23.915  -5.746 -14.224  1.00  0.00    -0.000 C 
BRANCH  14  15
HETATM   15  C   UNL     1     -24.040  -6.588 -15.487  1.00  0.00    -0.005 C 
HETATM   16  C   UNL     1     -25.498  -6.876 -15.794  1.00  0.00     0.005 C 
ENDBRANCH  14  15
ENDBRANCH  13  14
ENDBRANCH  12  13
ENDBRANCH  11  12
ENDBRANCH  10  11
ENDBRANCH   9  10
ENDBRANCH   8   9
ENDBRANCH   6   8
ENDBRANCH   5   6
ENDBRANCH   4   5
ENDBRANCH   1   4
BRANCH   1  17
HETATM   17  C   UNL     1     -20.676  -5.035  -5.038  1.00  0.00     0.189 C 
BRANCH  17  18
HETATM   18  O   UNL     1     -21.086  -6.338  -4.569  1.00  0.00    -0.321 OA
BRANCH  18  19
HETATM   19  C   UNL     1     -21.478  -6.392  -3.270  1.00  0.00     0.258 C 
HETATM   20  O   UNL     1     -22.539  -5.948  -2.829  1.00  0.00    -0.265 OA
BRANCH  19  21
HETATM   21  C   UNL     1     -20.493  -7.138  -2.408  1.00  0.00     0.111 C 
BRANCH  21  22
HETATM   22  C   UNL     1     -21.012  -8.544  -2.116  1.00  0.00     0.010 C 
BRANCH  22  23
HETATM   23  C   UNL     1     -21.017  -8.852  -0.620  1.00  0.00     0.000 C 
BRANCH  23  24
HETATM   24  C   UNL     1     -22.145  -8.102   0.077  1.00  0.00     0.000 C 
BRANCH  24  25
HETATM   25  C   UNL     1     -23.415  -8.941   0.092  1.00  0.00     0.000 C 
BRANCH  25  26
HETATM   26  C   UNL     1     -23.073 -10.424   0.171  1.00  0.00     0.000 C 
BRANCH  26  27
HETATM   27  C   UNL     1     -23.820 -11.197  -0.907  1.00  0.00    -0.000 C 
BRANCH  27  28
HETATM   28  C   UNL     1     -22.844 -11.849  -1.879  1.00  0.00    -0.005 C 
HETATM   29  C   UNL     1     -23.013 -11.272  -3.272  1.00  0.00     0.005 C 
ENDBRANCH  27  28
ENDBRANCH  26  27
ENDBRANCH  25  26
ENDBRANCH  24  25
ENDBRANCH  23  24
ENDBRANCH  22  23
ENDBRANCH  21  22
ENDBRANCH  19  21
ENDBRANCH  18  19
ENDBRANCH  17  18
ENDBRANCH   1  17
TORSDOF 22
BEGIN_RES ARG D 557
REMARK  4 active torsions:
REMARK  status: ('A' for Active; 'I' for Inactive)
REMARK    1  A    between atoms: CA   and  CB  
REMARK    2  A    between atoms: CB   and  CG  
REMARK    3  A    between atoms: CG   and  CD  
REMARK    4  A    between atoms: CD   and  NE  
REMARK       I    between atoms: NE   and  CZ  
REMARK       I    between atoms: CZ   and  NH1 
REMARK       I    between atoms: CZ   and  NH2 
ROOT
ATOM      1  CA  ARG D 557     -26.217   2.705 -17.014  1.00 35.49     0.159 C 
ENDROOT
BRANCH   1   2
ATOM      2  CB  ARG D 557     -26.789   1.319 -17.183  1.00 35.49     0.034 C 
BRANCH   2   3
ATOM      3  CG  ARG D 557     -28.231   1.167 -16.953  1.00 35.49     0.027 C 
BRANCH   3   4
ATOM      4  CD  ARG D 557     -28.626  -0.248 -16.768  1.00 35.49     0.116 C 
BRANCH   4   5
ATOM      5  NE  ARG D 557     -27.622  -1.004 -16.067  1.00 35.49    -0.212 N 
ATOM      6  CZ  ARG D 557     -27.468  -2.309 -16.118  1.00 35.49     0.666 C 
ATOM      7  NH1 ARG D 557     -28.258  -3.089 -16.833  1.00 35.49    -0.235 N 
ATOM      8  NH2 ARG D 557     -26.489  -2.824 -15.433  1.00 35.49    -0.235 N 
ATOM      9  HH  ARG D 557     -28.907  -2.770 -17.293  1.00 35.49     0.174 HD
ATOM     10  HH  ARG D 557     -28.108  -3.932 -16.830  1.00 35.49     0.174 HD
ATOM     11  HH  ARG D 557     -25.991  -2.296 -14.987  1.00 35.49     0.174 HD
ATOM     12  HH  ARG D 557     -26.356  -3.662 -15.445  1.00 35.49     0.174 HD
ATOM     13  HE  ARG D 557     -27.115  -0.589 -15.525  1.00 35.49     0.178 HD
ENDBRANCH   4   5
ENDBRANCH   3   4
ENDBRANCH   2   3
ENDBRANCH   1   2
END_RES ARG D 557
BEGIN_RES GLU D 570
REMARK  3 active torsions:
REMARK  status: ('A' for Active; 'I' for Inactive)
REMARK    5  A    between atoms: CA   and  CB  
REMARK    6  A    between atoms: CB   and  CG  
REMARK    7  A    between atoms: CG   and  CD  
ROOT
ATOM     14  CA  GLU D 570     -18.033  -6.348 -13.375  1.00 32.92     0.160 C 
ENDROOT
BRANCH  14  15
ATOM     15  CB  GLU D 570     -19.500  -6.345 -13.794  1.00 32.92     0.043 C 
BRANCH  15  16
ATOM     16  CG  GLU D 570     -20.084  -7.633 -14.250  1.00 32.92     0.100 C 
BRANCH  16  17
ATOM     17  CD  GLU D 570     -20.594  -7.578 -15.671  1.00 32.92     0.185 C 
ATOM     18  OE1 GLU D 570     -20.429  -6.536 -16.334  1.00 32.92    -0.647 OA
ATOM     19  OE2 GLU D 570     -21.179  -8.583 -16.122  1.00 32.92    -0.647 OA
ENDBRANCH  16  17
ENDBRANCH  15  16
ENDBRANCH  14  15
END_RES GLU D 570
ENDMDL
MODEL 9
REMARK VINA RESULT:      -6.6      1.834     10.332
REMARK  22 active torsions:
REMARK  status: ('A' for Active; 'I' for Inactive)
REMARK    1  A    between atoms: C_2  and  C_3 
REMARK    2  A    between atoms: C_3  and  C_4 
REMARK    3  A    between atoms: C_4  and  C_5 
REMARK    4  A    between atoms: C_5  and  C_6 
REMARK    5  A    between atoms: C_6  and  C_7 
REMARK    6  A    between atoms: C_7  and  C_8 
REMARK    7  A    between atoms: C_8  and  C_9 
REMARK    8  A    between atoms: C_9  and  C_10 
REMARK    9  A    between atoms: C_10  and  O_12 
REMARK   10  A    between atoms: O_12  and  C_13 
REMARK   11  A    between atoms: C_13  and  C_14 
REMARK   12  A    between atoms: C_14  and  C_17 
REMARK   13  A    between atoms: C_17  and  O_18 
REMARK   14  A    between atoms: O_18  and  C_19 
REMARK   15  A    between atoms: C_19  and  C_21 
REMARK   16  A    between atoms: C_21  and  C_22 
REMARK   17  A    between atoms: C_22  and  C_23 
REMARK   18  A    between atoms: C_23  and  C_24 
REMARK   19  A    between atoms: C_24  and  C_25 
REMARK   20  A    between atoms: C_25  and  C_26 
REMARK   21  A    between atoms: C_26  and  C_27 
REMARK   22  A    between atoms: C_27  and  C_28 
ROOT
HETATM    1  C   UNL     1     -23.284  -3.526 -11.652  1.00  0.00    -0.004 C 
HETATM    2  C   UNL     1     -22.605  -2.454 -12.521  1.00  0.00     0.019 C 
HETATM    3  C   UNL     1     -24.770  -3.169 -11.473  1.00  0.00     0.019 C 
ENDROOT
BRANCH   1   4
HETATM    4  C   UNL     1     -23.180  -4.902 -12.348  1.00  0.00     0.189 C 
BRANCH   4   5
HETATM    5  O   UNL     1     -22.966  -4.750 -13.766  1.00  0.00    -0.321 OA
BRANCH   5   6
HETATM    6  C   UNL     1     -24.042  -5.045 -14.551  1.00  0.00     0.258 C 
HETATM    7  O   UNL     1     -24.972  -4.285 -14.785  1.00  0.00    -0.265 OA
BRANCH   6   8
HETATM    8  C   UNL     1     -23.931  -6.428 -15.148  1.00  0.00     0.111 C 
BRANCH   8   9
HETATM    9  C   UNL     1     -25.296  -6.885 -15.650  1.00  0.00     0.010 C 
BRANCH   9  10
HETATM   10  C   UNL     1     -25.534  -6.479 -17.103  1.00  0.00     0.000 C 
BRANCH  10  11
HETATM   11  C   UNL     1     -24.473  -7.093 -18.009  1.00  0.00     0.000 C 
BRANCH  11  12
HETATM   12  C   UNL     1     -24.826  -6.866 -19.472  1.00  0.00     0.000 C 
BRANCH  12  13
HETATM   13  C   UNL     1     -23.971  -7.750 -20.369  1.00  0.00     0.000 C 
BRANCH  13  14
HETATM   14  C   UNL     1     -24.608  -7.881 -21.746  1.00  0.00    -0.000 C 
BRANCH  14  15
HETATM   15  C   UNL     1     -23.542  -7.955 -22.832  1.00  0.00    -0.005 C 
HETATM   16  C   UNL     1     -22.366  -8.795 -22.369  1.00  0.00     0.005 C 
ENDBRANCH  14  15
ENDBRANCH  13  14
ENDBRANCH  12  13
ENDBRANCH  11  12
ENDBRANCH  10  11
ENDBRANCH   9  10
ENDBRANCH   8   9
ENDBRANCH   6   8
ENDBRANCH   5   6
ENDBRANCH   4   5
ENDBRANCH   1   4
BRANCH   1  17
HETATM   17  C   UNL     1     -22.594  -3.567 -10.273  1.00  0.00     0.189 C 
BRANCH  17  18
HETATM   18  O   UNL     1     -21.750  -4.733 -10.158  1.00  0.00    -0.321 OA
BRANCH  18  19
HETATM   19  C   UNL     1     -20.414  -4.489 -10.179  1.00  0.00     0.258 C 
HETATM   20  O   UNL     1     -19.754  -4.233 -11.188  1.00  0.00    -0.265 OA
BRANCH  19  21
HETATM   21  C   UNL     1     -19.813  -4.487  -8.799  1.00  0.00     0.111 C 
BRANCH  21  22
HETATM   22  C   UNL     1     -20.663  -5.335  -7.855  1.00  0.00     0.010 C 
BRANCH  22  23
HETATM   23  C   UNL     1     -21.096  -4.553  -6.618  1.00  0.00     0.000 C 
BRANCH  23  24
HETATM   24  C   UNL     1     -20.453  -5.134  -5.365  1.00  0.00     0.000 C 
BRANCH  24  25
HETATM   25  C   UNL     1     -20.452  -6.655  -5.423  1.00  0.00     0.000 C 
BRANCH  25  26
HETATM   26  C   UNL     1     -21.482  -7.227  -4.457  1.00  0.00     0.000 C 
BRANCH  26  27
HETATM   27  C   UNL     1     -21.794  -6.221  -3.359  1.00  0.00    -0.000 C 
BRANCH  27  28
HETATM   28  C   UNL     1     -21.729  -6.881  -1.986  1.00  0.00    -0.005 C 
HETATM   29  C   UNL     1     -21.327  -8.338  -2.114  1.00  0.00     0.005 C 
ENDBRANCH  27  28
ENDBRANCH  26  27
ENDBRANCH  25  26
ENDBRANCH  24  25
ENDBRANCH  23  24
ENDBRANCH  22  23
ENDBRANCH  21  22
ENDBRANCH  19  21
ENDBRANCH  18  19
ENDBRANCH  17  18
ENDBRANCH   1  17
TORSDOF 22
BEGIN_RES ARG D 557
REMARK  4 active torsions:
REMARK  status: ('A' for Active; 'I' for Inactive)
REMARK    1  A    between atoms: CA   and  CB  
REMARK    2  A    between atoms: CB   and  CG  
REMARK    3  A    between atoms: CG   and  CD  
REMARK    4  A    between atoms: CD   and  NE  
REMARK       I    between atoms: NE   and  CZ  
REMARK       I    between atoms: CZ   and  NH1 
REMARK       I    between atoms: CZ   and  NH2 
ROOT
ATOM      1  CA  ARG D 557     -26.217   2.705 -17.014  1.00 35.49     0.159 C 
ENDROOT
BRANCH   1   2
ATOM      2  CB  ARG D 557     -26.789   1.319 -17.183  1.00 35.49     0.034 C 
BRANCH   2   3
ATOM      3  CG  ARG D 557     -25.957   0.200 -16.723  1.00 35.49     0.027 C 
BRANCH   3   4
ATOM      4  CD  ARG D 557     -26.750  -0.851 -16.046  1.00 35.49     0.116 C 
BRANCH   4   5
ATOM      5  NE  ARG D 557     -27.993  -1.113 -16.722  1.00 35.49    -0.212 N 
ATOM      6  CZ  ARG D 557     -28.504  -2.300 -16.959  1.00 35.49     0.666 C 
ATOM      7  NH1 ARG D 557     -27.898  -3.417 -16.600  1.00 35.49    -0.235 N 
ATOM      8  NH2 ARG D 557     -29.654  -2.349 -17.567  1.00 35.49    -0.235 N 
ATOM      9  HH  ARG D 557     -27.142  -3.408 -16.197  1.00 35.49     0.174 HD
ATOM     10  HH  ARG D 557     -28.280  -4.163 -16.779  1.00 35.49     0.174 HD
ATOM     11  HH  ARG D 557     -30.025  -1.612 -17.781  1.00 35.49     0.174 HD
ATOM     12  HH  ARG D 557     -30.016  -3.097 -17.734  1.00 35.49     0.174 HD
ATOM     13  HE  ARG D 557     -28.415  -0.452 -17.053  1.00 35.49     0.178 HD
ENDBRANCH   4   5
ENDBRANCH   3   4
ENDBRANCH   2   3
ENDBRANCH   1   2
END_RES ARG D 557
BEGIN_RES GLU D 570
REMARK  3 active torsions:
REMARK  status: ('A' for Active; 'I' for Inactive)
REMARK    5  A    between atoms: CA   and  CB  
REMARK    6  A    between atoms: CB   and  CG  
REMARK    7  A    between atoms: CG   and  CD  
ROOT
ATOM     14  CA  GLU D 570     -18.033  -6.348 -13.375  1.00 32.92     0.160 C 
ENDROOT
BRANCH  14  15
ATOM     15  CB  GLU D 570     -19.500  -6.345 -13.794  1.00 32.92     0.043 C 
BRANCH  15  16
ATOM     16  CG  GLU D 570     -20.082  -7.631 -14.258  1.00 32.92     0.100 C 
BRANCH  16  17
ATOM     17  CD  GLU D 570     -20.646  -7.551 -15.658  1.00 32.92     0.185 C 
ATOM     18  OE1 GLU D 570     -20.574  -6.473 -16.279  1.00 32.92    -0.647 OA
ATOM     19  OE2 GLU D 570     -21.181  -8.573 -16.132  1.00 32.92    -0.647 OA
ENDBRANCH  16  17
ENDBRANCH  15  16
ENDBRANCH  14  15
END_RES GLU D 570
ENDMDL
