MODEL 1
REMARK VINA RESULT:      -4.7      0.000      0.000
REMARK  0 active torsions:
REMARK  status: ('A' for Active; 'I' for Inactive)
ROOT
HETATM    1  C   UNL     1     -21.697  -4.068  -7.865  1.00  0.00     0.042 C 
HETATM    2  C   UNL     1     -22.677  -4.301  -8.997  1.00  0.00     0.154 C 
HETATM    3  C   UNL     1     -22.367  -3.515 -10.234  1.00  0.00     0.213 C 
HETATM    4  O   UNL     1     -23.643  -3.357 -10.828  1.00  0.00    -0.296 OA
HETATM    5  C   UNL     1     -24.558  -3.428  -9.815  1.00  0.00     0.406 C 
HETATM    6  O   UNL     1     -25.742  -3.164  -9.935  1.00  0.00    -0.229 OA
HETATM    7  O   UNL     1     -23.968  -3.828  -8.649  1.00  0.00    -0.291 OA
ENDROOT
TORSDOF 0
BEGIN_RES ARG D 557
REMARK  4 active torsions:
REMARK  status: ('A' for Active; 'I' for Inactive)
REMARK    1  A    between atoms: CA   and  CB  
REMARK    2  A    between atoms: CB   and  CG  
REMARK    3  A    between atoms: CG   and  CD  
REMARK    4  A    between atoms: CD   and  NE  
REMARK       I    between atoms: NE   and  CZ  
REMARK       I    between atoms: CZ   and  NH1 
REMARK       I    between atoms: CZ   and  NH2 
ROOT
ATOM      1  CA  ARG D 557     -26.217   2.705 -17.014  1.00 35.49     0.159 C 
ENDROOT
BRANCH   1   2
ATOM      2  CB  ARG D 557     -26.789   1.319 -17.183  1.00 35.49     0.034 C 
BRANCH   2   3
ATOM      3  CG  ARG D 557     -25.837   0.202 -17.141  1.00 35.49     0.027 C 
BRANCH   3   4
ATOM      4  CD  ARG D 557     -24.753   0.421 -16.157  1.00 35.49     0.116 C 
BRANCH   4   5
ATOM      5  NE  ARG D 557     -24.890  -0.427 -15.002  1.00 35.49    -0.212 N 
ATOM      6  CZ  ARG D 557     -24.074  -1.401 -14.663  1.00 35.49     0.666 C 
ATOM      7  NH1 ARG D 557     -23.015  -1.721 -15.383  1.00 35.49    -0.235 N 
ATOM      8  NH2 ARG D 557     -24.341  -2.053 -13.569  1.00 35.49    -0.235 N 
ATOM      9  HH  ARG D 557     -22.820  -1.304 -16.106  1.00 35.49     0.174 HD
ATOM     10  HH  ARG D 557     -22.518  -2.364 -15.112  1.00 35.49     0.174 HD
ATOM     11  HH  ARG D 557     -25.027  -1.819 -13.121  1.00 35.49     0.174 HD
ATOM     12  HH  ARG D 557     -23.836  -2.686 -13.317  1.00 35.49     0.174 HD
ATOM     13  HE  ARG D 557     -25.585  -0.337 -14.521  1.00 35.49     0.178 HD
ENDBRANCH   4   5
ENDBRANCH   3   4
ENDBRANCH   2   3
ENDBRANCH   1   2
END_RES ARG D 557
BEGIN_RES GLU D 570
REMARK  3 active torsions:
REMARK  status: ('A' for Active; 'I' for Inactive)
REMARK    5  A    between atoms: CA   and  CB  
REMARK    6  A    between atoms: CB   and  CG  
REMARK    7  A    between atoms: CG   and  CD  
ROOT
ATOM     14  CA  GLU D 570     -18.033  -6.348 -13.375  1.00 32.92     0.160 C 
ENDROOT
BRANCH  14  15
ATOM     15  CB  GLU D 570     -19.500  -6.345 -13.794  1.00 32.92     0.043 C 
BRANCH  15  16
ATOM     16  CG  GLU D 570     -20.438  -5.515 -12.995  1.00 32.92     0.100 C 
BRANCH  16  17
ATOM     17  CD  GLU D 570     -21.739  -5.239 -13.713  1.00 32.92     0.185 C 
ATOM     18  OE1 GLU D 570     -22.311  -6.172 -14.308  1.00 32.92    -0.647 OA
ATOM     19  OE2 GLU D 570     -22.181  -4.074 -13.694  1.00 32.92    -0.647 OA
ENDBRANCH  16  17
ENDBRANCH  15  16
ENDBRANCH  14  15
END_RES GLU D 570
ENDMDL
MODEL 2
REMARK VINA RESULT:      -4.6      3.297      5.415
REMARK  0 active torsions:
REMARK  status: ('A' for Active; 'I' for Inactive)
ROOT
HETATM    1  C   UNL     1     -28.041  -4.399 -16.815  1.00  0.00     0.042 C 
HETATM    2  C   UNL     1     -27.320  -5.731 -16.747  1.00  0.00     0.154 C 
HETATM    3  C   UNL     1     -27.938  -6.701 -15.787  1.00  0.00     0.213 C 
HETATM    4  O   UNL     1     -26.833  -7.501 -15.404  1.00  0.00    -0.296 OA
HETATM    5  C   UNL     1     -25.717  -6.730 -15.565  1.00  0.00     0.406 C 
HETATM    6  O   UNL     1     -24.604  -7.036 -15.172  1.00  0.00    -0.229 OA
HETATM    7  O   UNL     1     -26.014  -5.568 -16.221  1.00  0.00    -0.291 OA
ENDROOT
TORSDOF 0
BEGIN_RES ARG D 557
REMARK  4 active torsions:
REMARK  status: ('A' for Active; 'I' for Inactive)
REMARK    1  A    between atoms: CA   and  CB  
REMARK    2  A    between atoms: CB   and  CG  
REMARK    3  A    between atoms: CG   and  CD  
REMARK    4  A    between atoms: CD   and  NE  
REMARK       I    between atoms: NE   and  CZ  
REMARK       I    between atoms: CZ   and  NH1 
REMARK       I    between atoms: CZ   and  NH2 
ROOT
ATOM      1  CA  ARG D 557     -26.217   2.705 -17.014  1.00 35.49     0.159 C 
ENDROOT
BRANCH   1   2
ATOM      2  CB  ARG D 557     -26.789   1.319 -17.183  1.00 35.49     0.034 C 
BRANCH   2   3
ATOM      3  CG  ARG D 557     -25.861   0.195 -17.008  1.00 35.49     0.027 C 
BRANCH   3   4
ATOM      4  CD  ARG D 557     -26.252  -0.691 -15.888  1.00 35.49     0.116 C 
BRANCH   4   5
ATOM      5  NE  ARG D 557     -25.177  -0.887 -14.951  1.00 35.49    -0.212 N 
ATOM      6  CZ  ARG D 557     -24.874  -2.019 -14.356  1.00 35.49     0.666 C 
ATOM      7  NH1 ARG D 557     -25.558  -3.130 -14.555  1.00 35.49    -0.235 N 
ATOM      8  NH2 ARG D 557     -23.852  -2.018 -13.551  1.00 35.49    -0.235 N 
ATOM      9  HH  ARG D 557     -26.233  -3.154 -15.082  1.00 35.49     0.174 HD
ATOM     10  HH  ARG D 557     -25.312  -3.839 -14.141  1.00 35.49     0.174 HD
ATOM     11  HH  ARG D 557     -23.424  -1.288 -13.448  1.00 35.49     0.174 HD
ATOM     12  HH  ARG D 557     -23.623  -2.730 -13.152  1.00 35.49     0.174 HD
ATOM     13  HE  ARG D 557     -24.729  -0.206 -14.709  1.00 35.49     0.178 HD
ENDBRANCH   4   5
ENDBRANCH   3   4
ENDBRANCH   2   3
ENDBRANCH   1   2
END_RES ARG D 557
BEGIN_RES GLU D 570
REMARK  3 active torsions:
REMARK  status: ('A' for Active; 'I' for Inactive)
REMARK    5  A    between atoms: CA   and  CB  
REMARK    6  A    between atoms: CB   and  CG  
REMARK    7  A    between atoms: CG   and  CD  
ROOT
ATOM     14  CA  GLU D 570     -18.033  -6.348 -13.375  1.00 32.92     0.160 C 
ENDROOT
BRANCH  14  15
ATOM     15  CB  GLU D 570     -19.500  -6.345 -13.794  1.00 32.92     0.043 C 
BRANCH  15  16
ATOM     16  CG  GLU D 570     -20.446  -5.552 -12.967  1.00 32.92     0.100 C 
BRANCH  16  17
ATOM     17  CD  GLU D 570     -21.686  -5.137 -13.725  1.00 32.92     0.185 C 
ATOM     18  OE1 GLU D 570     -22.739  -4.925 -13.093  1.00 32.92    -0.647 OA
ATOM     19  OE2 GLU D 570     -21.608  -5.040 -14.966  1.00 32.92    -0.647 OA
ENDBRANCH  16  17
ENDBRANCH  15  16
ENDBRANCH  14  15
END_RES GLU D 570
ENDMDL
MODEL 3
REMARK VINA RESULT:      -4.3      2.654      3.476
REMARK  0 active torsions:
REMARK  status: ('A' for Active; 'I' for Inactive)
ROOT
HETATM    1  C   UNL     1     -21.868  -3.793 -10.871  1.00  0.00     0.042 C 
HETATM    2  C   UNL     1     -22.717  -2.860 -11.709  1.00  0.00     0.154 C 
HETATM    3  C   UNL     1     -24.170  -3.224 -11.733  1.00  0.00     0.213 C 
HETATM    4  O   UNL     1     -24.596  -2.715 -12.984  1.00  0.00    -0.296 OA
HETATM    5  C   UNL     1     -23.493  -2.688 -13.792  1.00  0.00     0.406 C 
HETATM    6  O   UNL     1     -23.521  -2.467 -14.991  1.00  0.00    -0.229 OA
HETATM    7  O   UNL     1     -22.356  -2.947 -13.078  1.00  0.00    -0.291 OA
ENDROOT
TORSDOF 0
BEGIN_RES ARG D 557
REMARK  4 active torsions:
REMARK  status: ('A' for Active; 'I' for Inactive)
REMARK    1  A    between atoms: CA   and  CB  
REMARK    2  A    between atoms: CB   and  CG  
REMARK    3  A    between atoms: CG   and  CD  
REMARK    4  A    between atoms: CD   and  NE  
REMARK       I    between atoms: NE   and  CZ  
REMARK       I    between atoms: CZ   and  NH1 
REMARK       I    between atoms: CZ   and  NH2 
ROOT
ATOM      1  CA  ARG D 557     -26.217   2.705 -17.014  1.00 35.49     0.159 C 
ENDROOT
BRANCH   1   2
ATOM      2  CB  ARG D 557     -26.789   1.319 -17.183  1.00 35.49     0.034 C 
BRANCH   2   3
ATOM      3  CG  ARG D 557     -28.228   1.163 -16.936  1.00 35.49     0.027 C 
BRANCH   3   4
ATOM      4  CD  ARG D 557     -28.626  -0.256 -16.800  1.00 35.49     0.116 C 
BRANCH   4   5
ATOM      5  NE  ARG D 557     -27.644  -1.030 -16.086  1.00 35.49    -0.212 N 
ATOM      6  CZ  ARG D 557     -27.496  -2.334 -16.155  1.00 35.49     0.666 C 
ATOM      7  NH1 ARG D 557     -28.271  -3.097 -16.902  1.00 35.49    -0.235 N 
ATOM      8  NH2 ARG D 557     -26.537  -2.866 -15.454  1.00 35.49    -0.235 N 
ATOM      9  HH  ARG D 557     -28.907  -2.768 -17.373  1.00 35.49     0.174 HD
ATOM     10  HH  ARG D 557     -28.125  -3.942 -16.910  1.00 35.49     0.174 HD
ATOM     11  HH  ARG D 557     -26.048  -2.347 -14.986  1.00 35.49     0.174 HD
ATOM     12  HH  ARG D 557     -26.408  -3.704 -15.476  1.00 35.49     0.174 HD
ATOM     13  HE  ARG D 557     -27.149  -0.626 -15.525  1.00 35.49     0.178 HD
ENDBRANCH   4   5
ENDBRANCH   3   4
ENDBRANCH   2   3
ENDBRANCH   1   2
END_RES ARG D 557
BEGIN_RES GLU D 570
REMARK  3 active torsions:
REMARK  status: ('A' for Active; 'I' for Inactive)
REMARK    5  A    between atoms: CA   and  CB  
REMARK    6  A    between atoms: CB   and  CG  
REMARK    7  A    between atoms: CG   and  CD  
ROOT
ATOM     14  CA  GLU D 570     -18.033  -6.348 -13.375  1.00 32.92     0.160 C 
ENDROOT
BRANCH  14  15
ATOM     15  CB  GLU D 570     -19.500  -6.345 -13.794  1.00 32.92     0.043 C 
BRANCH  15  16
ATOM     16  CG  GLU D 570     -19.817  -5.898 -15.175  1.00 32.92     0.100 C 
BRANCH  16  17
ATOM     17  CD  GLU D 570     -21.271  -5.531 -15.357  1.00 32.92     0.185 C 
ATOM     18  OE1 GLU D 570     -22.103  -5.921 -14.516  1.00 32.92    -0.647 OA
ATOM     19  OE2 GLU D 570     -21.583  -4.860 -16.360  1.00 32.92    -0.647 OA
ENDBRANCH  16  17
ENDBRANCH  15  16
ENDBRANCH  14  15
END_RES GLU D 570
ENDMDL
MODEL 4
REMARK VINA RESULT:      -4.2      1.251      1.917
REMARK  0 active torsions:
REMARK  status: ('A' for Active; 'I' for Inactive)
ROOT
HETATM    1  C   UNL     1     -21.451  -4.092 -11.511  1.00  0.00     0.042 C 
HETATM    2  C   UNL     1     -22.346  -3.490 -10.446  1.00  0.00     0.154 C 
HETATM    3  C   UNL     1     -22.576  -4.393  -9.272  1.00  0.00     0.213 C 
HETATM    4  O   UNL     1     -23.846  -3.972  -8.805  1.00  0.00    -0.296 OA
HETATM    5  C   UNL     1     -24.500  -3.436  -9.878  1.00  0.00     0.406 C 
HETATM    6  O   UNL     1     -25.680  -3.128  -9.883  1.00  0.00    -0.229 OA
HETATM    7  O   UNL     1     -23.658  -3.295 -10.946  1.00  0.00    -0.291 OA
ENDROOT
TORSDOF 0
BEGIN_RES ARG D 557
REMARK  4 active torsions:
REMARK  status: ('A' for Active; 'I' for Inactive)
REMARK    1  A    between atoms: CA   and  CB  
REMARK    2  A    between atoms: CB   and  CG  
REMARK    3  A    between atoms: CG   and  CD  
REMARK    4  A    between atoms: CD   and  NE  
REMARK       I    between atoms: NE   and  CZ  
REMARK       I    between atoms: CZ   and  NH1 
REMARK       I    between atoms: CZ   and  NH2 
ROOT
ATOM      1  CA  ARG D 557     -26.217   2.705 -17.014  1.00 35.49     0.159 C 
ENDROOT
BRANCH   1   2
ATOM      2  CB  ARG D 557     -26.789   1.319 -17.183  1.00 35.49     0.034 C 
BRANCH   2   3
ATOM      3  CG  ARG D 557     -25.862   0.195 -17.001  1.00 35.49     0.027 C 
BRANCH   3   4
ATOM      4  CD  ARG D 557     -26.278  -0.706 -15.901  1.00 35.49     0.116 C 
BRANCH   4   5
ATOM      5  NE  ARG D 557     -25.227  -0.909 -14.940  1.00 35.49    -0.212 N 
ATOM      6  CZ  ARG D 557     -24.943  -2.044 -14.340  1.00 35.49     0.666 C 
ATOM      7  NH1 ARG D 557     -25.629  -3.151 -14.556  1.00 35.49    -0.235 N 
ATOM      8  NH2 ARG D 557     -23.940  -2.050 -13.511  1.00 35.49    -0.235 N 
ATOM      9  HH  ARG D 557     -26.291  -3.170 -15.099  1.00 35.49     0.174 HD
ATOM     10  HH  ARG D 557     -25.396  -3.862 -14.139  1.00 35.49     0.174 HD
ATOM     11  HH  ARG D 557     -23.510  -1.322 -13.397  1.00 35.49     0.174 HD
ATOM     12  HH  ARG D 557     -23.724  -2.764 -13.108  1.00 35.49     0.174 HD
ATOM     13  HE  ARG D 557     -24.781  -0.231 -14.687  1.00 35.49     0.178 HD
ENDBRANCH   4   5
ENDBRANCH   3   4
ENDBRANCH   2   3
ENDBRANCH   1   2
END_RES ARG D 557
BEGIN_RES GLU D 570
REMARK  3 active torsions:
REMARK  status: ('A' for Active; 'I' for Inactive)
REMARK    5  A    between atoms: CA   and  CB  
REMARK    6  A    between atoms: CB   and  CG  
REMARK    7  A    between atoms: CG   and  CD  
ROOT
ATOM     14  CA  GLU D 570     -18.033  -6.348 -13.375  1.00 32.92     0.160 C 
ENDROOT
BRANCH  14  15
ATOM     15  CB  GLU D 570     -19.500  -6.345 -13.794  1.00 32.92     0.043 C 
BRANCH  15  16
ATOM     16  CG  GLU D 570     -19.810  -5.973 -15.199  1.00 32.92     0.100 C 
BRANCH  16  17
ATOM     17  CD  GLU D 570     -21.253  -5.573 -15.398  1.00 32.92     0.185 C 
ATOM     18  OE1 GLU D 570     -21.562  -4.901 -16.400  1.00 32.92    -0.647 OA
ATOM     19  OE2 GLU D 570     -22.081  -5.920 -14.532  1.00 32.92    -0.647 OA
ENDBRANCH  16  17
ENDBRANCH  15  16
ENDBRANCH  14  15
END_RES GLU D 570
ENDMDL
MODEL 5
REMARK VINA RESULT:      -3.8      2.604      3.042
REMARK  0 active torsions:
REMARK  status: ('A' for Active; 'I' for Inactive)
ROOT
HETATM    1  C   UNL     1     -21.703  -3.976  -7.670  1.00  0.00     0.042 C 
HETATM    2  C   UNL     1     -22.634  -4.280  -8.826  1.00  0.00     0.154 C 
HETATM    3  C   UNL     1     -22.255  -3.593 -10.102  1.00  0.00     0.213 C 
HETATM    4  O   UNL     1     -23.501  -3.463 -10.764  1.00  0.00    -0.296 OA
HETATM    5  C   UNL     1     -24.461  -3.446  -9.792  1.00  0.00     0.406 C 
HETATM    6  O   UNL     1     -25.635  -3.177  -9.986  1.00  0.00    -0.229 OA
HETATM    7  O   UNL     1     -23.931  -3.766  -8.573  1.00  0.00    -0.291 OA
ENDROOT
TORSDOF 0
BEGIN_RES ARG D 557
REMARK  4 active torsions:
REMARK  status: ('A' for Active; 'I' for Inactive)
REMARK    1  A    between atoms: CA   and  CB  
REMARK    2  A    between atoms: CB   and  CG  
REMARK    3  A    between atoms: CG   and  CD  
REMARK    4  A    between atoms: CD   and  NE  
REMARK       I    between atoms: NE   and  CZ  
REMARK       I    between atoms: CZ   and  NH1 
REMARK       I    between atoms: CZ   and  NH2 
ROOT
ATOM      1  CA  ARG D 557     -26.217   2.705 -17.014  1.00 35.49     0.159 C 
ENDROOT
BRANCH   1   2
ATOM      2  CB  ARG D 557     -26.789   1.319 -17.183  1.00 35.49     0.034 C 
BRANCH   2   3
ATOM      3  CG  ARG D 557     -28.230   1.227 -17.445  1.00 35.49     0.027 C 
BRANCH   3   4
ATOM      4  CD  ARG D 557     -28.918   0.312 -16.505  1.00 35.49     0.116 C 
BRANCH   4   5
ATOM      5  NE  ARG D 557     -29.305  -0.923 -17.134  1.00 35.49    -0.212 N 
ATOM      6  CZ  ARG D 557     -28.674  -2.071 -17.027  1.00 35.49     0.666 C 
ATOM      7  NH1 ARG D 557     -27.572  -2.210 -16.314  1.00 35.49    -0.235 N 
ATOM      8  NH2 ARG D 557     -29.180  -3.095 -17.651  1.00 35.49    -0.235 N 
ATOM      9  HH  ARG D 557     -27.222  -1.550 -15.893  1.00 35.49     0.174 HD
ATOM     10  HH  ARG D 557     -27.205  -2.984 -16.278  1.00 35.49     0.174 HD
ATOM     11  HH  ARG D 557     -29.897  -2.977 -18.097  1.00 35.49     0.174 HD
ATOM     12  HH  ARG D 557     -28.804  -3.853 -17.601  1.00 35.49     0.174 HD
ATOM     13  HE  ARG D 557     -29.964  -0.908 -17.671  1.00 35.49     0.178 HD
ENDBRANCH   4   5
ENDBRANCH   3   4
ENDBRANCH   2   3
ENDBRANCH   1   2
END_RES ARG D 557
BEGIN_RES GLU D 570
REMARK  3 active torsions:
REMARK  status: ('A' for Active; 'I' for Inactive)
REMARK    5  A    between atoms: CA   and  CB  
REMARK    6  A    between atoms: CB   and  CG  
REMARK    7  A    between atoms: CG   and  CD  
ROOT
ATOM     14  CA  GLU D 570     -18.033  -6.348 -13.375  1.00 32.92     0.160 C 
ENDROOT
BRANCH  14  15
ATOM     15  CB  GLU D 570     -19.500  -6.345 -13.794  1.00 32.92     0.043 C 
BRANCH  15  16
ATOM     16  CG  GLU D 570     -19.810  -5.977 -15.200  1.00 32.92     0.100 C 
BRANCH  16  17
ATOM     17  CD  GLU D 570     -21.193  -5.393 -15.365  1.00 32.92     0.185 C 
ATOM     18  OE1 GLU D 570     -21.968  -5.387 -14.389  1.00 32.92    -0.647 OA
ATOM     19  OE2 GLU D 570     -21.512  -4.952 -16.487  1.00 32.92    -0.647 OA
ENDBRANCH  16  17
ENDBRANCH  15  16
ENDBRANCH  14  15
END_RES GLU D 570
ENDMDL
MODEL 6
REMARK VINA RESULT:      -3.7      9.730     11.804
REMARK  0 active torsions:
REMARK  status: ('A' for Active; 'I' for Inactive)
ROOT
HETATM    1  C   UNL     1     -11.142   2.700 -20.937  1.00  0.00     0.042 C 
HETATM    2  C   UNL     1     -11.357   3.719 -19.836  1.00  0.00     0.154 C 
HETATM    3  C   UNL     1     -12.528   4.624 -20.074  1.00  0.00     0.213 C 
HETATM    4  O   UNL     1     -12.156   5.798 -19.374  1.00  0.00    -0.296 OA
HETATM    5  C   UNL     1     -10.790   5.815 -19.334  1.00  0.00     0.406 C 
HETATM    6  O   UNL     1     -10.122   6.764 -18.959  1.00  0.00    -0.229 OA
HETATM    7  O   UNL     1     -10.272   4.629 -19.776  1.00  0.00    -0.291 OA
ENDROOT
TORSDOF 0
BEGIN_RES ARG D 557
REMARK  4 active torsions:
REMARK  status: ('A' for Active; 'I' for Inactive)
REMARK    1  A    between atoms: CA   and  CB  
REMARK    2  A    between atoms: CB   and  CG  
REMARK    3  A    between atoms: CG   and  CD  
REMARK    4  A    between atoms: CD   and  NE  
REMARK       I    between atoms: NE   and  CZ  
REMARK       I    between atoms: CZ   and  NH1 
REMARK       I    between atoms: CZ   and  NH2 
ROOT
ATOM      1  CA  ARG D 557     -26.217   2.705 -17.014  1.00 35.49     0.159 C 
ENDROOT
BRANCH   1   2
ATOM      2  CB  ARG D 557     -26.789   1.319 -17.183  1.00 35.49     0.034 C 
BRANCH   2   3
ATOM      3  CG  ARG D 557     -25.836   0.203 -17.156  1.00 35.49     0.027 C 
BRANCH   3   4
ATOM      4  CD  ARG D 557     -24.752   0.410 -16.168  1.00 35.49     0.116 C 
BRANCH   4   5
ATOM      5  NE  ARG D 557     -24.900  -0.438 -15.015  1.00 35.49    -0.212 N 
ATOM      6  CZ  ARG D 557     -24.087  -1.411 -14.667  1.00 35.49     0.666 C 
ATOM      7  NH1 ARG D 557     -23.020  -1.729 -15.376  1.00 35.49    -0.235 N 
ATOM      8  NH2 ARG D 557     -24.364  -2.064 -13.577  1.00 35.49    -0.235 N 
ATOM      9  HH  ARG D 557     -22.817  -1.311 -16.096  1.00 35.49     0.174 HD
ATOM     10  HH  ARG D 557     -22.524  -2.371 -15.099  1.00 35.49     0.174 HD
ATOM     11  HH  ARG D 557     -25.056  -1.831 -13.136  1.00 35.49     0.174 HD
ATOM     12  HH  ARG D 557     -23.861  -2.696 -13.318  1.00 35.49     0.174 HD
ATOM     13  HE  ARG D 557     -25.601  -0.350 -14.541  1.00 35.49     0.178 HD
ENDBRANCH   4   5
ENDBRANCH   3   4
ENDBRANCH   2   3
ENDBRANCH   1   2
END_RES ARG D 557
BEGIN_RES GLU D 570
REMARK  3 active torsions:
REMARK  status: ('A' for Active; 'I' for Inactive)
REMARK    5  A    between atoms: CA   and  CB  
REMARK    6  A    between atoms: CB   and  CG  
REMARK    7  A    between atoms: CG   and  CD  
ROOT
ATOM     14  CA  GLU D 570     -18.033  -6.348 -13.375  1.00 32.92     0.160 C 
ENDROOT
BRANCH  14  15
ATOM     15  CB  GLU D 570     -19.500  -6.345 -13.794  1.00 32.92     0.043 C 
BRANCH  15  16
ATOM     16  CG  GLU D 570     -20.440  -5.524 -12.988  1.00 32.92     0.100 C 
BRANCH  16  17
ATOM     17  CD  GLU D 570     -21.743  -5.249 -13.703  1.00 32.92     0.185 C 
ATOM     18  OE1 GLU D 570     -22.310  -4.153 -13.527  1.00 32.92    -0.647 OA
ATOM     19  OE2 GLU D 570     -22.210  -6.145 -14.433  1.00 32.92    -0.647 OA
ENDBRANCH  16  17
ENDBRANCH  15  16
ENDBRANCH  14  15
END_RES GLU D 570
ENDMDL
MODEL 7
REMARK VINA RESULT:      -3.6      5.239      6.105
REMARK  0 active torsions:
REMARK  status: ('A' for Active; 'I' for Inactive)
ROOT
HETATM    1  C   UNL     1     -21.954  -8.080   1.213  1.00  0.00     0.042 C 
HETATM    2  C   UNL     1     -22.097  -8.097  -0.295  1.00  0.00     0.154 C 
HETATM    3  C   UNL     1     -20.790  -8.180  -1.023  1.00  0.00     0.213 C 
HETATM    4  O   UNL     1     -21.082  -7.541  -2.254  1.00  0.00    -0.296 OA
HETATM    5  C   UNL     1     -22.110  -6.674  -2.010  1.00  0.00     0.406 C 
HETATM    6  O   UNL     1     -22.506  -5.835  -2.801  1.00  0.00    -0.229 OA
HETATM    7  O   UNL     1     -22.631  -6.869  -0.762  1.00  0.00    -0.291 OA
ENDROOT
TORSDOF 0
BEGIN_RES ARG D 557
REMARK  4 active torsions:
REMARK  status: ('A' for Active; 'I' for Inactive)
REMARK    1  A    between atoms: CA   and  CB  
REMARK    2  A    between atoms: CB   and  CG  
REMARK    3  A    between atoms: CG   and  CD  
REMARK    4  A    between atoms: CD   and  NE  
REMARK       I    between atoms: NE   and  CZ  
REMARK       I    between atoms: CZ   and  NH1 
REMARK       I    between atoms: CZ   and  NH2 
ROOT
ATOM      1  CA  ARG D 557     -26.217   2.705 -17.014  1.00 35.49     0.159 C 
ENDROOT
BRANCH   1   2
ATOM      2  CB  ARG D 557     -26.789   1.319 -17.183  1.00 35.49     0.034 C 
BRANCH   2   3
ATOM      3  CG  ARG D 557     -25.864   0.195 -16.992  1.00 35.49     0.027 C 
BRANCH   3   4
ATOM      4  CD  ARG D 557     -26.287  -0.704 -15.894  1.00 35.49     0.116 C 
BRANCH   4   5
ATOM      5  NE  ARG D 557     -25.237  -0.919 -14.934  1.00 35.49    -0.212 N 
ATOM      6  CZ  ARG D 557     -24.948  -2.064 -14.356  1.00 35.49     0.666 C 
ATOM      7  NH1 ARG D 557     -25.626  -3.170 -14.595  1.00 35.49    -0.235 N 
ATOM      8  NH2 ARG D 557     -23.946  -2.080 -13.526  1.00 35.49    -0.235 N 
ATOM      9  HH  ARG D 557     -26.288  -3.183 -15.140  1.00 35.49     0.174 HD
ATOM     10  HH  ARG D 557     -25.390  -3.888 -14.191  1.00 35.49     0.174 HD
ATOM     11  HH  ARG D 557     -23.521  -1.352 -13.397  1.00 35.49     0.174 HD
ATOM     12  HH  ARG D 557     -23.727  -2.801 -13.136  1.00 35.49     0.174 HD
ATOM     13  HE  ARG D 557     -24.795  -0.244 -14.667  1.00 35.49     0.178 HD
ENDBRANCH   4   5
ENDBRANCH   3   4
ENDBRANCH   2   3
ENDBRANCH   1   2
END_RES ARG D 557
BEGIN_RES GLU D 570
REMARK  3 active torsions:
REMARK  status: ('A' for Active; 'I' for Inactive)
REMARK    5  A    between atoms: CA   and  CB  
REMARK    6  A    between atoms: CB   and  CG  
REMARK    7  A    between atoms: CG   and  CD  
ROOT
ATOM     14  CA  GLU D 570     -18.033  -6.348 -13.375  1.00 32.92     0.160 C 
ENDROOT
BRANCH  14  15
ATOM     15  CB  GLU D 570     -19.500  -6.345 -13.794  1.00 32.92     0.043 C 
BRANCH  15  16
ATOM     16  CG  GLU D 570     -20.449  -5.567 -12.957  1.00 32.92     0.100 C 
BRANCH  16  17
ATOM     17  CD  GLU D 570     -21.678  -5.124 -13.716  1.00 32.92     0.185 C 
ATOM     18  OE1 GLU D 570     -21.620  -5.023 -14.956  1.00 32.92    -0.647 OA
ATOM     19  OE2 GLU D 570     -22.706  -4.860 -13.061  1.00 32.92    -0.647 OA
ENDBRANCH  16  17
ENDBRANCH  15  16
ENDBRANCH  14  15
END_RES GLU D 570
ENDMDL
MODEL 8
REMARK VINA RESULT:      -3.5      1.354      1.829
REMARK  0 active torsions:
REMARK  status: ('A' for Active; 'I' for Inactive)
ROOT
HETATM    1  C   UNL     1     -20.416  -4.735  -6.122  1.00  0.00     0.042 C 
HETATM    2  C   UNL     1     -21.290  -5.095  -7.307  1.00  0.00     0.154 C 
HETATM    3  C   UNL     1     -20.702  -4.703  -8.629  1.00  0.00     0.213 C 
HETATM    4  O   UNL     1     -21.853  -4.509  -9.432  1.00  0.00    -0.296 OA
HETATM    5  C   UNL     1     -22.873  -4.181  -8.582  1.00  0.00     0.406 C 
HETATM    6  O   UNL     1     -23.967  -3.780  -8.941  1.00  0.00    -0.229 OA
HETATM    7  O   UNL     1     -22.501  -4.358  -7.279  1.00  0.00    -0.291 OA
ENDROOT
TORSDOF 0
BEGIN_RES ARG D 557
REMARK  4 active torsions:
REMARK  status: ('A' for Active; 'I' for Inactive)
REMARK    1  A    between atoms: CA   and  CB  
REMARK    2  A    between atoms: CB   and  CG  
REMARK    3  A    between atoms: CG   and  CD  
REMARK    4  A    between atoms: CD   and  NE  
REMARK       I    between atoms: NE   and  CZ  
REMARK       I    between atoms: CZ   and  NH1 
REMARK       I    between atoms: CZ   and  NH2 
ROOT
ATOM      1  CA  ARG D 557     -26.217   2.705 -17.014  1.00 35.49     0.159 C 
ENDROOT
BRANCH   1   2
ATOM      2  CB  ARG D 557     -26.789   1.319 -17.183  1.00 35.49     0.034 C 
BRANCH   2   3
ATOM      3  CG  ARG D 557     -25.865   0.195 -16.988  1.00 35.49     0.027 C 
BRANCH   3   4
ATOM      4  CD  ARG D 557     -26.304  -0.715 -15.906  1.00 35.49     0.116 C 
BRANCH   4   5
ATOM      5  NE  ARG D 557     -25.268  -0.937 -14.931  1.00 35.49    -0.212 N 
ATOM      6  CZ  ARG D 557     -25.001  -2.081 -14.341  1.00 35.49     0.666 C 
ATOM      7  NH1 ARG D 557     -25.692  -3.180 -14.581  1.00 35.49    -0.235 N 
ATOM      8  NH2 ARG D 557     -24.010  -2.104 -13.498  1.00 35.49    -0.235 N 
ATOM      9  HH  ARG D 557     -26.346  -3.188 -15.133  1.00 35.49     0.174 HD
ATOM     10  HH  ARG D 557     -25.470  -3.898 -14.168  1.00 35.49     0.174 HD
ATOM     11  HH  ARG D 557     -23.578  -1.380 -13.368  1.00 35.49     0.174 HD
ATOM     12  HH  ARG D 557     -23.806  -2.824 -13.100  1.00 35.49     0.174 HD
ATOM     13  HE  ARG D 557     -24.821  -0.265 -14.663  1.00 35.49     0.178 HD
ENDBRANCH   4   5
ENDBRANCH   3   4
ENDBRANCH   2   3
ENDBRANCH   1   2
END_RES ARG D 557
BEGIN_RES GLU D 570
REMARK  3 active torsions:
REMARK  status: ('A' for Active; 'I' for Inactive)
REMARK    5  A    between atoms: CA   and  CB  
REMARK    6  A    between atoms: CB   and  CG  
REMARK    7  A    between atoms: CG   and  CD  
ROOT
ATOM     14  CA  GLU D 570     -18.033  -6.348 -13.375  1.00 32.92     0.160 C 
ENDROOT
BRANCH  14  15
ATOM     15  CB  GLU D 570     -19.500  -6.345 -13.794  1.00 32.92     0.043 C 
BRANCH  15  16
ATOM     16  CG  GLU D 570     -20.451  -5.576 -12.950  1.00 32.92     0.100 C 
BRANCH  16  17
ATOM     17  CD  GLU D 570     -21.680  -5.128 -13.707  1.00 32.92     0.185 C 
ATOM     18  OE1 GLU D 570     -21.612  -4.987 -14.943  1.00 32.92    -0.647 OA
ATOM     19  OE2 GLU D 570     -22.717  -4.899 -13.054  1.00 32.92    -0.647 OA
ENDBRANCH  16  17
ENDBRANCH  15  16
ENDBRANCH  14  15
END_RES GLU D 570
ENDMDL
MODEL 9
REMARK VINA RESULT:      -3.3      9.736     11.962
REMARK  0 active torsions:
REMARK  status: ('A' for Active; 'I' for Inactive)
ROOT
HETATM    1  C   UNL     1     -14.049   4.628 -20.190  1.00  0.00     0.042 C 
HETATM    2  C   UNL     1     -12.571   4.895 -20.395  1.00  0.00     0.154 C 
HETATM    3  C   UNL     1     -11.720   3.665 -20.309  1.00  0.00     0.213 C 
HETATM    4  O   UNL     1     -10.475   4.182 -19.872  1.00  0.00    -0.296 OA
HETATM    5  C   UNL     1     -10.748   5.336 -19.193  1.00  0.00     0.406 C 
HETATM    6  O   UNL     1      -9.931   5.957 -18.533  1.00  0.00    -0.229 OA
HETATM    7  O   UNL     1     -12.056   5.699 -19.347  1.00  0.00    -0.291 OA
ENDROOT
TORSDOF 0
BEGIN_RES ARG D 557
REMARK  4 active torsions:
REMARK  status: ('A' for Active; 'I' for Inactive)
REMARK    1  A    between atoms: CA   and  CB  
REMARK    2  A    between atoms: CB   and  CG  
REMARK    3  A    between atoms: CG   and  CD  
REMARK    4  A    between atoms: CD   and  NE  
REMARK       I    between atoms: NE   and  CZ  
REMARK       I    between atoms: CZ   and  NH1 
REMARK       I    between atoms: CZ   and  NH2 
ROOT
ATOM      1  CA  ARG D 557     -26.217   2.705 -17.014  1.00 35.49     0.159 C 
ENDROOT
BRANCH   1   2
ATOM      2  CB  ARG D 557     -26.789   1.319 -17.183  1.00 35.49     0.034 C 
BRANCH   2   3
ATOM      3  CG  ARG D 557     -28.230   1.227 -17.445  1.00 35.49     0.027 C 
BRANCH   3   4
ATOM      4  CD  ARG D 557     -28.916   0.306 -16.509  1.00 35.49     0.116 C 
BRANCH   4   5
ATOM      5  NE  ARG D 557     -29.294  -0.929 -17.143  1.00 35.49    -0.212 N 
ATOM      6  CZ  ARG D 557     -28.662  -2.076 -17.029  1.00 35.49     0.666 C 
ATOM      7  NH1 ARG D 557     -27.566  -2.213 -16.305  1.00 35.49    -0.235 N 
ATOM      8  NH2 ARG D 557     -29.159  -3.101 -17.658  1.00 35.49    -0.235 N 
ATOM      9  HH  ARG D 557     -27.222  -1.552 -15.881  1.00 35.49     0.174 HD
ATOM     10  HH  ARG D 557     -27.198  -2.985 -16.266  1.00 35.49     0.174 HD
ATOM     11  HH  ARG D 557     -29.872  -2.985 -18.111  1.00 35.49     0.174 HD
ATOM     12  HH  ARG D 557     -28.781  -3.858 -17.605  1.00 35.49     0.174 HD
ATOM     13  HE  ARG D 557     -29.948  -0.916 -17.686  1.00 35.49     0.178 HD
ENDBRANCH   4   5
ENDBRANCH   3   4
ENDBRANCH   2   3
ENDBRANCH   1   2
END_RES ARG D 557
BEGIN_RES GLU D 570
REMARK  3 active torsions:
REMARK  status: ('A' for Active; 'I' for Inactive)
REMARK    5  A    between atoms: CA   and  CB  
REMARK    6  A    between atoms: CB   and  CG  
REMARK    7  A    between atoms: CG   and  CD  
ROOT
ATOM     14  CA  GLU D 570     -18.033  -6.348 -13.375  1.00 32.92     0.160 C 
ENDROOT
BRANCH  14  15
ATOM     15  CB  GLU D 570     -19.500  -6.345 -13.794  1.00 32.92     0.043 C 
BRANCH  15  16
ATOM     16  CG  GLU D 570     -20.450  -5.569 -12.955  1.00 32.92     0.100 C 
BRANCH  16  17
ATOM     17  CD  GLU D 570     -21.696  -5.157 -13.704  1.00 32.92     0.185 C 
ATOM     18  OE1 GLU D 570     -21.658  -5.084 -14.947  1.00 32.92    -0.647 OA
ATOM     19  OE2 GLU D 570     -22.715  -4.887 -13.039  1.00 32.92    -0.647 OA
ENDBRANCH  16  17
ENDBRANCH  15  16
ENDBRANCH  14  15
END_RES GLU D 570
ENDMDL
