MODEL 1
REMARK VINA RESULT:      -8.4      0.000      0.000
REMARK  32 active torsions:
REMARK  status: ('A' for Active; 'I' for Inactive)
REMARK    1  A    between atoms: C_2  and  C_3 
REMARK    2  A    between atoms: C_3  and  C_4 
REMARK    3  A    between atoms: C_4  and  C_5 
REMARK    4  A    between atoms: C_5  and  C_6 
REMARK    5  A    between atoms: C_6  and  C_7 
REMARK    6  A    between atoms: C_7  and  C_8 
REMARK    7  A    between atoms: C_8  and  C_9 
REMARK    8  A    between atoms: C_9  and  C_10 
REMARK    9  A    between atoms: C_10  and  C_11 
REMARK   10  A    between atoms: C_11  and  C_12 
REMARK   11  A    between atoms: C_12  and  C_13 
REMARK   12  A    between atoms: C_13  and  C_14 
REMARK   13  A    between atoms: C_14  and  C_15 
REMARK   14  A    between atoms: C_15  and  C_16 
REMARK       I    between atoms: C_16  and  N_18 
REMARK   15  A    between atoms: C_20  and  O_26 
REMARK   16  A    between atoms: C_22  and  C_23 
REMARK   17  A    between atoms: C_23  and  O_25 
REMARK   18  A    between atoms: O_26  and  C_27 
REMARK   19  A    between atoms: C_27  and  C_29 
REMARK   20  A    between atoms: C_29  and  C_30 
REMARK   21  A    between atoms: C_30  and  C_31 
REMARK   22  A    between atoms: C_31  and  C_32 
REMARK   23  A    between atoms: C_32  and  C_33 
REMARK   24  A    between atoms: C_33  and  C_34 
REMARK   25  A    between atoms: C_34  and  C_35 
REMARK   26  A    between atoms: C_35  and  C_36 
REMARK   27  A    between atoms: C_36  and  C_37 
REMARK   28  A    between atoms: C_37  and  C_38 
REMARK   29  A    between atoms: C_38  and  C_39 
REMARK   30  A    between atoms: C_39  and  C_40 
REMARK   31  A    between atoms: C_40  and  C_41 
REMARK   32  A    between atoms: C_41  and  C_42 
ROOT
HETATM    1  C   UNL     1     -21.813  -4.114  -8.669  1.00  0.00     0.220 C 
HETATM    2  O   UNL     1     -22.357  -3.602  -7.699  1.00  0.00    -0.273 OA
HETATM    3  N   UNL     1     -22.321  -4.005  -9.958  1.00  0.00    -0.335 N 
HETATM    4  C   UNL     1     -21.782  -4.566 -11.176  1.00  0.00     0.159 C 
HETATM    5  C   UNL     1     -22.018  -3.474 -12.213  1.00  0.00     0.152 C 
HETATM    6  C   UNL     1     -23.397  -2.937 -11.804  1.00  0.00     0.070 C 
HETATM    7  C   UNL     1     -23.461  -3.127 -10.275  1.00  0.00     0.187 C 
ENDROOT
BRANCH   5   8
HETATM    8  O   UNL     1     -22.016  -3.969 -13.557  1.00  0.00    -0.314 OA
BRANCH   8   9
HETATM    9  C   UNL     1     -23.136  -3.634 -14.269  1.00  0.00     0.259 C 
HETATM   10  O   UNL     1     -23.241  -2.627 -14.950  1.00  0.00    -0.265 OA
BRANCH   9  11
HETATM   11  C   UNL     1     -24.214  -4.690 -14.150  1.00  0.00     0.111 C 
BRANCH  11  12
HETATM   12  C   UNL     1     -23.638  -6.079 -14.411  1.00  0.00     0.010 C 
BRANCH  12  13
HETATM   13  C   UNL     1     -24.382  -6.802 -15.529  1.00  0.00     0.000 C 
BRANCH  13  14
HETATM   14  C   UNL     1     -25.709  -6.111 -15.815  1.00  0.00     0.000 C 
BRANCH  14  15
HETATM   15  C   UNL     1     -26.853  -7.108 -15.739  1.00  0.00     0.000 C 
BRANCH  15  16
HETATM   16  C   UNL     1     -28.160  -6.444 -16.143  1.00  0.00     0.000 C 
BRANCH  16  17
HETATM   17  C   UNL     1     -28.918  -7.334 -17.114  1.00  0.00     0.000 C 
BRANCH  17  18
HETATM   18  C   UNL     1     -28.975  -6.680 -18.483  1.00  0.00     0.000 C 
BRANCH  18  19
HETATM   19  C   UNL     1     -27.633  -6.056 -18.817  1.00  0.00     0.000 C 
BRANCH  19  20
HETATM   20  C   UNL     1     -27.018  -6.761 -20.013  1.00  0.00     0.000 C 
BRANCH  20  21
HETATM   21  C   UNL     1     -25.502  -6.712 -19.923  1.00  0.00     0.000 C 
BRANCH  21  22
HETATM   22  C   UNL     1     -24.897  -7.877 -20.689  1.00  0.00     0.000 C 
BRANCH  22  23
HETATM   23  C   UNL     1     -24.508  -7.436 -22.092  1.00  0.00    -0.000 C 
BRANCH  23  24
HETATM   24  C   UNL     1     -23.312  -8.234 -22.590  1.00  0.00    -0.005 C 
HETATM   25  C   UNL     1     -22.418  -8.631 -21.430  1.00  0.00     0.005 C 
ENDBRANCH  23  24
ENDBRANCH  22  23
ENDBRANCH  21  22
ENDBRANCH  20  21
ENDBRANCH  19  20
ENDBRANCH  18  19
ENDBRANCH  17  18
ENDBRANCH  16  17
ENDBRANCH  15  16
ENDBRANCH  14  15
ENDBRANCH  13  14
ENDBRANCH  12  13
ENDBRANCH  11  12
ENDBRANCH   9  11
ENDBRANCH   8   9
ENDBRANCH   5   8
BRANCH   7  26
HETATM   26  C   UNL     1     -24.771  -3.813  -9.858  1.00  0.00     0.163 C 
HETATM   27  O   UNL     1     -24.886  -5.016  -9.782  1.00  0.00    -0.648 OA
BRANCH  26  28
HETATM   28  O   UNL     1     -25.780  -2.969  -9.528  1.00  0.00    -0.775 OA
HETATM   29  H   UNL     1     -25.551  -2.180  -9.007  1.00  0.00     0.167 HD
ENDBRANCH  26  28
ENDBRANCH   7  26
BRANCH   1  30
HETATM   30  C   UNL     1     -20.493  -4.875  -8.543  1.00  0.00     0.103 C 
BRANCH  30  31
HETATM   31  C   UNL     1     -19.634  -4.391  -7.376  1.00  0.00     0.009 C 
BRANCH  31  32
HETATM   32  C   UNL     1     -20.075  -4.980  -6.035  1.00  0.00     0.000 C 
BRANCH  32  33
HETATM   33  C   UNL     1     -19.938  -6.500  -6.041  1.00  0.00     0.000 C 
BRANCH  33  34
HETATM   34  C   UNL     1     -21.266  -7.165  -5.703  1.00  0.00     0.000 C 
BRANCH  34  35
HETATM   35  C   UNL     1     -22.043  -6.325  -4.700  1.00  0.00     0.000 C 
BRANCH  35  36
HETATM   36  C   UNL     1     -21.307  -6.281  -3.371  1.00  0.00     0.000 C 
BRANCH  36  37
HETATM   37  C   UNL     1     -22.289  -6.423  -2.221  1.00  0.00     0.000 C 
BRANCH  37  38
HETATM   38  C   UNL     1     -21.707  -7.323  -1.145  1.00  0.00     0.000 C 
BRANCH  38  39
HETATM   39  C   UNL     1     -20.462  -8.021  -1.665  1.00  0.00     0.000 C 
BRANCH  39  40
HETATM   40  C   UNL     1     -20.624  -9.528  -1.564  1.00  0.00     0.000 C 
BRANCH  40  41
HETATM   41  C   UNL     1     -21.485 -10.038  -2.707  1.00  0.00     0.000 C 
BRANCH  41  42
HETATM   42  C   UNL     1     -22.767 -10.651  -2.164  1.00  0.00    -0.000 C 
BRANCH  42  43
HETATM   43  C   UNL     1     -22.731 -10.711  -0.646  1.00  0.00    -0.005 C 
HETATM   44  C   UNL     1     -24.073 -11.162  -0.101  1.00  0.00     0.005 C 
ENDBRANCH  42  43
ENDBRANCH  41  42
ENDBRANCH  40  41
ENDBRANCH  39  40
ENDBRANCH  38  39
ENDBRANCH  37  38
ENDBRANCH  36  37
ENDBRANCH  35  36
ENDBRANCH  34  35
ENDBRANCH  33  34
ENDBRANCH  32  33
ENDBRANCH  31  32
ENDBRANCH  30  31
ENDBRANCH   1  30
TORSDOF 32
BEGIN_RES ARG D 557
REMARK  4 active torsions:
REMARK  status: ('A' for Active; 'I' for Inactive)
REMARK    1  A    between atoms: CA   and  CB  
REMARK    2  A    between atoms: CB   and  CG  
REMARK    3  A    between atoms: CG   and  CD  
REMARK    4  A    between atoms: CD   and  NE  
REMARK       I    between atoms: NE   and  CZ  
REMARK       I    between atoms: CZ   and  NH1 
REMARK       I    between atoms: CZ   and  NH2 
ROOT
ATOM      1  CA  ARG D 557     -26.217   2.705 -17.014  1.00 35.49     0.159 C 
ENDROOT
BRANCH   1   2
ATOM      2  CB  ARG D 557     -26.789   1.319 -17.183  1.00 35.49     0.034 C 
BRANCH   2   3
ATOM      3  CG  ARG D 557     -28.252   1.209 -17.225  1.00 35.49     0.027 C 
BRANCH   3   4
ATOM      4  CD  ARG D 557     -28.730  -0.125 -16.795  1.00 35.49     0.116 C 
BRANCH   4   5
ATOM      5  NE  ARG D 557     -27.709  -0.872 -16.109  1.00 35.49    -0.212 N 
ATOM      6  CZ  ARG D 557     -27.530  -2.172 -16.179  1.00 35.49     0.666 C 
ATOM      7  NH1 ARG D 557     -28.306  -2.957 -16.903  1.00 35.49    -0.235 N 
ATOM      8  NH2 ARG D 557     -26.539  -2.678 -15.506  1.00 35.49    -0.235 N 
ATOM      9  HH  ARG D 557     -28.963  -2.644 -17.357  1.00 35.49     0.174 HD
ATOM     10  HH  ARG D 557     -28.140  -3.797 -16.913  1.00 35.49     0.174 HD
ATOM     11  HH  ARG D 557     -26.049  -2.147 -15.053  1.00 35.49     0.174 HD
ATOM     12  HH  ARG D 557     -26.389  -3.513 -15.529  1.00 35.49     0.174 HD
ATOM     13  HE  ARG D 557     -27.209  -0.455 -15.563  1.00 35.49     0.178 HD
ENDBRANCH   4   5
ENDBRANCH   3   4
ENDBRANCH   2   3
ENDBRANCH   1   2
END_RES ARG D 557
BEGIN_RES GLU D 570
REMARK  3 active torsions:
REMARK  status: ('A' for Active; 'I' for Inactive)
REMARK    5  A    between atoms: CA   and  CB  
REMARK    6  A    between atoms: CB   and  CG  
REMARK    7  A    between atoms: CG   and  CD  
ROOT
ATOM     14  CA  GLU D 570     -18.033  -6.348 -13.375  1.00 32.92     0.160 C 
ENDROOT
BRANCH  14  15
ATOM     15  CB  GLU D 570     -19.500  -6.345 -13.794  1.00 32.92     0.043 C 
BRANCH  15  16
ATOM     16  CG  GLU D 570     -19.806  -6.032 -15.214  1.00 32.92     0.100 C 
BRANCH  16  17
ATOM     17  CD  GLU D 570     -20.565  -7.137 -15.911  1.00 32.92     0.185 C 
ATOM     18  OE1 GLU D 570     -21.194  -6.874 -16.954  1.00 32.92    -0.647 OA
ATOM     19  OE2 GLU D 570     -20.545  -8.273 -15.399  1.00 32.92    -0.647 OA
ENDBRANCH  16  17
ENDBRANCH  15  16
ENDBRANCH  14  15
END_RES GLU D 570
ENDMDL
MODEL 2
REMARK VINA RESULT:      -8.0      1.477      2.212
REMARK  32 active torsions:
REMARK  status: ('A' for Active; 'I' for Inactive)
REMARK    1  A    between atoms: C_2  and  C_3 
REMARK    2  A    between atoms: C_3  and  C_4 
REMARK    3  A    between atoms: C_4  and  C_5 
REMARK    4  A    between atoms: C_5  and  C_6 
REMARK    5  A    between atoms: C_6  and  C_7 
REMARK    6  A    between atoms: C_7  and  C_8 
REMARK    7  A    between atoms: C_8  and  C_9 
REMARK    8  A    between atoms: C_9  and  C_10 
REMARK    9  A    between atoms: C_10  and  C_11 
REMARK   10  A    between atoms: C_11  and  C_12 
REMARK   11  A    between atoms: C_12  and  C_13 
REMARK   12  A    between atoms: C_13  and  C_14 
REMARK   13  A    between atoms: C_14  and  C_15 
REMARK   14  A    between atoms: C_15  and  C_16 
REMARK       I    between atoms: C_16  and  N_18 
REMARK   15  A    between atoms: C_20  and  O_26 
REMARK   16  A    between atoms: C_22  and  C_23 
REMARK   17  A    between atoms: C_23  and  O_25 
REMARK   18  A    between atoms: O_26  and  C_27 
REMARK   19  A    between atoms: C_27  and  C_29 
REMARK   20  A    between atoms: C_29  and  C_30 
REMARK   21  A    between atoms: C_30  and  C_31 
REMARK   22  A    between atoms: C_31  and  C_32 
REMARK   23  A    between atoms: C_32  and  C_33 
REMARK   24  A    between atoms: C_33  and  C_34 
REMARK   25  A    between atoms: C_34  and  C_35 
REMARK   26  A    between atoms: C_35  and  C_36 
REMARK   27  A    between atoms: C_36  and  C_37 
REMARK   28  A    between atoms: C_37  and  C_38 
REMARK   29  A    between atoms: C_38  and  C_39 
REMARK   30  A    between atoms: C_39  and  C_40 
REMARK   31  A    between atoms: C_40  and  C_41 
REMARK   32  A    between atoms: C_41  and  C_42 
ROOT
HETATM    1  C   UNL     1     -21.715  -4.163  -8.789  1.00  0.00     0.220 C 
HETATM    2  O   UNL     1     -22.246  -3.688  -7.792  1.00  0.00    -0.273 OA
HETATM    3  N   UNL     1     -22.253  -4.025 -10.062  1.00  0.00    -0.335 N 
HETATM    4  C   UNL     1     -21.732  -4.543 -11.307  1.00  0.00     0.159 C 
HETATM    5  C   UNL     1     -22.008  -3.427 -12.307  1.00  0.00     0.152 C 
HETATM    6  C   UNL     1     -23.386  -2.923 -11.853  1.00  0.00     0.070 C 
HETATM    7  C   UNL     1     -23.413  -3.158 -10.329  1.00  0.00     0.187 C 
ENDROOT
BRANCH   5   8
HETATM    8  O   UNL     1     -22.027  -3.883 -13.664  1.00  0.00    -0.314 OA
BRANCH   8   9
HETATM    9  C   UNL     1     -23.237  -3.720 -14.283  1.00  0.00     0.259 C 
HETATM   10  O   UNL     1     -23.496  -2.814 -15.059  1.00  0.00    -0.265 OA
BRANCH   9  11
HETATM   11  C   UNL     1     -24.204  -4.828 -13.926  1.00  0.00     0.111 C 
BRANCH  11  12
HETATM   12  C   UNL     1     -23.628  -6.189 -14.308  1.00  0.00     0.010 C 
BRANCH  12  13
HETATM   13  C   UNL     1     -24.026  -6.600 -15.721  1.00  0.00     0.000 C 
BRANCH  13  14
HETATM   14  C   UNL     1     -25.420  -6.081 -16.050  1.00  0.00     0.000 C 
BRANCH  14  15
HETATM   15  C   UNL     1     -26.464  -7.149 -15.766  1.00  0.00     0.000 C 
BRANCH  15  16
HETATM   16  C   UNL     1     -27.839  -6.517 -15.622  1.00  0.00     0.000 C 
BRANCH  16  17
HETATM   17  C   UNL     1     -28.877  -7.360 -16.344  1.00  0.00     0.000 C 
BRANCH  17  18
HETATM   18  C   UNL     1     -29.565  -6.534 -17.415  1.00  0.00     0.000 C 
BRANCH  18  19
HETATM   19  C   UNL     1     -28.959  -6.838 -18.773  1.00  0.00     0.000 C 
BRANCH  19  20
HETATM   20  C   UNL     1     -27.726  -5.979 -18.994  1.00  0.00     0.000 C 
BRANCH  20  21
HETATM   21  C   UNL     1     -27.060  -6.353 -20.307  1.00  0.00     0.000 C 
BRANCH  21  22
HETATM   22  C   UNL     1     -25.683  -6.940 -20.045  1.00  0.00     0.000 C 
BRANCH  22  23
HETATM   23  C   UNL     1     -25.321  -7.934 -21.139  1.00  0.00    -0.000 C 
BRANCH  23  24
HETATM   24  C   UNL     1     -23.813  -8.116 -21.216  1.00  0.00    -0.005 C 
HETATM   25  C   UNL     1     -23.368  -8.253 -22.661  1.00  0.00     0.005 C 
ENDBRANCH  23  24
ENDBRANCH  22  23
ENDBRANCH  21  22
ENDBRANCH  20  21
ENDBRANCH  19  20
ENDBRANCH  18  19
ENDBRANCH  17  18
ENDBRANCH  16  17
ENDBRANCH  15  16
ENDBRANCH  14  15
ENDBRANCH  13  14
ENDBRANCH  12  13
ENDBRANCH  11  12
ENDBRANCH   9  11
ENDBRANCH   8   9
ENDBRANCH   5   8
BRANCH   7  26
HETATM   26  C   UNL     1     -24.703  -3.876  -9.904  1.00  0.00     0.163 C 
HETATM   27  O   UNL     1     -24.770  -5.078  -9.768  1.00  0.00    -0.648 OA
BRANCH  26  28
HETATM   28  O   UNL     1     -25.753  -3.059  -9.640  1.00  0.00    -0.775 OA
HETATM   29  H   UNL     1     -26.482  -3.046 -10.283  1.00  0.00     0.167 HD
ENDBRANCH  26  28
ENDBRANCH   7  26
BRANCH   1  30
HETATM   30  C   UNL     1     -20.381  -4.906  -8.712  1.00  0.00     0.103 C 
BRANCH  30  31
HETATM   31  C   UNL     1     -19.451  -4.354  -7.632  1.00  0.00     0.009 C 
BRANCH  31  32
HETATM   32  C   UNL     1     -19.684  -5.002  -6.267  1.00  0.00     0.000 C 
BRANCH  32  33
HETATM   33  C   UNL     1     -19.718  -6.523  -6.388  1.00  0.00     0.000 C 
BRANCH  33  34
HETATM   34  C   UNL     1     -20.996  -7.087  -5.781  1.00  0.00     0.000 C 
BRANCH  34  35
HETATM   35  C   UNL     1     -21.685  -6.037  -4.921  1.00  0.00     0.000 C 
BRANCH  35  36
HETATM   36  C   UNL     1     -21.569  -6.405  -3.451  1.00  0.00     0.000 C 
BRANCH  36  37
HETATM   37  C   UNL     1     -21.598  -7.915  -3.282  1.00  0.00     0.000 C 
BRANCH  37  38
HETATM   38  C   UNL     1     -21.147  -8.292  -1.882  1.00  0.00     0.000 C 
BRANCH  38  39
HETATM   39  C   UNL     1     -19.662  -8.610  -1.879  1.00  0.00     0.000 C 
BRANCH  39  40
HETATM   40  C   UNL     1     -19.336  -9.612  -2.974  1.00  0.00     0.000 C 
BRANCH  40  41
HETATM   41  C   UNL     1     -17.833  -9.692  -3.175  1.00  0.00     0.000 C 
BRANCH  41  42
HETATM   42  C   UNL     1     -17.511  -9.875  -4.651  1.00  0.00    -0.000 C 
BRANCH  42  43
HETATM   43  C   UNL     1     -16.008  -9.848  -4.878  1.00  0.00    -0.005 C 
HETATM   44  C   UNL     1     -15.610 -10.877  -5.920  1.00  0.00     0.005 C 
ENDBRANCH  42  43
ENDBRANCH  41  42
ENDBRANCH  40  41
ENDBRANCH  39  40
ENDBRANCH  38  39
ENDBRANCH  37  38
ENDBRANCH  36  37
ENDBRANCH  35  36
ENDBRANCH  34  35
ENDBRANCH  33  34
ENDBRANCH  32  33
ENDBRANCH  31  32
ENDBRANCH  30  31
ENDBRANCH   1  30
TORSDOF 32
BEGIN_RES ARG D 557
REMARK  4 active torsions:
REMARK  status: ('A' for Active; 'I' for Inactive)
REMARK    1  A    between atoms: CA   and  CB  
REMARK    2  A    between atoms: CB   and  CG  
REMARK    3  A    between atoms: CG   and  CD  
REMARK    4  A    between atoms: CD   and  NE  
REMARK       I    between atoms: NE   and  CZ  
REMARK       I    between atoms: CZ   and  NH1 
REMARK       I    between atoms: CZ   and  NH2 
ROOT
ATOM      1  CA  ARG D 557     -26.217   2.705 -17.014  1.00 35.49     0.159 C 
ENDROOT
BRANCH   1   2
ATOM      2  CB  ARG D 557     -26.789   1.319 -17.183  1.00 35.49     0.034 C 
BRANCH   2   3
ATOM      3  CG  ARG D 557     -28.248   1.190 -17.084  1.00 35.49     0.027 C 
BRANCH   3   4
ATOM      4  CD  ARG D 557     -28.674  -0.201 -16.806  1.00 35.49     0.116 C 
BRANCH   4   5
ATOM      5  NE  ARG D 557     -27.661  -0.949 -16.110  1.00 35.49    -0.212 N 
ATOM      6  CZ  ARG D 557     -27.496  -2.252 -16.162  1.00 35.49     0.666 C 
ATOM      7  NH1 ARG D 557     -28.281  -3.038 -16.875  1.00 35.49    -0.235 N 
ATOM      8  NH2 ARG D 557     -26.510  -2.760 -15.482  1.00 35.49    -0.235 N 
ATOM      9  HH  ARG D 557     -28.935  -2.725 -17.332  1.00 35.49     0.174 HD
ATOM     10  HH  ARG D 557     -28.124  -3.880 -16.873  1.00 35.49     0.174 HD
ATOM     11  HH  ARG D 557     -26.014  -2.228 -15.037  1.00 35.49     0.174 HD
ATOM     12  HH  ARG D 557     -26.369  -3.596 -15.494  1.00 35.49     0.174 HD
ATOM     13  HE  ARG D 557     -27.155  -0.530 -15.570  1.00 35.49     0.178 HD
ENDBRANCH   4   5
ENDBRANCH   3   4
ENDBRANCH   2   3
ENDBRANCH   1   2
END_RES ARG D 557
BEGIN_RES GLU D 570
REMARK  3 active torsions:
REMARK  status: ('A' for Active; 'I' for Inactive)
REMARK    5  A    between atoms: CA   and  CB  
REMARK    6  A    between atoms: CB   and  CG  
REMARK    7  A    between atoms: CG   and  CD  
ROOT
ATOM     14  CA  GLU D 570     -18.033  -6.348 -13.375  1.00 32.92     0.160 C 
ENDROOT
BRANCH  14  15
ATOM     15  CB  GLU D 570     -19.500  -6.345 -13.794  1.00 32.92     0.043 C 
BRANCH  15  16
ATOM     16  CG  GLU D 570     -20.085  -7.633 -14.246  1.00 32.92     0.100 C 
BRANCH  16  17
ATOM     17  CD  GLU D 570     -20.595  -7.582 -15.668  1.00 32.92     0.185 C 
ATOM     18  OE1 GLU D 570     -21.062  -8.617 -16.181  1.00 32.92    -0.647 OA
ATOM     19  OE2 GLU D 570     -20.510  -6.500 -16.281  1.00 32.92    -0.647 OA
ENDBRANCH  16  17
ENDBRANCH  15  16
ENDBRANCH  14  15
END_RES GLU D 570
ENDMDL
MODEL 3
REMARK VINA RESULT:      -8.0      1.064      2.983
REMARK  32 active torsions:
REMARK  status: ('A' for Active; 'I' for Inactive)
REMARK    1  A    between atoms: C_2  and  C_3 
REMARK    2  A    between atoms: C_3  and  C_4 
REMARK    3  A    between atoms: C_4  and  C_5 
REMARK    4  A    between atoms: C_5  and  C_6 
REMARK    5  A    between atoms: C_6  and  C_7 
REMARK    6  A    between atoms: C_7  and  C_8 
REMARK    7  A    between atoms: C_8  and  C_9 
REMARK    8  A    between atoms: C_9  and  C_10 
REMARK    9  A    between atoms: C_10  and  C_11 
REMARK   10  A    between atoms: C_11  and  C_12 
REMARK   11  A    between atoms: C_12  and  C_13 
REMARK   12  A    between atoms: C_13  and  C_14 
REMARK   13  A    between atoms: C_14  and  C_15 
REMARK   14  A    between atoms: C_15  and  C_16 
REMARK       I    between atoms: C_16  and  N_18 
REMARK   15  A    between atoms: C_20  and  O_26 
REMARK   16  A    between atoms: C_22  and  C_23 
REMARK   17  A    between atoms: C_23  and  O_25 
REMARK   18  A    between atoms: O_26  and  C_27 
REMARK   19  A    between atoms: C_27  and  C_29 
REMARK   20  A    between atoms: C_29  and  C_30 
REMARK   21  A    between atoms: C_30  and  C_31 
REMARK   22  A    between atoms: C_31  and  C_32 
REMARK   23  A    between atoms: C_32  and  C_33 
REMARK   24  A    between atoms: C_33  and  C_34 
REMARK   25  A    between atoms: C_34  and  C_35 
REMARK   26  A    between atoms: C_35  and  C_36 
REMARK   27  A    between atoms: C_36  and  C_37 
REMARK   28  A    between atoms: C_37  and  C_38 
REMARK   29  A    between atoms: C_38  and  C_39 
REMARK   30  A    between atoms: C_39  and  C_40 
REMARK   31  A    between atoms: C_40  and  C_41 
REMARK   32  A    between atoms: C_41  and  C_42 
ROOT
HETATM    1  C   UNL     1     -21.646  -3.766  -9.184  1.00  0.00     0.220 C 
HETATM    2  O   UNL     1     -22.106  -3.188  -8.208  1.00  0.00    -0.273 OA
HETATM    3  N   UNL     1     -22.331  -3.863 -10.390  1.00  0.00    -0.335 N 
HETATM    4  C   UNL     1     -21.903  -4.521 -11.603  1.00  0.00     0.159 C 
HETATM    5  C   UNL     1     -22.389  -3.592 -12.709  1.00  0.00     0.152 C 
HETATM    6  C   UNL     1     -23.751  -3.133 -12.166  1.00  0.00     0.070 C 
HETATM    7  C   UNL     1     -23.589  -3.137 -10.632  1.00  0.00     0.187 C 
ENDROOT
BRANCH   5   8
HETATM    8  O   UNL     1     -22.515  -4.247 -13.976  1.00  0.00    -0.314 OA
BRANCH   8   9
HETATM    9  C   UNL     1     -23.244  -5.405 -13.928  1.00  0.00     0.259 C 
HETATM   10  O   UNL     1     -23.689  -5.894 -12.902  1.00  0.00    -0.265 OA
BRANCH   9  11
HETATM   11  C   UNL     1     -23.475  -5.982 -15.308  1.00  0.00     0.111 C 
BRANCH  11  12
HETATM   12  C   UNL     1     -24.969  -6.104 -15.597  1.00  0.00     0.010 C 
BRANCH  12  13
HETATM   13  C   UNL     1     -25.259  -7.165 -16.654  1.00  0.00     0.000 C 
BRANCH  13  14
HETATM   14  C   UNL     1     -24.013  -7.436 -17.487  1.00  0.00     0.000 C 
BRANCH  14  15
HETATM   15  C   UNL     1     -24.122  -6.751 -18.840  1.00  0.00     0.000 C 
BRANCH  15  16
HETATM   16  C   UNL     1     -24.020  -7.775 -19.959  1.00  0.00     0.000 C 
BRANCH  16  17
HETATM   17  C   UNL     1     -25.277  -7.741 -20.812  1.00  0.00     0.000 C 
BRANCH  17  18
HETATM   18  C   UNL     1     -25.973  -6.400 -20.661  1.00  0.00     0.000 C 
BRANCH  18  19
HETATM   19  C   UNL     1     -27.413  -6.608 -20.231  1.00  0.00     0.000 C 
BRANCH  19  20
HETATM   20  C   UNL     1     -27.650  -5.958 -18.879  1.00  0.00     0.000 C 
BRANCH  20  21
HETATM   21  C   UNL     1     -29.124  -5.633 -18.710  1.00  0.00     0.000 C 
BRANCH  21  22
HETATM   22  C   UNL     1     -29.771  -6.627 -17.760  1.00  0.00     0.000 C 
BRANCH  22  23
HETATM   23  C   UNL     1     -30.607  -5.892 -16.723  1.00  0.00    -0.000 C 
BRANCH  23  24
HETATM   24  C   UNL     1     -29.750  -5.493 -15.531  1.00  0.00    -0.005 C 
HETATM   25  C   UNL     1     -28.615  -6.482 -15.338  1.00  0.00     0.005 C 
ENDBRANCH  23  24
ENDBRANCH  22  23
ENDBRANCH  21  22
ENDBRANCH  20  21
ENDBRANCH  19  20
ENDBRANCH  18  19
ENDBRANCH  17  18
ENDBRANCH  16  17
ENDBRANCH  15  16
ENDBRANCH  14  15
ENDBRANCH  13  14
ENDBRANCH  12  13
ENDBRANCH  11  12
ENDBRANCH   9  11
ENDBRANCH   8   9
ENDBRANCH   5   8
BRANCH   7  26
HETATM   26  C   UNL     1     -24.751  -3.879  -9.956  1.00  0.00     0.163 C 
HETATM   27  O   UNL     1     -24.753  -5.078  -9.785  1.00  0.00    -0.648 OA
BRANCH  26  28
HETATM   28  O   UNL     1     -25.759  -3.085  -9.515  1.00  0.00    -0.775 OA
HETATM   29  H   UNL     1     -26.025  -3.176  -8.584  1.00  0.00     0.167 HD
ENDBRANCH  26  28
ENDBRANCH   7  26
BRANCH   1  30
HETATM   30  C   UNL     1     -20.248  -4.385  -9.168  1.00  0.00     0.103 C 
BRANCH  30  31
HETATM   31  C   UNL     1     -20.064  -5.416  -8.055  1.00  0.00     0.009 C 
BRANCH  31  32
HETATM   32  C   UNL     1     -19.516  -4.801  -6.767  1.00  0.00     0.000 C 
BRANCH  32  33
HETATM   33  C   UNL     1     -20.478  -5.032  -5.605  1.00  0.00     0.000 C 
BRANCH  33  34
HETATM   34  C   UNL     1     -21.553  -6.042  -5.984  1.00  0.00     0.000 C 
BRANCH  34  35
HETATM   35  C   UNL     1     -22.375  -6.428  -4.763  1.00  0.00     0.000 C 
BRANCH  35  36
HETATM   36  C   UNL     1     -21.460  -6.861  -3.629  1.00  0.00     0.000 C 
BRANCH  36  37
HETATM   37  C   UNL     1     -21.992  -6.352  -2.300  1.00  0.00     0.000 C 
BRANCH  37  38
HETATM   38  C   UNL     1     -21.595  -7.300  -1.182  1.00  0.00     0.000 C 
BRANCH  38  39
HETATM   39  C   UNL     1     -22.687  -7.353  -0.128  1.00  0.00     0.000 C 
BRANCH  39  40
HETATM   40  C   UNL     1     -22.969  -8.794   0.264  1.00  0.00     0.000 C 
BRANCH  40  41
HETATM   41  C   UNL     1     -22.177  -9.739  -0.622  1.00  0.00     0.000 C 
BRANCH  41  42
HETATM   42  C   UNL     1     -23.098 -10.794  -1.217  1.00  0.00    -0.000 C 
BRANCH  42  43
HETATM   43  C   UNL     1     -24.087 -11.291  -0.174  1.00  0.00    -0.005 C 
HETATM   44  C   UNL     1     -23.534 -12.508   0.544  1.00  0.00     0.005 C 
ENDBRANCH  42  43
ENDBRANCH  41  42
ENDBRANCH  40  41
ENDBRANCH  39  40
ENDBRANCH  38  39
ENDBRANCH  37  38
ENDBRANCH  36  37
ENDBRANCH  35  36
ENDBRANCH  34  35
ENDBRANCH  33  34
ENDBRANCH  32  33
ENDBRANCH  31  32
ENDBRANCH  30  31
ENDBRANCH   1  30
TORSDOF 32
BEGIN_RES ARG D 557
REMARK  4 active torsions:
REMARK  status: ('A' for Active; 'I' for Inactive)
REMARK    1  A    between atoms: CA   and  CB  
REMARK    2  A    between atoms: CB   and  CG  
REMARK    3  A    between atoms: CG   and  CD  
REMARK    4  A    between atoms: CD   and  NE  
REMARK       I    between atoms: NE   and  CZ  
REMARK       I    between atoms: CZ   and  NH1 
REMARK       I    between atoms: CZ   and  NH2 
ROOT
ATOM      1  CA  ARG D 557     -26.217   2.705 -17.014  1.00 35.49     0.159 C 
ENDROOT
BRANCH   1   2
ATOM      2  CB  ARG D 557     -26.789   1.319 -17.183  1.00 35.49     0.034 C 
BRANCH   2   3
ATOM      3  CG  ARG D 557     -28.229   1.227 -17.454  1.00 35.49     0.027 C 
BRANCH   3   4
ATOM      4  CD  ARG D 557     -28.911   0.264 -16.559  1.00 35.49     0.116 C 
BRANCH   4   5
ATOM      5  NE  ARG D 557     -28.056  -0.834 -16.191  1.00 35.49    -0.212 N 
ATOM      6  CZ  ARG D 557     -28.184  -2.077 -16.597  1.00 35.49     0.666 C 
ATOM      7  NH1 ARG D 557     -29.156  -2.463 -17.404  1.00 35.49    -0.235 N 
ATOM      8  NH2 ARG D 557     -27.303  -2.939 -16.179  1.00 35.49    -0.235 N 
ATOM      9  HH  ARG D 557     -29.745  -1.912 -17.693  1.00 35.49     0.174 HD
ATOM     10  HH  ARG D 557     -29.187  -3.286 -17.638  1.00 35.49     0.174 HD
ATOM     11  HH  ARG D 557     -26.683  -2.660 -15.665  1.00 35.49     0.174 HD
ATOM     12  HH  ARG D 557     -27.351  -3.750 -16.423  1.00 35.49     0.174 HD
ATOM     13  HE  ARG D 557     -27.446  -0.689 -15.616  1.00 35.49     0.178 HD
ENDBRANCH   4   5
ENDBRANCH   3   4
ENDBRANCH   2   3
ENDBRANCH   1   2
END_RES ARG D 557
BEGIN_RES GLU D 570
REMARK  3 active torsions:
REMARK  status: ('A' for Active; 'I' for Inactive)
REMARK    5  A    between atoms: CA   and  CB  
REMARK    6  A    between atoms: CB   and  CG  
REMARK    7  A    between atoms: CG   and  CD  
ROOT
ATOM     14  CA  GLU D 570     -18.033  -6.348 -13.375  1.00 32.92     0.160 C 
ENDROOT
BRANCH  14  15
ATOM     15  CB  GLU D 570     -19.500  -6.345 -13.794  1.00 32.92     0.043 C 
BRANCH  15  16
ATOM     16  CG  GLU D 570     -19.796  -6.352 -15.250  1.00 32.92     0.100 C 
BRANCH  16  17
ATOM     17  CD  GLU D 570     -20.463  -7.628 -15.710  1.00 32.92     0.185 C 
ATOM     18  OE1 GLU D 570     -20.874  -7.707 -16.883  1.00 32.92    -0.647 OA
ATOM     19  OE2 GLU D 570     -20.591  -8.551 -14.882  1.00 32.92    -0.647 OA
ENDBRANCH  16  17
ENDBRANCH  15  16
ENDBRANCH  14  15
END_RES GLU D 570
ENDMDL
MODEL 4
REMARK VINA RESULT:      -7.8      1.574      3.713
REMARK  32 active torsions:
REMARK  status: ('A' for Active; 'I' for Inactive)
REMARK    1  A    between atoms: C_2  and  C_3 
REMARK    2  A    between atoms: C_3  and  C_4 
REMARK    3  A    between atoms: C_4  and  C_5 
REMARK    4  A    between atoms: C_5  and  C_6 
REMARK    5  A    between atoms: C_6  and  C_7 
REMARK    6  A    between atoms: C_7  and  C_8 
REMARK    7  A    between atoms: C_8  and  C_9 
REMARK    8  A    between atoms: C_9  and  C_10 
REMARK    9  A    between atoms: C_10  and  C_11 
REMARK   10  A    between atoms: C_11  and  C_12 
REMARK   11  A    between atoms: C_12  and  C_13 
REMARK   12  A    between atoms: C_13  and  C_14 
REMARK   13  A    between atoms: C_14  and  C_15 
REMARK   14  A    between atoms: C_15  and  C_16 
REMARK       I    between atoms: C_16  and  N_18 
REMARK   15  A    between atoms: C_20  and  O_26 
REMARK   16  A    between atoms: C_22  and  C_23 
REMARK   17  A    between atoms: C_23  and  O_25 
REMARK   18  A    between atoms: O_26  and  C_27 
REMARK   19  A    between atoms: C_27  and  C_29 
REMARK   20  A    between atoms: C_29  and  C_30 
REMARK   21  A    between atoms: C_30  and  C_31 
REMARK   22  A    between atoms: C_31  and  C_32 
REMARK   23  A    between atoms: C_32  and  C_33 
REMARK   24  A    between atoms: C_33  and  C_34 
REMARK   25  A    between atoms: C_34  and  C_35 
REMARK   26  A    between atoms: C_35  and  C_36 
REMARK   27  A    between atoms: C_36  and  C_37 
REMARK   28  A    between atoms: C_37  and  C_38 
REMARK   29  A    between atoms: C_38  and  C_39 
REMARK   30  A    between atoms: C_39  and  C_40 
REMARK   31  A    between atoms: C_40  and  C_41 
REMARK   32  A    between atoms: C_41  and  C_42 
ROOT
HETATM    1  C   UNL     1     -21.231  -6.241  -6.137  1.00  0.00     0.220 C 
HETATM    2  O   UNL     1     -20.202  -6.902  -6.067  1.00  0.00    -0.273 OA
HETATM    3  N   UNL     1     -21.445  -5.291  -7.128  1.00  0.00    -0.335 N 
HETATM    4  C   UNL     1     -22.603  -4.446  -7.313  1.00  0.00     0.159 C 
HETATM    5  C   UNL     1     -22.784  -4.405  -8.825  1.00  0.00     0.152 C 
HETATM    6  C   UNL     1     -21.331  -4.349  -9.319  1.00  0.00     0.070 C 
HETATM    7  C   UNL     1     -20.520  -5.124  -8.261  1.00  0.00     0.187 C 
ENDROOT
BRANCH   5   8
HETATM    8  O   UNL     1     -23.542  -3.274  -9.268  1.00  0.00    -0.314 OA
BRANCH   8   9
HETATM    9  C   UNL     1     -24.550  -3.594 -10.138  1.00  0.00     0.259 C 
HETATM   10  O   UNL     1     -25.714  -3.257  -9.995  1.00  0.00    -0.265 OA
BRANCH   9  11
HETATM   11  C   UNL     1     -24.038  -4.376 -11.329  1.00  0.00     0.111 C 
BRANCH  11  12
HETATM   12  C   UNL     1     -24.179  -3.559 -12.611  1.00  0.00     0.010 C 
BRANCH  12  13
HETATM   13  C   UNL     1     -22.925  -3.636 -13.475  1.00  0.00     0.000 C 
BRANCH  13  14
HETATM   14  C   UNL     1     -22.813  -5.008 -14.125  1.00  0.00     0.000 C 
BRANCH  14  15
HETATM   15  C   UNL     1     -24.190  -5.531 -14.501  1.00  0.00     0.000 C 
BRANCH  15  16
HETATM   16  C   UNL     1     -24.087  -6.491 -15.675  1.00  0.00     0.000 C 
BRANCH  16  17
HETATM   17  C   UNL     1     -25.456  -7.064 -16.000  1.00  0.00     0.000 C 
BRANCH  17  18
HETATM   18  C   UNL     1     -26.046  -6.352 -17.204  1.00  0.00     0.000 C 
BRANCH  18  19
HETATM   19  C   UNL     1     -25.349  -6.813 -18.472  1.00  0.00     0.000 C 
BRANCH  19  20
HETATM   20  C   UNL     1     -26.221  -6.516 -19.679  1.00  0.00     0.000 C 
BRANCH  20  21
HETATM   21  C   UNL     1     -25.978  -7.552 -20.763  1.00  0.00     0.000 C 
BRANCH  21  22
HETATM   22  C   UNL     1     -24.497  -7.879 -20.849  1.00  0.00     0.000 C 
BRANCH  22  23
HETATM   23  C   UNL     1     -23.967  -7.548 -22.236  1.00  0.00    -0.000 C 
BRANCH  23  24
HETATM   24  C   UNL     1     -22.998  -8.622 -22.708  1.00  0.00    -0.005 C 
HETATM   25  C   UNL     1     -21.909  -8.845 -21.674  1.00  0.00     0.005 C 
ENDBRANCH  23  24
ENDBRANCH  22  23
ENDBRANCH  21  22
ENDBRANCH  20  21
ENDBRANCH  19  20
ENDBRANCH  18  19
ENDBRANCH  17  18
ENDBRANCH  16  17
ENDBRANCH  15  16
ENDBRANCH  14  15
ENDBRANCH  13  14
ENDBRANCH  12  13
ENDBRANCH  11  12
ENDBRANCH   9  11
ENDBRANCH   8   9
ENDBRANCH   5   8
BRANCH   7  26
HETATM   26  C   UNL     1     -19.290  -4.321  -7.810  1.00  0.00     0.163 C 
HETATM   27  O   UNL     1     -19.020  -3.229  -8.258  1.00  0.00    -0.648 OA
BRANCH  26  28
HETATM   28  O   UNL     1     -18.554  -4.903  -6.831  1.00  0.00    -0.775 OA
HETATM   29  H   UNL     1     -17.757  -4.433  -6.532  1.00  0.00     0.167 HD
ENDBRANCH  26  28
ENDBRANCH   7  26
BRANCH   1  30
HETATM   30  C   UNL     1     -22.391  -6.452  -5.162  1.00  0.00     0.103 C 
BRANCH  30  31
HETATM   31  C   UNL     1     -21.979  -7.207  -3.899  1.00  0.00     0.009 C 
BRANCH  31  32
HETATM   32  C   UNL     1     -21.468  -6.277  -2.798  1.00  0.00     0.000 C 
BRANCH  32  33
HETATM   33  C   UNL     1     -22.296  -6.438  -1.526  1.00  0.00     0.000 C 
BRANCH  33  34
HETATM   34  C   UNL     1     -21.721  -7.535  -0.639  1.00  0.00     0.000 C 
BRANCH  34  35
HETATM   35  C   UNL     1     -22.838  -8.292   0.064  1.00  0.00     0.000 C 
BRANCH  35  36
HETATM   36  C   UNL     1     -22.570  -9.787   0.015  1.00  0.00     0.000 C 
BRANCH  36  37
HETATM   37  C   UNL     1     -23.852 -10.542  -0.291  1.00  0.00     0.000 C 
BRANCH  37  38
HETATM   38  C   UNL     1     -23.633 -11.493  -1.454  1.00  0.00     0.000 C 
BRANCH  38  39
HETATM   39  C   UNL     1     -22.425 -11.058  -2.264  1.00  0.00     0.000 C 
BRANCH  39  40
HETATM   40  C   UNL     1     -22.687 -11.259  -3.748  1.00  0.00     0.000 C 
BRANCH  40  41
HETATM   41  C   UNL     1     -21.576 -10.621  -4.564  1.00  0.00     0.000 C 
BRANCH  41  42
HETATM   42  C   UNL     1     -20.223 -10.933  -3.943  1.00  0.00    -0.000 C 
BRANCH  42  43
HETATM   43  C   UNL     1     -19.253  -9.784  -4.167  1.00  0.00    -0.005 C 
HETATM   44  C   UNL     1     -18.863  -9.154  -2.842  1.00  0.00     0.005 C 
ENDBRANCH  42  43
ENDBRANCH  41  42
ENDBRANCH  40  41
ENDBRANCH  39  40
ENDBRANCH  38  39
ENDBRANCH  37  38
ENDBRANCH  36  37
ENDBRANCH  35  36
ENDBRANCH  34  35
ENDBRANCH  33  34
ENDBRANCH  32  33
ENDBRANCH  31  32
ENDBRANCH  30  31
ENDBRANCH   1  30
TORSDOF 32
BEGIN_RES ARG D 557
REMARK  4 active torsions:
REMARK  status: ('A' for Active; 'I' for Inactive)
REMARK    1  A    between atoms: CA   and  CB  
REMARK    2  A    between atoms: CB   and  CG  
REMARK    3  A    between atoms: CG   and  CD  
REMARK    4  A    between atoms: CD   and  NE  
REMARK       I    between atoms: NE   and  CZ  
REMARK       I    between atoms: CZ   and  NH1 
REMARK       I    between atoms: CZ   and  NH2 
ROOT
ATOM      1  CA  ARG D 557     -26.217   2.705 -17.014  1.00 35.49     0.159 C 
ENDROOT
BRANCH   1   2
ATOM      2  CB  ARG D 557     -26.789   1.319 -17.183  1.00 35.49     0.034 C 
BRANCH   2   3
ATOM      3  CG  ARG D 557     -28.221   1.157 -16.906  1.00 35.49     0.027 C 
BRANCH   3   4
ATOM      4  CD  ARG D 557     -28.668  -0.248 -17.046  1.00 35.49     0.116 C 
BRANCH   4   5
ATOM      5  NE  ARG D 557     -27.813  -1.162 -16.336  1.00 35.49    -0.212 N 
ATOM      6  CZ  ARG D 557     -27.837  -2.472 -16.437  1.00 35.49     0.666 C 
ATOM      7  NH1 ARG D 557     -28.690  -3.108 -17.219  1.00 35.49    -0.235 N 
ATOM      8  NH2 ARG D 557     -26.973  -3.145 -15.734  1.00 35.49    -0.235 N 
ATOM      9  HH  ARG D 557     -29.266  -2.685 -17.692  1.00 35.49     0.174 HD
ATOM     10  HH  ARG D 557     -28.658  -3.963 -17.246  1.00 35.49     0.174 HD
ATOM     11  HH  ARG D 557     -26.429  -2.707 -15.243  1.00 35.49     0.174 HD
ATOM     12  HH  ARG D 557     -26.955  -3.991 -15.776  1.00 35.49     0.174 HD
ATOM     13  HE  ARG D 557     -27.281  -0.842 -15.755  1.00 35.49     0.178 HD
ENDBRANCH   4   5
ENDBRANCH   3   4
ENDBRANCH   2   3
ENDBRANCH   1   2
END_RES ARG D 557
BEGIN_RES GLU D 570
REMARK  3 active torsions:
REMARK  status: ('A' for Active; 'I' for Inactive)
REMARK    5  A    between atoms: CA   and  CB  
REMARK    6  A    between atoms: CB   and  CG  
REMARK    7  A    between atoms: CG   and  CD  
ROOT
ATOM     14  CA  GLU D 570     -18.033  -6.348 -13.375  1.00 32.92     0.160 C 
ENDROOT
BRANCH  14  15
ATOM     15  CB  GLU D 570     -19.500  -6.345 -13.794  1.00 32.92     0.043 C 
BRANCH  15  16
ATOM     16  CG  GLU D 570     -20.102  -7.645 -14.187  1.00 32.92     0.100 C 
BRANCH  16  17
ATOM     17  CD  GLU D 570     -20.485  -7.700 -15.648  1.00 32.92     0.185 C 
ATOM     18  OE1 GLU D 570     -20.594  -6.634 -16.285  1.00 32.92    -0.647 OA
ATOM     19  OE2 GLU D 570     -20.695  -8.819 -16.156  1.00 32.92    -0.647 OA
ENDBRANCH  16  17
ENDBRANCH  15  16
ENDBRANCH  14  15
END_RES GLU D 570
ENDMDL
MODEL 5
REMARK VINA RESULT:      -7.7      5.174     12.211
REMARK  32 active torsions:
REMARK  status: ('A' for Active; 'I' for Inactive)
REMARK    1  A    between atoms: C_2  and  C_3 
REMARK    2  A    between atoms: C_3  and  C_4 
REMARK    3  A    between atoms: C_4  and  C_5 
REMARK    4  A    between atoms: C_5  and  C_6 
REMARK    5  A    between atoms: C_6  and  C_7 
REMARK    6  A    between atoms: C_7  and  C_8 
REMARK    7  A    between atoms: C_8  and  C_9 
REMARK    8  A    between atoms: C_9  and  C_10 
REMARK    9  A    between atoms: C_10  and  C_11 
REMARK   10  A    between atoms: C_11  and  C_12 
REMARK   11  A    between atoms: C_12  and  C_13 
REMARK   12  A    between atoms: C_13  and  C_14 
REMARK   13  A    between atoms: C_14  and  C_15 
REMARK   14  A    between atoms: C_15  and  C_16 
REMARK       I    between atoms: C_16  and  N_18 
REMARK   15  A    between atoms: C_20  and  O_26 
REMARK   16  A    between atoms: C_22  and  C_23 
REMARK   17  A    between atoms: C_23  and  O_25 
REMARK   18  A    between atoms: O_26  and  C_27 
REMARK   19  A    between atoms: C_27  and  C_29 
REMARK   20  A    between atoms: C_29  and  C_30 
REMARK   21  A    between atoms: C_30  and  C_31 
REMARK   22  A    between atoms: C_31  and  C_32 
REMARK   23  A    between atoms: C_32  and  C_33 
REMARK   24  A    between atoms: C_33  and  C_34 
REMARK   25  A    between atoms: C_34  and  C_35 
REMARK   26  A    between atoms: C_35  and  C_36 
REMARK   27  A    between atoms: C_36  and  C_37 
REMARK   28  A    between atoms: C_37  and  C_38 
REMARK   29  A    between atoms: C_38  and  C_39 
REMARK   30  A    between atoms: C_39  and  C_40 
REMARK   31  A    between atoms: C_40  and  C_41 
REMARK   32  A    between atoms: C_41  and  C_42 
ROOT
HETATM    1  C   UNL     1     -22.174 -10.200  -0.007  1.00  0.00     0.220 C 
HETATM    2  O   UNL     1     -23.305 -10.435  -0.412  1.00  0.00    -0.273 OA
HETATM    3  N   UNL     1     -21.231 -11.198   0.205  1.00  0.00    -0.335 N 
HETATM    4  C   UNL     1     -19.876 -11.052   0.686  1.00  0.00     0.159 C 
HETATM    5  C   UNL     1     -19.088 -12.062  -0.140  1.00  0.00     0.152 C 
HETATM    6  C   UNL     1     -20.069 -13.240  -0.226  1.00  0.00     0.070 C 
HETATM    7  C   UNL     1     -21.470 -12.594  -0.198  1.00  0.00     0.187 C 
ENDROOT
BRANCH   5   8
HETATM    8  O   UNL     1     -17.850 -12.442   0.472  1.00  0.00    -0.314 OA
BRANCH   8   9
HETATM    9  C   UNL     1     -16.747 -11.908  -0.137  1.00  0.00     0.259 C 
HETATM   10  O   UNL     1     -15.744 -11.545   0.455  1.00  0.00    -0.265 OA
BRANCH   9  11
HETATM   11  C   UNL     1     -16.902 -11.865  -1.642  1.00  0.00     0.111 C 
BRANCH  11  12
HETATM   12  C   UNL     1     -16.281 -10.591  -2.211  1.00  0.00     0.010 C 
BRANCH  12  13
HETATM   13  C   UNL     1     -17.320  -9.708  -2.894  1.00  0.00     0.000 C 
BRANCH  13  14
HETATM   14  C   UNL     1     -17.131  -9.740  -4.405  1.00  0.00     0.000 C 
BRANCH  14  15
HETATM   15  C   UNL     1     -15.666  -9.947  -4.752  1.00  0.00     0.000 C 
BRANCH  15  16
HETATM   16  C   UNL     1     -15.527 -10.969  -5.869  1.00  0.00     0.000 C 
BRANCH  16  17
HETATM   17  C   UNL     1     -16.614 -12.024  -5.747  1.00  0.00     0.000 C 
BRANCH  17  18
HETATM   18  C   UNL     1     -16.703 -12.830  -7.030  1.00  0.00     0.000 C 
BRANCH  18  19
HETATM   19  C   UNL     1     -18.121 -12.791  -7.570  1.00  0.00     0.000 C 
BRANCH  19  20
HETATM   20  C   UNL     1     -18.888 -11.648  -6.928  1.00  0.00     0.000 C 
BRANCH  20  21
HETATM   21  C   UNL     1     -20.227 -12.146  -6.410  1.00  0.00     0.000 C 
BRANCH  21  22
HETATM   22  C   UNL     1     -21.093 -10.970  -5.988  1.00  0.00     0.000 C 
BRANCH  22  23
HETATM   23  C   UNL     1     -20.820 -10.614  -4.535  1.00  0.00    -0.000 C 
BRANCH  23  24
HETATM   24  C   UNL     1     -22.116 -10.601  -3.737  1.00  0.00    -0.005 C 
HETATM   25  C   UNL     1     -22.619 -12.016  -3.518  1.00  0.00     0.005 C 
ENDBRANCH  23  24
ENDBRANCH  22  23
ENDBRANCH  21  22
ENDBRANCH  20  21
ENDBRANCH  19  20
ENDBRANCH  18  19
ENDBRANCH  17  18
ENDBRANCH  16  17
ENDBRANCH  15  16
ENDBRANCH  14  15
ENDBRANCH  13  14
ENDBRANCH  12  13
ENDBRANCH  11  12
ENDBRANCH   9  11
ENDBRANCH   8   9
ENDBRANCH   5   8
BRANCH   7  26
HETATM   26  C   UNL     1     -22.374 -13.282   0.836  1.00  0.00     0.163 C 
HETATM   27  O   UNL     1     -21.951 -13.746   1.872  1.00  0.00    -0.648 OA
BRANCH  26  28
HETATM   28  O   UNL     1     -23.695 -13.286   0.529  1.00  0.00    -0.775 OA
HETATM   29  H   UNL     1     -24.062 -12.484   0.121  1.00  0.00     0.167 HD
ENDBRANCH  26  28
ENDBRANCH   7  26
BRANCH   1  30
HETATM   30  C   UNL     1     -21.691  -8.771   0.248  1.00  0.00     0.103 C 
BRANCH  30  31
HETATM   31  C   UNL     1     -22.764  -7.720  -0.032  1.00  0.00     0.009 C 
BRANCH  31  32
HETATM   32  C   UNL     1     -22.308  -6.667  -1.043  1.00  0.00     0.000 C 
BRANCH  32  33
HETATM   33  C   UNL     1     -21.482  -7.307  -2.155  1.00  0.00     0.000 C 
BRANCH  33  34
HETATM   34  C   UNL     1     -21.406  -6.391  -3.370  1.00  0.00     0.000 C 
BRANCH  34  35
HETATM   35  C   UNL     1     -22.087  -7.038  -4.567  1.00  0.00     0.000 C 
BRANCH  35  36
HETATM   36  C   UNL     1     -21.742  -6.281  -5.839  1.00  0.00     0.000 C 
BRANCH  36  37
HETATM   37  C   UNL     1     -20.235  -6.166  -5.990  1.00  0.00     0.000 C 
BRANCH  37  38
HETATM   38  C   UNL     1     -19.828  -4.706  -6.073  1.00  0.00     0.000 C 
BRANCH  38  39
HETATM   39  C   UNL     1     -20.641  -3.996  -7.142  1.00  0.00     0.000 C 
BRANCH  39  40
HETATM   40  C   UNL     1     -19.955  -4.119  -8.493  1.00  0.00     0.000 C 
BRANCH  40  41
HETATM   41  C   UNL     1     -20.991  -4.272  -9.592  1.00  0.00     0.000 C 
BRANCH  41  42
HETATM   42  C   UNL     1     -22.359  -3.839  -9.086  1.00  0.00    -0.000 C 
BRANCH  42  43
HETATM   43  C   UNL     1     -23.441  -4.203 -10.090  1.00  0.00    -0.005 C 
HETATM   44  C   UNL     1     -24.727  -3.462  -9.776  1.00  0.00     0.005 C 
ENDBRANCH  42  43
ENDBRANCH  41  42
ENDBRANCH  40  41
ENDBRANCH  39  40
ENDBRANCH  38  39
ENDBRANCH  37  38
ENDBRANCH  36  37
ENDBRANCH  35  36
ENDBRANCH  34  35
ENDBRANCH  33  34
ENDBRANCH  32  33
ENDBRANCH  31  32
ENDBRANCH  30  31
ENDBRANCH   1  30
TORSDOF 32
BEGIN_RES ARG D 557
REMARK  4 active torsions:
REMARK  status: ('A' for Active; 'I' for Inactive)
REMARK    1  A    between atoms: CA   and  CB  
REMARK    2  A    between atoms: CB   and  CG  
REMARK    3  A    between atoms: CG   and  CD  
REMARK    4  A    between atoms: CD   and  NE  
REMARK       I    between atoms: NE   and  CZ  
REMARK       I    between atoms: CZ   and  NH1 
REMARK       I    between atoms: CZ   and  NH2 
ROOT
ATOM      1  CA  ARG D 557     -26.217   2.705 -17.014  1.00 35.49     0.159 C 
ENDROOT
BRANCH   1   2
ATOM      2  CB  ARG D 557     -26.789   1.319 -17.183  1.00 35.49     0.034 C 
BRANCH   2   3
ATOM      3  CG  ARG D 557     -25.925   0.196 -16.798  1.00 35.49     0.027 C 
BRANCH   3   4
ATOM      4  CD  ARG D 557     -26.674  -0.882 -16.112  1.00 35.49     0.116 C 
BRANCH   4   5
ATOM      5  NE  ARG D 557     -25.947  -1.420 -14.992  1.00 35.49    -0.212 N 
ATOM      6  CZ  ARG D 557     -25.924  -2.681 -14.626  1.00 35.49     0.666 C 
ATOM      7  NH1 ARG D 557     -26.602  -3.618 -15.264  1.00 35.49    -0.235 N 
ATOM      8  NH2 ARG D 557     -25.192  -2.994 -13.596  1.00 35.49    -0.235 N 
ATOM      9  HH  ARG D 557     -27.088  -3.435 -15.945  1.00 35.49     0.174 HD
ATOM     10  HH  ARG D 557     -26.547  -4.425 -14.981  1.00 35.49     0.174 HD
ATOM     11  HH  ARG D 557     -24.759  -2.370 -13.209  1.00 35.49     0.174 HD
ATOM     12  HH  ARG D 557     -25.149  -3.799 -13.332  1.00 35.49     0.174 HD
ATOM     13  HE  ARG D 557     -25.540  -0.875 -14.482  1.00 35.49     0.178 HD
ENDBRANCH   4   5
ENDBRANCH   3   4
ENDBRANCH   2   3
ENDBRANCH   1   2
END_RES ARG D 557
BEGIN_RES GLU D 570
REMARK  3 active torsions:
REMARK  status: ('A' for Active; 'I' for Inactive)
REMARK    5  A    between atoms: CA   and  CB  
REMARK    6  A    between atoms: CB   and  CG  
REMARK    7  A    between atoms: CG   and  CD  
ROOT
ATOM     14  CA  GLU D 570     -18.033  -6.348 -13.375  1.00 32.92     0.160 C 
ENDROOT
BRANCH  14  15
ATOM     15  CB  GLU D 570     -19.500  -6.345 -13.794  1.00 32.92     0.043 C 
BRANCH  15  16
ATOM     16  CG  GLU D 570     -20.446  -5.551 -12.969  1.00 32.92     0.100 C 
BRANCH  16  17
ATOM     17  CD  GLU D 570     -21.739  -5.242 -13.687  1.00 32.92     0.185 C 
ATOM     18  OE1 GLU D 570     -22.174  -6.054 -14.525  1.00 32.92    -0.647 OA
ATOM     19  OE2 GLU D 570     -22.314  -4.168 -13.420  1.00 32.92    -0.647 OA
ENDBRANCH  16  17
ENDBRANCH  15  16
ENDBRANCH  14  15
END_RES GLU D 570
ENDMDL
MODEL 6
REMARK VINA RESULT:      -7.7      5.083     12.049
REMARK  32 active torsions:
REMARK  status: ('A' for Active; 'I' for Inactive)
REMARK    1  A    between atoms: C_2  and  C_3 
REMARK    2  A    between atoms: C_3  and  C_4 
REMARK    3  A    between atoms: C_4  and  C_5 
REMARK    4  A    between atoms: C_5  and  C_6 
REMARK    5  A    between atoms: C_6  and  C_7 
REMARK    6  A    between atoms: C_7  and  C_8 
REMARK    7  A    between atoms: C_8  and  C_9 
REMARK    8  A    between atoms: C_9  and  C_10 
REMARK    9  A    between atoms: C_10  and  C_11 
REMARK   10  A    between atoms: C_11  and  C_12 
REMARK   11  A    between atoms: C_12  and  C_13 
REMARK   12  A    between atoms: C_13  and  C_14 
REMARK   13  A    between atoms: C_14  and  C_15 
REMARK   14  A    between atoms: C_15  and  C_16 
REMARK       I    between atoms: C_16  and  N_18 
REMARK   15  A    between atoms: C_20  and  O_26 
REMARK   16  A    between atoms: C_22  and  C_23 
REMARK   17  A    between atoms: C_23  and  O_25 
REMARK   18  A    between atoms: O_26  and  C_27 
REMARK   19  A    between atoms: C_27  and  C_29 
REMARK   20  A    between atoms: C_29  and  C_30 
REMARK   21  A    between atoms: C_30  and  C_31 
REMARK   22  A    between atoms: C_31  and  C_32 
REMARK   23  A    between atoms: C_32  and  C_33 
REMARK   24  A    between atoms: C_33  and  C_34 
REMARK   25  A    between atoms: C_34  and  C_35 
REMARK   26  A    between atoms: C_35  and  C_36 
REMARK   27  A    between atoms: C_36  and  C_37 
REMARK   28  A    between atoms: C_37  and  C_38 
REMARK   29  A    between atoms: C_38  and  C_39 
REMARK   30  A    between atoms: C_39  and  C_40 
REMARK   31  A    between atoms: C_40  and  C_41 
REMARK   32  A    between atoms: C_41  and  C_42 
ROOT
HETATM    1  C   UNL     1     -22.276 -10.267  -0.052  1.00  0.00     0.220 C 
HETATM    2  O   UNL     1     -23.409 -10.473  -0.471  1.00  0.00    -0.273 OA
HETATM    3  N   UNL     1     -21.352 -11.286   0.141  1.00  0.00    -0.335 N 
HETATM    4  C   UNL     1     -19.998 -11.175   0.634  1.00  0.00     0.159 C 
HETATM    5  C   UNL     1     -19.221 -12.177  -0.211  1.00  0.00     0.152 C 
HETATM    6  C   UNL     1     -20.221 -13.336  -0.334  1.00  0.00     0.070 C 
HETATM    7  C   UNL     1     -21.611 -12.668  -0.299  1.00  0.00     0.187 C 
ENDROOT
BRANCH   5   8
HETATM    8  O   UNL     1     -17.994 -12.593   0.399  1.00  0.00    -0.314 OA
BRANCH   8   9
HETATM    9  C   UNL     1     -16.888 -11.958  -0.098  1.00  0.00     0.259 C 
HETATM   10  O   UNL     1     -15.915 -11.649   0.570  1.00  0.00    -0.265 OA
BRANCH   9  11
HETATM   11  C   UNL     1     -16.996 -11.728  -1.591  1.00  0.00     0.111 C 
BRANCH  11  12
HETATM   12  C   UNL     1     -15.755 -11.009  -2.115  1.00  0.00     0.010 C 
BRANCH  12  13
HETATM   13  C   UNL     1     -16.106  -9.684  -2.783  1.00  0.00     0.000 C 
BRANCH  13  14
HETATM   14  C   UNL     1     -15.932  -9.789  -4.292  1.00  0.00     0.000 C 
BRANCH  14  15
HETATM   15  C   UNL     1     -17.287  -9.839  -4.980  1.00  0.00     0.000 C 
BRANCH  15  16
HETATM   16  C   UNL     1     -18.366  -9.291  -4.061  1.00  0.00     0.000 C 
BRANCH  16  17
HETATM   17  C   UNL     1     -19.727  -9.818  -4.484  1.00  0.00     0.000 C 
BRANCH  17  18
HETATM   18  C   UNL     1     -20.398 -10.523  -3.320  1.00  0.00     0.000 C 
BRANCH  18  19
HETATM   19  C   UNL     1     -21.268 -11.657  -3.831  1.00  0.00     0.000 C 
BRANCH  19  20
HETATM   20  C   UNL     1     -21.899 -11.268  -5.157  1.00  0.00     0.000 C 
BRANCH  20  21
HETATM   21  C   UNL     1     -22.307 -12.515  -5.923  1.00  0.00     0.000 C 
BRANCH  21  22
HETATM   22  C   UNL     1     -21.086 -13.370  -6.216  1.00  0.00     0.000 C 
BRANCH  22  23
HETATM   23  C   UNL     1     -20.441 -12.932  -7.522  1.00  0.00    -0.000 C 
BRANCH  23  24
HETATM   24  C   UNL     1     -19.104 -12.255  -7.256  1.00  0.00    -0.005 C 
HETATM   25  C   UNL     1     -18.322 -13.019  -6.204  1.00  0.00     0.005 C 
ENDBRANCH  23  24
ENDBRANCH  22  23
ENDBRANCH  21  22
ENDBRANCH  20  21
ENDBRANCH  19  20
ENDBRANCH  18  19
ENDBRANCH  17  18
ENDBRANCH  16  17
ENDBRANCH  15  16
ENDBRANCH  14  15
ENDBRANCH  13  14
ENDBRANCH  12  13
ENDBRANCH  11  12
ENDBRANCH   9  11
ENDBRANCH   8   9
ENDBRANCH   5   8
BRANCH   7  26
HETATM   26  C   UNL     1     -22.534 -13.366   0.711  1.00  0.00     0.163 C 
HETATM   27  O   UNL     1     -22.274 -13.445   1.891  1.00  0.00    -0.648 OA
BRANCH  26  28
HETATM   28  O   UNL     1     -23.692 -13.846   0.192  1.00  0.00    -0.775 OA
HETATM   29  H   UNL     1     -24.505 -13.699   0.703  1.00  0.00     0.167 HD
ENDBRANCH  26  28
ENDBRANCH   7  26
BRANCH   1  30
HETATM   30  C   UNL     1     -21.772  -8.854   0.243  1.00  0.00     0.103 C 
BRANCH  30  31
HETATM   31  C   UNL     1     -22.824  -7.777  -0.022  1.00  0.00     0.009 C 
BRANCH  31  32
HETATM   32  C   UNL     1     -22.345  -6.716  -1.013  1.00  0.00     0.000 C 
BRANCH  32  33
HETATM   33  C   UNL     1     -21.321  -7.303  -1.980  1.00  0.00     0.000 C 
BRANCH  33  34
HETATM   34  C   UNL     1     -21.212  -6.449  -3.238  1.00  0.00     0.000 C 
BRANCH  34  35
HETATM   35  C   UNL     1     -22.164  -6.957  -4.310  1.00  0.00     0.000 C 
BRANCH  35  36
HETATM   36  C   UNL     1     -21.773  -6.395  -5.668  1.00  0.00     0.000 C 
BRANCH  36  37
HETATM   37  C   UNL     1     -20.312  -5.980  -5.664  1.00  0.00     0.000 C 
BRANCH  37  38
HETATM   38  C   UNL     1     -20.164  -4.584  -6.243  1.00  0.00     0.000 C 
BRANCH  38  39
HETATM   39  C   UNL     1     -21.296  -4.299  -7.214  1.00  0.00     0.000 C 
BRANCH  39  40
HETATM   40  C   UNL     1     -20.913  -4.751  -8.614  1.00  0.00     0.000 C 
BRANCH  40  41
HETATM   41  C   UNL     1     -21.620  -3.893  -9.650  1.00  0.00     0.000 C 
BRANCH  41  42
HETATM   42  C   UNL     1     -22.804  -4.648 -10.236  1.00  0.00    -0.000 C 
BRANCH  42  43
HETATM   43  C   UNL     1     -23.879  -3.679 -10.701  1.00  0.00    -0.005 C 
HETATM   44  C   UNL     1     -24.787  -3.301  -9.545  1.00  0.00     0.005 C 
ENDBRANCH  42  43
ENDBRANCH  41  42
ENDBRANCH  40  41
ENDBRANCH  39  40
ENDBRANCH  38  39
ENDBRANCH  37  38
ENDBRANCH  36  37
ENDBRANCH  35  36
ENDBRANCH  34  35
ENDBRANCH  33  34
ENDBRANCH  32  33
ENDBRANCH  31  32
ENDBRANCH  30  31
ENDBRANCH   1  30
TORSDOF 32
BEGIN_RES ARG D 557
REMARK  4 active torsions:
REMARK  status: ('A' for Active; 'I' for Inactive)
REMARK    1  A    between atoms: CA   and  CB  
REMARK    2  A    between atoms: CB   and  CG  
REMARK    3  A    between atoms: CG   and  CD  
REMARK    4  A    between atoms: CD   and  NE  
REMARK       I    between atoms: NE   and  CZ  
REMARK       I    between atoms: CZ   and  NH1 
REMARK       I    between atoms: CZ   and  NH2 
ROOT
ATOM      1  CA  ARG D 557     -26.217   2.705 -17.014  1.00 35.49     0.159 C 
ENDROOT
BRANCH   1   2
ATOM      2  CB  ARG D 557     -26.789   1.319 -17.183  1.00 35.49     0.034 C 
BRANCH   2   3
ATOM      3  CG  ARG D 557     -26.052   0.218 -16.551  1.00 35.49     0.027 C 
BRANCH   3   4
ATOM      4  CD  ARG D 557     -26.941  -0.891 -16.134  1.00 35.49     0.116 C 
BRANCH   4   5
ATOM      5  NE  ARG D 557     -26.238  -1.894 -15.378  1.00 35.49    -0.212 N 
ATOM      6  CZ  ARG D 557     -25.135  -1.705 -14.690  1.00 35.49     0.666 C 
ATOM      7  NH1 ARG D 557     -24.527  -0.534 -14.632  1.00 35.49    -0.235 N 
ATOM      8  NH2 ARG D 557     -24.647  -2.725 -14.046  1.00 35.49    -0.235 N 
ATOM      9  HH  ARG D 557     -24.832   0.151 -15.046  1.00 35.49     0.174 HD
ATOM     10  HH  ARG D 557     -23.812  -0.470 -14.165  1.00 35.49     0.174 HD
ATOM     11  HH  ARG D 557     -25.065  -3.467 -14.096  1.00 35.49     0.174 HD
ATOM     12  HH  ARG D 557     -23.938  -2.641 -13.588  1.00 35.49     0.174 HD
ATOM     13  HE  ARG D 557     -26.520  -2.695 -15.420  1.00 35.49     0.178 HD
ENDBRANCH   4   5
ENDBRANCH   3   4
ENDBRANCH   2   3
ENDBRANCH   1   2
END_RES ARG D 557
BEGIN_RES GLU D 570
REMARK  3 active torsions:
REMARK  status: ('A' for Active; 'I' for Inactive)
REMARK    5  A    between atoms: CA   and  CB  
REMARK    6  A    between atoms: CB   and  CG  
REMARK    7  A    between atoms: CG   and  CD  
ROOT
ATOM     14  CA  GLU D 570     -18.033  -6.348 -13.375  1.00 32.92     0.160 C 
ENDROOT
BRANCH  14  15
ATOM     15  CB  GLU D 570     -19.500  -6.345 -13.794  1.00 32.92     0.043 C 
BRANCH  15  16
ATOM     16  CG  GLU D 570     -20.441  -5.525 -12.987  1.00 32.92     0.100 C 
BRANCH  16  17
ATOM     17  CD  GLU D 570     -21.716  -5.193 -13.726  1.00 32.92     0.185 C 
ATOM     18  OE1 GLU D 570     -22.131  -4.018 -13.720  1.00 32.92    -0.647 OA
ATOM     19  OE2 GLU D 570     -22.316  -6.121 -14.304  1.00 32.92    -0.647 OA
ENDBRANCH  16  17
ENDBRANCH  15  16
ENDBRANCH  14  15
END_RES GLU D 570
ENDMDL
MODEL 7
REMARK VINA RESULT:      -7.6      4.909     12.188
REMARK  32 active torsions:
REMARK  status: ('A' for Active; 'I' for Inactive)
REMARK    1  A    between atoms: C_2  and  C_3 
REMARK    2  A    between atoms: C_3  and  C_4 
REMARK    3  A    between atoms: C_4  and  C_5 
REMARK    4  A    between atoms: C_5  and  C_6 
REMARK    5  A    between atoms: C_6  and  C_7 
REMARK    6  A    between atoms: C_7  and  C_8 
REMARK    7  A    between atoms: C_8  and  C_9 
REMARK    8  A    between atoms: C_9  and  C_10 
REMARK    9  A    between atoms: C_10  and  C_11 
REMARK   10  A    between atoms: C_11  and  C_12 
REMARK   11  A    between atoms: C_12  and  C_13 
REMARK   12  A    between atoms: C_13  and  C_14 
REMARK   13  A    between atoms: C_14  and  C_15 
REMARK   14  A    between atoms: C_15  and  C_16 
REMARK       I    between atoms: C_16  and  N_18 
REMARK   15  A    between atoms: C_20  and  O_26 
REMARK   16  A    between atoms: C_22  and  C_23 
REMARK   17  A    between atoms: C_23  and  O_25 
REMARK   18  A    between atoms: O_26  and  C_27 
REMARK   19  A    between atoms: C_27  and  C_29 
REMARK   20  A    between atoms: C_29  and  C_30 
REMARK   21  A    between atoms: C_30  and  C_31 
REMARK   22  A    between atoms: C_31  and  C_32 
REMARK   23  A    between atoms: C_32  and  C_33 
REMARK   24  A    between atoms: C_33  and  C_34 
REMARK   25  A    between atoms: C_34  and  C_35 
REMARK   26  A    between atoms: C_35  and  C_36 
REMARK   27  A    between atoms: C_36  and  C_37 
REMARK   28  A    between atoms: C_37  and  C_38 
REMARK   29  A    between atoms: C_38  and  C_39 
REMARK   30  A    between atoms: C_39  and  C_40 
REMARK   31  A    between atoms: C_40  and  C_41 
REMARK   32  A    between atoms: C_41  and  C_42 
ROOT
HETATM    1  C   UNL     1     -15.866 -10.894  -3.432  1.00  0.00     0.220 C 
HETATM    2  O   UNL     1     -15.224 -11.308  -2.475  1.00  0.00    -0.273 OA
HETATM    3  N   UNL     1     -15.913 -11.564  -4.649  1.00  0.00    -0.335 N 
HETATM    4  C   UNL     1     -16.622 -11.178  -5.848  1.00  0.00     0.159 C 
HETATM    5  C   UNL     1     -17.151 -12.498  -6.397  1.00  0.00     0.152 C 
HETATM    6  C   UNL     1     -15.986 -13.456  -6.106  1.00  0.00     0.070 C 
HETATM    7  C   UNL     1     -15.328 -12.904  -4.825  1.00  0.00     0.187 C 
ENDROOT
BRANCH   5   8
HETATM    8  O   UNL     1     -17.458 -12.441  -7.794  1.00  0.00    -0.314 OA
BRANCH   8   9
HETATM    9  C   UNL     1     -18.779 -12.666  -8.077  1.00  0.00     0.259 C 
HETATM   10  O   UNL     1     -19.179 -13.223  -9.086  1.00  0.00    -0.265 OA
BRANCH   9  11
HETATM   11  C   UNL     1     -19.683 -12.186  -6.962  1.00  0.00     0.111 C 
BRANCH  11  12
HETATM   12  C   UNL     1     -21.082 -12.777  -7.111  1.00  0.00     0.010 C 
BRANCH  12  13
HETATM   13  C   UNL     1     -22.035 -12.259  -6.039  1.00  0.00     0.000 C 
BRANCH  13  14
HETATM   14  C   UNL     1     -21.396 -12.377  -4.661  1.00  0.00     0.000 C 
BRANCH  14  15
HETATM   15  C   UNL     1     -22.452 -12.252  -3.575  1.00  0.00     0.000 C 
BRANCH  15  16
HETATM   16  C   UNL     1     -22.774 -13.619  -2.992  1.00  0.00     0.000 C 
BRANCH  16  17
HETATM   17  C   UNL     1     -23.485 -13.462  -1.659  1.00  0.00     0.000 C 
BRANCH  17  18
HETATM   18  C   UNL     1     -23.610 -11.991  -1.305  1.00  0.00     0.000 C 
BRANCH  18  19
HETATM   19  C   UNL     1     -23.489 -11.807   0.197  1.00  0.00     0.000 C 
BRANCH  19  20
HETATM   20  C   UNL     1     -22.038 -11.951   0.621  1.00  0.00     0.000 C 
BRANCH  20  21
HETATM   21  C   UNL     1     -21.149 -11.098  -0.269  1.00  0.00     0.000 C 
BRANCH  21  22
HETATM   22  C   UNL     1     -21.193  -9.649   0.186  1.00  0.00     0.000 C 
BRANCH  22  23
HETATM   23  C   UNL     1     -21.691  -8.760  -0.944  1.00  0.00    -0.000 C 
BRANCH  23  24
HETATM   24  C   UNL     1     -22.414  -7.543  -0.386  1.00  0.00    -0.005 C 
HETATM   25  C   UNL     1     -23.280  -7.936   0.797  1.00  0.00     0.005 C 
ENDBRANCH  23  24
ENDBRANCH  22  23
ENDBRANCH  21  22
ENDBRANCH  20  21
ENDBRANCH  19  20
ENDBRANCH  18  19
ENDBRANCH  17  18
ENDBRANCH  16  17
ENDBRANCH  15  16
ENDBRANCH  14  15
ENDBRANCH  13  14
ENDBRANCH  12  13
ENDBRANCH  11  12
ENDBRANCH   9  11
ENDBRANCH   8   9
ENDBRANCH   5   8
BRANCH   7  26
HETATM   26  C   UNL     1     -13.806 -12.784  -4.994  1.00  0.00     0.163 C 
HETATM   27  O   UNL     1     -13.281 -12.544  -6.059  1.00  0.00    -0.648 OA
BRANCH  26  28
HETATM   28  O   UNL     1     -13.090 -12.914  -3.849  1.00  0.00    -0.775 OA
HETATM   29  H   UNL     1     -12.326 -13.515  -3.865  1.00  0.00     0.167 HD
ENDBRANCH  26  28
ENDBRANCH   7  26
BRANCH   1  30
HETATM   30  C   UNL     1     -16.716  -9.626  -3.344  1.00  0.00     0.103 C 
BRANCH  30  31
HETATM   31  C   UNL     1     -18.115  -9.883  -2.787  1.00  0.00     0.009 C 
BRANCH  31  32
HETATM   32  C   UNL     1     -19.146  -8.874  -3.296  1.00  0.00     0.000 C 
BRANCH  32  33
HETATM   33  C   UNL     1     -19.587  -9.220  -4.715  1.00  0.00     0.000 C 
BRANCH  33  34
HETATM   34  C   UNL     1     -20.979  -8.668  -4.999  1.00  0.00     0.000 C 
BRANCH  34  35
HETATM   35  C   UNL     1     -21.213  -7.384  -4.217  1.00  0.00     0.000 C 
BRANCH  35  36
HETATM   36  C   UNL     1     -21.712  -6.288  -5.144  1.00  0.00     0.000 C 
BRANCH  36  37
HETATM   37  C   UNL     1     -20.580  -5.336  -5.491  1.00  0.00     0.000 C 
BRANCH  37  38
HETATM   38  C   UNL     1     -20.084  -5.606  -6.901  1.00  0.00     0.000 C 
BRANCH  38  39
HETATM   39  C   UNL     1     -20.201  -4.350  -7.746  1.00  0.00     0.000 C 
BRANCH  39  40
HETATM   40  C   UNL     1     -21.462  -3.585  -7.380  1.00  0.00     0.000 C 
BRANCH  40  41
HETATM   41  C   UNL     1     -22.650  -4.141  -8.147  1.00  0.00     0.000 C 
BRANCH  41  42
HETATM   42  C   UNL     1     -22.284  -4.334  -9.611  1.00  0.00    -0.000 C 
BRANCH  42  43
HETATM   43  C   UNL     1     -23.512  -4.707 -10.425  1.00  0.00    -0.005 C 
HETATM   44  C   UNL     1     -24.322  -3.469 -10.761  1.00  0.00     0.005 C 
ENDBRANCH  42  43
ENDBRANCH  41  42
ENDBRANCH  40  41
ENDBRANCH  39  40
ENDBRANCH  38  39
ENDBRANCH  37  38
ENDBRANCH  36  37
ENDBRANCH  35  36
ENDBRANCH  34  35
ENDBRANCH  33  34
ENDBRANCH  32  33
ENDBRANCH  31  32
ENDBRANCH  30  31
ENDBRANCH   1  30
TORSDOF 32
BEGIN_RES ARG D 557
REMARK  4 active torsions:
REMARK  status: ('A' for Active; 'I' for Inactive)
REMARK    1  A    between atoms: CA   and  CB  
REMARK    2  A    between atoms: CB   and  CG  
REMARK    3  A    between atoms: CG   and  CD  
REMARK    4  A    between atoms: CD   and  NE  
REMARK       I    between atoms: NE   and  CZ  
REMARK       I    between atoms: CZ   and  NH1 
REMARK       I    between atoms: CZ   and  NH2 
ROOT
ATOM      1  CA  ARG D 557     -26.217   2.705 -17.014  1.00 35.49     0.159 C 
ENDROOT
BRANCH   1   2
ATOM      2  CB  ARG D 557     -26.789   1.319 -17.183  1.00 35.49     0.034 C 
BRANCH   2   3
ATOM      3  CG  ARG D 557     -28.236   1.225 -17.414  1.00 35.49     0.027 C 
BRANCH   3   4
ATOM      4  CD  ARG D 557     -28.896   0.286 -16.478  1.00 35.49     0.116 C 
BRANCH   4   5
ATOM      5  NE  ARG D 557     -29.295  -0.935 -17.127  1.00 35.49    -0.212 N 
ATOM      6  CZ  ARG D 557     -28.672  -2.089 -17.041  1.00 35.49     0.666 C 
ATOM      7  NH1 ARG D 557     -27.568  -2.248 -16.336  1.00 35.49    -0.235 N 
ATOM      8  NH2 ARG D 557     -29.189  -3.099 -17.680  1.00 35.49    -0.235 N 
ATOM      9  HH  ARG D 557     -27.211  -1.598 -15.906  1.00 35.49     0.174 HD
ATOM     10  HH  ARG D 557     -27.207  -3.025 -16.315  1.00 35.49     0.174 HD
ATOM     11  HH  ARG D 557     -29.907  -2.968 -18.121  1.00 35.49     0.174 HD
ATOM     12  HH  ARG D 557     -28.817  -3.860 -17.645  1.00 35.49     0.174 HD
ATOM     13  HE  ARG D 557     -29.957  -0.906 -17.660  1.00 35.49     0.178 HD
ENDBRANCH   4   5
ENDBRANCH   3   4
ENDBRANCH   2   3
ENDBRANCH   1   2
END_RES ARG D 557
BEGIN_RES GLU D 570
REMARK  3 active torsions:
REMARK  status: ('A' for Active; 'I' for Inactive)
REMARK    5  A    between atoms: CA   and  CB  
REMARK    6  A    between atoms: CB   and  CG  
REMARK    7  A    between atoms: CG   and  CD  
ROOT
ATOM     14  CA  GLU D 570     -18.033  -6.348 -13.375  1.00 32.92     0.160 C 
ENDROOT
BRANCH  14  15
ATOM     15  CB  GLU D 570     -19.500  -6.345 -13.794  1.00 32.92     0.043 C 
BRANCH  15  16
ATOM     16  CG  GLU D 570     -20.434  -5.495 -13.011  1.00 32.92     0.100 C 
BRANCH  16  17
ATOM     17  CD  GLU D 570     -21.736  -5.233 -13.731  1.00 32.92     0.185 C 
ATOM     18  OE1 GLU D 570     -22.216  -6.123 -14.459  1.00 32.92    -0.647 OA
ATOM     19  OE2 GLU D 570     -22.274  -4.118 -13.578  1.00 32.92    -0.647 OA
ENDBRANCH  16  17
ENDBRANCH  15  16
ENDBRANCH  14  15
END_RES GLU D 570
ENDMDL
MODEL 8
REMARK VINA RESULT:      -7.6      5.135     12.519
REMARK  32 active torsions:
REMARK  status: ('A' for Active; 'I' for Inactive)
REMARK    1  A    between atoms: C_2  and  C_3 
REMARK    2  A    between atoms: C_3  and  C_4 
REMARK    3  A    between atoms: C_4  and  C_5 
REMARK    4  A    between atoms: C_5  and  C_6 
REMARK    5  A    between atoms: C_6  and  C_7 
REMARK    6  A    between atoms: C_7  and  C_8 
REMARK    7  A    between atoms: C_8  and  C_9 
REMARK    8  A    between atoms: C_9  and  C_10 
REMARK    9  A    between atoms: C_10  and  C_11 
REMARK   10  A    between atoms: C_11  and  C_12 
REMARK   11  A    between atoms: C_12  and  C_13 
REMARK   12  A    between atoms: C_13  and  C_14 
REMARK   13  A    between atoms: C_14  and  C_15 
REMARK   14  A    between atoms: C_15  and  C_16 
REMARK       I    between atoms: C_16  and  N_18 
REMARK   15  A    between atoms: C_20  and  O_26 
REMARK   16  A    between atoms: C_22  and  C_23 
REMARK   17  A    between atoms: C_23  and  O_25 
REMARK   18  A    between atoms: O_26  and  C_27 
REMARK   19  A    between atoms: C_27  and  C_29 
REMARK   20  A    between atoms: C_29  and  C_30 
REMARK   21  A    between atoms: C_30  and  C_31 
REMARK   22  A    between atoms: C_31  and  C_32 
REMARK   23  A    between atoms: C_32  and  C_33 
REMARK   24  A    between atoms: C_33  and  C_34 
REMARK   25  A    between atoms: C_34  and  C_35 
REMARK   26  A    between atoms: C_35  and  C_36 
REMARK   27  A    between atoms: C_36  and  C_37 
REMARK   28  A    between atoms: C_37  and  C_38 
REMARK   29  A    between atoms: C_38  and  C_39 
REMARK   30  A    between atoms: C_39  and  C_40 
REMARK   31  A    between atoms: C_40  and  C_41 
REMARK   32  A    between atoms: C_41  and  C_42 
ROOT
HETATM    1  C   UNL     1     -22.036 -10.253  -0.123  1.00  0.00     0.220 C 
HETATM    2  O   UNL     1     -23.131 -10.478  -0.623  1.00  0.00    -0.273 OA
HETATM    3  N   UNL     1     -21.127 -11.261   0.175  1.00  0.00    -0.335 N 
HETATM    4  C   UNL     1     -19.816 -11.127   0.770  1.00  0.00     0.159 C 
HETATM    5  C   UNL     1     -18.973 -12.152   0.021  1.00  0.00     0.152 C 
HETATM    6  C   UNL     1     -19.957 -13.319  -0.143  1.00  0.00     0.070 C 
HETATM    7  C   UNL     1     -21.347 -12.657  -0.239  1.00  0.00     0.187 C 
ENDROOT
BRANCH   5   8
HETATM    8  O   UNL     1     -17.797 -12.542   0.740  1.00  0.00    -0.314 OA
BRANCH   8   9
HETATM    9  C   UNL     1     -16.640 -12.023   0.226  1.00  0.00     0.259 C 
HETATM   10  O   UNL     1     -15.672 -11.705   0.898  1.00  0.00    -0.265 OA
BRANCH   9  11
HETATM   11  C   UNL     1     -16.685 -11.936  -1.284  1.00  0.00     0.111 C 
BRANCH  11  12
HETATM   12  C   UNL     1     -15.931 -13.106  -1.914  1.00  0.00     0.010 C 
BRANCH  12  13
HETATM   13  C   UNL     1     -14.836 -12.631  -2.863  1.00  0.00     0.000 C 
BRANCH  13  14
HETATM   14  C   UNL     1     -15.179 -11.258  -3.424  1.00  0.00     0.000 C 
BRANCH  14  15
HETATM   15  C   UNL     1     -15.550 -11.363  -4.894  1.00  0.00     0.000 C 
BRANCH  15  16
HETATM   16  C   UNL     1     -16.812 -10.565  -5.179  1.00  0.00     0.000 C 
BRANCH  16  17
HETATM   17  C   UNL     1     -17.072  -9.582  -4.051  1.00  0.00     0.000 C 
BRANCH  17  18
HETATM   18  C   UNL     1     -18.539  -9.195  -4.024  1.00  0.00     0.000 C 
BRANCH  18  19
HETATM   19  C   UNL     1     -19.224  -9.839  -2.833  1.00  0.00     0.000 C 
BRANCH  19  20
HETATM   20  C   UNL     1     -20.074 -11.010  -3.295  1.00  0.00     0.000 C 
BRANCH  20  21
HETATM   21  C   UNL     1     -21.362 -10.502  -3.921  1.00  0.00     0.000 C 
BRANCH  21  22
HETATM   22  C   UNL     1     -21.395 -10.853  -5.400  1.00  0.00     0.000 C 
BRANCH  22  23
HETATM   23  C   UNL     1     -20.995 -12.306  -5.603  1.00  0.00    -0.000 C 
BRANCH  23  24
HETATM   24  C   UNL     1     -22.169 -13.113  -6.138  1.00  0.00    -0.005 C 
HETATM   25  C   UNL     1     -21.674 -14.303  -6.939  1.00  0.00     0.005 C 
ENDBRANCH  23  24
ENDBRANCH  22  23
ENDBRANCH  21  22
ENDBRANCH  20  21
ENDBRANCH  19  20
ENDBRANCH  18  19
ENDBRANCH  17  18
ENDBRANCH  16  17
ENDBRANCH  15  16
ENDBRANCH  14  15
ENDBRANCH  13  14
ENDBRANCH  12  13
ENDBRANCH  11  12
ENDBRANCH   9  11
ENDBRANCH   8   9
ENDBRANCH   5   8
BRANCH   7  26
HETATM   26  C   UNL     1     -22.345 -13.328   0.717  1.00  0.00     0.163 C 
HETATM   27  O   UNL     1     -22.042 -13.696   1.830  1.00  0.00    -0.648 OA
BRANCH  26  28
HETATM   28  O   UNL     1     -23.612 -13.431   0.243  1.00  0.00    -0.775 OA
HETATM   29  H   UNL     1     -23.838 -14.232  -0.260  1.00  0.00     0.167 HD
ENDBRANCH  26  28
ENDBRANCH   7  26
BRANCH   1  30
HETATM   30  C   UNL     1     -21.560  -8.829   0.165  1.00  0.00     0.103 C 
BRANCH  30  31
HETATM   31  C   UNL     1     -22.664  -7.785  -0.002  1.00  0.00     0.009 C 
BRANCH  31  32
HETATM   32  C   UNL     1     -22.277  -6.668  -0.971  1.00  0.00     0.000 C 
BRANCH  32  33
HETATM   33  C   UNL     1     -21.529  -7.231  -2.176  1.00  0.00     0.000 C 
BRANCH  33  34
HETATM   34  C   UNL     1     -21.469  -6.208  -3.303  1.00  0.00     0.000 C 
BRANCH  34  35
HETATM   35  C   UNL     1     -21.460  -6.906  -4.655  1.00  0.00     0.000 C 
BRANCH  35  36
HETATM   36  C   UNL     1     -21.511  -5.879  -5.775  1.00  0.00     0.000 C 
BRANCH  36  37
HETATM   37  C   UNL     1     -20.178  -5.159  -5.890  1.00  0.00     0.000 C 
BRANCH  37  38
HETATM   38  C   UNL     1     -20.146  -4.320  -7.155  1.00  0.00     0.000 C 
BRANCH  38  39
HETATM   39  C   UNL     1     -21.534  -3.788  -7.465  1.00  0.00     0.000 C 
BRANCH  39  40
HETATM   40  C   UNL     1     -21.866  -4.008  -8.932  1.00  0.00     0.000 C 
BRANCH  40  41
HETATM   41  C   UNL     1     -20.616  -4.413  -9.694  1.00  0.00     0.000 C 
BRANCH  41  42
HETATM   42  C   UNL     1     -20.539  -3.658 -11.013  1.00  0.00    -0.000 C 
BRANCH  42  43
HETATM   43  C   UNL     1     -21.933  -3.342 -11.531  1.00  0.00    -0.005 C 
HETATM   44  C   UNL     1     -22.363  -4.373 -12.558  1.00  0.00     0.005 C 
ENDBRANCH  42  43
ENDBRANCH  41  42
ENDBRANCH  40  41
ENDBRANCH  39  40
ENDBRANCH  38  39
ENDBRANCH  37  38
ENDBRANCH  36  37
ENDBRANCH  35  36
ENDBRANCH  34  35
ENDBRANCH  33  34
ENDBRANCH  32  33
ENDBRANCH  31  32
ENDBRANCH  30  31
ENDBRANCH   1  30
TORSDOF 32
BEGIN_RES ARG D 557
REMARK  4 active torsions:
REMARK  status: ('A' for Active; 'I' for Inactive)
REMARK    1  A    between atoms: CA   and  CB  
REMARK    2  A    between atoms: CB   and  CG  
REMARK    3  A    between atoms: CG   and  CD  
REMARK    4  A    between atoms: CD   and  NE  
REMARK       I    between atoms: NE   and  CZ  
REMARK       I    between atoms: CZ   and  NH1 
REMARK       I    between atoms: CZ   and  NH2 
ROOT
ATOM      1  CA  ARG D 557     -26.217   2.705 -17.014  1.00 35.49     0.159 C 
ENDROOT
BRANCH   1   2
ATOM      2  CB  ARG D 557     -26.789   1.319 -17.183  1.00 35.49     0.034 C 
BRANCH   2   3
ATOM      3  CG  ARG D 557     -28.232   1.226 -17.437  1.00 35.49     0.027 C 
BRANCH   3   4
ATOM      4  CD  ARG D 557     -28.912   0.306 -16.498  1.00 35.49     0.116 C 
BRANCH   4   5
ATOM      5  NE  ARG D 557     -29.276  -0.937 -17.124  1.00 35.49    -0.212 N 
ATOM      6  CZ  ARG D 557     -28.629  -2.075 -17.007  1.00 35.49     0.666 C 
ATOM      7  NH1 ARG D 557     -27.529  -2.194 -16.286  1.00 35.49    -0.235 N 
ATOM      8  NH2 ARG D 557     -29.115  -3.109 -17.629  1.00 35.49    -0.235 N 
ATOM      9  HH  ARG D 557     -27.193  -1.527 -15.866  1.00 35.49     0.174 HD
ATOM     10  HH  ARG D 557     -27.151  -2.962 -16.244  1.00 35.49     0.174 HD
ATOM     11  HH  ARG D 557     -29.831  -3.005 -18.081  1.00 35.49     0.174 HD
ATOM     12  HH  ARG D 557     -28.727  -3.861 -17.574  1.00 35.49     0.174 HD
ATOM     13  HE  ARG D 557     -29.932  -0.935 -17.666  1.00 35.49     0.178 HD
ENDBRANCH   4   5
ENDBRANCH   3   4
ENDBRANCH   2   3
ENDBRANCH   1   2
END_RES ARG D 557
BEGIN_RES GLU D 570
REMARK  3 active torsions:
REMARK  status: ('A' for Active; 'I' for Inactive)
REMARK    5  A    between atoms: CA   and  CB  
REMARK    6  A    between atoms: CB   and  CG  
REMARK    7  A    between atoms: CG   and  CD  
ROOT
ATOM     14  CA  GLU D 570     -18.033  -6.348 -13.375  1.00 32.92     0.160 C 
ENDROOT
BRANCH  14  15
ATOM     15  CB  GLU D 570     -19.500  -6.345 -13.794  1.00 32.92     0.043 C 
BRANCH  15  16
ATOM     16  CG  GLU D 570     -20.098  -7.642 -14.202  1.00 32.92     0.100 C 
BRANCH  16  17
ATOM     17  CD  GLU D 570     -20.999  -7.523 -15.409  1.00 32.92     0.185 C 
ATOM     18  OE1 GLU D 570     -20.859  -8.327 -16.350  1.00 32.92    -0.647 OA
ATOM     19  OE2 GLU D 570     -21.842  -6.604 -15.420  1.00 32.92    -0.647 OA
ENDBRANCH  16  17
ENDBRANCH  15  16
ENDBRANCH  14  15
END_RES GLU D 570
ENDMDL
MODEL 9
REMARK VINA RESULT:      -7.5      4.380     11.531
REMARK  32 active torsions:
REMARK  status: ('A' for Active; 'I' for Inactive)
REMARK    1  A    between atoms: C_2  and  C_3 
REMARK    2  A    between atoms: C_3  and  C_4 
REMARK    3  A    between atoms: C_4  and  C_5 
REMARK    4  A    between atoms: C_5  and  C_6 
REMARK    5  A    between atoms: C_6  and  C_7 
REMARK    6  A    between atoms: C_7  and  C_8 
REMARK    7  A    between atoms: C_8  and  C_9 
REMARK    8  A    between atoms: C_9  and  C_10 
REMARK    9  A    between atoms: C_10  and  C_11 
REMARK   10  A    between atoms: C_11  and  C_12 
REMARK   11  A    between atoms: C_12  and  C_13 
REMARK   12  A    between atoms: C_13  and  C_14 
REMARK   13  A    between atoms: C_14  and  C_15 
REMARK   14  A    between atoms: C_15  and  C_16 
REMARK       I    between atoms: C_16  and  N_18 
REMARK   15  A    between atoms: C_20  and  O_26 
REMARK   16  A    between atoms: C_22  and  C_23 
REMARK   17  A    between atoms: C_23  and  O_25 
REMARK   18  A    between atoms: O_26  and  C_27 
REMARK   19  A    between atoms: C_27  and  C_29 
REMARK   20  A    between atoms: C_29  and  C_30 
REMARK   21  A    between atoms: C_30  and  C_31 
REMARK   22  A    between atoms: C_31  and  C_32 
REMARK   23  A    between atoms: C_32  and  C_33 
REMARK   24  A    between atoms: C_33  and  C_34 
REMARK   25  A    between atoms: C_34  and  C_35 
REMARK   26  A    between atoms: C_35  and  C_36 
REMARK   27  A    between atoms: C_36  and  C_37 
REMARK   28  A    between atoms: C_37  and  C_38 
REMARK   29  A    between atoms: C_38  and  C_39 
REMARK   30  A    between atoms: C_39  and  C_40 
REMARK   31  A    between atoms: C_40  and  C_41 
REMARK   32  A    between atoms: C_41  and  C_42 
ROOT
HETATM    1  C   UNL     1     -30.415  -5.150 -16.449  1.00  0.00     0.220 C 
HETATM    2  O   UNL     1     -30.397  -5.055 -15.228  1.00  0.00    -0.273 OA
HETATM    3  N   UNL     1     -29.258  -5.143 -17.218  1.00  0.00    -0.335 N 
HETATM    4  C   UNL     1     -29.147  -5.239 -18.656  1.00  0.00     0.159 C 
HETATM    5  C   UNL     1     -27.920  -6.117 -18.867  1.00  0.00     0.152 C 
HETATM    6  C   UNL     1     -26.981  -5.629 -17.753  1.00  0.00     0.070 C 
HETATM    7  C   UNL     1     -27.917  -5.186 -16.610  1.00  0.00     0.187 C 
ENDROOT
BRANCH   5   8
HETATM    8  O   UNL     1     -27.334  -5.960 -20.164  1.00  0.00    -0.314 OA
BRANCH   8   9
HETATM    9  C   UNL     1     -26.636  -7.058 -20.590  1.00  0.00     0.259 C 
HETATM   10  O   UNL     1     -27.142  -8.142 -20.833  1.00  0.00    -0.265 OA
BRANCH   9  11
HETATM   11  C   UNL     1     -25.165  -6.754 -20.771  1.00  0.00     0.111 C 
BRANCH  11  12
HETATM   12  C   UNL     1     -24.312  -7.691 -19.920  1.00  0.00     0.010 C 
BRANCH  12  13
HETATM   13  C   UNL     1     -23.611  -6.950 -18.786  1.00  0.00     0.000 C 
BRANCH  13  14
HETATM   14  C   UNL     1     -24.153  -7.410 -17.439  1.00  0.00     0.000 C 
BRANCH  14  15
HETATM   15  C   UNL     1     -23.576  -6.561 -16.318  1.00  0.00     0.000 C 
BRANCH  15  16
HETATM   16  C   UNL     1     -24.506  -6.571 -15.115  1.00  0.00     0.000 C 
BRANCH  16  17
HETATM   17  C   UNL     1     -24.172  -5.414 -14.189  1.00  0.00     0.000 C 
BRANCH  17  18
HETATM   18  C   UNL     1     -22.940  -5.744 -13.367  1.00  0.00     0.000 C 
BRANCH  18  19
HETATM   19  C   UNL     1     -22.616  -4.594 -12.431  1.00  0.00     0.000 C 
BRANCH  19  20
HETATM   20  C   UNL     1     -23.386  -4.752 -11.132  1.00  0.00     0.000 C 
BRANCH  20  21
HETATM   21  C   UNL     1     -22.940  -3.698 -10.132  1.00  0.00     0.000 C 
BRANCH  21  22
HETATM   22  C   UNL     1     -23.258  -4.153  -8.717  1.00  0.00     0.000 C 
BRANCH  22  23
HETATM   23  C   UNL     1     -22.014  -4.062  -7.846  1.00  0.00    -0.000 C 
BRANCH  23  24
HETATM   24  C   UNL     1     -20.831  -4.728  -8.533  1.00  0.00    -0.005 C 
HETATM   25  C   UNL     1     -19.525  -4.207  -7.964  1.00  0.00     0.005 C 
ENDBRANCH  23  24
ENDBRANCH  22  23
ENDBRANCH  21  22
ENDBRANCH  20  21
ENDBRANCH  19  20
ENDBRANCH  18  19
ENDBRANCH  17  18
ENDBRANCH  16  17
ENDBRANCH  15  16
ENDBRANCH  14  15
ENDBRANCH  13  14
ENDBRANCH  12  13
ENDBRANCH  11  12
ENDBRANCH   9  11
ENDBRANCH   8   9
ENDBRANCH   5   8
BRANCH   7  26
HETATM   26  C   UNL     1     -27.539  -3.788 -16.097  1.00  0.00     0.163 C 
HETATM   27  O   UNL     1     -27.908  -2.769 -16.637  1.00  0.00    -0.648 OA
BRANCH  26  28
HETATM   28  O   UNL     1     -26.800  -3.776 -14.959  1.00  0.00    -0.775 OA
HETATM   29  H   UNL     1     -26.790  -4.587 -14.424  1.00  0.00     0.167 HD
ENDBRANCH  26  28
ENDBRANCH   7  26
BRANCH   1  30
HETATM   30  C   UNL     1     -31.721  -5.339 -17.223  1.00  0.00     0.103 C 
BRANCH  30  31
HETATM   31  C   UNL     1     -32.937  -4.779 -16.486  1.00  0.00     0.009 C 
BRANCH  31  32
HETATM   32  C   UNL     1     -33.350  -3.398 -16.996  1.00  0.00     0.000 C 
BRANCH  32  33
HETATM   33  C   UNL     1     -34.623  -2.923 -16.302  1.00  0.00     0.000 C 
BRANCH  33  34
HETATM   34  C   UNL     1     -35.075  -1.579 -16.859  1.00  0.00     0.000 C 
BRANCH  34  35
HETATM   35  C   UNL     1     -35.912  -0.831 -15.832  1.00  0.00     0.000 C 
BRANCH  35  36
HETATM   36  C   UNL     1     -35.133   0.352 -15.280  1.00  0.00     0.000 C 
BRANCH  36  37
HETATM   37  C   UNL     1     -35.271   0.415 -13.769  1.00  0.00     0.000 C 
BRANCH  37  38
HETATM   38  C   UNL     1     -35.325  -0.988 -13.191  1.00  0.00     0.000 C 
BRANCH  38  39
HETATM   39  C   UNL     1     -35.194  -0.937 -11.679  1.00  0.00     0.000 C 
BRANCH  39  40
HETATM   40  C   UNL     1     -34.053  -1.830 -11.220  1.00  0.00     0.000 C 
BRANCH  40  41
HETATM   41  C   UNL     1     -33.999  -3.085 -12.074  1.00  0.00     0.000 C 
BRANCH  41  42
HETATM   42  C   UNL     1     -32.774  -3.912 -11.713  1.00  0.00    -0.000 C 
BRANCH  42  43
HETATM   43  C   UNL     1     -33.166  -5.352 -11.425  1.00  0.00    -0.005 C 
HETATM   44  C   UNL     1     -34.342  -5.400 -10.467  1.00  0.00     0.005 C 
ENDBRANCH  42  43
ENDBRANCH  41  42
ENDBRANCH  40  41
ENDBRANCH  39  40
ENDBRANCH  38  39
ENDBRANCH  37  38
ENDBRANCH  36  37
ENDBRANCH  35  36
ENDBRANCH  34  35
ENDBRANCH  33  34
ENDBRANCH  32  33
ENDBRANCH  31  32
ENDBRANCH  30  31
ENDBRANCH   1  30
TORSDOF 32
BEGIN_RES ARG D 557
REMARK  4 active torsions:
REMARK  status: ('A' for Active; 'I' for Inactive)
REMARK    1  A    between atoms: CA   and  CB  
REMARK    2  A    between atoms: CB   and  CG  
REMARK    3  A    between atoms: CG   and  CD  
REMARK    4  A    between atoms: CD   and  NE  
REMARK       I    between atoms: NE   and  CZ  
REMARK       I    between atoms: CZ   and  NH1 
REMARK       I    between atoms: CZ   and  NH2 
ROOT
ATOM      1  CA  ARG D 557     -26.217   2.705 -17.014  1.00 35.49     0.159 C 
ENDROOT
BRANCH   1   2
ATOM      2  CB  ARG D 557     -26.789   1.319 -17.183  1.00 35.49     0.034 C 
BRANCH   2   3
ATOM      3  CG  ARG D 557     -25.833   0.205 -17.178  1.00 35.49     0.027 C 
BRANCH   3   4
ATOM      4  CD  ARG D 557     -24.761   0.385 -16.173  1.00 35.49     0.116 C 
BRANCH   4   5
ATOM      5  NE  ARG D 557     -24.957  -0.448 -15.016  1.00 35.49    -0.212 N 
ATOM      6  CZ  ARG D 557     -24.179  -1.439 -14.642  1.00 35.49     0.666 C 
ATOM      7  NH1 ARG D 557     -23.106  -1.794 -15.325  1.00 35.49    -0.235 N 
ATOM      8  NH2 ARG D 557     -24.497  -2.074 -13.552  1.00 35.49    -0.235 N 
ATOM      9  HH  ARG D 557     -22.876  -1.389 -16.044  1.00 35.49     0.174 HD
ATOM     10  HH  ARG D 557     -22.635  -2.447 -15.032  1.00 35.49     0.174 HD
ATOM     11  HH  ARG D 557     -25.191  -1.818 -13.128  1.00 35.49     0.174 HD
ATOM     12  HH  ARG D 557     -24.017  -2.717 -13.277  1.00 35.49     0.174 HD
ATOM     13  HE  ARG D 557     -25.665  -0.335 -14.558  1.00 35.49     0.178 HD
ENDBRANCH   4   5
ENDBRANCH   3   4
ENDBRANCH   2   3
ENDBRANCH   1   2
END_RES ARG D 557
BEGIN_RES GLU D 570
REMARK  3 active torsions:
REMARK  status: ('A' for Active; 'I' for Inactive)
REMARK    5  A    between atoms: CA   and  CB  
REMARK    6  A    between atoms: CB   and  CG  
REMARK    7  A    between atoms: CG   and  CD  
ROOT
ATOM     14  CA  GLU D 570     -18.033  -6.348 -13.375  1.00 32.92     0.160 C 
ENDROOT
BRANCH  14  15
ATOM     15  CB  GLU D 570     -19.500  -6.345 -13.794  1.00 32.92     0.043 C 
BRANCH  15  16
ATOM     16  CG  GLU D 570     -20.082  -7.631 -14.258  1.00 32.92     0.100 C 
BRANCH  16  17
ATOM     17  CD  GLU D 570     -20.398  -7.636 -15.735  1.00 32.92     0.185 C 
ATOM     18  OE1 GLU D 570     -20.275  -6.580 -16.384  1.00 32.92    -0.647 OA
ATOM     19  OE2 GLU D 570     -20.789  -8.704 -16.246  1.00 32.92    -0.647 OA
ENDBRANCH  16  17
ENDBRANCH  15  16
ENDBRANCH  14  15
END_RES GLU D 570
ENDMDL
