MODEL 1
REMARK VINA RESULT:      -6.9      0.000      0.000
REMARK  12 active torsions:
REMARK  status: ('A' for Active; 'I' for Inactive)
REMARK    1  A    between atoms: C_1  and  C_2 
REMARK    2  A    between atoms: C_1  and  O_23 
REMARK    3  A    between atoms: C_3  and  O_22 
REMARK    4  A    between atoms: C_4  and  O_21 
REMARK    5  A    between atoms: C_5  and  O_20 
REMARK    6  A    between atoms: C_6  and  O_8 
REMARK    7  A    between atoms: O_8  and  C_9 
REMARK    8  A    between atoms: C_10  and  O_19 
REMARK    9  A    between atoms: C_11  and  C_15 
REMARK   10  A    between atoms: C_15  and  C_16 
REMARK   11  A    between atoms: C_15  and  O_18 
REMARK   12  A    between atoms: C_16  and  O_17 
ROOT
HETATM    1  C   UNL     1     -21.388  -5.882  -6.942  1.00  0.00     0.179 C 
HETATM    2  C   UNL     1     -19.946  -5.398  -7.149  1.00  0.00     0.180 C 
HETATM    3  C   UNL     1     -19.960  -4.015  -7.812  1.00  0.00     0.183 C 
HETATM    4  C   UNL     1     -20.702  -4.083  -9.154  1.00  0.00     0.205 C 
HETATM    5  C   UNL     1     -22.114  -4.703  -8.979  1.00  0.00     0.298 C 
HETATM    6  O   UNL     1     -22.089  -5.916  -8.193  1.00  0.00    -0.348 OA
ENDROOT
BRANCH   5   7
HETATM    7  O   UNL     1     -22.670  -5.083 -10.254  1.00  0.00    -0.309 OA
BRANCH   7   8
HETATM    8  C   UNL     1     -23.175  -4.091 -11.040  1.00  0.00     0.179 A 
HETATM    9  C   UNL     1     -22.614  -3.609 -12.148  1.00  0.00     0.115 A 
HETATM   10  C   UNL     1     -23.433  -2.557 -12.782  1.00  0.00     0.222 A 
HETATM   11  O   UNL     1     -24.608  -2.511 -11.945  1.00  0.00    -0.301 OA
HETATM   12  C   UNL     1     -24.448  -3.366 -10.889  1.00  0.00     0.320 A 
HETATM   13  O   UNL     1     -25.241  -3.509  -9.974  1.00  0.00    -0.257 OA
BRANCH   9  14
HETATM   14  O   UNL     1     -21.421  -3.992 -12.695  1.00  0.00    -0.359 OA
HETATM   15  H   UNL     1     -21.464  -3.818 -13.657  1.00  0.00     0.217 HD
ENDBRANCH   9  14
BRANCH  10  16
HETATM   16  C   UNL     1     -23.824  -2.836 -14.245  1.00  0.00     0.177 C 
BRANCH  16  17
HETATM   17  C   UNL     1     -25.061  -2.060 -14.712  1.00  0.00     0.198 C 
BRANCH  17  18
HETATM   18  O   UNL     1     -24.846  -0.658 -14.548  1.00  0.00    -0.398 OA
HETATM   19  H   UNL     1     -25.153  -0.444 -13.646  1.00  0.00     0.209 HD
ENDBRANCH  17  18
ENDBRANCH  16  17
BRANCH  16  20
HETATM   20  O   UNL     1     -22.735  -2.495 -15.129  1.00  0.00    -0.390 OA
HETATM   21  H   UNL     1     -21.914  -2.530 -14.601  1.00  0.00     0.210 HD
ENDBRANCH  16  20
ENDBRANCH  10  16
ENDBRANCH   7   8
ENDBRANCH   5   7
BRANCH   4  22
HETATM   22  O   UNL     1     -19.927  -4.850 -10.104  1.00  0.00    -0.388 OA
HETATM   23  H   UNL     1     -20.549  -5.098 -10.823  1.00  0.00     0.210 HD
ENDBRANCH   4  22
BRANCH   3  24
HETATM   24  O   UNL     1     -18.619  -3.563  -8.020  1.00  0.00    -0.390 OA
HETATM   25  H   UNL     1     -18.668  -2.945  -8.777  1.00  0.00     0.210 HD
ENDBRANCH   3  24
BRANCH   1  26
HETATM   26  C   UNL     1     -22.139  -5.133  -5.832  1.00  0.00     0.198 C 
BRANCH  26  27
HETATM   27  O   UNL     1     -23.133  -5.978  -5.262  1.00  0.00    -0.398 OA
HETATM   28  H   UNL     1     -22.981  -6.886  -5.583  1.00  0.00     0.209 HD
ENDBRANCH  26  27
ENDBRANCH   1  26
BRANCH   2  29
HETATM   29  O   UNL     1     -19.272  -6.318  -8.043  1.00  0.00    -0.390 OA
HETATM   30  H   UNL     1     -19.212  -7.178  -7.589  1.00  0.00     0.210 HD
ENDBRANCH   2  29
TORSDOF 12
BEGIN_RES ARG D 557
REMARK  4 active torsions:
REMARK  status: ('A' for Active; 'I' for Inactive)
REMARK    1  A    between atoms: CA   and  CB  
REMARK    2  A    between atoms: CB   and  CG  
REMARK    3  A    between atoms: CG   and  CD  
REMARK    4  A    between atoms: CD   and  NE  
REMARK       I    between atoms: NE   and  CZ  
REMARK       I    between atoms: CZ   and  NH1 
REMARK       I    between atoms: CZ   and  NH2 
ROOT
ATOM      1  CA  ARG D 557     -26.217   2.705 -17.014  1.00 35.49     0.159 C 
ENDROOT
BRANCH   1   2
ATOM      2  CB  ARG D 557     -26.789   1.319 -17.183  1.00 35.49     0.034 C 
BRANCH   2   3
ATOM      3  CG  ARG D 557     -28.142   1.095 -16.661  1.00 35.49     0.027 C 
BRANCH   3   4
ATOM      4  CD  ARG D 557     -28.782  -0.105 -17.247  1.00 35.49     0.116 C 
BRANCH   4   5
ATOM      5  NE  ARG D 557     -28.138  -1.322 -16.828  1.00 35.49    -0.212 N 
ATOM      6  CZ  ARG D 557     -28.600  -2.539 -17.013  1.00 35.49     0.666 C 
ATOM      7  NH1 ARG D 557     -29.752  -2.776 -17.614  1.00 35.49    -0.235 N 
ATOM      8  NH2 ARG D 557     -27.872  -3.529 -16.585  1.00 35.49    -0.235 N 
ATOM      9  HH  ARG D 557     -30.246  -2.140 -17.905  1.00 35.49     0.174 HD
ATOM     10  HH  ARG D 557     -30.001  -3.590 -17.709  1.00 35.49     0.174 HD
ATOM     11  HH  ARG D 557     -27.130  -3.346 -16.208  1.00 35.49     0.174 HD
ATOM     12  HH  ARG D 557     -28.135  -4.328 -16.691  1.00 35.49     0.174 HD
ATOM     13  HE  ARG D 557     -27.425  -1.259 -16.369  1.00 35.49     0.178 HD
ENDBRANCH   4   5
ENDBRANCH   3   4
ENDBRANCH   2   3
ENDBRANCH   1   2
END_RES ARG D 557
BEGIN_RES GLU D 570
REMARK  3 active torsions:
REMARK  status: ('A' for Active; 'I' for Inactive)
REMARK    5  A    between atoms: CA   and  CB  
REMARK    6  A    between atoms: CB   and  CG  
REMARK    7  A    between atoms: CG   and  CD  
ROOT
ATOM     14  CA  GLU D 570     -18.033  -6.348 -13.375  1.00 32.92     0.160 C 
ENDROOT
BRANCH  14  15
ATOM     15  CB  GLU D 570     -19.500  -6.345 -13.794  1.00 32.92     0.043 C 
BRANCH  15  16
ATOM     16  CG  GLU D 570     -19.799  -6.164 -15.238  1.00 32.92     0.100 C 
BRANCH  16  17
ATOM     17  CD  GLU D 570     -21.211  -5.691 -15.493  1.00 32.92     0.185 C 
ATOM     18  OE1 GLU D 570     -22.132  -6.115 -14.767  1.00 32.92    -0.647 OA
ATOM     19  OE2 GLU D 570     -21.402  -4.901 -16.439  1.00 32.92    -0.647 OA
ENDBRANCH  16  17
ENDBRANCH  15  16
ENDBRANCH  14  15
END_RES GLU D 570
ENDMDL
MODEL 2
REMARK VINA RESULT:      -6.6      1.586      5.906
REMARK  12 active torsions:
REMARK  status: ('A' for Active; 'I' for Inactive)
REMARK    1  A    between atoms: C_1  and  C_2 
REMARK    2  A    between atoms: C_1  and  O_23 
REMARK    3  A    between atoms: C_3  and  O_22 
REMARK    4  A    between atoms: C_4  and  O_21 
REMARK    5  A    between atoms: C_5  and  O_20 
REMARK    6  A    between atoms: C_6  and  O_8 
REMARK    7  A    between atoms: O_8  and  C_9 
REMARK    8  A    between atoms: C_10  and  O_19 
REMARK    9  A    between atoms: C_11  and  C_15 
REMARK   10  A    between atoms: C_15  and  C_16 
REMARK   11  A    between atoms: C_15  and  O_18 
REMARK   12  A    between atoms: C_16  and  O_17 
ROOT
HETATM    1  C   UNL     1     -23.974  -3.077 -10.485  1.00  0.00     0.179 C 
HETATM    2  C   UNL     1     -23.632  -3.223 -11.974  1.00  0.00     0.180 C 
HETATM    3  C   UNL     1     -22.821  -4.507 -12.189  1.00  0.00     0.183 C 
HETATM    4  C   UNL     1     -21.540  -4.469 -11.345  1.00  0.00     0.205 C 
HETATM    5  C   UNL     1     -21.864  -4.180  -9.855  1.00  0.00     0.298 C 
HETATM    6  O   UNL     1     -22.778  -3.071  -9.694  1.00  0.00    -0.348 OA
ENDROOT
BRANCH   5   7
HETATM    7  O   UNL     1     -20.674  -3.806  -9.133  1.00  0.00    -0.309 OA
BRANCH   7   8
HETATM    8  C   UNL     1     -20.571  -4.213  -7.836  1.00  0.00     0.179 A 
HETATM    9  C   UNL     1     -21.584  -4.399  -6.992  1.00  0.00     0.115 A 
HETATM   10  C   UNL     1     -21.132  -4.871  -5.668  1.00  0.00     0.222 A 
HETATM   11  O   UNL     1     -19.707  -5.016  -5.842  1.00  0.00    -0.301 OA
HETATM   12  C   UNL     1     -19.356  -4.583  -7.091  1.00  0.00     0.320 A 
HETATM   13  O   UNL     1     -18.216  -4.522  -7.519  1.00  0.00    -0.257 OA
BRANCH   9  14
HETATM   14  O   UNL     1     -22.911  -4.195  -7.247  1.00  0.00    -0.359 OA
HETATM   15  H   UNL     1     -23.049  -4.295  -8.210  1.00  0.00     0.217 HD
ENDBRANCH   9  14
BRANCH  10  16
HETATM   16  C   UNL     1     -21.757  -6.202  -5.209  1.00  0.00     0.177 C 
BRANCH  16  17
HETATM   17  C   UNL     1     -21.313  -6.644  -3.810  1.00  0.00     0.198 C 
BRANCH  17  18
HETATM   18  O   UNL     1     -22.093  -5.975  -2.819  1.00  0.00    -0.398 OA
HETATM   19  H   UNL     1     -21.603  -6.076  -1.980  1.00  0.00     0.209 HD
ENDBRANCH  17  18
ENDBRANCH  16  17
BRANCH  16  20
HETATM   20  O   UNL     1     -23.197  -6.103  -5.199  1.00  0.00    -0.390 OA
HETATM   21  H   UNL     1     -23.508  -6.508  -4.367  1.00  0.00     0.210 HD
ENDBRANCH  16  20
ENDBRANCH  10  16
ENDBRANCH   7   8
ENDBRANCH   5   7
BRANCH   4  22
HETATM   22  O   UNL     1     -20.638  -3.467 -11.869  1.00  0.00    -0.388 OA
HETATM   23  H   UNL     1     -20.230  -3.865 -12.670  1.00  0.00     0.210 HD
ENDBRANCH   4  22
BRANCH   3  24
HETATM   24  O   UNL     1     -22.487  -4.644 -13.574  1.00  0.00    -0.390 OA
HETATM   25  H   UNL     1     -21.913  -3.879 -13.779  1.00  0.00     0.210 HD
ENDBRANCH   3  24
BRANCH   1  26
HETATM   26  C   UNL     1     -25.036  -4.071  -9.994  1.00  0.00     0.198 C 
BRANCH  26  27
HETATM   27  O   UNL     1     -26.223  -3.374  -9.633  1.00  0.00    -0.398 OA
HETATM   28  H   UNL     1     -26.762  -3.961  -9.071  1.00  0.00     0.209 HD
ENDBRANCH  26  27
ENDBRANCH   1  26
BRANCH   2  29
HETATM   29  O   UNL     1     -22.808  -2.100 -12.374  1.00  0.00    -0.390 OA
HETATM   30  H   UNL     1     -22.261  -1.849 -11.606  1.00  0.00     0.210 HD
ENDBRANCH   2  29
TORSDOF 12
BEGIN_RES ARG D 557
REMARK  4 active torsions:
REMARK  status: ('A' for Active; 'I' for Inactive)
REMARK    1  A    between atoms: CA   and  CB  
REMARK    2  A    between atoms: CB   and  CG  
REMARK    3  A    between atoms: CG   and  CD  
REMARK    4  A    between atoms: CD   and  NE  
REMARK       I    between atoms: NE   and  CZ  
REMARK       I    between atoms: CZ   and  NH1 
REMARK       I    between atoms: CZ   and  NH2 
ROOT
ATOM      1  CA  ARG D 557     -26.217   2.705 -17.014  1.00 35.49     0.159 C 
ENDROOT
BRANCH   1   2
ATOM      2  CB  ARG D 557     -26.789   1.319 -17.183  1.00 35.49     0.034 C 
BRANCH   2   3
ATOM      3  CG  ARG D 557     -28.231   1.166 -16.952  1.00 35.49     0.027 C 
BRANCH   3   4
ATOM      4  CD  ARG D 557     -28.624  -0.248 -16.756  1.00 35.49     0.116 C 
BRANCH   4   5
ATOM      5  NE  ARG D 557     -27.612  -1.001 -16.064  1.00 35.49    -0.212 N 
ATOM      6  CZ  ARG D 557     -27.449  -2.304 -16.124  1.00 35.49     0.666 C 
ATOM      7  NH1 ARG D 557     -28.236  -3.085 -16.841  1.00 35.49    -0.235 N 
ATOM      8  NH2 ARG D 557     -26.463  -2.818 -15.447  1.00 35.49    -0.235 N 
ATOM      9  HH  ARG D 557     -28.889  -2.768 -17.296  1.00 35.49     0.174 HD
ATOM     10  HH  ARG D 557     -28.080  -3.927 -16.844  1.00 35.49     0.174 HD
ATOM     11  HH  ARG D 557     -25.966  -2.288 -14.999  1.00 35.49     0.174 HD
ATOM     12  HH  ARG D 557     -26.324  -3.654 -15.464  1.00 35.49     0.174 HD
ATOM     13  HE  ARG D 557     -27.105  -0.586 -15.522  1.00 35.49     0.178 HD
ENDBRANCH   4   5
ENDBRANCH   3   4
ENDBRANCH   2   3
ENDBRANCH   1   2
END_RES ARG D 557
BEGIN_RES GLU D 570
REMARK  3 active torsions:
REMARK  status: ('A' for Active; 'I' for Inactive)
REMARK    5  A    between atoms: CA   and  CB  
REMARK    6  A    between atoms: CB   and  CG  
REMARK    7  A    between atoms: CG   and  CD  
ROOT
ATOM     14  CA  GLU D 570     -18.033  -6.348 -13.375  1.00 32.92     0.160 C 
ENDROOT
BRANCH  14  15
ATOM     15  CB  GLU D 570     -19.500  -6.345 -13.794  1.00 32.92     0.043 C 
BRANCH  15  16
ATOM     16  CG  GLU D 570     -19.796  -6.284 -15.249  1.00 32.92     0.100 C 
BRANCH  16  17
ATOM     17  CD  GLU D 570     -20.828  -7.299 -15.683  1.00 32.92     0.185 C 
ATOM     18  OE1 GLU D 570     -20.623  -8.506 -15.455  1.00 32.92    -0.647 OA
ATOM     19  OE2 GLU D 570     -21.845  -6.883 -16.273  1.00 32.92    -0.647 OA
ENDBRANCH  16  17
ENDBRANCH  15  16
ENDBRANCH  14  15
END_RES GLU D 570
ENDMDL
MODEL 3
REMARK VINA RESULT:      -6.5      2.316      3.991
REMARK  12 active torsions:
REMARK  status: ('A' for Active; 'I' for Inactive)
REMARK    1  A    between atoms: C_1  and  C_2 
REMARK    2  A    between atoms: C_1  and  O_23 
REMARK    3  A    between atoms: C_3  and  O_22 
REMARK    4  A    between atoms: C_4  and  O_21 
REMARK    5  A    between atoms: C_5  and  O_20 
REMARK    6  A    between atoms: C_6  and  O_8 
REMARK    7  A    between atoms: O_8  and  C_9 
REMARK    8  A    between atoms: C_10  and  O_19 
REMARK    9  A    between atoms: C_11  and  C_15 
REMARK   10  A    between atoms: C_15  and  C_16 
REMARK   11  A    between atoms: C_15  and  O_18 
REMARK   12  A    between atoms: C_16  and  O_17 
ROOT
HETATM    1  C   UNL     1     -21.547  -3.526 -10.237  1.00  0.00     0.179 C 
HETATM    2  C   UNL     1     -22.770  -3.762  -9.340  1.00  0.00     0.180 C 
HETATM    3  C   UNL     1     -23.667  -4.835  -9.970  1.00  0.00     0.183 C 
HETATM    4  C   UNL     1     -24.107  -4.396 -11.374  1.00  0.00     0.205 C 
HETATM    5  C   UNL     1     -22.882  -4.017 -12.248  1.00  0.00     0.298 C 
HETATM    6  O   UNL     1     -21.960  -3.144 -11.556  1.00  0.00    -0.348 OA
ENDROOT
BRANCH   5   7
HETATM    7  O   UNL     1     -23.294  -3.290 -13.422  1.00  0.00    -0.309 OA
BRANCH   7   8
HETATM    8  C   UNL     1     -24.174  -3.901 -14.265  1.00  0.00     0.179 A 
HETATM    9  C   UNL     1     -23.973  -5.052 -14.904  1.00  0.00     0.115 A 
HETATM   10  C   UNL     1     -25.138  -5.453 -15.718  1.00  0.00     0.222 A 
HETATM   11  O   UNL     1     -26.106  -4.422 -15.432  1.00  0.00    -0.301 OA
HETATM   12  C   UNL     1     -25.537  -3.476 -14.624  1.00  0.00     0.320 A 
HETATM   13  O   UNL     1     -26.079  -2.448 -14.255  1.00  0.00    -0.257 OA
BRANCH   9  14
HETATM   14  O   UNL     1     -22.848  -5.827 -14.863  1.00  0.00    -0.359 OA
HETATM   15  H   UNL     1     -22.658  -6.126 -15.775  1.00  0.00     0.217 HD
ENDBRANCH   9  14
BRANCH  10  16
HETATM   16  C   UNL     1     -25.715  -6.841 -15.381  1.00  0.00     0.177 C 
BRANCH  16  17
HETATM   17  C   UNL     1     -27.183  -7.015 -15.786  1.00  0.00     0.198 C 
BRANCH  17  18
HETATM   18  O   UNL     1     -27.377  -6.554 -17.123  1.00  0.00    -0.398 OA
HETATM   19  H   UNL     1     -27.020  -7.255 -17.702  1.00  0.00     0.209 HD
ENDBRANCH  17  18
ENDBRANCH  16  17
BRANCH  16  20
HETATM   20  O   UNL     1     -24.954  -7.874 -16.043  1.00  0.00    -0.390 OA
HETATM   21  H   UNL     1     -24.010  -7.677 -15.894  1.00  0.00     0.210 HD
ENDBRANCH  16  20
ENDBRANCH  10  16
ENDBRANCH   7   8
ENDBRANCH   5   7
BRANCH   4  22
HETATM   22  O   UNL     1     -25.021  -3.279 -11.273  1.00  0.00    -0.388 OA
HETATM   23  H   UNL     1     -24.594  -2.635 -10.666  1.00  0.00     0.210 HD
ENDBRANCH   4  22
BRANCH   3  24
HETATM   24  O   UNL     1     -24.817  -5.052  -9.146  1.00  0.00    -0.390 OA
HETATM   25  H   UNL     1     -25.364  -4.248  -9.248  1.00  0.00     0.210 HD
ENDBRANCH   3  24
BRANCH   1  26
HETATM   26  C   UNL     1     -20.532  -4.676 -10.215  1.00  0.00     0.198 C 
BRANCH  26  27
HETATM   27  O   UNL     1     -20.128  -4.942  -8.876  1.00  0.00    -0.398 OA
HETATM   28  H   UNL     1     -20.467  -4.226  -8.308  1.00  0.00     0.209 HD
ENDBRANCH  26  27
ENDBRANCH   1  26
BRANCH   2  29
HETATM   29  O   UNL     1     -23.532  -2.532  -9.259  1.00  0.00    -0.390 OA
HETATM   30  H   UNL     1     -24.085  -2.582  -8.458  1.00  0.00     0.210 HD
ENDBRANCH   2  29
TORSDOF 12
BEGIN_RES ARG D 557
REMARK  4 active torsions:
REMARK  status: ('A' for Active; 'I' for Inactive)
REMARK    1  A    between atoms: CA   and  CB  
REMARK    2  A    between atoms: CB   and  CG  
REMARK    3  A    between atoms: CG   and  CD  
REMARK    4  A    between atoms: CD   and  NE  
REMARK       I    between atoms: NE   and  CZ  
REMARK       I    between atoms: CZ   and  NH1 
REMARK       I    between atoms: CZ   and  NH2 
ROOT
ATOM      1  CA  ARG D 557     -26.217   2.705 -17.014  1.00 35.49     0.159 C 
ENDROOT
BRANCH   1   2
ATOM      2  CB  ARG D 557     -26.789   1.319 -17.183  1.00 35.49     0.034 C 
BRANCH   2   3
ATOM      3  CG  ARG D 557     -28.079   1.053 -16.534  1.00 35.49     0.027 C 
BRANCH   3   4
ATOM      4  CD  ARG D 557     -28.854   0.001 -17.230  1.00 35.49     0.116 C 
BRANCH   4   5
ATOM      5  NE  ARG D 557     -28.315  -1.313 -17.000  1.00 35.49    -0.212 N 
ATOM      6  CZ  ARG D 557     -28.964  -2.447 -17.147  1.00 35.49     0.666 C 
ATOM      7  NH1 ARG D 557     -30.229  -2.496 -17.521  1.00 35.49    -0.235 N 
ATOM      8  NH2 ARG D 557     -28.309  -3.547 -16.914  1.00 35.49    -0.235 N 
ATOM      9  HH  ARG D 557     -30.678  -1.784 -17.682  1.00 35.49     0.174 HD
ATOM     10  HH  ARG D 557     -30.599  -3.264 -17.603  1.00 35.49     0.174 HD
ATOM     11  HH  ARG D 557     -27.491  -3.485 -16.680  1.00 35.49     0.174 HD
ATOM     12  HH  ARG D 557     -28.693  -4.298 -17.002  1.00 35.49     0.174 HD
ATOM     13  HE  ARG D 557     -27.527  -1.372 -16.686  1.00 35.49     0.178 HD
ENDBRANCH   4   5
ENDBRANCH   3   4
ENDBRANCH   2   3
ENDBRANCH   1   2
END_RES ARG D 557
BEGIN_RES GLU D 570
REMARK  3 active torsions:
REMARK  status: ('A' for Active; 'I' for Inactive)
REMARK    5  A    between atoms: CA   and  CB  
REMARK    6  A    between atoms: CB   and  CG  
REMARK    7  A    between atoms: CG   and  CD  
ROOT
ATOM     14  CA  GLU D 570     -18.033  -6.348 -13.375  1.00 32.92     0.160 C 
ENDROOT
BRANCH  14  15
ATOM     15  CB  GLU D 570     -19.500  -6.345 -13.794  1.00 32.92     0.043 C 
BRANCH  15  16
ATOM     16  CG  GLU D 570     -20.092  -7.639 -14.223  1.00 32.92     0.100 C 
BRANCH  16  17
ATOM     17  CD  GLU D 570     -20.483  -7.653 -15.682  1.00 32.92     0.185 C 
ATOM     18  OE1 GLU D 570     -20.804  -8.734 -16.212  1.00 32.92    -0.647 OA
ATOM     19  OE2 GLU D 570     -20.453  -6.574 -16.306  1.00 32.92    -0.647 OA
ENDBRANCH  16  17
ENDBRANCH  15  16
ENDBRANCH  14  15
END_RES GLU D 570
ENDMDL
MODEL 4
REMARK VINA RESULT:      -6.1      1.321      2.219
REMARK  12 active torsions:
REMARK  status: ('A' for Active; 'I' for Inactive)
REMARK    1  A    between atoms: C_1  and  C_2 
REMARK    2  A    between atoms: C_1  and  O_23 
REMARK    3  A    between atoms: C_3  and  O_22 
REMARK    4  A    between atoms: C_4  and  O_21 
REMARK    5  A    between atoms: C_5  and  O_20 
REMARK    6  A    between atoms: C_6  and  O_8 
REMARK    7  A    between atoms: O_8  and  C_9 
REMARK    8  A    between atoms: C_10  and  O_19 
REMARK    9  A    between atoms: C_11  and  C_15 
REMARK   10  A    between atoms: C_15  and  C_16 
REMARK   11  A    between atoms: C_15  and  O_18 
REMARK   12  A    between atoms: C_16  and  O_17 
ROOT
HETATM    1  C   UNL     1     -20.251  -4.550  -7.803  1.00  0.00     0.179 C 
HETATM    2  C   UNL     1     -21.469  -4.119  -6.975  1.00  0.00     0.180 C 
HETATM    3  C   UNL     1     -22.744  -4.703  -7.596  1.00  0.00     0.183 C 
HETATM    4  C   UNL     1     -22.886  -4.229  -9.049  1.00  0.00     0.205 C 
HETATM    5  C   UNL     1     -21.601  -4.533  -9.863  1.00  0.00     0.298 C 
HETATM    6  O   UNL     1     -20.399  -4.131  -9.167  1.00  0.00    -0.348 OA
ENDROOT
BRANCH   5   7
HETATM    7  O   UNL     1     -21.591  -3.798 -11.103  1.00  0.00    -0.309 OA
BRANCH   7   8
HETATM    8  C   UNL     1     -22.748  -3.762 -11.822  1.00  0.00     0.179 A 
HETATM    9  C   UNL     1     -23.273  -2.686 -12.404  1.00  0.00     0.115 A 
HETATM   10  C   UNL     1     -24.521  -2.992 -13.132  1.00  0.00     0.222 A 
HETATM   11  O   UNL     1     -24.649  -4.420 -12.972  1.00  0.00    -0.301 OA
HETATM   12  C   UNL     1     -23.646  -4.878 -12.161  1.00  0.00     0.320 A 
HETATM   13  O   UNL     1     -23.516  -6.031 -11.787  1.00  0.00    -0.257 OA
BRANCH   9  14
HETATM   14  O   UNL     1     -22.775  -1.413 -12.375  1.00  0.00    -0.359 OA
HETATM   15  H   UNL     1     -23.196  -0.945 -11.626  1.00  0.00     0.217 HD
ENDBRANCH   9  14
BRANCH  10  16
HETATM   16  C   UNL     1     -24.507  -2.617 -14.626  1.00  0.00     0.177 C 
BRANCH  16  17
HETATM   17  C   UNL     1     -25.323  -1.362 -14.955  1.00  0.00     0.198 C 
BRANCH  17  18
HETATM   18  O   UNL     1     -24.539  -0.194 -14.709  1.00  0.00    -0.398 OA
HETATM   19  H   UNL     1     -24.388  -0.171 -13.744  1.00  0.00     0.209 HD
ENDBRANCH  17  18
ENDBRANCH  16  17
BRANCH  16  20
HETATM   20  O   UNL     1     -23.153  -2.388 -15.072  1.00  0.00    -0.390 OA
HETATM   21  H   UNL     1     -22.642  -3.193 -14.866  1.00  0.00     0.210 HD
ENDBRANCH  16  20
ENDBRANCH  10  16
ENDBRANCH   7   8
ENDBRANCH   5   7
BRANCH   4  22
HETATM   22  O   UNL     1     -23.177  -2.811  -9.074  1.00  0.00    -0.388 OA
HETATM   23  H   UNL     1     -22.612  -2.408  -8.379  1.00  0.00     0.210 HD
ENDBRANCH   4  22
BRANCH   3  24
HETATM   24  O   UNL     1     -23.886  -4.294  -6.836  1.00  0.00    -0.390 OA
HETATM   25  H   UNL     1     -24.516  -3.933  -7.491  1.00  0.00     0.210 HD
ENDBRANCH   3  24
BRANCH   1  26
HETATM   26  C   UNL     1     -19.890  -6.033  -7.647  1.00  0.00     0.198 C 
BRANCH  26  27
HETATM   27  O   UNL     1     -20.143  -6.457  -6.311  1.00  0.00    -0.398 OA
HETATM   28  H   UNL     1     -19.503  -7.157  -6.088  1.00  0.00     0.209 HD
ENDBRANCH  26  27
ENDBRANCH   1  26
BRANCH   2  29
HETATM   29  O   UNL     1     -21.571  -2.674  -7.017  1.00  0.00    -0.390 OA
HETATM   30  H   UNL     1     -21.799  -2.369  -6.118  1.00  0.00     0.210 HD
ENDBRANCH   2  29
TORSDOF 12
BEGIN_RES ARG D 557
REMARK  4 active torsions:
REMARK  status: ('A' for Active; 'I' for Inactive)
REMARK    1  A    between atoms: CA   and  CB  
REMARK    2  A    between atoms: CB   and  CG  
REMARK    3  A    between atoms: CG   and  CD  
REMARK    4  A    between atoms: CD   and  NE  
REMARK       I    between atoms: NE   and  CZ  
REMARK       I    between atoms: CZ   and  NH1 
REMARK       I    between atoms: CZ   and  NH2 
ROOT
ATOM      1  CA  ARG D 557     -26.217   2.705 -17.014  1.00 35.49     0.159 C 
ENDROOT
BRANCH   1   2
ATOM      2  CB  ARG D 557     -26.789   1.319 -17.183  1.00 35.49     0.034 C 
BRANCH   2   3
ATOM      3  CG  ARG D 557     -28.146   1.097 -16.670  1.00 35.49     0.027 C 
BRANCH   3   4
ATOM      4  CD  ARG D 557     -28.794  -0.086 -17.281  1.00 35.49     0.116 C 
BRANCH   4   5
ATOM      5  NE  ARG D 557     -28.183  -1.318 -16.857  1.00 35.49    -0.212 N 
ATOM      6  CZ  ARG D 557     -28.680  -2.522 -17.033  1.00 35.49     0.666 C 
ATOM      7  NH1 ARG D 557     -29.841  -2.730 -17.626  1.00 35.49    -0.235 N 
ATOM      8  NH2 ARG D 557     -27.978  -3.530 -16.602  1.00 35.49    -0.235 N 
ATOM      9  HH  ARG D 557     -30.318  -2.082 -17.919  1.00 35.49     0.174 HD
ATOM     10  HH  ARG D 557     -30.113  -3.538 -17.716  1.00 35.49     0.174 HD
ATOM     11  HH  ARG D 557     -27.229  -3.365 -16.230  1.00 35.49     0.174 HD
ATOM     12  HH  ARG D 557     -28.264  -4.322 -16.701  1.00 35.49     0.174 HD
ATOM     13  HE  ARG D 557     -27.467  -1.272 -16.401  1.00 35.49     0.178 HD
ENDBRANCH   4   5
ENDBRANCH   3   4
ENDBRANCH   2   3
ENDBRANCH   1   2
END_RES ARG D 557
BEGIN_RES GLU D 570
REMARK  3 active torsions:
REMARK  status: ('A' for Active; 'I' for Inactive)
REMARK    5  A    between atoms: CA   and  CB  
REMARK    6  A    between atoms: CB   and  CG  
REMARK    7  A    between atoms: CG   and  CD  
ROOT
ATOM     14  CA  GLU D 570     -18.033  -6.348 -13.375  1.00 32.92     0.160 C 
ENDROOT
BRANCH  14  15
ATOM     15  CB  GLU D 570     -19.500  -6.345 -13.794  1.00 32.92     0.043 C 
BRANCH  15  16
ATOM     16  CG  GLU D 570     -19.814  -5.925 -15.184  1.00 32.92     0.100 C 
BRANCH  16  17
ATOM     17  CD  GLU D 570     -21.279  -5.615 -15.389  1.00 32.92     0.185 C 
ATOM     18  OE1 GLU D 570     -21.597  -4.604 -16.045  1.00 32.92    -0.647 OA
ATOM     19  OE2 GLU D 570     -22.116  -6.382 -14.875  1.00 32.92    -0.647 OA
ENDBRANCH  16  17
ENDBRANCH  15  16
ENDBRANCH  14  15
END_RES GLU D 570
ENDMDL
MODEL 5
REMARK VINA RESULT:      -6.0      1.460      2.492
REMARK  12 active torsions:
REMARK  status: ('A' for Active; 'I' for Inactive)
REMARK    1  A    between atoms: C_1  and  C_2 
REMARK    2  A    between atoms: C_1  and  O_23 
REMARK    3  A    between atoms: C_3  and  O_22 
REMARK    4  A    between atoms: C_4  and  O_21 
REMARK    5  A    between atoms: C_5  and  O_20 
REMARK    6  A    between atoms: C_6  and  O_8 
REMARK    7  A    between atoms: O_8  and  C_9 
REMARK    8  A    between atoms: C_10  and  O_19 
REMARK    9  A    between atoms: C_11  and  C_15 
REMARK   10  A    between atoms: C_15  and  C_16 
REMARK   11  A    between atoms: C_15  and  O_18 
REMARK   12  A    between atoms: C_16  and  O_17 
ROOT
HETATM    1  C   UNL     1     -19.597  -4.523  -8.166  1.00  0.00     0.179 C 
HETATM    2  C   UNL     1     -20.060  -5.171  -6.853  1.00  0.00     0.180 C 
HETATM    3  C   UNL     1     -21.317  -6.010  -7.113  1.00  0.00     0.183 C 
HETATM    4  C   UNL     1     -22.428  -5.128  -7.697  1.00  0.00     0.205 C 
HETATM    5  C   UNL     1     -21.927  -4.355  -8.946  1.00  0.00     0.298 C 
HETATM    6  O   UNL     1     -20.647  -3.721  -8.725  1.00  0.00    -0.348 OA
ENDROOT
BRANCH   5   7
HETATM    7  O   UNL     1     -22.832  -3.286  -9.287  1.00  0.00    -0.309 OA
BRANCH   7   8
HETATM    8  C   UNL     1     -23.200  -3.167 -10.594  1.00  0.00     0.179 A 
HETATM    9  C   UNL     1     -22.375  -3.048 -11.632  1.00  0.00     0.115 A 
HETATM   10  C   UNL     1     -23.096  -2.968 -12.918  1.00  0.00     0.222 A 
HETATM   11  O   UNL     1     -24.476  -3.127 -12.528  1.00  0.00    -0.301 OA
HETATM   12  C   UNL     1     -24.558  -3.190 -11.164  1.00  0.00     0.320 A 
HETATM   13  O   UNL     1     -25.594  -3.263 -10.525  1.00  0.00    -0.257 OA
BRANCH   9  14
HETATM   14  O   UNL     1     -21.009  -2.995 -11.591  1.00  0.00    -0.359 OA
HETATM   15  H   UNL     1     -20.754  -2.113 -11.252  1.00  0.00     0.217 HD
ENDBRANCH   9  14
BRANCH  10  16
HETATM   16  C   UNL     1     -22.700  -4.043 -13.948  1.00  0.00     0.177 C 
BRANCH  16  17
HETATM   17  C   UNL     1     -23.833  -5.018 -14.290  1.00  0.00     0.198 C 
BRANCH  17  18
HETATM   18  O   UNL     1     -24.855  -4.338 -15.019  1.00  0.00    -0.398 OA
HETATM   19  H   UNL     1     -25.479  -5.030 -15.314  1.00  0.00     0.209 HD
ENDBRANCH  17  18
ENDBRANCH  16  17
BRANCH  16  20
HETATM   20  O   UNL     1     -22.271  -3.424 -15.179  1.00  0.00    -0.390 OA
HETATM   21  H   UNL     1     -21.301  -3.327 -15.130  1.00  0.00     0.210 HD
ENDBRANCH  16  20
ENDBRANCH  10  16
ENDBRANCH   7   8
ENDBRANCH   5   7
BRANCH   4  22
HETATM   22  O   UNL     1     -22.901  -4.204  -6.688  1.00  0.00    -0.388 OA
HETATM   23  H   UNL     1     -23.743  -4.583  -6.350  1.00  0.00     0.210 HD
ENDBRANCH   4  22
BRANCH   3  24
HETATM   24  O   UNL     1     -21.762  -6.608  -5.891  1.00  0.00    -0.390 OA
HETATM   25  H   UNL     1     -22.275  -7.396  -6.160  1.00  0.00     0.210 HD
ENDBRANCH   3  24
BRANCH   1  26
HETATM   26  C   UNL     1     -18.977  -5.513  -9.160  1.00  0.00     0.198 C 
BRANCH  26  27
HETATM   27  O   UNL     1     -19.354  -5.168 -10.489  1.00  0.00    -0.398 OA
HETATM   28  H   UNL     1     -18.602  -4.711 -10.910  1.00  0.00     0.209 HD
ENDBRANCH  26  27
ENDBRANCH   1  26
BRANCH   2  29
HETATM   29  O   UNL     1     -20.406  -4.123  -5.914  1.00  0.00    -0.390 OA
HETATM   30  H   UNL     1     -20.786  -4.551  -5.124  1.00  0.00     0.210 HD
ENDBRANCH   2  29
TORSDOF 12
BEGIN_RES ARG D 557
REMARK  4 active torsions:
REMARK  status: ('A' for Active; 'I' for Inactive)
REMARK    1  A    between atoms: CA   and  CB  
REMARK    2  A    between atoms: CB   and  CG  
REMARK    3  A    between atoms: CG   and  CD  
REMARK    4  A    between atoms: CD   and  NE  
REMARK       I    between atoms: NE   and  CZ  
REMARK       I    between atoms: CZ   and  NH1 
REMARK       I    between atoms: CZ   and  NH2 
ROOT
ATOM      1  CA  ARG D 557     -26.217   2.705 -17.014  1.00 35.49     0.159 C 
ENDROOT
BRANCH   1   2
ATOM      2  CB  ARG D 557     -26.789   1.319 -17.183  1.00 35.49     0.034 C 
BRANCH   2   3
ATOM      3  CG  ARG D 557     -28.188   1.128 -16.782  1.00 35.49     0.027 C 
BRANCH   3   4
ATOM      4  CD  ARG D 557     -28.720  -0.190 -17.197  1.00 35.49     0.116 C 
BRANCH   4   5
ATOM      5  NE  ARG D 557     -27.990  -1.280 -16.605  1.00 35.49    -0.212 N 
ATOM      6  CZ  ARG D 557     -28.240  -2.558 -16.784  1.00 35.49     0.666 C 
ATOM      7  NH1 ARG D 557     -29.232  -2.988 -17.542  1.00 35.49    -0.235 N 
ATOM      8  NH2 ARG D 557     -27.461  -3.411 -16.184  1.00 35.49    -0.235 N 
ATOM      9  HH  ARG D 557     -29.755  -2.444 -17.947  1.00 35.49     0.174 HD
ATOM     10  HH  ARG D 557     -29.345  -3.833 -17.623  1.00 35.49     0.174 HD
ATOM     11  HH  ARG D 557     -26.824  -3.105 -15.707  1.00 35.49     0.174 HD
ATOM     12  HH  ARG D 557     -27.588  -4.244 -16.278  1.00 35.49     0.174 HD
ATOM     13  HE  ARG D 557     -27.379  -1.093 -16.044  1.00 35.49     0.178 HD
ENDBRANCH   4   5
ENDBRANCH   3   4
ENDBRANCH   2   3
ENDBRANCH   1   2
END_RES ARG D 557
BEGIN_RES GLU D 570
REMARK  3 active torsions:
REMARK  status: ('A' for Active; 'I' for Inactive)
REMARK    5  A    between atoms: CA   and  CB  
REMARK    6  A    between atoms: CB   and  CG  
REMARK    7  A    between atoms: CG   and  CD  
ROOT
ATOM     14  CA  GLU D 570     -18.033  -6.348 -13.375  1.00 32.92     0.160 C 
ENDROOT
BRANCH  14  15
ATOM     15  CB  GLU D 570     -19.500  -6.345 -13.794  1.00 32.92     0.043 C 
BRANCH  15  16
ATOM     16  CG  GLU D 570     -20.046  -7.594 -14.384  1.00 32.92     0.100 C 
BRANCH  16  17
ATOM     17  CD  GLU D 570     -20.840  -7.352 -15.647  1.00 32.92     0.185 C 
ATOM     18  OE1 GLU D 570     -20.955  -6.187 -16.075  1.00 32.92    -0.647 OA
ATOM     19  OE2 GLU D 570     -21.367  -8.335 -16.204  1.00 32.92    -0.647 OA
ENDBRANCH  16  17
ENDBRANCH  15  16
ENDBRANCH  14  15
END_RES GLU D 570
ENDMDL
MODEL 6
REMARK VINA RESULT:      -5.9      3.097      5.428
REMARK  12 active torsions:
REMARK  status: ('A' for Active; 'I' for Inactive)
REMARK    1  A    between atoms: C_1  and  C_2 
REMARK    2  A    between atoms: C_1  and  O_23 
REMARK    3  A    between atoms: C_3  and  O_22 
REMARK    4  A    between atoms: C_4  and  O_21 
REMARK    5  A    between atoms: C_5  and  O_20 
REMARK    6  A    between atoms: C_6  and  O_8 
REMARK    7  A    between atoms: O_8  and  C_9 
REMARK    8  A    between atoms: C_10  and  O_19 
REMARK    9  A    between atoms: C_11  and  C_15 
REMARK   10  A    between atoms: C_15  and  C_16 
REMARK   11  A    between atoms: C_15  and  O_18 
REMARK   12  A    between atoms: C_16  and  O_17 
ROOT
HETATM    1  C   UNL     1     -20.268  -8.839  -4.015  1.00  0.00     0.179 C 
HETATM    2  C   UNL     1     -20.586  -8.723  -2.518  1.00  0.00     0.180 C 
HETATM    3  C   UNL     1     -21.974  -8.096  -2.337  1.00  0.00     0.183 C 
HETATM    4  C   UNL     1     -22.019  -6.715  -3.005  1.00  0.00     0.205 C 
HETATM    5  C   UNL     1     -21.562  -6.797  -4.485  1.00  0.00     0.298 C 
HETATM    6  O   UNL     1     -20.339  -7.552  -4.643  1.00  0.00    -0.348 OA
ENDROOT
BRANCH   5   7
HETATM    7  O   UNL     1     -21.274  -5.485  -5.008  1.00  0.00    -0.309 OA
BRANCH   7   8
HETATM    8  C   UNL     1     -21.438  -5.292  -6.348  1.00  0.00     0.179 A 
HETATM    9  C   UNL     1     -22.587  -5.025  -6.964  1.00  0.00     0.115 A 
HETATM   10  C   UNL     1     -22.416  -4.843  -8.420  1.00  0.00     0.222 A 
HETATM   11  O   UNL     1     -20.989  -4.966  -8.597  1.00  0.00    -0.301 OA
HETATM   12  C   UNL     1     -20.408  -5.284  -7.400  1.00  0.00     0.320 A 
HETATM   13  O   UNL     1     -19.222  -5.514  -7.233  1.00  0.00    -0.257 OA
BRANCH   9  14
HETATM   14  O   UNL     1     -23.822  -4.919  -6.387  1.00  0.00    -0.359 OA
HETATM   15  H   UNL     1     -24.052  -5.792  -6.011  1.00  0.00     0.217 HD
ENDBRANCH   9  14
BRANCH  10  16
HETATM   16  C   UNL     1     -22.911  -3.490  -8.964  1.00  0.00     0.177 C 
BRANCH  16  17
HETATM   17  C   UNL     1     -22.665  -3.301 -10.465  1.00  0.00     0.198 C 
BRANCH  17  18
HETATM   18  O   UNL     1     -23.902  -3.375 -11.174  1.00  0.00    -0.398 OA
HETATM   19  H   UNL     1     -24.601  -3.399 -10.491  1.00  0.00     0.209 HD
ENDBRANCH  17  18
ENDBRANCH  16  17
BRANCH  16  20
HETATM   20  O   UNL     1     -24.328  -3.345  -8.732  1.00  0.00    -0.390 OA
HETATM   21  H   UNL     1     -24.710  -4.243  -8.709  1.00  0.00     0.210 HD
ENDBRANCH  16  20
ENDBRANCH  10  16
ENDBRANCH   7   8
ENDBRANCH   5   7
BRANCH   4  22
HETATM   22  O   UNL     1     -21.186  -5.788  -2.269  1.00  0.00    -0.388 OA
HETATM   23  H   UNL     1     -21.396  -5.932  -1.320  1.00  0.00     0.210 HD
ENDBRANCH   4  22
BRANCH   3  24
HETATM   24  O   UNL     1     -22.272  -7.973  -0.942  1.00  0.00    -0.390 OA
HETATM   25  H   UNL     1     -22.643  -7.074  -0.836  1.00  0.00     0.210 HD
ENDBRANCH   3  24
BRANCH   1  26
HETATM   26  C   UNL     1     -21.076  -9.926  -4.737  1.00  0.00     0.198 C 
BRANCH  26  27
HETATM   27  O   UNL     1     -20.479 -10.221  -5.995  1.00  0.00    -0.398 OA
HETATM   28  H   UNL     1     -21.191 -10.404  -6.635  1.00  0.00     0.209 HD
ENDBRANCH  26  27
ENDBRANCH   1  26
BRANCH   2  29
HETATM   29  O   UNL     1     -19.613  -7.843  -1.903  1.00  0.00    -0.390 OA
HETATM   30  H   UNL     1     -19.995  -6.946  -1.890  1.00  0.00     0.210 HD
ENDBRANCH   2  29
TORSDOF 12
BEGIN_RES ARG D 557
REMARK  4 active torsions:
REMARK  status: ('A' for Active; 'I' for Inactive)
REMARK    1  A    between atoms: CA   and  CB  
REMARK    2  A    between atoms: CB   and  CG  
REMARK    3  A    between atoms: CG   and  CD  
REMARK    4  A    between atoms: CD   and  NE  
REMARK       I    between atoms: NE   and  CZ  
REMARK       I    between atoms: CZ   and  NH1 
REMARK       I    between atoms: CZ   and  NH2 
ROOT
ATOM      1  CA  ARG D 557     -26.217   2.705 -17.014  1.00 35.49     0.159 C 
ENDROOT
BRANCH   1   2
ATOM      2  CB  ARG D 557     -26.789   1.319 -17.183  1.00 35.49     0.034 C 
BRANCH   2   3
ATOM      3  CG  ARG D 557     -25.842   0.200 -17.109  1.00 35.49     0.027 C 
BRANCH   3   4
ATOM      4  CD  ARG D 557     -24.772   0.432 -16.112  1.00 35.49     0.116 C 
BRANCH   4   5
ATOM      5  NE  ARG D 557     -24.849  -0.489 -15.009  1.00 35.49    -0.212 N 
ATOM      6  CZ  ARG D 557     -23.989  -1.447 -14.745  1.00 35.49     0.666 C 
ATOM      7  NH1 ARG D 557     -22.933  -1.679 -15.503  1.00 35.49    -0.235 N 
ATOM      8  NH2 ARG D 557     -24.205  -2.174 -13.688  1.00 35.49    -0.235 N 
ATOM      9  HH  ARG D 557     -22.770  -1.211 -16.202  1.00 35.49     0.174 HD
ATOM     10  HH  ARG D 557     -22.404  -2.316 -15.280  1.00 35.49     0.174 HD
ATOM     11  HH  ARG D 557     -24.891  -1.997 -13.214  1.00 35.49     0.174 HD
ATOM     12  HH  ARG D 557     -23.670  -2.799 -13.484  1.00 35.49     0.174 HD
ATOM     13  HE  ARG D 557     -25.537  -0.458 -14.510  1.00 35.49     0.178 HD
ENDBRANCH   4   5
ENDBRANCH   3   4
ENDBRANCH   2   3
ENDBRANCH   1   2
END_RES ARG D 557
BEGIN_RES GLU D 570
REMARK  3 active torsions:
REMARK  status: ('A' for Active; 'I' for Inactive)
REMARK    5  A    between atoms: CA   and  CB  
REMARK    6  A    between atoms: CB   and  CG  
REMARK    7  A    between atoms: CG   and  CD  
ROOT
ATOM     14  CA  GLU D 570     -18.033  -6.348 -13.375  1.00 32.92     0.160 C 
ENDROOT
BRANCH  14  15
ATOM     15  CB  GLU D 570     -19.500  -6.345 -13.794  1.00 32.92     0.043 C 
BRANCH  15  16
ATOM     16  CG  GLU D 570     -20.434  -5.494 -13.012  1.00 32.92     0.100 C 
BRANCH  16  17
ATOM     17  CD  GLU D 570     -21.648  -5.069 -13.804  1.00 32.92     0.185 C 
ATOM     18  OE1 GLU D 570     -22.772  -5.133 -13.270  1.00 32.92    -0.647 OA
ATOM     19  OE2 GLU D 570     -21.475  -4.684 -14.978  1.00 32.92    -0.647 OA
ENDBRANCH  16  17
ENDBRANCH  15  16
ENDBRANCH  14  15
END_RES GLU D 570
ENDMDL
MODEL 7
REMARK VINA RESULT:      -5.8      4.654      7.705
REMARK  12 active torsions:
REMARK  status: ('A' for Active; 'I' for Inactive)
REMARK    1  A    between atoms: C_1  and  C_2 
REMARK    2  A    between atoms: C_1  and  O_23 
REMARK    3  A    between atoms: C_3  and  O_22 
REMARK    4  A    between atoms: C_4  and  O_21 
REMARK    5  A    between atoms: C_5  and  O_20 
REMARK    6  A    between atoms: C_6  and  O_8 
REMARK    7  A    between atoms: O_8  and  C_9 
REMARK    8  A    between atoms: C_10  and  O_19 
REMARK    9  A    between atoms: C_11  and  C_15 
REMARK   10  A    between atoms: C_15  and  C_16 
REMARK   11  A    between atoms: C_15  and  O_18 
REMARK   12  A    between atoms: C_16  and  O_17 
ROOT
HETATM    1  C   UNL     1     -20.636 -10.590  -0.036  1.00  0.00     0.179 C 
HETATM    2  C   UNL     1     -21.674  -9.794   0.766  1.00  0.00     0.180 C 
HETATM    3  C   UNL     1     -22.786  -9.310  -0.173  1.00  0.00     0.183 C 
HETATM    4  C   UNL     1     -22.190  -8.443  -1.291  1.00  0.00     0.205 C 
HETATM    5  C   UNL     1     -21.040  -9.187  -2.020  1.00  0.00     0.298 C 
HETATM    6  O   UNL     1     -20.101  -9.788  -1.098  1.00  0.00    -0.348 OA
ENDROOT
BRANCH   5   7
HETATM    7  O   UNL     1     -20.262  -8.274  -2.820  1.00  0.00    -0.309 OA
BRANCH   7   8
HETATM    8  C   UNL     1     -20.777  -7.897  -4.024  1.00  0.00     0.179 A 
HETATM    9  C   UNL     1     -21.382  -6.741  -4.289  1.00  0.00     0.115 A 
HETATM   10  C   UNL     1     -21.798  -6.634  -5.701  1.00  0.00     0.222 A 
HETATM   11  O   UNL     1     -21.302  -7.859  -6.281  1.00  0.00    -0.301 OA
HETATM   12  C   UNL     1     -20.748  -8.634  -5.299  1.00  0.00     0.320 A 
HETATM   13  O   UNL     1     -20.295  -9.755  -5.460  1.00  0.00    -0.257 OA
BRANCH   9  14
HETATM   14  O   UNL     1     -21.626  -5.724  -3.409  1.00  0.00    -0.359 OA
HETATM   15  H   UNL     1     -22.554  -5.438  -3.532  1.00  0.00     0.217 HD
ENDBRANCH   9  14
BRANCH  10  16
HETATM   16  C   UNL     1     -21.231  -5.415  -6.452  1.00  0.00     0.177 C 
BRANCH  16  17
HETATM   17  C   UNL     1     -22.308  -4.512  -7.065  1.00  0.00     0.198 C 
BRANCH  17  18
HETATM   18  O   UNL     1     -23.582  -4.824  -6.503  1.00  0.00    -0.398 OA
HETATM   19  H   UNL     1     -23.401  -5.375  -5.718  1.00  0.00     0.209 HD
ENDBRANCH  17  18
ENDBRANCH  16  17
BRANCH  16  20
HETATM   20  O   UNL     1     -20.437  -4.603  -5.561  1.00  0.00    -0.390 OA
HETATM   21  H   UNL     1     -20.166  -5.173  -4.816  1.00  0.00     0.210 HD
ENDBRANCH  16  20
ENDBRANCH  10  16
ENDBRANCH   7   8
ENDBRANCH   5   7
BRANCH   4  22
HETATM   22  O   UNL     1     -21.714  -7.192  -0.740  1.00  0.00    -0.388 OA
HETATM   23  H   UNL     1     -20.734  -7.258  -0.731  1.00  0.00     0.210 HD
ENDBRANCH   4  22
BRANCH   3  24
HETATM   24  O   UNL     1     -23.752  -8.555   0.565  1.00  0.00    -0.390 OA
HETATM   25  H   UNL     1     -23.587  -8.773   1.505  1.00  0.00     0.210 HD
ENDBRANCH   3  24
BRANCH   1  26
HETATM   26  C   UNL     1     -21.130 -11.970  -0.491  1.00  0.00     0.198 C 
BRANCH  26  27
HETATM   27  O   UNL     1     -21.790 -12.628   0.585  1.00  0.00    -0.398 OA
HETATM   28  H   UNL     1     -21.477 -13.551   0.615  1.00  0.00     0.209 HD
ENDBRANCH  26  27
ENDBRANCH   1  26
BRANCH   2  29
HETATM   29  O   UNL     1     -21.028  -8.627   1.334  1.00  0.00    -0.390 OA
HETATM   30  H   UNL     1     -21.698  -8.142   1.849  1.00  0.00     0.210 HD
ENDBRANCH   2  29
TORSDOF 12
BEGIN_RES ARG D 557
REMARK  4 active torsions:
REMARK  status: ('A' for Active; 'I' for Inactive)
REMARK    1  A    between atoms: CA   and  CB  
REMARK    2  A    between atoms: CB   and  CG  
REMARK    3  A    between atoms: CG   and  CD  
REMARK    4  A    between atoms: CD   and  NE  
REMARK       I    between atoms: NE   and  CZ  
REMARK       I    between atoms: CZ   and  NH1 
REMARK       I    between atoms: CZ   and  NH2 
ROOT
ATOM      1  CA  ARG D 557     -26.217   2.705 -17.014  1.00 35.49     0.159 C 
ENDROOT
BRANCH   1   2
ATOM      2  CB  ARG D 557     -26.789   1.319 -17.183  1.00 35.49     0.034 C 
BRANCH   2   3
ATOM      3  CG  ARG D 557     -25.916   0.195 -16.823  1.00 35.49     0.027 C 
BRANCH   3   4
ATOM      4  CD  ARG D 557     -26.647  -0.888 -16.127  1.00 35.49     0.116 C 
BRANCH   4   5
ATOM      5  NE  ARG D 557     -25.865  -1.482 -15.076  1.00 35.49    -0.212 N 
ATOM      6  CZ  ARG D 557     -25.897  -2.745 -14.714  1.00 35.49     0.666 C 
ATOM      7  NH1 ARG D 557     -26.691  -3.628 -15.292  1.00 35.49    -0.235 N 
ATOM      8  NH2 ARG D 557     -25.102  -3.115 -13.753  1.00 35.49    -0.235 N 
ATOM      9  HH  ARG D 557     -27.221  -3.407 -15.928  1.00 35.49     0.174 HD
ATOM     10  HH  ARG D 557     -26.667  -4.439 -15.016  1.00 35.49     0.174 HD
ATOM     11  HH  ARG D 557     -24.595  -2.525 -13.403  1.00 35.49     0.174 HD
ATOM     12  HH  ARG D 557     -25.092  -3.923 -13.495  1.00 35.49     0.174 HD
ATOM     13  HE  ARG D 557     -25.378  -0.970 -14.602  1.00 35.49     0.178 HD
ENDBRANCH   4   5
ENDBRANCH   3   4
ENDBRANCH   2   3
ENDBRANCH   1   2
END_RES ARG D 557
BEGIN_RES GLU D 570
REMARK  3 active torsions:
REMARK  status: ('A' for Active; 'I' for Inactive)
REMARK    5  A    between atoms: CA   and  CB  
REMARK    6  A    between atoms: CB   and  CG  
REMARK    7  A    between atoms: CG   and  CD  
ROOT
ATOM     14  CA  GLU D 570     -18.033  -6.348 -13.375  1.00 32.92     0.160 C 
ENDROOT
BRANCH  14  15
ATOM     15  CB  GLU D 570     -19.500  -6.345 -13.794  1.00 32.92     0.043 C 
BRANCH  15  16
ATOM     16  CG  GLU D 570     -20.449  -5.566 -12.957  1.00 32.92     0.100 C 
BRANCH  16  17
ATOM     17  CD  GLU D 570     -21.693  -5.151 -13.708  1.00 32.92     0.185 C 
ATOM     18  OE1 GLU D 570     -22.731  -4.897 -13.067  1.00 32.92    -0.647 OA
ATOM     19  OE2 GLU D 570     -21.633  -5.094 -14.952  1.00 32.92    -0.647 OA
ENDBRANCH  16  17
ENDBRANCH  15  16
ENDBRANCH  14  15
END_RES GLU D 570
ENDMDL
MODEL 8
REMARK VINA RESULT:      -5.7      3.286      5.425
REMARK  12 active torsions:
REMARK  status: ('A' for Active; 'I' for Inactive)
REMARK    1  A    between atoms: C_1  and  C_2 
REMARK    2  A    between atoms: C_1  and  O_23 
REMARK    3  A    between atoms: C_3  and  O_22 
REMARK    4  A    between atoms: C_4  and  O_21 
REMARK    5  A    between atoms: C_5  and  O_20 
REMARK    6  A    between atoms: C_6  and  O_8 
REMARK    7  A    between atoms: O_8  and  C_9 
REMARK    8  A    between atoms: C_10  and  O_19 
REMARK    9  A    between atoms: C_11  and  C_15 
REMARK   10  A    between atoms: C_15  and  C_16 
REMARK   11  A    between atoms: C_15  and  O_18 
REMARK   12  A    between atoms: C_16  and  O_17 
ROOT
HETATM    1  C   UNL     1     -21.308  -8.981  -2.092  1.00  0.00     0.179 C 
HETATM    2  C   UNL     1     -20.113  -9.941  -2.021  1.00  0.00     0.180 C 
HETATM    3  C   UNL     1     -18.885  -9.278  -2.658  1.00  0.00     0.183 C 
HETATM    4  C   UNL     1     -19.187  -8.902  -4.116  1.00  0.00     0.205 C 
HETATM    5  C   UNL     1     -20.477  -8.047  -4.214  1.00  0.00     0.298 C 
HETATM    6  O   UNL     1     -21.571  -8.608  -3.452  1.00  0.00    -0.348 OA
ENDROOT
BRANCH   5   7
HETATM    7  O   UNL     1     -20.950  -7.984  -5.575  1.00  0.00    -0.309 OA
BRANCH   7   8
HETATM    8  C   UNL     1     -21.341  -6.767  -6.049  1.00  0.00     0.179 A 
HETATM    9  C   UNL     1     -20.733  -6.069  -7.006  1.00  0.00     0.115 A 
HETATM   10  C   UNL     1     -21.429  -4.802  -7.306  1.00  0.00     0.222 A 
HETATM   11  O   UNL     1     -22.587  -4.854  -6.447  1.00  0.00    -0.301 OA
HETATM   12  C   UNL     1     -22.521  -5.975  -5.664  1.00  0.00     0.320 A 
HETATM   13  O   UNL     1     -23.321  -6.272  -4.793  1.00  0.00    -0.257 OA
BRANCH   9  14
HETATM   14  O   UNL     1     -19.595  -6.418  -7.678  1.00  0.00    -0.359 OA
HETATM   15  H   UNL     1     -19.495  -7.390  -7.612  1.00  0.00     0.217 HD
ENDBRANCH   9  14
BRANCH  10  16
HETATM   16  C   UNL     1     -21.856  -4.631  -8.776  1.00  0.00     0.177 C 
BRANCH  16  17
HETATM   17  C   UNL     1     -22.871  -3.503  -8.997  1.00  0.00     0.198 C 
BRANCH  17  18
HETATM   18  O   UNL     1     -24.131  -3.864  -8.432  1.00  0.00    -0.398 OA
HETATM   19  H   UNL     1     -23.955  -4.068  -7.493  1.00  0.00     0.209 HD
ENDBRANCH  17  18
ENDBRANCH  16  17
BRANCH  16  20
HETATM   20  O   UNL     1     -20.707  -4.353  -9.603  1.00  0.00    -0.390 OA
HETATM   21  H   UNL     1     -19.991  -4.949  -9.312  1.00  0.00     0.210 HD
ENDBRANCH  16  20
ENDBRANCH  10  16
ENDBRANCH   7   8
ENDBRANCH   5   7
BRANCH   4  22
HETATM   22  O   UNL     1     -19.313 -10.103  -4.914  1.00  0.00    -0.388 OA
HETATM   23  H   UNL     1     -20.276 -10.219  -5.076  1.00  0.00     0.210 HD
ENDBRANCH   4  22
BRANCH   3  24
HETATM   24  O   UNL     1     -17.769 -10.173  -2.608  1.00  0.00    -0.390 OA
HETATM   25  H   UNL     1     -17.116  -9.739  -2.023  1.00  0.00     0.210 HD
ENDBRANCH   3  24
BRANCH   1  26
HETATM   26  C   UNL     1     -21.202  -7.789  -1.132  1.00  0.00     0.198 C 
BRANCH  26  27
HETATM   27  O   UNL     1     -22.329  -6.934  -1.292  1.00  0.00    -0.398 OA
HETATM   28  H   UNL     1     -22.448  -6.763  -2.245  1.00  0.00     0.209 HD
ENDBRANCH  26  27
ENDBRANCH   1  26
BRANCH   2  29
HETATM   29  O   UNL     1     -20.427 -11.132  -2.786  1.00  0.00    -0.390 OA
HETATM   30  H   UNL     1     -19.816 -11.836  -2.497  1.00  0.00     0.210 HD
ENDBRANCH   2  29
TORSDOF 12
BEGIN_RES ARG D 557
REMARK  4 active torsions:
REMARK  status: ('A' for Active; 'I' for Inactive)
REMARK    1  A    between atoms: CA   and  CB  
REMARK    2  A    between atoms: CB   and  CG  
REMARK    3  A    between atoms: CG   and  CD  
REMARK    4  A    between atoms: CD   and  NE  
REMARK       I    between atoms: NE   and  CZ  
REMARK       I    between atoms: CZ   and  NH1 
REMARK       I    between atoms: CZ   and  NH2 
ROOT
ATOM      1  CA  ARG D 557     -26.217   2.705 -17.014  1.00 35.49     0.159 C 
ENDROOT
BRANCH   1   2
ATOM      2  CB  ARG D 557     -26.789   1.319 -17.183  1.00 35.49     0.034 C 
BRANCH   2   3
ATOM      3  CG  ARG D 557     -28.229   1.165 -16.944  1.00 35.49     0.027 C 
BRANCH   3   4
ATOM      4  CD  ARG D 557     -28.626  -0.253 -16.783  1.00 35.49     0.116 C 
BRANCH   4   5
ATOM      5  NE  ARG D 557     -27.627  -1.020 -16.087  1.00 35.49    -0.212 N 
ATOM      6  CZ  ARG D 557     -27.481  -2.325 -16.146  1.00 35.49     0.666 C 
ATOM      7  NH1 ARG D 557     -28.276  -3.095 -16.866  1.00 35.49    -0.235 N 
ATOM      8  NH2 ARG D 557     -26.506  -2.851 -15.464  1.00 35.49    -0.235 N 
ATOM      9  HH  ARG D 557     -28.923  -2.770 -17.324  1.00 35.49     0.174 HD
ATOM     10  HH  ARG D 557     -28.131  -3.939 -16.869  1.00 35.49     0.174 HD
ATOM     11  HH  ARG D 557     -26.004  -2.328 -15.014  1.00 35.49     0.174 HD
ATOM     12  HH  ARG D 557     -26.378  -3.689 -15.481  1.00 35.49     0.174 HD
ATOM     13  HE  ARG D 557     -27.118  -0.611 -15.542  1.00 35.49     0.178 HD
ENDBRANCH   4   5
ENDBRANCH   3   4
ENDBRANCH   2   3
ENDBRANCH   1   2
END_RES ARG D 557
BEGIN_RES GLU D 570
REMARK  3 active torsions:
REMARK  status: ('A' for Active; 'I' for Inactive)
REMARK    5  A    between atoms: CA   and  CB  
REMARK    6  A    between atoms: CB   and  CG  
REMARK    7  A    between atoms: CG   and  CD  
ROOT
ATOM     14  CA  GLU D 570     -18.033  -6.348 -13.375  1.00 32.92     0.160 C 
ENDROOT
BRANCH  14  15
ATOM     15  CB  GLU D 570     -19.500  -6.345 -13.794  1.00 32.92     0.043 C 
BRANCH  15  16
ATOM     16  CG  GLU D 570     -20.450  -5.569 -12.955  1.00 32.92     0.100 C 
BRANCH  16  17
ATOM     17  CD  GLU D 570     -21.711  -5.185 -13.695  1.00 32.92     0.185 C 
ATOM     18  OE1 GLU D 570     -21.787  -5.409 -14.918  1.00 32.92    -0.647 OA
ATOM     19  OE2 GLU D 570     -22.625  -4.639 -13.046  1.00 32.92    -0.647 OA
ENDBRANCH  16  17
ENDBRANCH  15  16
ENDBRANCH  14  15
END_RES GLU D 570
ENDMDL
MODEL 9
REMARK VINA RESULT:      -5.6      3.246      7.648
REMARK  12 active torsions:
REMARK  status: ('A' for Active; 'I' for Inactive)
REMARK    1  A    between atoms: C_1  and  C_2 
REMARK    2  A    between atoms: C_1  and  O_23 
REMARK    3  A    between atoms: C_3  and  O_22 
REMARK    4  A    between atoms: C_4  and  O_21 
REMARK    5  A    between atoms: C_5  and  O_20 
REMARK    6  A    between atoms: C_6  and  O_8 
REMARK    7  A    between atoms: O_8  and  C_9 
REMARK    8  A    between atoms: C_10  and  O_19 
REMARK    9  A    between atoms: C_11  and  C_15 
REMARK   10  A    between atoms: C_15  and  C_16 
REMARK   11  A    between atoms: C_15  and  O_18 
REMARK   12  A    between atoms: C_16  and  O_17 
ROOT
HETATM    1  C   UNL     1     -22.744  -4.126  -8.254  1.00  0.00     0.179 C 
HETATM    2  C   UNL     1     -21.312  -3.578  -8.180  1.00  0.00     0.180 C 
HETATM    3  C   UNL     1     -20.349  -4.710  -7.803  1.00  0.00     0.183 C 
HETATM    4  C   UNL     1     -20.760  -5.323  -6.457  1.00  0.00     0.205 C 
HETATM    5  C   UNL     1     -22.251  -5.753  -6.472  1.00  0.00     0.298 C 
HETATM    6  O   UNL     1     -23.116  -4.724  -7.005  1.00  0.00    -0.348 OA
ENDROOT
BRANCH   5   7
HETATM    7  O   UNL     1     -22.728  -6.003  -5.136  1.00  0.00    -0.309 OA
BRANCH   7   8
HETATM    8  C   UNL     1     -22.005  -6.859  -4.359  1.00  0.00     0.179 A 
HETATM    9  C   UNL     1     -21.770  -6.723  -3.056  1.00  0.00     0.115 A 
HETATM   10  C   UNL     1     -20.976  -7.841  -2.508  1.00  0.00     0.222 A 
HETATM   11  O   UNL     1     -20.819  -8.716  -3.644  1.00  0.00    -0.301 OA
HETATM   12  C   UNL     1     -21.371  -8.129  -4.750  1.00  0.00     0.320 A 
HETATM   13  O   UNL     1     -21.345  -8.591  -5.878  1.00  0.00    -0.257 OA
BRANCH   9  14
HETATM   14  O   UNL     1     -22.179  -5.696  -2.252  1.00  0.00    -0.359 OA
HETATM   15  H   UNL     1     -22.452  -6.078  -1.394  1.00  0.00     0.217 HD
ENDBRANCH   9  14
BRANCH  10  16
HETATM   16  C   UNL     1     -21.639  -8.592  -1.338  1.00  0.00     0.177 C 
BRANCH  16  17
HETATM   17  C   UNL     1     -21.567 -10.118  -1.463  1.00  0.00     0.198 C 
BRANCH  17  18
HETATM   18  O   UNL     1     -22.594 -10.583  -2.339  1.00  0.00    -0.398 OA
HETATM   19  H   UNL     1     -22.595  -9.970  -3.100  1.00  0.00     0.209 HD
ENDBRANCH  17  18
ENDBRANCH  16  17
BRANCH  16  20
HETATM   20  O   UNL     1     -21.014  -8.226  -0.089  1.00  0.00    -0.390 OA
HETATM   21  H   UNL     1     -21.484  -8.706   0.619  1.00  0.00     0.210 HD
ENDBRANCH  16  20
ENDBRANCH  10  16
ENDBRANCH   7   8
ENDBRANCH   5   7
BRANCH   4  22
HETATM   22  O   UNL     1     -20.519  -4.373  -5.392  1.00  0.00    -0.388 OA
HETATM   23  H   UNL     1     -20.583  -3.484  -5.805  1.00  0.00     0.210 HD
ENDBRANCH   4  22
BRANCH   3  24
HETATM   24  O   UNL     1     -19.013  -4.204  -7.719  1.00  0.00    -0.390 OA
HETATM   25  H   UNL     1     -18.619  -4.368  -8.600  1.00  0.00     0.210 HD
ENDBRANCH   3  24
BRANCH   1  26
HETATM   26  C   UNL     1     -23.001  -5.024  -9.471  1.00  0.00     0.198 C 
BRANCH  26  27
HETATM   27  O   UNL     1     -23.208  -4.223 -10.631  1.00  0.00    -0.398 OA
HETATM   28  H   UNL     1     -24.163  -4.207 -10.823  1.00  0.00     0.209 HD
ENDBRANCH  26  27
ENDBRANCH   1  26
BRANCH   2  29
HETATM   29  O   UNL     1     -21.252  -2.572  -7.139  1.00  0.00    -0.390 OA
HETATM   30  H   UNL     1     -21.716  -1.780  -7.468  1.00  0.00     0.210 HD
ENDBRANCH   2  29
TORSDOF 12
BEGIN_RES ARG D 557
REMARK  4 active torsions:
REMARK  status: ('A' for Active; 'I' for Inactive)
REMARK    1  A    between atoms: CA   and  CB  
REMARK    2  A    between atoms: CB   and  CG  
REMARK    3  A    between atoms: CG   and  CD  
REMARK    4  A    between atoms: CD   and  NE  
REMARK       I    between atoms: NE   and  CZ  
REMARK       I    between atoms: CZ   and  NH1 
REMARK       I    between atoms: CZ   and  NH2 
ROOT
ATOM      1  CA  ARG D 557     -26.217   2.705 -17.014  1.00 35.49     0.159 C 
ENDROOT
BRANCH   1   2
ATOM      2  CB  ARG D 557     -26.789   1.319 -17.183  1.00 35.49     0.034 C 
BRANCH   2   3
ATOM      3  CG  ARG D 557     -25.835   0.203 -17.160  1.00 35.49     0.027 C 
BRANCH   3   4
ATOM      4  CD  ARG D 557     -24.754   0.406 -16.169  1.00 35.49     0.116 C 
BRANCH   4   5
ATOM      5  NE  ARG D 557     -24.908  -0.443 -15.017  1.00 35.49    -0.212 N 
ATOM      6  CZ  ARG D 557     -24.097  -1.415 -14.665  1.00 35.49     0.666 C 
ATOM      7  NH1 ARG D 557     -23.025  -1.733 -15.367  1.00 35.49    -0.235 N 
ATOM      8  NH2 ARG D 557     -24.380  -2.069 -13.576  1.00 35.49    -0.235 N 
ATOM      9  HH  ARG D 557     -22.818  -1.315 -16.085  1.00 35.49     0.174 HD
ATOM     10  HH  ARG D 557     -22.531  -2.375 -15.087  1.00 35.49     0.174 HD
ATOM     11  HH  ARG D 557     -25.075  -1.837 -13.139  1.00 35.49     0.174 HD
ATOM     12  HH  ARG D 557     -23.878  -2.701 -13.315  1.00 35.49     0.174 HD
ATOM     13  HE  ARG D 557     -25.612  -0.356 -14.548  1.00 35.49     0.178 HD
ENDBRANCH   4   5
ENDBRANCH   3   4
ENDBRANCH   2   3
ENDBRANCH   1   2
END_RES ARG D 557
BEGIN_RES GLU D 570
REMARK  3 active torsions:
REMARK  status: ('A' for Active; 'I' for Inactive)
REMARK    5  A    between atoms: CA   and  CB  
REMARK    6  A    between atoms: CB   and  CG  
REMARK    7  A    between atoms: CG   and  CD  
ROOT
ATOM     14  CA  GLU D 570     -18.033  -6.348 -13.375  1.00 32.92     0.160 C 
ENDROOT
BRANCH  14  15
ATOM     15  CB  GLU D 570     -19.500  -6.345 -13.794  1.00 32.92     0.043 C 
BRANCH  15  16
ATOM     16  CG  GLU D 570     -20.444  -5.541 -12.976  1.00 32.92     0.100 C 
BRANCH  16  17
ATOM     17  CD  GLU D 570     -21.733  -5.227 -13.700  1.00 32.92     0.185 C 
ATOM     18  OE1 GLU D 570     -22.316  -4.153 -13.460  1.00 32.92    -0.647 OA
ATOM     19  OE2 GLU D 570     -22.172  -6.073 -14.504  1.00 32.92    -0.647 OA
ENDBRANCH  16  17
ENDBRANCH  15  16
ENDBRANCH  14  15
END_RES GLU D 570
ENDMDL
