MODEL 1
REMARK VINA RESULT:      -6.5      0.000      0.000
REMARK WARNING: 32 MAX_TORS EXCEEDED!!!
REMARK  62 active torsions:
REMARK  status: ('A' for Active; 'I' for Inactive)
REMARK    1  A    between atoms: C_2  and  C_3 
REMARK    2  A    between atoms: C_3  and  C_4 
REMARK    3  A    between atoms: C_4  and  C_5 
REMARK    4  A    between atoms: C_5  and  C_6 
REMARK    5  A    between atoms: C_6  and  C_7 
REMARK    6  A    between atoms: C_7  and  C_8 
REMARK    7  A    between atoms: C_8  and  C_9 
REMARK    8  A    between atoms: C_9  and  C_10 
REMARK    9  A    between atoms: C_9  and  C_16 
REMARK   10  A    between atoms: C_10  and  C_11 
REMARK   11  A    between atoms: C_11  and  C_12 
REMARK   12  A    between atoms: C_12  and  C_13 
REMARK   13  A    between atoms: C_13  and  C_14 
REMARK   14  A    between atoms: C_16  and  O_18 
REMARK   15  A    between atoms: O_18  and  C_19 
REMARK   16  A    between atoms: C_19  and  C_20 
REMARK   17  A    between atoms: C_20  and  C_21 
REMARK   18  A    between atoms: C_20  and  O_63 
REMARK   19  A    between atoms: C_22  and  O_45 
REMARK   20  A    between atoms: C_23  and  O_27 
REMARK   21  A    between atoms: O_27  and  C_28 
REMARK   22  A    between atoms: C_28  and  C_30 
REMARK   23  A    between atoms: C_30  and  C_31 
REMARK   24  A    between atoms: C_30  and  C_37 
REMARK   25  A    between atoms: C_31  and  C_32 
REMARK   26  A    between atoms: C_32  and  C_33 
REMARK   27  A    between atoms: C_33  and  C_34 
REMARK   28  A    between atoms: C_34  and  C_35 
REMARK   29  A    between atoms: C_37  and  C_38 
REMARK   30  A    between atoms: C_38  and  C_39 
REMARK   31  A    between atoms: C_39  and  C_40 
REMARK   32  A    between atoms: C_40  and  C_41 
REMARK   33  A    between atoms: C_41  and  C_42 
REMARK   34  A    between atoms: C_42  and  C_43 
REMARK   35  A    between atoms: O_45  and  C_46 
REMARK   36  A    between atoms: C_46  and  C_48 
REMARK   37  A    between atoms: C_48  and  C_49 
REMARK   38  A    between atoms: C_48  and  C_55 
REMARK   39  A    between atoms: C_49  and  C_50 
REMARK   40  A    between atoms: C_50  and  C_51 
REMARK   41  A    between atoms: C_51  and  C_52 
REMARK   42  A    between atoms: C_52  and  C_53 
REMARK   43  A    between atoms: C_55  and  C_56 
REMARK   44  A    between atoms: C_56  and  C_57 
REMARK   45  A    between atoms: C_57  and  C_58 
REMARK   46  A    between atoms: C_58  and  C_59 
REMARK   47  A    between atoms: C_59  and  C_60 
REMARK   48  A    between atoms: C_60  and  C_61 
REMARK   49  A    between atoms: O_63  and  C_64 
REMARK   50  A    between atoms: C_64  and  C_66 
REMARK   51  A    between atoms: C_66  and  C_67 
REMARK   52  A    between atoms: C_66  and  C_73 
REMARK   53  A    between atoms: C_67  and  C_68 
REMARK   54  A    between atoms: C_68  and  C_69 
REMARK   55  A    between atoms: C_69  and  C_70 
REMARK   56  A    between atoms: C_70  and  C_71 
REMARK   57  A    between atoms: C_73  and  C_74 
REMARK   58  A    between atoms: C_74  and  C_75 
REMARK   59  A    between atoms: C_75  and  C_76 
REMARK   60  A    between atoms: C_76  and  C_77 
REMARK   61  A    between atoms: C_77  and  C_78 
REMARK   62  A    between atoms: C_78  and  C_79 
ROOT
HETATM    1  C   UNL     1     -21.936  -8.574  -3.705  1.00  0.00     0.224 C 
HETATM    2  C   UNL     1     -21.441  -9.676  -2.828  1.00  0.00     0.129 C 
HETATM    3  C   UNL     1     -21.523  -9.334  -1.545  1.00  0.00     0.186 C 
HETATM    4  C   UNL     1     -21.822  -7.895  -1.511  1.00  0.00     0.321 C 
HETATM    5  O   UNL     1     -21.845  -7.194  -0.523  1.00  0.00    -0.257 OA
HETATM    6  O   UNL     1     -21.981  -7.456  -2.803  1.00  0.00    -0.301 OA
ENDROOT
BRANCH   1   7
HETATM    7  C   UNL     1     -21.244  -8.147  -5.027  1.00  0.00     0.192 C 
BRANCH   7   8
HETATM    8  C   UNL     1     -19.722  -7.913  -4.852  1.00  0.00     0.214 C 
BRANCH   8   9
HETATM    9  O   UNL     1     -18.949  -9.136  -4.639  1.00  0.00    -0.319 OA
BRANCH   9  10
HETATM   10  C   UNL     1     -17.972  -9.399  -5.560  1.00  0.00     0.263 C 
HETATM   11  O   UNL     1     -18.043  -9.036  -6.727  1.00  0.00    -0.265 OA
BRANCH  10  12
HETATM   12  C   UNL     1     -16.855 -10.315  -5.028  1.00  0.00     0.085 C 
BRANCH  12  13
HETATM   13  C   UNL     1     -16.103 -10.937  -6.239  1.00  0.00     0.014 C 
BRANCH  13  14
HETATM   14  C   UNL     1     -15.431 -12.294  -6.026  1.00  0.00     0.001 C 
BRANCH  14  15
HETATM   15  C   UNL     1     -14.038 -12.438  -6.634  1.00  0.00     0.000 C 
BRANCH  15  16
HETATM   16  C   UNL     1     -13.109 -13.038  -5.576  1.00  0.00     0.000 C 
BRANCH  16  17
HETATM   17  C   UNL     1     -13.679 -12.931  -4.169  1.00  0.00     0.000 C 
BRANCH  17  18
HETATM   18  C   UNL     1     -12.898 -13.828  -3.208  1.00  0.00    -0.000 C 
BRANCH  18  19
HETATM   19  C   UNL     1     -13.848 -14.555  -2.261  1.00  0.00    -0.005 C 
HETATM   20  C   UNL     1     -15.187 -14.831  -2.921  1.00  0.00     0.005 C 
ENDBRANCH  18  19
ENDBRANCH  17  18
ENDBRANCH  16  17
ENDBRANCH  15  16
ENDBRANCH  14  15
ENDBRANCH  13  14
ENDBRANCH  12  13
BRANCH  12  21
HETATM   21  C   UNL     1     -15.898  -9.646  -4.012  1.00  0.00     0.014 C 
BRANCH  21  22
HETATM   22  C   UNL     1     -16.227  -9.935  -2.540  1.00  0.00     0.001 C 
BRANCH  22  23
HETATM   23  C   UNL     1     -15.646 -11.233  -1.958  1.00  0.00     0.000 C 
BRANCH  23  24
HETATM   24  C   UNL     1     -16.329 -11.683  -0.664  1.00  0.00    -0.000 C 
BRANCH  24  25
HETATM   25  C   UNL     1     -15.431 -12.588   0.180  1.00  0.00    -0.005 C 
HETATM   26  C   UNL     1     -15.924 -12.647   1.619  1.00  0.00     0.005 C 
ENDBRANCH  24  25
ENDBRANCH  23  24
ENDBRANCH  22  23
ENDBRANCH  21  22
ENDBRANCH  12  21
ENDBRANCH  10  12
ENDBRANCH   9  10
ENDBRANCH   8   9
ENDBRANCH   7   8
BRANCH   7  27
HETATM   27  O   UNL     1     -21.906  -7.001  -5.635  1.00  0.00    -0.310 OA
BRANCH  27  28
HETATM   28  C   UNL     1     -21.143  -5.860  -5.700  1.00  0.00     0.263 C 
HETATM   29  O   UNL     1     -20.557  -5.368  -4.745  1.00  0.00    -0.265 OA
BRANCH  28  30
HETATM   30  C   UNL     1     -21.159  -5.236  -7.091  1.00  0.00     0.085 C 
BRANCH  30  31
HETATM   31  C   UNL     1     -21.227  -3.710  -6.905  1.00  0.00     0.014 C 
BRANCH  31  32
HETATM   32  C   UNL     1     -22.274  -3.036  -7.790  1.00  0.00     0.001 C 
BRANCH  32  33
HETATM   33  C   UNL     1     -23.343  -4.025  -8.240  1.00  0.00     0.000 C 
BRANCH  33  34
HETATM   34  C   UNL     1     -24.364  -3.309  -9.118  1.00  0.00    -0.000 C 
BRANCH  34  35
HETATM   35  C   UNL     1     -24.766  -4.165 -10.311  1.00  0.00    -0.005 C 
HETATM   36  C   UNL     1     -23.922  -5.426 -10.370  1.00  0.00     0.005 C 
ENDBRANCH  34  35
ENDBRANCH  33  34
ENDBRANCH  32  33
ENDBRANCH  31  32
ENDBRANCH  30  31
BRANCH  30  37
HETATM   37  C   UNL     1     -19.898  -5.631  -7.895  1.00  0.00     0.014 C 
BRANCH  37  38
HETATM   38  C   UNL     1     -19.499  -4.619  -8.966  1.00  0.00     0.001 C 
BRANCH  38  39
HETATM   39  C   UNL     1     -20.296  -4.854 -10.250  1.00  0.00     0.000 C 
BRANCH  39  40
HETATM   40  C   UNL     1     -20.156  -3.663 -11.192  1.00  0.00     0.000 C 
BRANCH  40  41
HETATM   41  C   UNL     1     -21.500  -2.980 -11.425  1.00  0.00     0.000 C 
BRANCH  41  42
HETATM   42  C   UNL     1     -22.138  -3.475 -12.720  1.00  0.00    -0.000 C 
BRANCH  42  43
HETATM   43  C   UNL     1     -23.283  -2.563 -13.151  1.00  0.00    -0.005 C 
HETATM   44  C   UNL     1     -23.252  -2.316 -14.650  1.00  0.00     0.005 C 
ENDBRANCH  42  43
ENDBRANCH  41  42
ENDBRANCH  40  41
ENDBRANCH  39  40
ENDBRANCH  38  39
ENDBRANCH  37  38
ENDBRANCH  30  37
ENDBRANCH  28  30
ENDBRANCH  27  28
ENDBRANCH   7  27
ENDBRANCH   1   7
BRANCH   2  45
HETATM   45  O   UNL     1     -21.228 -10.958  -3.340  1.00  0.00    -0.277 OA
BRANCH  45  46
HETATM   46  C   UNL     1     -22.338 -11.637  -3.801  1.00  0.00     0.268 C 
HETATM   47  O   UNL     1     -23.460 -11.551  -3.328  1.00  0.00    -0.264 OA
BRANCH  46  48
HETATM   48  C   UNL     1     -21.961 -12.468  -5.017  1.00  0.00     0.086 C 
BRANCH  48  49
HETATM   49  C   UNL     1     -23.219 -13.041  -5.702  1.00  0.00     0.014 C 
BRANCH  49  50
HETATM   50  C   UNL     1     -23.186 -14.554  -5.961  1.00  0.00     0.001 C 
BRANCH  50  51
HETATM   51  C   UNL     1     -24.563 -15.157  -6.227  1.00  0.00     0.000 C 
BRANCH  51  52
HETATM   52  C   UNL     1     -25.092 -15.990  -5.058  1.00  0.00    -0.000 C 
BRANCH  52  53
HETATM   53  C   UNL     1     -26.508 -16.456  -5.372  1.00  0.00    -0.005 C 
HETATM   54  C   UNL     1     -27.226 -15.483  -6.269  1.00  0.00     0.005 C 
ENDBRANCH  52  53
ENDBRANCH  51  52
ENDBRANCH  50  51
ENDBRANCH  49  50
ENDBRANCH  48  49
BRANCH  48  55
HETATM   55  C   UNL     1     -21.030 -11.769  -6.036  1.00  0.00     0.014 C 
BRANCH  55  56
HETATM   56  C   UNL     1     -20.459 -12.480  -7.288  1.00  0.00     0.001 C 
BRANCH  56  57
HETATM   57  C   UNL     1     -18.976 -12.313  -7.728  1.00  0.00     0.000 C 
BRANCH  57  58
HETATM   58  C   UNL     1     -18.335 -13.470  -8.454  1.00  0.00     0.000 C 
BRANCH  58  59
HETATM   59  C   UNL     1     -17.923 -15.347  -8.348  1.00  0.00     0.000 C 
BRANCH  59  60
HETATM   60  C   UNL     1     -18.260 -16.530  -9.780  1.00  0.00    -0.000 C 
BRANCH  60  61
HETATM   61  C   UNL     1     -18.144 -15.951 -11.115  1.00  0.00    -0.005 C 
HETATM   62  C   UNL     1     -17.944 -17.119 -12.078  1.00  0.00     0.005 C 
ENDBRANCH  60  61
ENDBRANCH  59  60
ENDBRANCH  58  59
ENDBRANCH  57  58
ENDBRANCH  56  57
ENDBRANCH  55  56
ENDBRANCH  48  55
ENDBRANCH  46  48
ENDBRANCH  45  46
ENDBRANCH   2  45
BRANCH   3  63
HETATM   63  O   UNL     1     -21.336 -10.132  -0.408  1.00  0.00    -0.270 OA
BRANCH  63  64
HETATM   64  C   UNL     1     -22.513 -10.729   0.035  1.00  0.00     0.268 C 
HETATM   65  O   UNL     1     -23.578 -10.278  -0.046  1.00  0.00    -0.264 OA
BRANCH  64  66
HETATM   66  C   UNL     1     -22.175 -12.192   0.462  1.00  0.00     0.086 C 
BRANCH  66  67
HETATM   67  C   UNL     1     -23.405 -13.081   0.679  1.00  0.00     0.014 C 
BRANCH  67  68
HETATM   68  C   UNL     1     -23.443 -13.944   1.980  1.00  0.00     0.001 C 
BRANCH  68  69
HETATM   69  C   UNL     1     -22.081 -14.245   2.584  1.00  0.00     0.000 C 
BRANCH  69  70
HETATM   70  C   UNL     1     -22.088 -15.346   3.645  1.00  0.00    -0.000 C 
BRANCH  70  71
HETATM   71  C   UNL     1     -23.412 -15.320   4.386  1.00  0.00    -0.005 C 
HETATM   72  C   UNL     1     -24.009 -16.699   4.530  1.00  0.00     0.005 C 
ENDBRANCH  70  71
ENDBRANCH  69  70
ENDBRANCH  68  69
ENDBRANCH  67  68
ENDBRANCH  66  67
BRANCH  66  73
HETATM   73  C   UNL     1     -21.131 -12.824  -0.482  1.00  0.00     0.014 C 
BRANCH  73  74
HETATM   74  C   UNL     1     -19.632 -13.004  -0.051  1.00  0.00     0.001 C 
BRANCH  74  75
HETATM   75  C   UNL     1     -19.039 -14.401   0.420  1.00  0.00     0.000 C 
BRANCH  75  76
HETATM   76  C   UNL     1     -19.556 -15.561  -0.403  1.00  0.00     0.000 C 
BRANCH  76  77
HETATM   77  C   UNL     1     -19.737 -16.183  -2.233  1.00  0.00     0.000 C 
BRANCH  77  78
HETATM   78  C   UNL     1     -19.946 -15.013  -3.709  1.00  0.00    -0.000 C 
BRANCH  78  79
HETATM   79  C   UNL     1     -18.676 -14.444  -4.252  1.00  0.00    -0.005 C 
HETATM   80  C   UNL     1     -18.442 -13.086  -3.603  1.00  0.00     0.005 C 
ENDBRANCH  78  79
ENDBRANCH  77  78
ENDBRANCH  76  77
ENDBRANCH  75  76
ENDBRANCH  74  75
ENDBRANCH  73  74
ENDBRANCH  66  73
ENDBRANCH  64  66
ENDBRANCH  63  64
ENDBRANCH   3  63
TORSDOF 62
BEGIN_RES ARG D 557
REMARK  4 active torsions:
REMARK  status: ('A' for Active; 'I' for Inactive)
REMARK    1  A    between atoms: CA   and  CB  
REMARK    2  A    between atoms: CB   and  CG  
REMARK    3  A    between atoms: CG   and  CD  
REMARK    4  A    between atoms: CD   and  NE  
REMARK       I    between atoms: NE   and  CZ  
REMARK       I    between atoms: CZ   and  NH1 
REMARK       I    between atoms: CZ   and  NH2 
ROOT
ATOM      1  CA  ARG D 557     -26.217   2.705 -17.014  1.00 35.49     0.159 C 
ENDROOT
BRANCH   1   2
ATOM      2  CB  ARG D 557     -26.789   1.319 -17.183  1.00 35.49     0.034 C 
BRANCH   2   3
ATOM      3  CG  ARG D 557     -28.238   1.224 -17.398  1.00 35.49     0.027 C 
BRANCH   3   4
ATOM      4  CD  ARG D 557     -28.887   0.281 -16.458  1.00 35.49     0.116 C 
BRANCH   4   5
ATOM      5  NE  ARG D 557     -29.285  -0.941 -17.105  1.00 35.49    -0.212 N 
ATOM      6  CZ  ARG D 557     -28.654  -2.092 -17.028  1.00 35.49     0.666 C 
ATOM      7  NH1 ARG D 557     -27.541  -2.245 -16.335  1.00 35.49    -0.235 N 
ATOM      8  NH2 ARG D 557     -29.171  -3.103 -17.663  1.00 35.49    -0.235 N 
ATOM      9  HH  ARG D 557     -27.184  -1.593 -15.908  1.00 35.49     0.174 HD
ATOM     10  HH  ARG D 557     -27.175  -3.019 -16.319  1.00 35.49     0.174 HD
ATOM     11  HH  ARG D 557     -29.894  -2.976 -18.096  1.00 35.49     0.174 HD
ATOM     12  HH  ARG D 557     -28.794  -3.862 -17.634  1.00 35.49     0.174 HD
ATOM     13  HE  ARG D 557     -29.953  -0.916 -17.631  1.00 35.49     0.178 HD
ENDBRANCH   4   5
ENDBRANCH   3   4
ENDBRANCH   2   3
ENDBRANCH   1   2
END_RES ARG D 557
BEGIN_RES GLU D 570
REMARK  3 active torsions:
REMARK  status: ('A' for Active; 'I' for Inactive)
REMARK    5  A    between atoms: CA   and  CB  
REMARK    6  A    between atoms: CB   and  CG  
REMARK    7  A    between atoms: CG   and  CD  
ROOT
ATOM     14  CA  GLU D 570     -18.033  -6.348 -13.375  1.00 32.92     0.160 C 
ENDROOT
BRANCH  14  15
ATOM     15  CB  GLU D 570     -19.500  -6.345 -13.794  1.00 32.92     0.043 C 
BRANCH  15  16
ATOM     16  CG  GLU D 570     -19.811  -5.960 -15.195  1.00 32.92     0.100 C 
BRANCH  16  17
ATOM     17  CD  GLU D 570     -21.289  -5.762 -15.437  1.00 32.92     0.185 C 
ATOM     18  OE1 GLU D 570     -22.107  -6.410 -14.756  1.00 32.92    -0.647 OA
ATOM     19  OE2 GLU D 570     -21.633  -4.962 -16.330  1.00 32.92    -0.647 OA
ENDBRANCH  16  17
ENDBRANCH  15  16
ENDBRANCH  14  15
END_RES GLU D 570
ENDMDL
MODEL 2
REMARK VINA RESULT:      -6.4      2.379      8.598
REMARK WARNING: 32 MAX_TORS EXCEEDED!!!
REMARK  62 active torsions:
REMARK  status: ('A' for Active; 'I' for Inactive)
REMARK    1  A    between atoms: C_2  and  C_3 
REMARK    2  A    between atoms: C_3  and  C_4 
REMARK    3  A    between atoms: C_4  and  C_5 
REMARK    4  A    between atoms: C_5  and  C_6 
REMARK    5  A    between atoms: C_6  and  C_7 
REMARK    6  A    between atoms: C_7  and  C_8 
REMARK    7  A    between atoms: C_8  and  C_9 
REMARK    8  A    between atoms: C_9  and  C_10 
REMARK    9  A    between atoms: C_9  and  C_16 
REMARK   10  A    between atoms: C_10  and  C_11 
REMARK   11  A    between atoms: C_11  and  C_12 
REMARK   12  A    between atoms: C_12  and  C_13 
REMARK   13  A    between atoms: C_13  and  C_14 
REMARK   14  A    between atoms: C_16  and  O_18 
REMARK   15  A    between atoms: O_18  and  C_19 
REMARK   16  A    between atoms: C_19  and  C_20 
REMARK   17  A    between atoms: C_20  and  C_21 
REMARK   18  A    between atoms: C_20  and  O_63 
REMARK   19  A    between atoms: C_22  and  O_45 
REMARK   20  A    between atoms: C_23  and  O_27 
REMARK   21  A    between atoms: O_27  and  C_28 
REMARK   22  A    between atoms: C_28  and  C_30 
REMARK   23  A    between atoms: C_30  and  C_31 
REMARK   24  A    between atoms: C_30  and  C_37 
REMARK   25  A    between atoms: C_31  and  C_32 
REMARK   26  A    between atoms: C_32  and  C_33 
REMARK   27  A    between atoms: C_33  and  C_34 
REMARK   28  A    between atoms: C_34  and  C_35 
REMARK   29  A    between atoms: C_37  and  C_38 
REMARK   30  A    between atoms: C_38  and  C_39 
REMARK   31  A    between atoms: C_39  and  C_40 
REMARK   32  A    between atoms: C_40  and  C_41 
REMARK   33  A    between atoms: C_41  and  C_42 
REMARK   34  A    between atoms: C_42  and  C_43 
REMARK   35  A    between atoms: O_45  and  C_46 
REMARK   36  A    between atoms: C_46  and  C_48 
REMARK   37  A    between atoms: C_48  and  C_49 
REMARK   38  A    between atoms: C_48  and  C_55 
REMARK   39  A    between atoms: C_49  and  C_50 
REMARK   40  A    between atoms: C_50  and  C_51 
REMARK   41  A    between atoms: C_51  and  C_52 
REMARK   42  A    between atoms: C_52  and  C_53 
REMARK   43  A    between atoms: C_55  and  C_56 
REMARK   44  A    between atoms: C_56  and  C_57 
REMARK   45  A    between atoms: C_57  and  C_58 
REMARK   46  A    between atoms: C_58  and  C_59 
REMARK   47  A    between atoms: C_59  and  C_60 
REMARK   48  A    between atoms: C_60  and  C_61 
REMARK   49  A    between atoms: O_63  and  C_64 
REMARK   50  A    between atoms: C_64  and  C_66 
REMARK   51  A    between atoms: C_66  and  C_67 
REMARK   52  A    between atoms: C_66  and  C_73 
REMARK   53  A    between atoms: C_67  and  C_68 
REMARK   54  A    between atoms: C_68  and  C_69 
REMARK   55  A    between atoms: C_69  and  C_70 
REMARK   56  A    between atoms: C_70  and  C_71 
REMARK   57  A    between atoms: C_73  and  C_74 
REMARK   58  A    between atoms: C_74  and  C_75 
REMARK   59  A    between atoms: C_75  and  C_76 
REMARK   60  A    between atoms: C_76  and  C_77 
REMARK   61  A    between atoms: C_77  and  C_78 
REMARK   62  A    between atoms: C_78  and  C_79 
ROOT
HETATM    1  C   UNL     1     -20.494 -11.717  -4.396  1.00  0.00     0.224 C 
HETATM    2  C   UNL     1     -20.420 -13.093  -3.820  1.00  0.00     0.129 C 
HETATM    3  C   UNL     1     -20.598 -14.012  -4.766  1.00  0.00     0.186 C 
HETATM    4  C   UNL     1     -21.066 -13.300  -5.964  1.00  0.00     0.321 C 
HETATM    5  O   UNL     1     -21.458 -13.810  -6.990  1.00  0.00    -0.257 OA
HETATM    6  O   UNL     1     -21.072 -11.953  -5.691  1.00  0.00    -0.301 OA
ENDROOT
BRANCH   1   7
HETATM    7  C   UNL     1     -21.227 -10.534  -3.708  1.00  0.00     0.192 C 
BRANCH   7   8
HETATM    8  C   UNL     1     -22.506 -10.982  -2.957  1.00  0.00     0.214 C 
BRANCH   8   9
HETATM    9  O   UNL     1     -22.289 -11.310  -1.549  1.00  0.00    -0.319 OA
BRANCH   9  10
HETATM   10  C   UNL     1     -23.349 -11.871  -0.891  1.00  0.00     0.263 C 
HETATM   11  O   UNL     1     -24.429 -11.309  -0.769  1.00  0.00    -0.265 OA
BRANCH  10  12
HETATM   12  C   UNL     1     -23.009 -13.204  -0.199  1.00  0.00     0.085 C 
BRANCH  12  13
HETATM   13  C   UNL     1     -23.114 -13.006   1.339  1.00  0.00     0.014 C 
BRANCH  13  14
HETATM   14  C   UNL     1     -22.814 -14.216   2.225  1.00  0.00     0.001 C 
BRANCH  14  15
HETATM   15  C   UNL     1     -23.961 -14.668   3.127  1.00  0.00     0.000 C 
BRANCH  15  16
HETATM   16  C   UNL     1     -23.364 -15.327   4.373  1.00  0.00     0.000 C 
BRANCH  16  17
HETATM   17  C   UNL     1     -24.416 -15.648   5.424  1.00  0.00     0.000 C 
BRANCH  17  18
HETATM   18  C   UNL     1     -25.805 -15.251   4.926  1.00  0.00    -0.000 C 
BRANCH  18  19
HETATM   19  C   UNL     1     -26.595 -14.560   6.033  1.00  0.00    -0.005 C 
HETATM   20  C   UNL     1     -28.079 -14.861   5.929  1.00  0.00     0.005 C 
ENDBRANCH  18  19
ENDBRANCH  17  18
ENDBRANCH  16  17
ENDBRANCH  15  16
ENDBRANCH  14  15
ENDBRANCH  13  14
ENDBRANCH  12  13
BRANCH  12  21
HETATM   21  C   UNL     1     -23.823 -14.421  -0.701  1.00  0.00     0.014 C 
BRANCH  21  22
HETATM   22  C   UNL     1     -24.089 -14.431  -2.213  1.00  0.00     0.001 C 
BRANCH  22  23
HETATM   23  C   UNL     1     -23.586 -15.662  -2.983  1.00  0.00     0.000 C 
BRANCH  23  24
HETATM   24  C   UNL     1     -23.968 -15.655  -4.464  1.00  0.00    -0.000 C 
BRANCH  24  25
HETATM   25  C   UNL     1     -25.379 -16.193  -4.701  1.00  0.00    -0.005 C 
HETATM   26  C   UNL     1     -25.964 -15.628  -5.987  1.00  0.00     0.005 C 
ENDBRANCH  24  25
ENDBRANCH  23  24
ENDBRANCH  22  23
ENDBRANCH  21  22
ENDBRANCH  12  21
ENDBRANCH  10  12
ENDBRANCH   9  10
ENDBRANCH   8   9
ENDBRANCH   7   8
BRANCH   7  27
HETATM   27  O   UNL     1     -21.495  -9.451  -4.646  1.00  0.00    -0.310 OA
BRANCH  27  28
HETATM   28  C   UNL     1     -20.620  -8.394  -4.573  1.00  0.00     0.263 C 
HETATM   29  O   UNL     1     -19.468  -8.480  -4.170  1.00  0.00    -0.265 OA
BRANCH  28  30
HETATM   30  C   UNL     1     -21.269  -7.081  -4.998  1.00  0.00     0.085 C 
BRANCH  30  31
HETATM   31  C   UNL     1     -21.343  -6.185  -3.748  1.00  0.00     0.014 C 
BRANCH  31  32
HETATM   32  C   UNL     1     -22.446  -6.591  -2.774  1.00  0.00     0.001 C 
BRANCH  32  33
HETATM   33  C   UNL     1     -21.961  -6.541  -1.329  1.00  0.00     0.000 C 
BRANCH  33  34
HETATM   34  C   UNL     1     -21.301  -7.867  -0.966  1.00  0.00    -0.000 C 
BRANCH  34  35
HETATM   35  C   UNL     1     -21.753  -8.353   0.404  1.00  0.00    -0.005 C 
HETATM   36  C   UNL     1     -23.259  -8.218   0.547  1.00  0.00     0.005 C 
ENDBRANCH  34  35
ENDBRANCH  33  34
ENDBRANCH  32  33
ENDBRANCH  31  32
ENDBRANCH  30  31
BRANCH  30  37
HETATM   37  C   UNL     1     -20.454  -6.390  -6.116  1.00  0.00     0.014 C 
BRANCH  37  38
HETATM   38  C   UNL     1     -20.173  -4.912  -5.860  1.00  0.00     0.001 C 
BRANCH  38  39
HETATM   39  C   UNL     1     -20.530  -4.076  -7.091  1.00  0.00     0.000 C 
BRANCH  39  40
HETATM   40  C   UNL     1     -20.532  -4.945  -8.345  1.00  0.00     0.000 C 
BRANCH  40  41
HETATM   41  C   UNL     1     -20.215  -4.122  -9.589  1.00  0.00     0.000 C 
BRANCH  41  42
HETATM   42  C   UNL     1     -21.249  -4.378 -10.683  1.00  0.00    -0.000 C 
BRANCH  42  43
HETATM   43  C   UNL     1     -22.659  -4.066 -10.189  1.00  0.00    -0.005 C 
HETATM   44  C   UNL     1     -23.703  -4.803 -11.010  1.00  0.00     0.005 C 
ENDBRANCH  42  43
ENDBRANCH  41  42
ENDBRANCH  40  41
ENDBRANCH  39  40
ENDBRANCH  38  39
ENDBRANCH  37  38
ENDBRANCH  30  37
ENDBRANCH  28  30
ENDBRANCH  27  28
ENDBRANCH   7  27
ENDBRANCH   1   7
BRANCH   2  45
HETATM   45  O   UNL     1     -19.929 -13.304  -2.530  1.00  0.00    -0.277 OA
BRANCH  45  46
HETATM   46  C   UNL     1     -18.650 -12.853  -2.270  1.00  0.00     0.268 C 
HETATM   47  O   UNL     1     -17.923 -12.297  -3.077  1.00  0.00    -0.264 OA
BRANCH  46  48
HETATM   48  C   UNL     1     -18.305 -13.109  -0.811  1.00  0.00     0.086 C 
BRANCH  48  49
HETATM   49  C   UNL     1     -18.546 -14.587  -0.441  1.00  0.00     0.014 C 
BRANCH  49  50
HETATM   50  C   UNL     1     -19.149 -14.819   0.952  1.00  0.00     0.001 C 
BRANCH  50  51
HETATM   51  C   UNL     1     -18.349 -15.799   1.807  1.00  0.00     0.000 C 
BRANCH  51  52
HETATM   52  C   UNL     1     -17.166 -16.421   1.061  1.00  0.00    -0.000 C 
BRANCH  52  53
HETATM   53  C   UNL     1     -16.119 -16.876   2.070  1.00  0.00    -0.005 C 
HETATM   54  C   UNL     1     -16.449 -16.405   3.462  1.00  0.00     0.005 C 
ENDBRANCH  52  53
ENDBRANCH  51  52
ENDBRANCH  50  51
ENDBRANCH  49  50
ENDBRANCH  48  49
BRANCH  48  55
HETATM   55  C   UNL     1     -16.900 -12.637  -0.369  1.00  0.00     0.014 C 
BRANCH  55  56
HETATM   56  C   UNL     1     -16.549 -12.281   1.098  1.00  0.00     0.001 C 
BRANCH  56  57
HETATM   57  C   UNL     1     -15.526 -13.110   1.928  1.00  0.00     0.000 C 
BRANCH  57  58
HETATM   58  C   UNL     1     -14.409 -13.786   1.171  1.00  0.00     0.000 C 
BRANCH  58  59
HETATM   59  C   UNL     1     -12.672 -14.596   1.340  1.00  0.00     0.000 C 
BRANCH  59  60
HETATM   60  C   UNL     1     -11.127 -13.825   0.576  1.00  0.00    -0.000 C 
BRANCH  60  61
HETATM   61  C   UNL     1     -10.085 -13.435   1.520  1.00  0.00    -0.005 C 
HETATM   62  C   UNL     1      -8.805 -14.134   1.067  1.00  0.00     0.005 C 
ENDBRANCH  60  61
ENDBRANCH  59  60
ENDBRANCH  58  59
ENDBRANCH  57  58
ENDBRANCH  56  57
ENDBRANCH  55  56
ENDBRANCH  48  55
ENDBRANCH  46  48
ENDBRANCH  45  46
ENDBRANCH   2  45
BRANCH   3  63
HETATM   63  O   UNL     1     -20.426 -15.401  -4.686  1.00  0.00    -0.270 OA
BRANCH  63  64
HETATM   64  C   UNL     1     -19.387 -15.866  -5.486  1.00  0.00     0.268 C 
HETATM   65  O   UNL     1     -19.500 -16.382  -6.518  1.00  0.00    -0.264 OA
BRANCH  64  66
HETATM   66  C   UNL     1     -18.043 -15.380  -4.855  1.00  0.00     0.086 C 
BRANCH  66  67
HETATM   67  C   UNL     1     -17.646 -16.130  -3.577  1.00  0.00     0.014 C 
BRANCH  67  68
HETATM   68  C   UNL     1     -16.128 -16.429  -3.368  1.00  0.00     0.001 C 
BRANCH  68  69
HETATM   69  C   UNL     1     -15.444 -15.554  -2.330  1.00  0.00     0.000 C 
BRANCH  69  70
HETATM   70  C   UNL     1     -14.968 -14.200  -2.857  1.00  0.00    -0.000 C 
BRANCH  70  71
HETATM   71  C   UNL     1     -13.570 -13.922  -2.334  1.00  0.00    -0.005 C 
HETATM   72  C   UNL     1     -12.631 -15.078  -2.582  1.00  0.00     0.005 C 
ENDBRANCH  70  71
ENDBRANCH  69  70
ENDBRANCH  68  69
ENDBRANCH  67  68
ENDBRANCH  66  67
BRANCH  66  73
HETATM   73  C   UNL     1     -16.915 -15.336  -5.905  1.00  0.00     0.014 C 
BRANCH  73  74
HETATM   74  C   UNL     1     -16.750 -14.121  -6.887  1.00  0.00     0.001 C 
BRANCH  74  75
HETATM   75  C   UNL     1     -17.536 -12.754  -6.696  1.00  0.00     0.000 C 
BRANCH  75  76
HETATM   76  C   UNL     1     -16.634 -11.619  -6.260  1.00  0.00     0.000 C 
BRANCH  76  77
HETATM   77  C   UNL     1     -15.092 -11.227  -5.147  1.00  0.00     0.000 C 
BRANCH  77  78
HETATM   78  C   UNL     1     -13.411 -12.070  -5.372  1.00  0.00    -0.000 C 
BRANCH  78  79
HETATM   79  C   UNL     1     -13.281 -12.910  -6.600  1.00  0.00    -0.005 C 
HETATM   80  C   UNL     1     -13.231 -14.373  -6.178  1.00  0.00     0.005 C 
ENDBRANCH  78  79
ENDBRANCH  77  78
ENDBRANCH  76  77
ENDBRANCH  75  76
ENDBRANCH  74  75
ENDBRANCH  73  74
ENDBRANCH  66  73
ENDBRANCH  64  66
ENDBRANCH  63  64
ENDBRANCH   3  63
TORSDOF 62
BEGIN_RES ARG D 557
REMARK  4 active torsions:
REMARK  status: ('A' for Active; 'I' for Inactive)
REMARK    1  A    between atoms: CA   and  CB  
REMARK    2  A    between atoms: CB   and  CG  
REMARK    3  A    between atoms: CG   and  CD  
REMARK    4  A    between atoms: CD   and  NE  
REMARK       I    between atoms: NE   and  CZ  
REMARK       I    between atoms: CZ   and  NH1 
REMARK       I    between atoms: CZ   and  NH2 
ROOT
ATOM      1  CA  ARG D 557     -26.217   2.705 -17.014  1.00 35.49     0.159 C 
ENDROOT
BRANCH   1   2
ATOM      2  CB  ARG D 557     -26.789   1.319 -17.183  1.00 35.49     0.034 C 
BRANCH   2   3
ATOM      3  CG  ARG D 557     -25.865   0.195 -16.990  1.00 35.49     0.027 C 
BRANCH   3   4
ATOM      4  CD  ARG D 557     -26.300  -0.713 -15.904  1.00 35.49     0.116 C 
BRANCH   4   5
ATOM      5  NE  ARG D 557     -25.263  -0.930 -14.930  1.00 35.49    -0.212 N 
ATOM      6  CZ  ARG D 557     -24.999  -2.068 -14.329  1.00 35.49     0.666 C 
ATOM      7  NH1 ARG D 557     -25.695  -3.167 -14.555  1.00 35.49    -0.235 N 
ATOM      8  NH2 ARG D 557     -24.006  -2.087 -13.488  1.00 35.49    -0.235 N 
ATOM      9  HH  ARG D 557     -26.351  -3.178 -15.106  1.00 35.49     0.174 HD
ATOM     10  HH  ARG D 557     -25.475  -3.881 -14.136  1.00 35.49     0.174 HD
ATOM     11  HH  ARG D 557     -23.570  -1.364 -13.367  1.00 35.49     0.174 HD
ATOM     12  HH  ARG D 557     -23.804  -2.804 -13.083  1.00 35.49     0.174 HD
ATOM     13  HE  ARG D 557     -24.812  -0.257 -14.670  1.00 35.49     0.178 HD
ENDBRANCH   4   5
ENDBRANCH   3   4
ENDBRANCH   2   3
ENDBRANCH   1   2
END_RES ARG D 557
BEGIN_RES GLU D 570
REMARK  3 active torsions:
REMARK  status: ('A' for Active; 'I' for Inactive)
REMARK    5  A    between atoms: CA   and  CB  
REMARK    6  A    between atoms: CB   and  CG  
REMARK    7  A    between atoms: CG   and  CD  
ROOT
ATOM     14  CA  GLU D 570     -18.033  -6.348 -13.375  1.00 32.92     0.160 C 
ENDROOT
BRANCH  14  15
ATOM     15  CB  GLU D 570     -19.500  -6.345 -13.794  1.00 32.92     0.043 C 
BRANCH  15  16
ATOM     16  CG  GLU D 570     -20.095  -7.641 -14.212  1.00 32.92     0.100 C 
BRANCH  16  17
ATOM     17  CD  GLU D 570     -20.972  -7.519 -15.436  1.00 32.92     0.185 C 
ATOM     18  OE1 GLU D 570     -21.489  -6.417 -15.703  1.00 32.92    -0.647 OA
ATOM     19  OE2 GLU D 570     -21.158  -8.540 -16.126  1.00 32.92    -0.647 OA
ENDBRANCH  16  17
ENDBRANCH  15  16
ENDBRANCH  14  15
END_RES GLU D 570
ENDMDL
MODEL 3
REMARK VINA RESULT:      -6.4      2.347      8.688
REMARK WARNING: 32 MAX_TORS EXCEEDED!!!
REMARK  62 active torsions:
REMARK  status: ('A' for Active; 'I' for Inactive)
REMARK    1  A    between atoms: C_2  and  C_3 
REMARK    2  A    between atoms: C_3  and  C_4 
REMARK    3  A    between atoms: C_4  and  C_5 
REMARK    4  A    between atoms: C_5  and  C_6 
REMARK    5  A    between atoms: C_6  and  C_7 
REMARK    6  A    between atoms: C_7  and  C_8 
REMARK    7  A    between atoms: C_8  and  C_9 
REMARK    8  A    between atoms: C_9  and  C_10 
REMARK    9  A    between atoms: C_9  and  C_16 
REMARK   10  A    between atoms: C_10  and  C_11 
REMARK   11  A    between atoms: C_11  and  C_12 
REMARK   12  A    between atoms: C_12  and  C_13 
REMARK   13  A    between atoms: C_13  and  C_14 
REMARK   14  A    between atoms: C_16  and  O_18 
REMARK   15  A    between atoms: O_18  and  C_19 
REMARK   16  A    between atoms: C_19  and  C_20 
REMARK   17  A    between atoms: C_20  and  C_21 
REMARK   18  A    between atoms: C_20  and  O_63 
REMARK   19  A    between atoms: C_22  and  O_45 
REMARK   20  A    between atoms: C_23  and  O_27 
REMARK   21  A    between atoms: O_27  and  C_28 
REMARK   22  A    between atoms: C_28  and  C_30 
REMARK   23  A    between atoms: C_30  and  C_31 
REMARK   24  A    between atoms: C_30  and  C_37 
REMARK   25  A    between atoms: C_31  and  C_32 
REMARK   26  A    between atoms: C_32  and  C_33 
REMARK   27  A    between atoms: C_33  and  C_34 
REMARK   28  A    between atoms: C_34  and  C_35 
REMARK   29  A    between atoms: C_37  and  C_38 
REMARK   30  A    between atoms: C_38  and  C_39 
REMARK   31  A    between atoms: C_39  and  C_40 
REMARK   32  A    between atoms: C_40  and  C_41 
REMARK   33  A    between atoms: C_41  and  C_42 
REMARK   34  A    between atoms: C_42  and  C_43 
REMARK   35  A    between atoms: O_45  and  C_46 
REMARK   36  A    between atoms: C_46  and  C_48 
REMARK   37  A    between atoms: C_48  and  C_49 
REMARK   38  A    between atoms: C_48  and  C_55 
REMARK   39  A    between atoms: C_49  and  C_50 
REMARK   40  A    between atoms: C_50  and  C_51 
REMARK   41  A    between atoms: C_51  and  C_52 
REMARK   42  A    between atoms: C_52  and  C_53 
REMARK   43  A    between atoms: C_55  and  C_56 
REMARK   44  A    between atoms: C_56  and  C_57 
REMARK   45  A    between atoms: C_57  and  C_58 
REMARK   46  A    between atoms: C_58  and  C_59 
REMARK   47  A    between atoms: C_59  and  C_60 
REMARK   48  A    between atoms: C_60  and  C_61 
REMARK   49  A    between atoms: O_63  and  C_64 
REMARK   50  A    between atoms: C_64  and  C_66 
REMARK   51  A    between atoms: C_66  and  C_67 
REMARK   52  A    between atoms: C_66  and  C_73 
REMARK   53  A    between atoms: C_67  and  C_68 
REMARK   54  A    between atoms: C_68  and  C_69 
REMARK   55  A    between atoms: C_69  and  C_70 
REMARK   56  A    between atoms: C_70  and  C_71 
REMARK   57  A    between atoms: C_73  and  C_74 
REMARK   58  A    between atoms: C_74  and  C_75 
REMARK   59  A    between atoms: C_75  and  C_76 
REMARK   60  A    between atoms: C_76  and  C_77 
REMARK   61  A    between atoms: C_77  and  C_78 
REMARK   62  A    between atoms: C_78  and  C_79 
ROOT
HETATM    1  C   UNL     1     -20.188 -11.286  -4.831  1.00  0.00     0.224 C 
HETATM    2  C   UNL     1     -19.710 -12.461  -4.042  1.00  0.00     0.129 C 
HETATM    3  C   UNL     1     -19.750 -13.571  -4.774  1.00  0.00     0.186 C 
HETATM    4  C   UNL     1     -20.507 -13.246  -5.992  1.00  0.00     0.321 C 
HETATM    5  O   UNL     1     -20.865 -14.033  -6.841  1.00  0.00    -0.257 OA
HETATM    6  O   UNL     1     -20.822 -11.910  -5.961  1.00  0.00    -0.301 OA
ENDROOT
BRANCH   1   7
HETATM    7  C   UNL     1     -21.117 -10.183  -4.257  1.00  0.00     0.192 C 
BRANCH   7   8
HETATM    8  C   UNL     1     -22.332 -10.768  -3.492  1.00  0.00     0.214 C 
BRANCH   8   9
HETATM    9  O   UNL     1     -22.085 -11.008  -2.072  1.00  0.00    -0.319 OA
BRANCH   9  10
HETATM   10  C   UNL     1     -23.123 -11.552  -1.364  1.00  0.00     0.263 C 
HETATM   11  O   UNL     1     -24.207 -10.999  -1.244  1.00  0.00    -0.265 OA
BRANCH  10  12
HETATM   12  C   UNL     1     -22.748 -12.845  -0.617  1.00  0.00     0.085 C 
BRANCH  12  13
HETATM   13  C   UNL     1     -23.247 -12.734   0.851  1.00  0.00     0.014 C 
BRANCH  13  14
HETATM   14  C   UNL     1     -22.655 -13.709   1.869  1.00  0.00     0.001 C 
BRANCH  14  15
HETATM   15  C   UNL     1     -23.670 -14.413   2.769  1.00  0.00     0.000 C 
BRANCH  15  16
HETATM   16  C   UNL     1     -22.907 -15.285   3.768  1.00  0.00     0.000 C 
BRANCH  16  17
HETATM   17  C   UNL     1     -23.772 -15.724   4.940  1.00  0.00     0.000 C 
BRANCH  17  18
HETATM   18  C   UNL     1     -25.207 -15.229   4.758  1.00  0.00    -0.000 C 
BRANCH  18  19
HETATM   19  C   UNL     1     -25.880 -15.026   6.111  1.00  0.00    -0.005 C 
HETATM   20  C   UNL     1     -27.257 -14.404   5.959  1.00  0.00     0.005 C 
ENDBRANCH  18  19
ENDBRANCH  17  18
ENDBRANCH  16  17
ENDBRANCH  15  16
ENDBRANCH  14  15
ENDBRANCH  13  14
ENDBRANCH  12  13
BRANCH  12  21
HETATM   21  C   UNL     1     -23.213 -14.150  -1.308  1.00  0.00     0.014 C 
BRANCH  21  22
HETATM   22  C   UNL     1     -22.533 -14.437  -2.654  1.00  0.00     0.001 C 
BRANCH  22  23
HETATM   23  C   UNL     1     -23.019 -15.685  -3.407  1.00  0.00     0.000 C 
BRANCH  23  24
HETATM   24  C   UNL     1     -24.540 -15.852  -3.398  1.00  0.00    -0.000 C 
BRANCH  24  25
HETATM   25  C   UNL     1     -25.110 -16.047  -4.803  1.00  0.00    -0.005 C 
HETATM   26  C   UNL     1     -24.297 -15.270  -5.829  1.00  0.00     0.005 C 
ENDBRANCH  24  25
ENDBRANCH  23  24
ENDBRANCH  22  23
ENDBRANCH  21  22
ENDBRANCH  12  21
ENDBRANCH  10  12
ENDBRANCH   9  10
ENDBRANCH   8   9
ENDBRANCH   7   8
BRANCH   7  27
HETATM   27  O   UNL     1     -21.524  -9.234  -5.285  1.00  0.00    -0.310 OA
BRANCH  27  28
HETATM   28  C   UNL     1     -20.792  -8.072  -5.322  1.00  0.00     0.263 C 
HETATM   29  O   UNL     1     -19.603  -8.016  -5.604  1.00  0.00    -0.265 OA
BRANCH  28  30
HETATM   30  C   UNL     1     -21.619  -6.859  -4.908  1.00  0.00     0.085 C 
BRANCH  30  31
HETATM   31  C   UNL     1     -21.068  -6.372  -3.556  1.00  0.00     0.014 C 
BRANCH  31  32
HETATM   32  C   UNL     1     -22.095  -6.423  -2.428  1.00  0.00     0.001 C 
BRANCH  32  33
HETATM   33  C   UNL     1     -21.707  -7.445  -1.365  1.00  0.00     0.000 C 
BRANCH  33  34
HETATM   34  C   UNL     1     -22.572  -7.247  -0.125  1.00  0.00    -0.000 C 
BRANCH  34  35
HETATM   35  C   UNL     1     -22.613  -8.507   0.729  1.00  0.00    -0.005 C 
HETATM   36  C   UNL     1     -21.234  -9.137   0.812  1.00  0.00     0.005 C 
ENDBRANCH  34  35
ENDBRANCH  33  34
ENDBRANCH  32  33
ENDBRANCH  31  32
ENDBRANCH  30  31
BRANCH  30  37
HETATM   37  C   UNL     1     -21.532  -5.736  -5.968  1.00  0.00     0.014 C 
BRANCH  37  38
HETATM   38  C   UNL     1     -20.414  -4.729  -5.719  1.00  0.00     0.001 C 
BRANCH  38  39
HETATM   39  C   UNL     1     -19.453  -4.687  -6.908  1.00  0.00     0.000 C 
BRANCH  39  40
HETATM   40  C   UNL     1     -20.104  -5.301  -8.144  1.00  0.00     0.000 C 
BRANCH  40  41
HETATM   41  C   UNL     1     -20.511  -4.226  -9.146  1.00  0.00     0.000 C 
BRANCH  41  42
HETATM   42  C   UNL     1     -22.028  -4.189  -9.310  1.00  0.00    -0.000 C 
BRANCH  42  43
HETATM   43  C   UNL     1     -22.431  -4.464 -10.756  1.00  0.00    -0.005 C 
HETATM   44  C   UNL     1     -21.709  -3.529 -11.713  1.00  0.00     0.005 C 
ENDBRANCH  42  43
ENDBRANCH  41  42
ENDBRANCH  40  41
ENDBRANCH  39  40
ENDBRANCH  38  39
ENDBRANCH  37  38
ENDBRANCH  30  37
ENDBRANCH  28  30
ENDBRANCH  27  28
ENDBRANCH   7  27
ENDBRANCH   1   7
BRANCH   2  45
HETATM   45  O   UNL     1     -19.047 -12.284  -2.825  1.00  0.00    -0.277 OA
BRANCH  45  46
HETATM   46  C   UNL     1     -17.670 -12.192  -2.874  1.00  0.00     0.268 C 
HETATM   47  O   UNL     1     -17.032 -11.680  -3.780  1.00  0.00    -0.264 OA
BRANCH  46  48
HETATM   48  C   UNL     1     -17.073 -12.781  -1.605  1.00  0.00     0.086 C 
BRANCH  48  49
HETATM   49  C   UNL     1     -16.617 -14.236  -1.837  1.00  0.00     0.014 C 
BRANCH  49  50
HETATM   50  C   UNL     1     -17.318 -15.284  -0.960  1.00  0.00     0.001 C 
BRANCH  50  51
HETATM   51  C   UNL     1     -18.831 -15.333  -1.161  1.00  0.00     0.000 C 
BRANCH  51  52
HETATM   52  C   UNL     1     -19.616 -14.830   0.052  1.00  0.00    -0.000 C 
BRANCH  52  53
HETATM   53  C   UNL     1     -18.812 -15.098   1.318  1.00  0.00    -0.005 C 
HETATM   54  C   UNL     1     -19.532 -16.044   2.242  1.00  0.00     0.005 C 
ENDBRANCH  52  53
ENDBRANCH  51  52
ENDBRANCH  50  51
ENDBRANCH  49  50
ENDBRANCH  48  49
BRANCH  48  55
HETATM   55  C   UNL     1     -15.959 -11.936  -0.943  1.00  0.00     0.014 C 
BRANCH  55  56
HETATM   56  C   UNL     1     -15.643 -11.993   0.574  1.00  0.00     0.001 C 
BRANCH  56  57
HETATM   57  C   UNL     1     -15.127 -13.290   1.262  1.00  0.00     0.000 C 
BRANCH  57  58
HETATM   58  C   UNL     1     -13.775 -13.806   0.837  1.00  0.00     0.000 C 
BRANCH  58  59
HETATM   59  C   UNL     1     -12.104 -14.521   1.470  1.00  0.00     0.000 C 
BRANCH  59  60
HETATM   60  C   UNL     1     -10.458 -14.104   0.644  1.00  0.00    -0.000 C 
BRANCH  60  61
HETATM   61  C   UNL     1      -9.440 -13.533   1.521  1.00  0.00    -0.005 C 
HETATM   62  C   UNL     1      -8.307 -14.553   1.592  1.00  0.00     0.005 C 
ENDBRANCH  60  61
ENDBRANCH  59  60
ENDBRANCH  58  59
ENDBRANCH  57  58
ENDBRANCH  56  57
ENDBRANCH  55  56
ENDBRANCH  48  55
ENDBRANCH  46  48
ENDBRANCH  45  46
ENDBRANCH   2  45
BRANCH   3  63
HETATM   63  O   UNL     1     -19.228 -14.838  -4.479  1.00  0.00    -0.270 OA
BRANCH  63  64
HETATM   64  C   UNL     1     -18.469 -15.366  -5.520  1.00  0.00     0.268 C 
HETATM   65  O   UNL     1     -18.840 -16.119  -6.319  1.00  0.00    -0.264 OA
BRANCH  64  66
HETATM   66  C   UNL     1     -17.104 -14.608  -5.548  1.00  0.00     0.086 C 
BRANCH  66  67
HETATM   67  C   UNL     1     -15.969 -15.336  -4.818  1.00  0.00     0.014 C 
BRANCH  67  68
HETATM   68  C   UNL     1     -14.641 -15.563  -5.607  1.00  0.00     0.001 C 
BRANCH  68  69
HETATM   69  C   UNL     1     -13.454 -14.759  -5.101  1.00  0.00     0.000 C 
BRANCH  69  70
HETATM   70  C   UNL     1     -13.701 -13.254  -5.008  1.00  0.00    -0.000 C 
BRANCH  70  71
HETATM   71  C   UNL     1     -13.448 -12.792  -3.585  1.00  0.00    -0.005 C 
HETATM   72  C   UNL     1     -12.904 -13.900  -2.716  1.00  0.00     0.005 C 
ENDBRANCH  70  71
ENDBRANCH  69  70
ENDBRANCH  68  69
ENDBRANCH  67  68
ENDBRANCH  66  67
BRANCH  66  73
HETATM   73  C   UNL     1     -16.727 -14.187  -6.984  1.00  0.00     0.014 C 
BRANCH  73  74
HETATM   74  C   UNL     1     -17.365 -12.926  -7.667  1.00  0.00     0.001 C 
BRANCH  74  75
HETATM   75  C   UNL     1     -18.205 -13.014  -9.013  1.00  0.00     0.000 C 
BRANCH  75  76
HETATM   76  C   UNL     1     -18.619 -14.431  -9.350  1.00  0.00     0.000 C 
BRANCH  76  77
HETATM   77  C   UNL     1     -18.074 -15.982 -10.383  1.00  0.00     0.000 C 
BRANCH  77  78
HETATM   78  C   UNL     1     -17.239 -15.856 -12.079  1.00  0.00    -0.000 C 
BRANCH  78  79
HETATM   79  C   UNL     1     -17.935 -16.580 -13.185  1.00  0.00    -0.005 C 
HETATM   80  C   UNL     1     -17.805 -15.752 -14.457  1.00  0.00     0.005 C 
ENDBRANCH  78  79
ENDBRANCH  77  78
ENDBRANCH  76  77
ENDBRANCH  75  76
ENDBRANCH  74  75
ENDBRANCH  73  74
ENDBRANCH  66  73
ENDBRANCH  64  66
ENDBRANCH  63  64
ENDBRANCH   3  63
TORSDOF 62
BEGIN_RES ARG D 557
REMARK  4 active torsions:
REMARK  status: ('A' for Active; 'I' for Inactive)
REMARK    1  A    between atoms: CA   and  CB  
REMARK    2  A    between atoms: CB   and  CG  
REMARK    3  A    between atoms: CG   and  CD  
REMARK    4  A    between atoms: CD   and  NE  
REMARK       I    between atoms: NE   and  CZ  
REMARK       I    between atoms: CZ   and  NH1 
REMARK       I    between atoms: CZ   and  NH2 
ROOT
ATOM      1  CA  ARG D 557     -26.217   2.705 -17.014  1.00 35.49     0.159 C 
ENDROOT
BRANCH   1   2
ATOM      2  CB  ARG D 557     -26.789   1.319 -17.183  1.00 35.49     0.034 C 
BRANCH   2   3
ATOM      3  CG  ARG D 557     -25.910   0.195 -16.838  1.00 35.49     0.027 C 
BRANCH   3   4
ATOM      4  CD  ARG D 557     -24.897   0.562 -15.822  1.00 35.49     0.116 C 
BRANCH   4   5
ATOM      5  NE  ARG D 557     -23.851  -0.421 -15.720  1.00 35.49    -0.212 N 
ATOM      6  CZ  ARG D 557     -23.844  -1.454 -14.908  1.00 35.49     0.666 C 
ATOM      7  NH1 ARG D 557     -24.828  -1.698 -14.062  1.00 35.49    -0.235 N 
ATOM      8  NH2 ARG D 557     -22.821  -2.256 -14.965  1.00 35.49    -0.235 N 
ATOM      9  HH  ARG D 557     -25.512  -1.185 -14.009  1.00 35.49     0.174 HD
ATOM     10  HH  ARG D 557     -24.770  -2.389 -13.558  1.00 35.49     0.174 HD
ATOM     11  HH  ARG D 557     -22.204  -2.078 -15.527  1.00 35.49     0.174 HD
ATOM     12  HH  ARG D 557     -22.783  -2.936 -14.460  1.00 35.49     0.174 HD
ATOM     13  HE  ARG D 557     -23.145  -0.301 -16.178  1.00 35.49     0.178 HD
ENDBRANCH   4   5
ENDBRANCH   3   4
ENDBRANCH   2   3
ENDBRANCH   1   2
END_RES ARG D 557
BEGIN_RES GLU D 570
REMARK  3 active torsions:
REMARK  status: ('A' for Active; 'I' for Inactive)
REMARK    5  A    between atoms: CA   and  CB  
REMARK    6  A    between atoms: CB   and  CG  
REMARK    7  A    between atoms: CG   and  CD  
ROOT
ATOM     14  CA  GLU D 570     -18.033  -6.348 -13.375  1.00 32.92     0.160 C 
ENDROOT
BRANCH  14  15
ATOM     15  CB  GLU D 570     -19.500  -6.345 -13.794  1.00 32.92     0.043 C 
BRANCH  15  16
ATOM     16  CG  GLU D 570     -19.815  -5.915 -15.181  1.00 32.92     0.100 C 
BRANCH  16  17
ATOM     17  CD  GLU D 570     -21.253  -5.485 -15.352  1.00 32.92     0.185 C 
ATOM     18  OE1 GLU D 570     -21.559  -4.769 -16.325  1.00 32.92    -0.647 OA
ATOM     19  OE2 GLU D 570     -22.080  -5.854 -14.495  1.00 32.92    -0.647 OA
ENDBRANCH  16  17
ENDBRANCH  15  16
ENDBRANCH  14  15
END_RES GLU D 570
ENDMDL
MODEL 4
REMARK VINA RESULT:      -6.2      1.568      2.704
REMARK WARNING: 32 MAX_TORS EXCEEDED!!!
REMARK  62 active torsions:
REMARK  status: ('A' for Active; 'I' for Inactive)
REMARK    1  A    between atoms: C_2  and  C_3 
REMARK    2  A    between atoms: C_3  and  C_4 
REMARK    3  A    between atoms: C_4  and  C_5 
REMARK    4  A    between atoms: C_5  and  C_6 
REMARK    5  A    between atoms: C_6  and  C_7 
REMARK    6  A    between atoms: C_7  and  C_8 
REMARK    7  A    between atoms: C_8  and  C_9 
REMARK    8  A    between atoms: C_9  and  C_10 
REMARK    9  A    between atoms: C_9  and  C_16 
REMARK   10  A    between atoms: C_10  and  C_11 
REMARK   11  A    between atoms: C_11  and  C_12 
REMARK   12  A    between atoms: C_12  and  C_13 
REMARK   13  A    between atoms: C_13  and  C_14 
REMARK   14  A    between atoms: C_16  and  O_18 
REMARK   15  A    between atoms: O_18  and  C_19 
REMARK   16  A    between atoms: C_19  and  C_20 
REMARK   17  A    between atoms: C_20  and  C_21 
REMARK   18  A    between atoms: C_20  and  O_63 
REMARK   19  A    between atoms: C_22  and  O_45 
REMARK   20  A    between atoms: C_23  and  O_27 
REMARK   21  A    between atoms: O_27  and  C_28 
REMARK   22  A    between atoms: C_28  and  C_30 
REMARK   23  A    between atoms: C_30  and  C_31 
REMARK   24  A    between atoms: C_30  and  C_37 
REMARK   25  A    between atoms: C_31  and  C_32 
REMARK   26  A    between atoms: C_32  and  C_33 
REMARK   27  A    between atoms: C_33  and  C_34 
REMARK   28  A    between atoms: C_34  and  C_35 
REMARK   29  A    between atoms: C_37  and  C_38 
REMARK   30  A    between atoms: C_38  and  C_39 
REMARK   31  A    between atoms: C_39  and  C_40 
REMARK   32  A    between atoms: C_40  and  C_41 
REMARK   33  A    between atoms: C_41  and  C_42 
REMARK   34  A    between atoms: C_42  and  C_43 
REMARK   35  A    between atoms: O_45  and  C_46 
REMARK   36  A    between atoms: C_46  and  C_48 
REMARK   37  A    between atoms: C_48  and  C_49 
REMARK   38  A    between atoms: C_48  and  C_55 
REMARK   39  A    between atoms: C_49  and  C_50 
REMARK   40  A    between atoms: C_50  and  C_51 
REMARK   41  A    between atoms: C_51  and  C_52 
REMARK   42  A    between atoms: C_52  and  C_53 
REMARK   43  A    between atoms: C_55  and  C_56 
REMARK   44  A    between atoms: C_56  and  C_57 
REMARK   45  A    between atoms: C_57  and  C_58 
REMARK   46  A    between atoms: C_58  and  C_59 
REMARK   47  A    between atoms: C_59  and  C_60 
REMARK   48  A    between atoms: C_60  and  C_61 
REMARK   49  A    between atoms: O_63  and  C_64 
REMARK   50  A    between atoms: C_64  and  C_66 
REMARK   51  A    between atoms: C_66  and  C_67 
REMARK   52  A    between atoms: C_66  and  C_73 
REMARK   53  A    between atoms: C_67  and  C_68 
REMARK   54  A    between atoms: C_68  and  C_69 
REMARK   55  A    between atoms: C_69  and  C_70 
REMARK   56  A    between atoms: C_70  and  C_71 
REMARK   57  A    between atoms: C_73  and  C_74 
REMARK   58  A    between atoms: C_74  and  C_75 
REMARK   59  A    between atoms: C_75  and  C_76 
REMARK   60  A    between atoms: C_76  and  C_77 
REMARK   61  A    between atoms: C_77  and  C_78 
REMARK   62  A    between atoms: C_78  and  C_79 
ROOT
HETATM    1  C   UNL     1     -21.879  -8.532  -3.760  1.00  0.00     0.224 C 
HETATM    2  C   UNL     1     -21.277  -9.517  -2.812  1.00  0.00     0.129 C 
HETATM    3  C   UNL     1     -21.369  -9.084  -1.557  1.00  0.00     0.186 C 
HETATM    4  C   UNL     1     -21.788  -7.676  -1.627  1.00  0.00     0.321 C 
HETATM    5  O   UNL     1     -21.856  -6.905  -0.695  1.00  0.00    -0.257 OA
HETATM    6  O   UNL     1     -22.005  -7.354  -2.944  1.00  0.00    -0.301 OA
ENDROOT
BRANCH   1   7
HETATM    7  C   UNL     1     -21.246  -8.154  -5.125  1.00  0.00     0.192 C 
BRANCH   7   8
HETATM    8  C   UNL     1     -19.728  -7.864  -5.017  1.00  0.00     0.214 C 
BRANCH   8   9
HETATM    9  O   UNL     1     -18.909  -9.050  -4.771  1.00  0.00    -0.319 OA
BRANCH   9  10
HETATM   10  C   UNL     1     -17.925  -9.303  -5.688  1.00  0.00     0.263 C 
HETATM   11  O   UNL     1     -17.984  -8.924  -6.849  1.00  0.00    -0.265 OA
BRANCH  10  12
HETATM   12  C   UNL     1     -16.815 -10.230  -5.159  1.00  0.00     0.085 C 
BRANCH  12  13
HETATM   13  C   UNL     1     -15.840 -10.554  -6.326  1.00  0.00     0.014 C 
BRANCH  13  14
HETATM   14  C   UNL     1     -15.395 -12.009  -6.484  1.00  0.00     0.001 C 
BRANCH  14  15
HETATM   15  C   UNL     1     -13.912 -12.271  -6.228  1.00  0.00     0.000 C 
BRANCH  15  16
HETATM   16  C   UNL     1     -13.790 -13.299  -5.101  1.00  0.00     0.000 C 
BRANCH  16  17
HETATM   17  C   UNL     1     -13.416 -12.664  -3.770  1.00  0.00     0.000 C 
BRANCH  17  18
HETATM   18  C   UNL     1     -13.546 -13.683  -2.638  1.00  0.00    -0.000 C 
BRANCH  18  19
HETATM   19  C   UNL     1     -12.597 -14.857  -2.862  1.00  0.00    -0.005 C 
HETATM   20  C   UNL     1     -13.279 -16.184  -2.579  1.00  0.00     0.005 C 
ENDBRANCH  18  19
ENDBRANCH  17  18
ENDBRANCH  16  17
ENDBRANCH  15  16
ENDBRANCH  14  15
ENDBRANCH  13  14
ENDBRANCH  12  13
BRANCH  12  21
HETATM   21  C   UNL     1     -16.082  -9.708  -3.899  1.00  0.00     0.014 C 
BRANCH  21  22
HETATM   22  C   UNL     1     -16.667 -10.205  -2.569  1.00  0.00     0.001 C 
BRANCH  22  23
HETATM   23  C   UNL     1     -16.549 -11.713  -2.297  1.00  0.00     0.000 C 
BRANCH  23  24
HETATM   24  C   UNL     1     -17.684 -12.536  -2.910  1.00  0.00    -0.000 C 
BRANCH  24  25
HETATM   25  C   UNL     1     -17.265 -13.978  -3.196  1.00  0.00    -0.005 C 
HETATM   26  C   UNL     1     -17.282 -14.259  -4.692  1.00  0.00     0.005 C 
ENDBRANCH  24  25
ENDBRANCH  23  24
ENDBRANCH  22  23
ENDBRANCH  21  22
ENDBRANCH  12  21
ENDBRANCH  10  12
ENDBRANCH   9  10
ENDBRANCH   8   9
ENDBRANCH   7   8
BRANCH   7  27
HETATM   27  O   UNL     1     -21.966  -7.061  -5.766  1.00  0.00    -0.310 OA
BRANCH  27  28
HETATM   28  C   UNL     1     -21.242  -5.904  -5.921  1.00  0.00     0.263 C 
HETATM   29  O   UNL     1     -20.684  -5.313  -5.006  1.00  0.00    -0.265 OA
BRANCH  28  30
HETATM   30  C   UNL     1     -21.261  -5.402  -7.361  1.00  0.00     0.085 C 
BRANCH  30  31
HETATM   31  C   UNL     1     -21.815  -3.966  -7.335  1.00  0.00     0.014 C 
BRANCH  31  32
HETATM   32  C   UNL     1     -23.017  -3.761  -8.254  1.00  0.00     0.001 C 
BRANCH  32  33
HETATM   33  C   UNL     1     -23.307  -5.010  -9.079  1.00  0.00     0.000 C 
BRANCH  33  34
HETATM   34  C   UNL     1     -24.511  -4.758  -9.981  1.00  0.00    -0.000 C 
BRANCH  34  35
HETATM   35  C   UNL     1     -24.728  -3.269 -10.211  1.00  0.00    -0.005 C 
HETATM   36  C   UNL     1     -24.825  -2.970 -11.697  1.00  0.00     0.005 C 
ENDBRANCH  34  35
ENDBRANCH  33  34
ENDBRANCH  32  33
ENDBRANCH  31  32
ENDBRANCH  30  31
BRANCH  30  37
HETATM   37  C   UNL     1     -19.845  -5.428  -7.981  1.00  0.00     0.014 C 
BRANCH  37  38
HETATM   38  C   UNL     1     -19.539  -4.240  -8.888  1.00  0.00     0.001 C 
BRANCH  38  39
HETATM   39  C   UNL     1     -20.074  -4.489 -10.300  1.00  0.00     0.000 C 
BRANCH  39  40
HETATM   40  C   UNL     1     -20.292  -3.168 -11.030  1.00  0.00     0.000 C 
BRANCH  40  41
HETATM   41  C   UNL     1     -21.526  -3.227 -11.925  1.00  0.00     0.000 C 
BRANCH  41  42
HETATM   42  C   UNL     1     -21.771  -4.654 -12.411  1.00  0.00    -0.000 C 
BRANCH  42  43
HETATM   43  C   UNL     1     -22.514  -4.659 -13.743  1.00  0.00    -0.005 C 
HETATM   44  C   UNL     1     -23.512  -5.804 -13.809  1.00  0.00     0.005 C 
ENDBRANCH  42  43
ENDBRANCH  41  42
ENDBRANCH  40  41
ENDBRANCH  39  40
ENDBRANCH  38  39
ENDBRANCH  37  38
ENDBRANCH  30  37
ENDBRANCH  28  30
ENDBRANCH  27  28
ENDBRANCH   7  27
ENDBRANCH   1   7
BRANCH   2  45
HETATM   45  O   UNL     1     -20.964 -10.813  -3.229  1.00  0.00    -0.277 OA
BRANCH  45  46
HETATM   46  C   UNL     1     -22.013 -11.598  -3.663  1.00  0.00     0.268 C 
HETATM   47  O   UNL     1     -23.180 -11.454  -3.336  1.00  0.00    -0.264 OA
BRANCH  46  48
HETATM   48  C   UNL     1     -21.501 -12.637  -4.649  1.00  0.00     0.086 C 
BRANCH  48  49
HETATM   49  C   UNL     1     -22.658 -13.209  -5.493  1.00  0.00     0.014 C 
BRANCH  49  50
HETATM   50  C   UNL     1     -23.255 -14.524  -4.971  1.00  0.00     0.001 C 
BRANCH  50  51
HETATM   51  C   UNL     1     -22.395 -15.748  -5.276  1.00  0.00     0.000 C 
BRANCH  51  52
HETATM   52  C   UNL     1     -22.128 -15.938  -6.771  1.00  0.00    -0.000 C 
BRANCH  52  53
HETATM   53  C   UNL     1     -20.851 -16.747  -6.955  1.00  0.00    -0.005 C 
HETATM   54  C   UNL     1     -19.805 -16.371  -5.938  1.00  0.00     0.005 C 
ENDBRANCH  52  53
ENDBRANCH  51  52
ENDBRANCH  50  51
ENDBRANCH  49  50
ENDBRANCH  48  49
BRANCH  48  55
HETATM   55  C   UNL     1     -20.321 -12.181  -5.539  1.00  0.00     0.014 C 
BRANCH  55  56
HETATM   56  C   UNL     1     -20.114 -12.680  -6.991  1.00  0.00     0.001 C 
BRANCH  56  57
HETATM   57  C   UNL     1     -18.881 -12.258  -7.842  1.00  0.00     0.000 C 
BRANCH  57  58
HETATM   58  C   UNL     1     -18.240 -13.318  -8.703  1.00  0.00     0.000 C 
BRANCH  58  59
HETATM   59  C   UNL     1     -18.370 -15.146  -9.289  1.00  0.00     0.000 C 
BRANCH  59  60
HETATM   60  C   UNL     1     -17.421 -15.788 -10.791  1.00  0.00    -0.000 C 
BRANCH  60  61
HETATM   61  C   UNL     1     -18.158 -16.702 -11.657  1.00  0.00    -0.005 C 
HETATM   62  C   UNL     1     -17.980 -16.186 -13.083  1.00  0.00     0.005 C 
ENDBRANCH  60  61
ENDBRANCH  59  60
ENDBRANCH  58  59
ENDBRANCH  57  58
ENDBRANCH  56  57
ENDBRANCH  55  56
ENDBRANCH  48  55
ENDBRANCH  46  48
ENDBRANCH  45  46
ENDBRANCH   2  45
BRANCH   3  63
HETATM   63  O   UNL     1     -21.096  -9.772  -0.367  1.00  0.00    -0.270 OA
BRANCH  63  64
HETATM   64  C   UNL     1     -22.190 -10.490   0.107  1.00  0.00     0.268 C 
HETATM   65  O   UNL     1     -23.304 -10.191  -0.009  1.00  0.00    -0.264 OA
BRANCH  64  66
HETATM   66  C   UNL     1     -21.668 -11.867   0.629  1.00  0.00     0.086 C 
BRANCH  66  67
HETATM   67  C   UNL     1     -22.753 -12.944   0.744  1.00  0.00     0.014 C 
BRANCH  67  68
HETATM   68  C   UNL     1     -23.806 -13.024  -0.406  1.00  0.00     0.001 C 
BRANCH  68  69
HETATM   69  C   UNL     1     -23.677 -14.245  -1.304  1.00  0.00     0.000 C 
BRANCH  69  70
HETATM   70  C   UNL     1     -22.585 -15.229  -0.883  1.00  0.00    -0.000 C 
BRANCH  70  71
HETATM   71  C   UNL     1     -23.185 -16.617  -0.753  1.00  0.00    -0.005 C 
HETATM   72  C   UNL     1     -24.691 -16.598  -0.868  1.00  0.00     0.005 C 
ENDBRANCH  70  71
ENDBRANCH  69  70
ENDBRANCH  68  69
ENDBRANCH  67  68
ENDBRANCH  66  67
BRANCH  66  73
HETATM   73  C   UNL     1     -20.432 -12.336  -0.168  1.00  0.00     0.014 C 
BRANCH  73  74
HETATM   74  C   UNL     1     -18.977 -12.178   0.401  1.00  0.00     0.001 C 
BRANCH  74  75
HETATM   75  C   UNL     1     -17.997 -13.413   0.597  1.00  0.00     0.000 C 
BRANCH  75  76
HETATM   76  C   UNL     1     -16.656 -13.007   1.170  1.00  0.00     0.000 C 
BRANCH  76  77
HETATM   77  C   UNL     1     -15.022 -13.744   1.915  1.00  0.00     0.000 C 
BRANCH  77  78
HETATM   78  C   UNL     1     -13.730 -14.660   0.875  1.00  0.00    -0.000 C 
BRANCH  78  79
HETATM   79  C   UNL     1     -12.358 -14.069   0.904  1.00  0.00    -0.005 C 
HETATM   80  C   UNL     1     -11.351 -15.200   1.065  1.00  0.00     0.005 C 
ENDBRANCH  78  79
ENDBRANCH  77  78
ENDBRANCH  76  77
ENDBRANCH  75  76
ENDBRANCH  74  75
ENDBRANCH  73  74
ENDBRANCH  66  73
ENDBRANCH  64  66
ENDBRANCH  63  64
ENDBRANCH   3  63
TORSDOF 62
BEGIN_RES ARG D 557
REMARK  4 active torsions:
REMARK  status: ('A' for Active; 'I' for Inactive)
REMARK    1  A    between atoms: CA   and  CB  
REMARK    2  A    between atoms: CB   and  CG  
REMARK    3  A    between atoms: CG   and  CD  
REMARK    4  A    between atoms: CD   and  NE  
REMARK       I    between atoms: NE   and  CZ  
REMARK       I    between atoms: CZ   and  NH1 
REMARK       I    between atoms: CZ   and  NH2 
ROOT
ATOM      1  CA  ARG D 557     -26.217   2.705 -17.014  1.00 35.49     0.159 C 
ENDROOT
BRANCH   1   2
ATOM      2  CB  ARG D 557     -26.789   1.319 -17.183  1.00 35.49     0.034 C 
BRANCH   2   3
ATOM      3  CG  ARG D 557     -27.891   0.946 -16.289  1.00 35.49     0.027 C 
BRANCH   3   4
ATOM      4  CD  ARG D 557     -28.211  -0.499 -16.359  1.00 35.49     0.116 C 
BRANCH   4   5
ATOM      5  NE  ARG D 557     -27.255  -1.301 -15.642  1.00 35.49    -0.212 N 
ATOM      6  CZ  ARG D 557     -27.095  -2.600 -15.767  1.00 35.49     0.666 C 
ATOM      7  NH1 ARG D 557     -27.833  -3.330 -16.583  1.00 35.49    -0.235 N 
ATOM      8  NH2 ARG D 557     -26.164  -3.161 -15.052  1.00 35.49    -0.235 N 
ATOM      9  HH  ARG D 557     -28.450  -2.981 -17.064  1.00 35.49     0.174 HD
ATOM     10  HH  ARG D 557     -27.681  -4.172 -16.625  1.00 35.49     0.174 HD
ATOM     11  HH  ARG D 557     -25.699  -2.663 -14.539  1.00 35.49     0.174 HD
ATOM     12  HH  ARG D 557     -26.029  -3.996 -15.108  1.00 35.49     0.174 HD
ATOM     13  HE  ARG D 557     -26.787  -0.923 -15.041  1.00 35.49     0.178 HD
ENDBRANCH   4   5
ENDBRANCH   3   4
ENDBRANCH   2   3
ENDBRANCH   1   2
END_RES ARG D 557
BEGIN_RES GLU D 570
REMARK  3 active torsions:
REMARK  status: ('A' for Active; 'I' for Inactive)
REMARK    5  A    between atoms: CA   and  CB  
REMARK    6  A    between atoms: CB   and  CG  
REMARK    7  A    between atoms: CG   and  CD  
ROOT
ATOM     14  CA  GLU D 570     -18.033  -6.348 -13.375  1.00 32.92     0.160 C 
ENDROOT
BRANCH  14  15
ATOM     15  CB  GLU D 570     -19.500  -6.345 -13.794  1.00 32.92     0.043 C 
BRANCH  15  16
ATOM     16  CG  GLU D 570     -20.093  -7.639 -14.219  1.00 32.92     0.100 C 
BRANCH  16  17
ATOM     17  CD  GLU D 570     -20.703  -7.582 -15.600  1.00 32.92     0.185 C 
ATOM     18  OE1 GLU D 570     -21.199  -8.617 -16.086  1.00 32.92    -0.647 OA
ATOM     19  OE2 GLU D 570     -20.669  -6.496 -16.210  1.00 32.92    -0.647 OA
ENDBRANCH  16  17
ENDBRANCH  15  16
ENDBRANCH  14  15
END_RES GLU D 570
ENDMDL
MODEL 5
REMARK VINA RESULT:      -6.1      2.695      9.321
REMARK WARNING: 32 MAX_TORS EXCEEDED!!!
REMARK  62 active torsions:
REMARK  status: ('A' for Active; 'I' for Inactive)
REMARK    1  A    between atoms: C_2  and  C_3 
REMARK    2  A    between atoms: C_3  and  C_4 
REMARK    3  A    between atoms: C_4  and  C_5 
REMARK    4  A    between atoms: C_5  and  C_6 
REMARK    5  A    between atoms: C_6  and  C_7 
REMARK    6  A    between atoms: C_7  and  C_8 
REMARK    7  A    between atoms: C_8  and  C_9 
REMARK    8  A    between atoms: C_9  and  C_10 
REMARK    9  A    between atoms: C_9  and  C_16 
REMARK   10  A    between atoms: C_10  and  C_11 
REMARK   11  A    between atoms: C_11  and  C_12 
REMARK   12  A    between atoms: C_12  and  C_13 
REMARK   13  A    between atoms: C_13  and  C_14 
REMARK   14  A    between atoms: C_16  and  O_18 
REMARK   15  A    between atoms: O_18  and  C_19 
REMARK   16  A    between atoms: C_19  and  C_20 
REMARK   17  A    between atoms: C_20  and  C_21 
REMARK   18  A    between atoms: C_20  and  O_63 
REMARK   19  A    between atoms: C_22  and  O_45 
REMARK   20  A    between atoms: C_23  and  O_27 
REMARK   21  A    between atoms: O_27  and  C_28 
REMARK   22  A    between atoms: C_28  and  C_30 
REMARK   23  A    between atoms: C_30  and  C_31 
REMARK   24  A    between atoms: C_30  and  C_37 
REMARK   25  A    between atoms: C_31  and  C_32 
REMARK   26  A    between atoms: C_32  and  C_33 
REMARK   27  A    between atoms: C_33  and  C_34 
REMARK   28  A    between atoms: C_34  and  C_35 
REMARK   29  A    between atoms: C_37  and  C_38 
REMARK   30  A    between atoms: C_38  and  C_39 
REMARK   31  A    between atoms: C_39  and  C_40 
REMARK   32  A    between atoms: C_40  and  C_41 
REMARK   33  A    between atoms: C_41  and  C_42 
REMARK   34  A    between atoms: C_42  and  C_43 
REMARK   35  A    between atoms: O_45  and  C_46 
REMARK   36  A    between atoms: C_46  and  C_48 
REMARK   37  A    between atoms: C_48  and  C_49 
REMARK   38  A    between atoms: C_48  and  C_55 
REMARK   39  A    between atoms: C_49  and  C_50 
REMARK   40  A    between atoms: C_50  and  C_51 
REMARK   41  A    between atoms: C_51  and  C_52 
REMARK   42  A    between atoms: C_52  and  C_53 
REMARK   43  A    between atoms: C_55  and  C_56 
REMARK   44  A    between atoms: C_56  and  C_57 
REMARK   45  A    between atoms: C_57  and  C_58 
REMARK   46  A    between atoms: C_58  and  C_59 
REMARK   47  A    between atoms: C_59  and  C_60 
REMARK   48  A    between atoms: C_60  and  C_61 
REMARK   49  A    between atoms: O_63  and  C_64 
REMARK   50  A    between atoms: C_64  and  C_66 
REMARK   51  A    between atoms: C_66  and  C_67 
REMARK   52  A    between atoms: C_66  and  C_73 
REMARK   53  A    between atoms: C_67  and  C_68 
REMARK   54  A    between atoms: C_68  and  C_69 
REMARK   55  A    between atoms: C_69  and  C_70 
REMARK   56  A    between atoms: C_70  and  C_71 
REMARK   57  A    between atoms: C_73  and  C_74 
REMARK   58  A    between atoms: C_74  and  C_75 
REMARK   59  A    between atoms: C_75  and  C_76 
REMARK   60  A    between atoms: C_76  and  C_77 
REMARK   61  A    between atoms: C_77  and  C_78 
REMARK   62  A    between atoms: C_78  and  C_79 
ROOT
HETATM    1  C   UNL     1     -21.804 -12.792  -3.841  1.00  0.00     0.224 C 
HETATM    2  C   UNL     1     -20.797 -13.891  -3.919  1.00  0.00     0.129 C 
HETATM    3  C   UNL     1     -21.331 -14.986  -4.454  1.00  0.00     0.186 C 
HETATM    4  C   UNL     1     -22.783 -14.763  -4.510  1.00  0.00     0.321 C 
HETATM    5  O   UNL     1     -23.620 -15.583  -4.817  1.00  0.00    -0.257 OA
HETATM    6  O   UNL     1     -23.042 -13.489  -4.067  1.00  0.00    -0.301 OA
ENDROOT
BRANCH   1   7
HETATM    7  C   UNL     1     -21.956 -11.847  -2.619  1.00  0.00     0.192 C 
BRANCH   7   8
HETATM    8  C   UNL     1     -23.058 -12.317  -1.637  1.00  0.00     0.214 C 
BRANCH   8   9
HETATM    9  O   UNL     1     -22.554 -13.052  -0.479  1.00  0.00    -0.319 OA
BRANCH   9  10
HETATM   10  C   UNL     1     -22.965 -14.352  -0.363  1.00  0.00     0.263 C 
HETATM   11  O   UNL     1     -22.728 -15.202  -1.210  1.00  0.00    -0.265 OA
BRANCH  10  12
HETATM   12  C   UNL     1     -23.874 -14.604   0.854  1.00  0.00     0.085 C 
BRANCH  12  13
HETATM   13  C   UNL     1     -24.194 -16.124   0.928  1.00  0.00     0.014 C 
BRANCH  13  14
HETATM   14  C   UNL     1     -25.657 -16.541   0.766  1.00  0.00     0.001 C 
BRANCH  14  15
HETATM   15  C   UNL     1     -26.220 -16.421  -0.648  1.00  0.00     0.000 C 
BRANCH  15  16
HETATM   16  C   UNL     1     -27.688 -16.854  -0.622  1.00  0.00     0.000 C 
BRANCH  16  17
HETATM   17  C   UNL     1     -28.405 -16.411   0.643  1.00  0.00     0.000 C 
BRANCH  17  18
HETATM   18  C   UNL     1     -29.630 -15.565   0.293  1.00  0.00    -0.000 C 
BRANCH  18  19
HETATM   19  C   UNL     1     -30.550 -15.426   1.502  1.00  0.00    -0.005 C 
HETATM   20  C   UNL     1     -31.737 -16.368   1.407  1.00  0.00     0.005 C 
ENDBRANCH  18  19
ENDBRANCH  17  18
ENDBRANCH  16  17
ENDBRANCH  15  16
ENDBRANCH  14  15
ENDBRANCH  13  14
ENDBRANCH  12  13
BRANCH  12  21
HETATM   21  C   UNL     1     -23.334 -14.043   2.192  1.00  0.00     0.014 C 
BRANCH  21  22
HETATM   22  C   UNL     1     -23.725 -14.861   3.431  1.00  0.00     0.001 C 
BRANCH  22  23
HETATM   23  C   UNL     1     -22.565 -15.416   4.272  1.00  0.00     0.000 C 
BRANCH  23  24
HETATM   24  C   UNL     1     -21.771 -16.519   3.569  1.00  0.00    -0.000 C 
BRANCH  24  25
HETATM   25  C   UNL     1     -20.597 -15.964   2.762  1.00  0.00    -0.005 C 
HETATM   26  C   UNL     1     -20.503 -16.647   1.405  1.00  0.00     0.005 C 
ENDBRANCH  24  25
ENDBRANCH  23  24
ENDBRANCH  22  23
ENDBRANCH  21  22
ENDBRANCH  12  21
ENDBRANCH  10  12
ENDBRANCH   9  10
ENDBRANCH   8   9
ENDBRANCH   7   8
BRANCH   7  27
HETATM   27  O   UNL     1     -22.146 -10.462  -3.031  1.00  0.00    -0.310 OA
BRANCH  27  28
HETATM   28  C   UNL     1     -21.013  -9.686  -2.992  1.00  0.00     0.263 C 
HETATM   29  O   UNL     1     -19.923 -10.078  -2.596  1.00  0.00    -0.265 OA
BRANCH  28  30
HETATM   30  C   UNL     1     -21.280  -8.255  -3.444  1.00  0.00     0.085 C 
BRANCH  30  31
HETATM   31  C   UNL     1     -21.041  -7.342  -2.228  1.00  0.00     0.014 C 
BRANCH  31  32
HETATM   32  C   UNL     1     -22.327  -6.776  -1.630  1.00  0.00     0.001 C 
BRANCH  32  33
HETATM   33  C   UNL     1     -22.417  -7.054  -0.134  1.00  0.00     0.000 C 
BRANCH  33  34
HETATM   34  C   UNL     1     -22.355  -8.559   0.110  1.00  0.00    -0.000 C 
BRANCH  34  35
HETATM   35  C   UNL     1     -21.217  -8.920   1.055  1.00  0.00    -0.005 C 
HETATM   36  C   UNL     1     -20.782 -10.359   0.838  1.00  0.00     0.005 C 
ENDBRANCH  34  35
ENDBRANCH  33  34
ENDBRANCH  32  33
ENDBRANCH  31  32
ENDBRANCH  30  31
BRANCH  30  37
HETATM   37  C   UNL     1     -20.353  -7.855  -4.615  1.00  0.00     0.014 C 
BRANCH  37  38
HETATM   38  C   UNL     1     -21.091  -7.330  -5.843  1.00  0.00     0.001 C 
BRANCH  38  39
HETATM   39  C   UNL     1     -21.648  -5.930  -5.579  1.00  0.00     0.000 C 
BRANCH  39  40
HETATM   40  C   UNL     1     -20.543  -4.885  -5.691  1.00  0.00     0.000 C 
BRANCH  40  41
HETATM   41  C   UNL     1     -20.704  -4.043  -6.953  1.00  0.00     0.000 C 
BRANCH  41  42
HETATM   42  C   UNL     1     -19.679  -4.452  -8.008  1.00  0.00    -0.000 C 
BRANCH  42  43
HETATM   43  C   UNL     1     -20.290  -4.427  -9.406  1.00  0.00    -0.005 C 
HETATM   44  C   UNL     1     -21.808  -4.401  -9.340  1.00  0.00     0.005 C 
ENDBRANCH  42  43
ENDBRANCH  41  42
ENDBRANCH  40  41
ENDBRANCH  39  40
ENDBRANCH  38  39
ENDBRANCH  37  38
ENDBRANCH  30  37
ENDBRANCH  28  30
ENDBRANCH  27  28
ENDBRANCH   7  27
ENDBRANCH   1   7
BRANCH   2  45
HETATM   45  O   UNL     1     -19.438 -13.632  -3.723  1.00  0.00    -0.277 OA
BRANCH  45  46
HETATM   46  C   UNL     1     -18.931 -13.888  -2.465  1.00  0.00     0.268 C 
HETATM   47  O   UNL     1     -19.592 -14.225  -1.496  1.00  0.00    -0.264 OA
BRANCH  46  48
HETATM   48  C   UNL     1     -17.418 -13.737  -2.484  1.00  0.00     0.086 C 
BRANCH  48  49
HETATM   49  C   UNL     1     -16.848 -14.089  -3.873  1.00  0.00     0.014 C 
BRANCH  49  50
HETATM   50  C   UNL     1     -15.329 -14.310  -3.916  1.00  0.00     0.001 C 
BRANCH  50  51
HETATM   51  C   UNL     1     -14.905 -15.709  -3.474  1.00  0.00     0.000 C 
BRANCH  51  52
HETATM   52  C   UNL     1     -14.348 -16.559  -4.619  1.00  0.00    -0.000 C 
BRANCH  52  53
HETATM   53  C   UNL     1     -14.319 -15.727  -5.895  1.00  0.00    -0.005 C 
HETATM   54  C   UNL     1     -12.932 -15.654  -6.477  1.00  0.00     0.005 C 
ENDBRANCH  52  53
ENDBRANCH  51  52
ENDBRANCH  50  51
ENDBRANCH  49  50
ENDBRANCH  48  49
BRANCH  48  55
HETATM   55  C   UNL     1     -16.881 -12.376  -1.979  1.00  0.00     0.014 C 
BRANCH  55  56
HETATM   56  C   UNL     1     -16.864 -11.976  -0.482  1.00  0.00     0.001 C 
BRANCH  56  57
HETATM   57  C   UNL     1     -15.608 -12.184   0.413  1.00  0.00     0.000 C 
BRANCH  57  58
HETATM   58  C   UNL     1     -14.891 -13.506   0.302  1.00  0.00     0.000 C 
BRANCH  58  59
HETATM   59  C   UNL     1     -13.311 -14.477   0.815  1.00  0.00     0.000 C 
BRANCH  59  60
HETATM   60  C   UNL     1     -11.603 -13.671   0.841  1.00  0.00    -0.000 C 
BRANCH  60  61
HETATM   61  C   UNL     1     -10.498 -14.551   1.211  1.00  0.00    -0.005 C 
HETATM   62  C   UNL     1      -9.405 -13.654   1.787  1.00  0.00     0.005 C 
ENDBRANCH  60  61
ENDBRANCH  59  60
ENDBRANCH  58  59
ENDBRANCH  57  58
ENDBRANCH  56  57
ENDBRANCH  55  56
ENDBRANCH  48  55
ENDBRANCH  46  48
ENDBRANCH  45  46
ENDBRANCH   2  45
BRANCH   3  63
HETATM   63  O   UNL     1     -20.694 -16.164  -4.866  1.00  0.00    -0.270 OA
BRANCH  63  64
HETATM   64  C   UNL     1     -20.741 -16.352  -6.244  1.00  0.00     0.268 C 
HETATM   65  O   UNL     1     -21.587 -16.884  -6.831  1.00  0.00    -0.264 OA
BRANCH  64  66
HETATM   66  C   UNL     1     -19.567 -15.539  -6.878  1.00  0.00     0.086 C 
BRANCH  66  67
HETATM   67  C   UNL     1     -18.642 -16.370  -7.775  1.00  0.00     0.014 C 
BRANCH  67  68
HETATM   68  C   UNL     1     -18.290 -15.782  -9.177  1.00  0.00     0.001 C 
BRANCH  68  69
HETATM   69  C   UNL     1     -17.656 -16.772 -10.142  1.00  0.00     0.000 C 
BRANCH  69  70
HETATM   70  C   UNL     1     -18.251 -16.755 -11.550  1.00  0.00    -0.000 C 
BRANCH  70  71
HETATM   71  C   UNL     1     -17.264 -16.108 -12.503  1.00  0.00    -0.005 C 
HETATM   72  C   UNL     1     -17.821 -15.983 -13.901  1.00  0.00     0.005 C 
ENDBRANCH  70  71
ENDBRANCH  69  70
ENDBRANCH  68  69
ENDBRANCH  67  68
ENDBRANCH  66  67
BRANCH  66  73
HETATM   73  C   UNL     1     -20.081 -14.256  -7.563  1.00  0.00     0.014 C 
BRANCH  73  74
HETATM   74  C   UNL     1     -19.481 -12.845  -7.227  1.00  0.00     0.001 C 
BRANCH  74  75
HETATM   75  C   UNL     1     -18.259 -12.221  -8.029  1.00  0.00     0.000 C 
BRANCH  75  76
HETATM   76  C   UNL     1     -16.919 -12.711  -7.523  1.00  0.00     0.000 C 
BRANCH  76  77
HETATM   77  C   UNL     1     -15.220 -12.080  -6.827  1.00  0.00     0.000 C 
BRANCH  77  78
HETATM   78  C   UNL     1     -15.070 -11.019  -5.265  1.00  0.00    -0.000 C 
BRANCH  78  79
HETATM   79  C   UNL     1     -15.817  -9.726  -5.301  1.00  0.00    -0.005 C 
HETATM   80  C   UNL     1     -17.252  -9.988  -4.863  1.00  0.00     0.005 C 
ENDBRANCH  78  79
ENDBRANCH  77  78
ENDBRANCH  76  77
ENDBRANCH  75  76
ENDBRANCH  74  75
ENDBRANCH  73  74
ENDBRANCH  66  73
ENDBRANCH  64  66
ENDBRANCH  63  64
ENDBRANCH   3  63
TORSDOF 62
BEGIN_RES ARG D 557
REMARK  4 active torsions:
REMARK  status: ('A' for Active; 'I' for Inactive)
REMARK    1  A    between atoms: CA   and  CB  
REMARK    2  A    between atoms: CB   and  CG  
REMARK    3  A    between atoms: CG   and  CD  
REMARK    4  A    between atoms: CD   and  NE  
REMARK       I    between atoms: NE   and  CZ  
REMARK       I    between atoms: CZ   and  NH1 
REMARK       I    between atoms: CZ   and  NH2 
ROOT
ATOM      1  CA  ARG D 557     -26.217   2.705 -17.014  1.00 35.49     0.159 C 
ENDROOT
BRANCH   1   2
ATOM      2  CB  ARG D 557     -26.789   1.319 -17.183  1.00 35.49     0.034 C 
BRANCH   2   3
ATOM      3  CG  ARG D 557     -28.231   1.226 -17.442  1.00 35.49     0.027 C 
BRANCH   3   4
ATOM      4  CD  ARG D 557     -28.918   0.324 -16.490  1.00 35.49     0.116 C 
BRANCH   4   5
ATOM      5  NE  ARG D 557     -29.298  -0.922 -17.102  1.00 35.49    -0.212 N 
ATOM      6  CZ  ARG D 557     -28.643  -2.057 -17.003  1.00 35.49     0.666 C 
ATOM      7  NH1 ARG D 557     -27.520  -2.171 -16.318  1.00 35.49    -0.235 N 
ATOM      8  NH2 ARG D 557     -29.145  -3.095 -17.607  1.00 35.49    -0.235 N 
ATOM      9  HH  ARG D 557     -27.173  -1.502 -15.911  1.00 35.49     0.174 HD
ATOM     10  HH  ARG D 557     -27.138  -2.937 -16.287  1.00 35.49     0.174 HD
ATOM     11  HH  ARG D 557     -29.876  -2.993 -18.036  1.00 35.49     0.174 HD
ATOM     12  HH  ARG D 557     -28.753  -3.845 -17.563  1.00 35.49     0.174 HD
ATOM     13  HE  ARG D 557     -29.971  -0.923 -17.621  1.00 35.49     0.178 HD
ENDBRANCH   4   5
ENDBRANCH   3   4
ENDBRANCH   2   3
ENDBRANCH   1   2
END_RES ARG D 557
BEGIN_RES GLU D 570
REMARK  3 active torsions:
REMARK  status: ('A' for Active; 'I' for Inactive)
REMARK    5  A    between atoms: CA   and  CB  
REMARK    6  A    between atoms: CB   and  CG  
REMARK    7  A    between atoms: CG   and  CD  
ROOT
ATOM     14  CA  GLU D 570     -18.033  -6.348 -13.375  1.00 32.92     0.160 C 
ENDROOT
BRANCH  14  15
ATOM     15  CB  GLU D 570     -19.500  -6.345 -13.794  1.00 32.92     0.043 C 
BRANCH  15  16
ATOM     16  CG  GLU D 570     -20.448  -5.559 -12.963  1.00 32.92     0.100 C 
BRANCH  16  17
ATOM     17  CD  GLU D 570     -21.737  -5.239 -13.682  1.00 32.92     0.185 C 
ATOM     18  OE1 GLU D 570     -22.271  -4.127 -13.502  1.00 32.92    -0.647 OA
ATOM     19  OE2 GLU D 570     -22.228  -6.116 -14.420  1.00 32.92    -0.647 OA
ENDBRANCH  16  17
ENDBRANCH  15  16
ENDBRANCH  14  15
END_RES GLU D 570
ENDMDL
MODEL 6
REMARK VINA RESULT:      -5.8      2.199      8.615
REMARK WARNING: 32 MAX_TORS EXCEEDED!!!
REMARK  62 active torsions:
REMARK  status: ('A' for Active; 'I' for Inactive)
REMARK    1  A    between atoms: C_2  and  C_3 
REMARK    2  A    between atoms: C_3  and  C_4 
REMARK    3  A    between atoms: C_4  and  C_5 
REMARK    4  A    between atoms: C_5  and  C_6 
REMARK    5  A    between atoms: C_6  and  C_7 
REMARK    6  A    between atoms: C_7  and  C_8 
REMARK    7  A    between atoms: C_8  and  C_9 
REMARK    8  A    between atoms: C_9  and  C_10 
REMARK    9  A    between atoms: C_9  and  C_16 
REMARK   10  A    between atoms: C_10  and  C_11 
REMARK   11  A    between atoms: C_11  and  C_12 
REMARK   12  A    between atoms: C_12  and  C_13 
REMARK   13  A    between atoms: C_13  and  C_14 
REMARK   14  A    between atoms: C_16  and  O_18 
REMARK   15  A    between atoms: O_18  and  C_19 
REMARK   16  A    between atoms: C_19  and  C_20 
REMARK   17  A    between atoms: C_20  and  C_21 
REMARK   18  A    between atoms: C_20  and  O_63 
REMARK   19  A    between atoms: C_22  and  O_45 
REMARK   20  A    between atoms: C_23  and  O_27 
REMARK   21  A    between atoms: O_27  and  C_28 
REMARK   22  A    between atoms: C_28  and  C_30 
REMARK   23  A    between atoms: C_30  and  C_31 
REMARK   24  A    between atoms: C_30  and  C_37 
REMARK   25  A    between atoms: C_31  and  C_32 
REMARK   26  A    between atoms: C_32  and  C_33 
REMARK   27  A    between atoms: C_33  and  C_34 
REMARK   28  A    between atoms: C_34  and  C_35 
REMARK   29  A    between atoms: C_37  and  C_38 
REMARK   30  A    between atoms: C_38  and  C_39 
REMARK   31  A    between atoms: C_39  and  C_40 
REMARK   32  A    between atoms: C_40  and  C_41 
REMARK   33  A    between atoms: C_41  and  C_42 
REMARK   34  A    between atoms: C_42  and  C_43 
REMARK   35  A    between atoms: O_45  and  C_46 
REMARK   36  A    between atoms: C_46  and  C_48 
REMARK   37  A    between atoms: C_48  and  C_49 
REMARK   38  A    between atoms: C_48  and  C_55 
REMARK   39  A    between atoms: C_49  and  C_50 
REMARK   40  A    between atoms: C_50  and  C_51 
REMARK   41  A    between atoms: C_51  and  C_52 
REMARK   42  A    between atoms: C_52  and  C_53 
REMARK   43  A    between atoms: C_55  and  C_56 
REMARK   44  A    between atoms: C_56  and  C_57 
REMARK   45  A    between atoms: C_57  and  C_58 
REMARK   46  A    between atoms: C_58  and  C_59 
REMARK   47  A    between atoms: C_59  and  C_60 
REMARK   48  A    between atoms: C_60  and  C_61 
REMARK   49  A    between atoms: O_63  and  C_64 
REMARK   50  A    between atoms: C_64  and  C_66 
REMARK   51  A    between atoms: C_66  and  C_67 
REMARK   52  A    between atoms: C_66  and  C_73 
REMARK   53  A    between atoms: C_67  and  C_68 
REMARK   54  A    between atoms: C_68  and  C_69 
REMARK   55  A    between atoms: C_69  and  C_70 
REMARK   56  A    between atoms: C_70  and  C_71 
REMARK   57  A    between atoms: C_73  and  C_74 
REMARK   58  A    between atoms: C_74  and  C_75 
REMARK   59  A    between atoms: C_75  and  C_76 
REMARK   60  A    between atoms: C_76  and  C_77 
REMARK   61  A    between atoms: C_77  and  C_78 
REMARK   62  A    between atoms: C_78  and  C_79 
ROOT
HETATM    1  C   UNL     1     -20.410 -12.932  -3.232  1.00  0.00     0.224 C 
HETATM    2  C   UNL     1     -19.415 -13.732  -4.006  1.00  0.00     0.129 C 
HETATM    3  C   UNL     1     -19.924 -14.909  -4.358  1.00  0.00     0.186 C 
HETATM    4  C   UNL     1     -21.181 -15.065  -3.611  1.00  0.00     0.321 C 
HETATM    5  O   UNL     1     -21.867 -16.064  -3.568  1.00  0.00    -0.257 OA
HETATM    6  O   UNL     1     -21.402 -13.916  -2.892  1.00  0.00    -0.301 OA
ENDROOT
BRANCH   1   7
HETATM    7  C   UNL     1     -20.053 -12.098  -1.972  1.00  0.00     0.192 C 
BRANCH   7   8
HETATM    8  C   UNL     1     -20.329 -12.865  -0.654  1.00  0.00     0.214 C 
BRANCH   8   9
HETATM    9  O   UNL     1     -19.251 -13.767  -0.251  1.00  0.00    -0.319 OA
BRANCH   9  10
HETATM   10  C   UNL     1     -19.539 -15.104  -0.289  1.00  0.00     0.263 C 
HETATM   11  O   UNL     1     -18.945 -15.892  -1.012  1.00  0.00    -0.265 OA
BRANCH  10  12
HETATM   12  C   UNL     1     -20.769 -15.494   0.551  1.00  0.00     0.085 C 
BRANCH  12  13
HETATM   13  C   UNL     1     -21.204 -16.933   0.156  1.00  0.00     0.014 C 
BRANCH  13  14
HETATM   14  C   UNL     1     -22.579 -17.097  -0.496  1.00  0.00     0.001 C 
BRANCH  14  15
HETATM   15  C   UNL     1     -23.769 -17.026   0.459  1.00  0.00     0.000 C 
BRANCH  15  16
HETATM   16  C   UNL     1     -24.496 -15.700   0.227  1.00  0.00     0.000 C 
BRANCH  16  17
HETATM   17  C   UNL     1     -24.249 -15.134  -1.164  1.00  0.00     0.000 C 
BRANCH  17  18
HETATM   18  C   UNL     1     -24.385 -13.611  -1.151  1.00  0.00    -0.000 C 
BRANCH  18  19
HETATM   19  C   UNL     1     -23.650 -13.017   0.046  1.00  0.00    -0.005 C 
HETATM   20  C   UNL     1     -23.753 -11.502   0.066  1.00  0.00     0.005 C 
ENDBRANCH  18  19
ENDBRANCH  17  18
ENDBRANCH  16  17
ENDBRANCH  15  16
ENDBRANCH  14  15
ENDBRANCH  13  14
ENDBRANCH  12  13
BRANCH  12  21
HETATM   21  C   UNL     1     -20.591 -15.323   2.079  1.00  0.00     0.014 C 
BRANCH  21  22
HETATM   22  C   UNL     1     -21.852 -14.855   2.820  1.00  0.00     0.001 C 
BRANCH  22  23
HETATM   23  C   UNL     1     -22.594 -15.923   3.638  1.00  0.00     0.000 C 
BRANCH  23  24
HETATM   24  C   UNL     1     -23.060 -15.430   5.009  1.00  0.00    -0.000 C 
BRANCH  24  25
HETATM   25  C   UNL     1     -24.582 -15.445   5.144  1.00  0.00    -0.005 C 
HETATM   26  C   UNL     1     -25.233 -15.963   3.869  1.00  0.00     0.005 C 
ENDBRANCH  24  25
ENDBRANCH  23  24
ENDBRANCH  22  23
ENDBRANCH  21  22
ENDBRANCH  12  21
ENDBRANCH  10  12
ENDBRANCH   9  10
ENDBRANCH   8   9
ENDBRANCH   7   8
BRANCH   7  27
HETATM   27  O   UNL     1     -20.702 -10.793  -1.990  1.00  0.00    -0.310 OA
BRANCH  27  28
HETATM   28  C   UNL     1     -20.151  -9.886  -2.863  1.00  0.00     0.263 C 
HETATM   29  O   UNL     1     -18.974  -9.880  -3.198  1.00  0.00    -0.265 OA
BRANCH  28  30
HETATM   30  C   UNL     1     -21.165  -8.844  -3.324  1.00  0.00     0.085 C 
BRANCH  30  31
HETATM   31  C   UNL     1     -20.829  -7.530  -2.597  1.00  0.00     0.014 C 
BRANCH  31  32
HETATM   32  C   UNL     1     -22.051  -6.656  -2.326  1.00  0.00     0.001 C 
BRANCH  32  33
HETATM   33  C   UNL     1     -22.341  -6.549  -0.833  1.00  0.00     0.000 C 
BRANCH  33  34
HETATM   34  C   UNL     1     -22.588  -7.940  -0.260  1.00  0.00    -0.000 C 
BRANCH  34  35
HETATM   35  C   UNL     1     -21.988  -8.080   1.133  1.00  0.00    -0.005 C 
HETATM   36  C   UNL     1     -20.973  -9.209   1.164  1.00  0.00     0.005 C 
ENDBRANCH  34  35
ENDBRANCH  33  34
ENDBRANCH  32  33
ENDBRANCH  31  32
ENDBRANCH  30  31
BRANCH  30  37
HETATM   37  C   UNL     1     -21.107  -8.648  -4.857  1.00  0.00     0.014 C 
BRANCH  37  38
HETATM   38  C   UNL     1     -20.136  -7.562  -5.311  1.00  0.00     0.001 C 
BRANCH  38  39
HETATM   39  C   UNL     1     -20.812  -6.620  -6.309  1.00  0.00     0.000 C 
BRANCH  39  40
HETATM   40  C   UNL     1     -19.828  -5.561  -6.795  1.00  0.00     0.000 C 
BRANCH  40  41
HETATM   41  C   UNL     1     -20.555  -4.315  -7.290  1.00  0.00     0.000 C 
BRANCH  41  42
HETATM   42  C   UNL     1     -20.374  -4.149  -8.797  1.00  0.00    -0.000 C 
BRANCH  42  43
HETATM   43  C   UNL     1     -21.657  -4.500  -9.545  1.00  0.00    -0.005 C 
HETATM   44  C   UNL     1     -22.839  -3.711  -9.008  1.00  0.00     0.005 C 
ENDBRANCH  42  43
ENDBRANCH  41  42
ENDBRANCH  40  41
ENDBRANCH  39  40
ENDBRANCH  38  39
ENDBRANCH  37  38
ENDBRANCH  30  37
ENDBRANCH  28  30
ENDBRANCH  27  28
ENDBRANCH   7  27
ENDBRANCH   1   7
BRANCH   2  45
HETATM   45  O   UNL     1     -18.254 -13.139  -4.507  1.00  0.00    -0.277 OA
BRANCH  45  46
HETATM   46  C   UNL     1     -17.052 -13.680  -4.097  1.00  0.00     0.268 C 
HETATM   47  O   UNL     1     -16.909 -14.796  -3.623  1.00  0.00    -0.264 OA
BRANCH  46  48
HETATM   48  C   UNL     1     -15.926 -12.695  -4.374  1.00  0.00     0.086 C 
BRANCH  48  49
HETATM   49  C   UNL     1     -14.800 -13.364  -5.189  1.00  0.00     0.014 C 
BRANCH  49  50
HETATM   50  C   UNL     1     -13.453 -13.481  -4.461  1.00  0.00     0.001 C 
BRANCH  50  51
HETATM   51  C   UNL     1     -13.460 -14.506  -3.330  1.00  0.00     0.000 C 
BRANCH  51  52
HETATM   52  C   UNL     1     -12.561 -14.113  -2.155  1.00  0.00    -0.000 C 
BRANCH  52  53
HETATM   53  C   UNL     1     -13.182 -14.613  -0.857  1.00  0.00    -0.005 C 
HETATM   54  C   UNL     1     -12.302 -14.318   0.329  1.00  0.00     0.005 C 
ENDBRANCH  52  53
ENDBRANCH  51  52
ENDBRANCH  50  51
ENDBRANCH  49  50
ENDBRANCH  48  49
BRANCH  48  55
HETATM   55  C   UNL     1     -16.362 -11.352  -5.005  1.00  0.00     0.014 C 
BRANCH  55  56
HETATM   56  C   UNL     1     -15.841  -9.977  -4.514  1.00  0.00     0.001 C 
BRANCH  56  57
HETATM   57  C   UNL     1     -15.908  -9.556  -3.017  1.00  0.00     0.000 C 
BRANCH  57  58
HETATM   58  C   UNL     1     -15.528 -10.593  -1.990  1.00  0.00     0.000 C 
BRANCH  58  59
HETATM   59  C   UNL     1     -16.164 -12.107  -0.986  1.00  0.00     0.000 C 
BRANCH  59  60
HETATM   60  C   UNL     1     -16.358 -12.056   0.891  1.00  0.00    -0.000 C 
BRANCH  60  61
HETATM   61  C   UNL     1     -15.507 -12.978   1.637  1.00  0.00    -0.005 C 
HETATM   62  C   UNL     1     -16.386 -14.167   2.020  1.00  0.00     0.005 C 
ENDBRANCH  60  61
ENDBRANCH  59  60
ENDBRANCH  58  59
ENDBRANCH  57  58
ENDBRANCH  56  57
ENDBRANCH  55  56
ENDBRANCH  48  55
ENDBRANCH  46  48
ENDBRANCH  45  46
ENDBRANCH   2  45
BRANCH   3  63
HETATM   63  O   UNL     1     -19.398 -15.870  -5.232  1.00  0.00    -0.270 OA
BRANCH  63  64
HETATM   64  C   UNL     1     -20.006 -15.856  -6.484  1.00  0.00     0.268 C 
HETATM   65  O   UNL     1     -20.723 -16.665  -6.902  1.00  0.00    -0.264 OA
BRANCH  64  66
HETATM   66  C   UNL     1     -19.726 -14.464  -7.136  1.00  0.00     0.086 C 
BRANCH  66  67
HETATM   67  C   UNL     1     -18.627 -14.485  -8.205  1.00  0.00     0.014 C 
BRANCH  67  68
HETATM   68  C   UNL     1     -17.161 -14.711  -7.719  1.00  0.00     0.001 C 
BRANCH  68  69
HETATM   69  C   UNL     1     -16.722 -16.166  -7.678  1.00  0.00     0.000 C 
BRANCH  69  70
HETATM   70  C   UNL     1     -15.629 -16.470  -6.652  1.00  0.00    -0.000 C 
BRANCH  70  71
HETATM   71  C   UNL     1     -14.365 -16.892  -7.377  1.00  0.00    -0.005 C 
HETATM   72  C   UNL     1     -13.119 -16.528  -6.606  1.00  0.00     0.005 C 
ENDBRANCH  70  71
ENDBRANCH  69  70
ENDBRANCH  68  69
ENDBRANCH  67  68
ENDBRANCH  66  67
BRANCH  66  73
HETATM   73  C   UNL     1     -21.031 -13.800  -7.622  1.00  0.00     0.014 C 
BRANCH  73  74
HETATM   74  C   UNL     1     -21.942 -12.966  -6.653  1.00  0.00     0.001 C 
BRANCH  74  75
HETATM   75  C   UNL     1     -23.232 -13.574  -5.955  1.00  0.00     0.000 C 
BRANCH  75  76
HETATM   76  C   UNL     1     -23.614 -14.928  -6.514  1.00  0.00     0.000 C 
BRANCH  76  77
HETATM   77  C   UNL     1     -25.052 -16.232  -6.525  1.00  0.00     0.000 C 
BRANCH  77  78
HETATM   78  C   UNL     1     -26.700 -15.965  -5.629  1.00  0.00    -0.000 C 
BRANCH  78  79
HETATM   79  C   UNL     1     -27.705 -15.152  -6.377  1.00  0.00    -0.005 C 
HETATM   80  C   UNL     1     -29.086 -15.746  -6.127  1.00  0.00     0.005 C 
ENDBRANCH  78  79
ENDBRANCH  77  78
ENDBRANCH  76  77
ENDBRANCH  75  76
ENDBRANCH  74  75
ENDBRANCH  73  74
ENDBRANCH  66  73
ENDBRANCH  64  66
ENDBRANCH  63  64
ENDBRANCH   3  63
TORSDOF 62
BEGIN_RES ARG D 557
REMARK  4 active torsions:
REMARK  status: ('A' for Active; 'I' for Inactive)
REMARK    1  A    between atoms: CA   and  CB  
REMARK    2  A    between atoms: CB   and  CG  
REMARK    3  A    between atoms: CG   and  CD  
REMARK    4  A    between atoms: CD   and  NE  
REMARK       I    between atoms: NE   and  CZ  
REMARK       I    between atoms: CZ   and  NH1 
REMARK       I    between atoms: CZ   and  NH2 
ROOT
ATOM      1  CA  ARG D 557     -26.217   2.705 -17.014  1.00 35.49     0.159 C 
ENDROOT
BRANCH   1   2
ATOM      2  CB  ARG D 557     -26.789   1.319 -17.183  1.00 35.49     0.034 C 
BRANCH   2   3
ATOM      3  CG  ARG D 557     -28.238   1.224 -17.399  1.00 35.49     0.027 C 
BRANCH   3   4
ATOM      4  CD  ARG D 557     -28.888   0.281 -16.460  1.00 35.49     0.116 C 
BRANCH   4   5
ATOM      5  NE  ARG D 557     -29.287  -0.941 -17.108  1.00 35.49    -0.212 N 
ATOM      6  CZ  ARG D 557     -28.658  -2.092 -17.033  1.00 35.49     0.666 C 
ATOM      7  NH1 ARG D 557     -27.545  -2.247 -16.339  1.00 35.49    -0.235 N 
ATOM      8  NH2 ARG D 557     -29.175  -3.102 -17.669  1.00 35.49    -0.235 N 
ATOM      9  HH  ARG D 557     -27.188  -1.597 -15.911  1.00 35.49     0.174 HD
ATOM     10  HH  ARG D 557     -27.180  -3.022 -16.324  1.00 35.49     0.174 HD
ATOM     11  HH  ARG D 557     -29.899  -2.974 -18.103  1.00 35.49     0.174 HD
ATOM     12  HH  ARG D 557     -28.800  -3.862 -17.641  1.00 35.49     0.174 HD
ATOM     13  HE  ARG D 557     -29.954  -0.913 -17.635  1.00 35.49     0.178 HD
ENDBRANCH   4   5
ENDBRANCH   3   4
ENDBRANCH   2   3
ENDBRANCH   1   2
END_RES ARG D 557
BEGIN_RES GLU D 570
REMARK  3 active torsions:
REMARK  status: ('A' for Active; 'I' for Inactive)
REMARK    5  A    between atoms: CA   and  CB  
REMARK    6  A    between atoms: CB   and  CG  
REMARK    7  A    between atoms: CG   and  CD  
ROOT
ATOM     14  CA  GLU D 570     -18.033  -6.348 -13.375  1.00 32.92     0.160 C 
ENDROOT
BRANCH  14  15
ATOM     15  CB  GLU D 570     -19.500  -6.345 -13.794  1.00 32.92     0.043 C 
BRANCH  15  16
ATOM     16  CG  GLU D 570     -20.447  -5.556 -12.965  1.00 32.92     0.100 C 
BRANCH  16  17
ATOM     17  CD  GLU D 570     -21.704  -5.172 -13.710  1.00 32.92     0.185 C 
ATOM     18  OE1 GLU D 570     -22.772  -5.059 -13.077  1.00 32.92    -0.647 OA
ATOM     19  OE2 GLU D 570     -21.624  -5.000 -14.942  1.00 32.92    -0.647 OA
ENDBRANCH  16  17
ENDBRANCH  15  16
ENDBRANCH  14  15
END_RES GLU D 570
ENDMDL
MODEL 7
REMARK VINA RESULT:      -5.8      1.673      4.401
REMARK WARNING: 32 MAX_TORS EXCEEDED!!!
REMARK  62 active torsions:
REMARK  status: ('A' for Active; 'I' for Inactive)
REMARK    1  A    between atoms: C_2  and  C_3 
REMARK    2  A    between atoms: C_3  and  C_4 
REMARK    3  A    between atoms: C_4  and  C_5 
REMARK    4  A    between atoms: C_5  and  C_6 
REMARK    5  A    between atoms: C_6  and  C_7 
REMARK    6  A    between atoms: C_7  and  C_8 
REMARK    7  A    between atoms: C_8  and  C_9 
REMARK    8  A    between atoms: C_9  and  C_10 
REMARK    9  A    between atoms: C_9  and  C_16 
REMARK   10  A    between atoms: C_10  and  C_11 
REMARK   11  A    between atoms: C_11  and  C_12 
REMARK   12  A    between atoms: C_12  and  C_13 
REMARK   13  A    between atoms: C_13  and  C_14 
REMARK   14  A    between atoms: C_16  and  O_18 
REMARK   15  A    between atoms: O_18  and  C_19 
REMARK   16  A    between atoms: C_19  and  C_20 
REMARK   17  A    between atoms: C_20  and  C_21 
REMARK   18  A    between atoms: C_20  and  O_63 
REMARK   19  A    between atoms: C_22  and  O_45 
REMARK   20  A    between atoms: C_23  and  O_27 
REMARK   21  A    between atoms: O_27  and  C_28 
REMARK   22  A    between atoms: C_28  and  C_30 
REMARK   23  A    between atoms: C_30  and  C_31 
REMARK   24  A    between atoms: C_30  and  C_37 
REMARK   25  A    between atoms: C_31  and  C_32 
REMARK   26  A    between atoms: C_32  and  C_33 
REMARK   27  A    between atoms: C_33  and  C_34 
REMARK   28  A    between atoms: C_34  and  C_35 
REMARK   29  A    between atoms: C_37  and  C_38 
REMARK   30  A    between atoms: C_38  and  C_39 
REMARK   31  A    between atoms: C_39  and  C_40 
REMARK   32  A    between atoms: C_40  and  C_41 
REMARK   33  A    between atoms: C_41  and  C_42 
REMARK   34  A    between atoms: C_42  and  C_43 
REMARK   35  A    between atoms: O_45  and  C_46 
REMARK   36  A    between atoms: C_46  and  C_48 
REMARK   37  A    between atoms: C_48  and  C_49 
REMARK   38  A    between atoms: C_48  and  C_55 
REMARK   39  A    between atoms: C_49  and  C_50 
REMARK   40  A    between atoms: C_50  and  C_51 
REMARK   41  A    between atoms: C_51  and  C_52 
REMARK   42  A    between atoms: C_52  and  C_53 
REMARK   43  A    between atoms: C_55  and  C_56 
REMARK   44  A    between atoms: C_56  and  C_57 
REMARK   45  A    between atoms: C_57  and  C_58 
REMARK   46  A    between atoms: C_58  and  C_59 
REMARK   47  A    between atoms: C_59  and  C_60 
REMARK   48  A    between atoms: C_60  and  C_61 
REMARK   49  A    between atoms: O_63  and  C_64 
REMARK   50  A    between atoms: C_64  and  C_66 
REMARK   51  A    between atoms: C_66  and  C_67 
REMARK   52  A    between atoms: C_66  and  C_73 
REMARK   53  A    between atoms: C_67  and  C_68 
REMARK   54  A    between atoms: C_68  and  C_69 
REMARK   55  A    between atoms: C_69  and  C_70 
REMARK   56  A    between atoms: C_70  and  C_71 
REMARK   57  A    between atoms: C_73  and  C_74 
REMARK   58  A    between atoms: C_74  and  C_75 
REMARK   59  A    between atoms: C_75  and  C_76 
REMARK   60  A    between atoms: C_76  and  C_77 
REMARK   61  A    between atoms: C_77  and  C_78 
REMARK   62  A    between atoms: C_78  and  C_79 
ROOT
HETATM    1  C   UNL     1     -21.562  -9.734  -3.462  1.00  0.00     0.224 C 
HETATM    2  C   UNL     1     -20.886 -10.633  -2.478  1.00  0.00     0.129 C 
HETATM    3  C   UNL     1     -21.295 -10.372  -1.240  1.00  0.00     0.186 C 
HETATM    4  C   UNL     1     -22.056  -9.115  -1.302  1.00  0.00     0.321 C 
HETATM    5  O   UNL     1     -22.479  -8.489  -0.355  1.00  0.00    -0.257 OA
HETATM    6  O   UNL     1     -22.128  -8.719  -2.615  1.00  0.00    -0.301 OA
ENDROOT
BRANCH   1   7
HETATM    7  C   UNL     1     -20.835  -9.066  -4.659  1.00  0.00     0.192 C 
BRANCH   7   8
HETATM    8  C   UNL     1     -19.402  -8.598  -4.299  1.00  0.00     0.214 C 
BRANCH   8   9
HETATM    9  O   UNL     1     -18.358  -9.571  -4.616  1.00  0.00    -0.319 OA
BRANCH   9  10
HETATM   10  C   UNL     1     -18.055  -9.719  -5.943  1.00  0.00     0.263 C 
HETATM   11  O   UNL     1     -18.057  -8.785  -6.733  1.00  0.00    -0.265 OA
BRANCH  10  12
HETATM   12  C   UNL     1     -17.857 -11.185  -6.369  1.00  0.00     0.085 C 
BRANCH  12  13
HETATM   13  C   UNL     1     -16.664 -11.778  -5.567  1.00  0.00     0.014 C 
BRANCH  13  14
HETATM   14  C   UNL     1     -15.261 -11.293  -5.936  1.00  0.00     0.001 C 
BRANCH  14  15
HETATM   15  C   UNL     1     -14.528 -12.138  -6.977  1.00  0.00     0.000 C 
BRANCH  15  16
HETATM   16  C   UNL     1     -13.294 -12.755  -6.316  1.00  0.00     0.000 C 
BRANCH  16  17
HETATM   17  C   UNL     1     -13.490 -14.223  -5.967  1.00  0.00     0.000 C 
BRANCH  17  18
HETATM   18  C   UNL     1     -13.905 -14.371  -4.503  1.00  0.00    -0.000 C 
BRANCH  18  19
HETATM   19  C   UNL     1     -15.036 -15.385  -4.366  1.00  0.00    -0.005 C 
HETATM   20  C   UNL     1     -15.955 -15.360  -5.575  1.00  0.00     0.005 C 
ENDBRANCH  18  19
ENDBRANCH  17  18
ENDBRANCH  16  17
ENDBRANCH  15  16
ENDBRANCH  14  15
ENDBRANCH  13  14
ENDBRANCH  12  13
BRANCH  12  21
HETATM   21  C   UNL     1     -19.129 -12.062  -6.281  1.00  0.00     0.014 C 
BRANCH  21  22
HETATM   22  C   UNL     1     -19.724 -12.462  -7.638  1.00  0.00     0.001 C 
BRANCH  22  23
HETATM   23  C   UNL     1     -18.716 -12.753  -8.761  1.00  0.00     0.000 C 
BRANCH  23  24
HETATM   24  C   UNL     1     -17.997 -14.095  -8.606  1.00  0.00    -0.000 C 
BRANCH  24  25
HETATM   25  C   UNL     1     -18.273 -15.039  -9.777  1.00  0.00    -0.005 C 
HETATM   26  C   UNL     1     -17.649 -16.405  -9.529  1.00  0.00     0.005 C 
ENDBRANCH  24  25
ENDBRANCH  23  24
ENDBRANCH  22  23
ENDBRANCH  21  22
ENDBRANCH  12  21
ENDBRANCH  10  12
ENDBRANCH   9  10
ENDBRANCH   8   9
ENDBRANCH   7   8
BRANCH   7  27
HETATM   27  O   UNL     1     -21.631  -7.991  -5.239  1.00  0.00    -0.310 OA
BRANCH  27  28
HETATM   28  C   UNL     1     -21.115  -6.730  -5.062  1.00  0.00     0.263 C 
HETATM   29  O   UNL     1     -20.848  -6.242  -3.972  1.00  0.00    -0.265 OA
BRANCH  28  30
HETATM   30  C   UNL     1     -20.968  -5.979  -6.381  1.00  0.00     0.085 C 
BRANCH  30  31
HETATM   31  C   UNL     1     -21.798  -4.687  -6.263  1.00  0.00     0.014 C 
BRANCH  31  32
HETATM   32  C   UNL     1     -23.112  -4.737  -7.038  1.00  0.00     0.001 C 
BRANCH  32  33
HETATM   33  C   UNL     1     -23.093  -3.785  -8.230  1.00  0.00     0.000 C 
BRANCH  33  34
HETATM   34  C   UNL     1     -24.015  -4.316  -9.322  1.00  0.00    -0.000 C 
BRANCH  34  35
HETATM   35  C   UNL     1     -24.966  -3.234  -9.817  1.00  0.00    -0.005 C 
HETATM   36  C   UNL     1     -25.047  -3.252 -11.334  1.00  0.00     0.005 C 
ENDBRANCH  34  35
ENDBRANCH  33  34
ENDBRANCH  32  33
ENDBRANCH  31  32
ENDBRANCH  30  31
BRANCH  30  37
HETATM   37  C   UNL     1     -19.487  -5.650  -6.675  1.00  0.00     0.014 C 
BRANCH  37  38
HETATM   38  C   UNL     1     -19.285  -4.597  -7.761  1.00  0.00     0.001 C 
BRANCH  38  39
HETATM   39  C   UNL     1     -19.878  -5.074  -9.088  1.00  0.00     0.000 C 
BRANCH  39  40
HETATM   40  C   UNL     1     -19.949  -3.922 -10.086  1.00  0.00     0.000 C 
BRANCH  40  41
HETATM   41  C   UNL     1     -20.952  -4.215 -11.198  1.00  0.00     0.000 C 
BRANCH  41  42
HETATM   42  C   UNL     1     -21.493  -2.916 -11.791  1.00  0.00    -0.000 C 
BRANCH  42  43
HETATM   43  C   UNL     1     -22.387  -3.193 -12.995  1.00  0.00    -0.005 C 
HETATM   44  C   UNL     1     -22.493  -4.685 -13.267  1.00  0.00     0.005 C 
ENDBRANCH  42  43
ENDBRANCH  41  42
ENDBRANCH  40  41
ENDBRANCH  39  40
ENDBRANCH  38  39
ENDBRANCH  37  38
ENDBRANCH  30  37
ENDBRANCH  28  30
ENDBRANCH  27  28
ENDBRANCH   7  27
ENDBRANCH   1   7
BRANCH   2  45
HETATM   45  O   UNL     1     -20.176 -11.757  -2.907  1.00  0.00    -0.277 OA
BRANCH  45  46
HETATM   46  C   UNL     1     -20.900 -12.917  -3.092  1.00  0.00     0.268 C 
HETATM   47  O   UNL     1     -22.059 -12.969  -3.471  1.00  0.00    -0.264 OA
BRANCH  46  48
HETATM   48  C   UNL     1     -20.018 -14.122  -2.802  1.00  0.00     0.086 C 
BRANCH  48  49
HETATM   49  C   UNL     1     -20.649 -15.412  -3.365  1.00  0.00     0.014 C 
BRANCH  49  50
HETATM   50  C   UNL     1     -21.627 -16.123  -2.418  1.00  0.00     0.001 C 
BRANCH  50  51
HETATM   51  C   UNL     1     -22.874 -16.657  -3.119  1.00  0.00     0.000 C 
BRANCH  51  52
HETATM   52  C   UNL     1     -24.170 -16.029  -2.604  1.00  0.00    -0.000 C 
BRANCH  52  53
HETATM   53  C   UNL     1     -23.863 -15.171  -1.383  1.00  0.00    -0.005 C 
HETATM   54  C   UNL     1     -24.704 -15.571  -0.199  1.00  0.00     0.005 C 
ENDBRANCH  52  53
ENDBRANCH  51  52
ENDBRANCH  50  51
ENDBRANCH  49  50
ENDBRANCH  48  49
BRANCH  48  55
HETATM   55  C   UNL     1     -18.539 -13.980  -3.233  1.00  0.00     0.014 C 
BRANCH  55  56
HETATM   56  C   UNL     1     -17.417 -13.519  -2.269  1.00  0.00     0.001 C 
BRANCH  56  57
HETATM   57  C   UNL     1     -16.988 -12.027  -2.154  1.00  0.00     0.000 C 
BRANCH  57  58
HETATM   58  C   UNL     1     -16.194 -11.628  -0.936  1.00  0.00     0.000 C 
BRANCH  58  59
HETATM   59  C   UNL     1     -15.546 -12.228   0.774  1.00  0.00     0.000 C 
BRANCH  59  60
HETATM   60  C   UNL     1     -14.708 -13.905   0.997  1.00  0.00    -0.000 C 
BRANCH  60  61
HETATM   61  C   UNL     1     -14.259 -14.552  -0.232  1.00  0.00    -0.005 C 
HETATM   62  C   UNL     1     -14.719 -16.006  -0.149  1.00  0.00     0.005 C 
ENDBRANCH  60  61
ENDBRANCH  59  60
ENDBRANCH  58  59
ENDBRANCH  57  58
ENDBRANCH  56  57
ENDBRANCH  55  56
ENDBRANCH  48  55
ENDBRANCH  46  48
ENDBRANCH  45  46
ENDBRANCH   2  45
BRANCH   3  63
HETATM   63  O   UNL     1     -21.051 -11.093  -0.063  1.00  0.00    -0.270 OA
BRANCH  63  64
HETATM   64  C   UNL     1     -22.094 -11.952   0.273  1.00  0.00     0.268 C 
HETATM   65  O   UNL     1     -23.155 -11.951  -0.194  1.00  0.00    -0.264 OA
BRANCH  64  66
HETATM   66  C   UNL     1     -21.522 -13.047   1.229  1.00  0.00     0.086 C 
BRANCH  66  67
HETATM   67  C   UNL     1     -22.590 -13.783   2.047  1.00  0.00     0.014 C 
BRANCH  67  68
HETATM   68  C   UNL     1     -22.092 -14.820   3.102  1.00  0.00     0.001 C 
BRANCH  68  69
HETATM   69  C   UNL     1     -23.139 -15.247   4.119  1.00  0.00     0.000 C 
BRANCH  69  70
HETATM   70  C   UNL     1     -24.584 -15.005   3.681  1.00  0.00    -0.000 C 
BRANCH  70  71
HETATM   71  C   UNL     1     -25.512 -15.860   4.522  1.00  0.00    -0.005 C 
HETATM   72  C   UNL     1     -26.273 -15.043   5.539  1.00  0.00     0.005 C 
ENDBRANCH  70  71
ENDBRANCH  69  70
ENDBRANCH  68  69
ENDBRANCH  67  68
ENDBRANCH  66  67
BRANCH  66  73
HETATM   73  C   UNL     1     -20.569 -14.002   0.480  1.00  0.00     0.014 C 
BRANCH  73  74
HETATM   74  C   UNL     1     -19.029 -14.033   0.783  1.00  0.00     0.001 C 
BRANCH  74  75
HETATM   75  C   UNL     1     -18.205 -15.386   0.887  1.00  0.00     0.000 C 
BRANCH  75  76
HETATM   76  C   UNL     1     -18.208 -15.965   2.286  1.00  0.00     0.000 C 
BRANCH  76  77
HETATM   77  C   UNL     1     -17.122 -16.997   3.520  1.00  0.00     0.000 C 
BRANCH  77  78
HETATM   78  C   UNL     1     -15.332 -16.549   3.949  1.00  0.00    -0.000 C 
BRANCH  78  79
HETATM   79  C   UNL     1     -15.100 -15.113   4.289  1.00  0.00    -0.005 C 
HETATM   80  C   UNL     1     -14.741 -15.021   5.766  1.00  0.00     0.005 C 
ENDBRANCH  78  79
ENDBRANCH  77  78
ENDBRANCH  76  77
ENDBRANCH  75  76
ENDBRANCH  74  75
ENDBRANCH  73  74
ENDBRANCH  66  73
ENDBRANCH  64  66
ENDBRANCH  63  64
ENDBRANCH   3  63
TORSDOF 62
BEGIN_RES ARG D 557
REMARK  4 active torsions:
REMARK  status: ('A' for Active; 'I' for Inactive)
REMARK    1  A    between atoms: CA   and  CB  
REMARK    2  A    between atoms: CB   and  CG  
REMARK    3  A    between atoms: CG   and  CD  
REMARK    4  A    between atoms: CD   and  NE  
REMARK       I    between atoms: NE   and  CZ  
REMARK       I    between atoms: CZ   and  NH1 
REMARK       I    between atoms: CZ   and  NH2 
ROOT
ATOM      1  CA  ARG D 557     -26.217   2.705 -17.014  1.00 35.49     0.159 C 
ENDROOT
BRANCH   1   2
ATOM      2  CB  ARG D 557     -26.789   1.319 -17.183  1.00 35.49     0.034 C 
BRANCH   2   3
ATOM      3  CG  ARG D 557     -28.238   1.224 -17.395  1.00 35.49     0.027 C 
BRANCH   3   4
ATOM      4  CD  ARG D 557     -28.886   0.283 -16.452  1.00 35.49     0.116 C 
BRANCH   4   5
ATOM      5  NE  ARG D 557     -29.300  -0.934 -17.099  1.00 35.49    -0.212 N 
ATOM      6  CZ  ARG D 557     -28.673  -2.088 -17.038  1.00 35.49     0.666 C 
ATOM      7  NH1 ARG D 557     -27.549  -2.249 -16.364  1.00 35.49    -0.235 N 
ATOM      8  NH2 ARG D 557     -29.204  -3.093 -17.670  1.00 35.49    -0.235 N 
ATOM      9  HH  ARG D 557     -27.183  -1.602 -15.939  1.00 35.49     0.174 HD
ATOM     10  HH  ARG D 557     -27.186  -3.025 -16.358  1.00 35.49     0.174 HD
ATOM     11  HH  ARG D 557     -29.934  -2.961 -18.091  1.00 35.49     0.174 HD
ATOM     12  HH  ARG D 557     -28.830  -3.854 -17.651  1.00 35.49     0.174 HD
ATOM     13  HE  ARG D 557     -29.975  -0.903 -17.614  1.00 35.49     0.178 HD
ENDBRANCH   4   5
ENDBRANCH   3   4
ENDBRANCH   2   3
ENDBRANCH   1   2
END_RES ARG D 557
BEGIN_RES GLU D 570
REMARK  3 active torsions:
REMARK  status: ('A' for Active; 'I' for Inactive)
REMARK    5  A    between atoms: CA   and  CB  
REMARK    6  A    between atoms: CB   and  CG  
REMARK    7  A    between atoms: CG   and  CD  
ROOT
ATOM     14  CA  GLU D 570     -18.033  -6.348 -13.375  1.00 32.92     0.160 C 
ENDROOT
BRANCH  14  15
ATOM     15  CB  GLU D 570     -19.500  -6.345 -13.794  1.00 32.92     0.043 C 
BRANCH  15  16
ATOM     16  CG  GLU D 570     -19.796  -6.298 -15.249  1.00 32.92     0.100 C 
BRANCH  16  17
ATOM     17  CD  GLU D 570     -20.839  -7.307 -15.671  1.00 32.92     0.185 C 
ATOM     18  OE1 GLU D 570     -21.931  -6.900 -16.111  1.00 32.92    -0.647 OA
ATOM     19  OE2 GLU D 570     -20.566  -8.517 -15.545  1.00 32.92    -0.647 OA
ENDBRANCH  16  17
ENDBRANCH  15  16
ENDBRANCH  14  15
END_RES GLU D 570
ENDMDL
MODEL 8
REMARK VINA RESULT:      -5.8      2.944      9.781
REMARK WARNING: 32 MAX_TORS EXCEEDED!!!
REMARK  62 active torsions:
REMARK  status: ('A' for Active; 'I' for Inactive)
REMARK    1  A    between atoms: C_2  and  C_3 
REMARK    2  A    between atoms: C_3  and  C_4 
REMARK    3  A    between atoms: C_4  and  C_5 
REMARK    4  A    between atoms: C_5  and  C_6 
REMARK    5  A    between atoms: C_6  and  C_7 
REMARK    6  A    between atoms: C_7  and  C_8 
REMARK    7  A    between atoms: C_8  and  C_9 
REMARK    8  A    between atoms: C_9  and  C_10 
REMARK    9  A    between atoms: C_9  and  C_16 
REMARK   10  A    between atoms: C_10  and  C_11 
REMARK   11  A    between atoms: C_11  and  C_12 
REMARK   12  A    between atoms: C_12  and  C_13 
REMARK   13  A    between atoms: C_13  and  C_14 
REMARK   14  A    between atoms: C_16  and  O_18 
REMARK   15  A    between atoms: O_18  and  C_19 
REMARK   16  A    between atoms: C_19  and  C_20 
REMARK   17  A    between atoms: C_20  and  C_21 
REMARK   18  A    between atoms: C_20  and  O_63 
REMARK   19  A    between atoms: C_22  and  O_45 
REMARK   20  A    between atoms: C_23  and  O_27 
REMARK   21  A    between atoms: O_27  and  C_28 
REMARK   22  A    between atoms: C_28  and  C_30 
REMARK   23  A    between atoms: C_30  and  C_31 
REMARK   24  A    between atoms: C_30  and  C_37 
REMARK   25  A    between atoms: C_31  and  C_32 
REMARK   26  A    between atoms: C_32  and  C_33 
REMARK   27  A    between atoms: C_33  and  C_34 
REMARK   28  A    between atoms: C_34  and  C_35 
REMARK   29  A    between atoms: C_37  and  C_38 
REMARK   30  A    between atoms: C_38  and  C_39 
REMARK   31  A    between atoms: C_39  and  C_40 
REMARK   32  A    between atoms: C_40  and  C_41 
REMARK   33  A    between atoms: C_41  and  C_42 
REMARK   34  A    between atoms: C_42  and  C_43 
REMARK   35  A    between atoms: O_45  and  C_46 
REMARK   36  A    between atoms: C_46  and  C_48 
REMARK   37  A    between atoms: C_48  and  C_49 
REMARK   38  A    between atoms: C_48  and  C_55 
REMARK   39  A    between atoms: C_49  and  C_50 
REMARK   40  A    between atoms: C_50  and  C_51 
REMARK   41  A    between atoms: C_51  and  C_52 
REMARK   42  A    between atoms: C_52  and  C_53 
REMARK   43  A    between atoms: C_55  and  C_56 
REMARK   44  A    between atoms: C_56  and  C_57 
REMARK   45  A    between atoms: C_57  and  C_58 
REMARK   46  A    between atoms: C_58  and  C_59 
REMARK   47  A    between atoms: C_59  and  C_60 
REMARK   48  A    between atoms: C_60  and  C_61 
REMARK   49  A    between atoms: O_63  and  C_64 
REMARK   50  A    between atoms: C_64  and  C_66 
REMARK   51  A    between atoms: C_66  and  C_67 
REMARK   52  A    between atoms: C_66  and  C_73 
REMARK   53  A    between atoms: C_67  and  C_68 
REMARK   54  A    between atoms: C_68  and  C_69 
REMARK   55  A    between atoms: C_69  and  C_70 
REMARK   56  A    between atoms: C_70  and  C_71 
REMARK   57  A    between atoms: C_73  and  C_74 
REMARK   58  A    between atoms: C_74  and  C_75 
REMARK   59  A    between atoms: C_75  and  C_76 
REMARK   60  A    between atoms: C_76  and  C_77 
REMARK   61  A    between atoms: C_77  and  C_78 
REMARK   62  A    between atoms: C_78  and  C_79 
ROOT
HETATM    1  C   UNL     1     -21.261 -13.436  -1.461  1.00  0.00     0.224 C 
HETATM    2  C   UNL     1     -20.542 -14.533  -2.174  1.00  0.00     0.129 C 
HETATM    3  C   UNL     1     -21.401 -15.342  -2.789  1.00  0.00     0.186 C 
HETATM    4  C   UNL     1     -22.741 -14.986  -2.297  1.00  0.00     0.321 C 
HETATM    5  O   UNL     1     -23.768 -15.585  -2.528  1.00  0.00    -0.257 OA
HETATM    6  O   UNL     1     -22.619 -13.909  -1.453  1.00  0.00    -0.301 OA
ENDROOT
BRANCH   1   7
HETATM    7  C   UNL     1     -20.878 -12.933  -0.043  1.00  0.00     0.192 C 
BRANCH   7   8
HETATM    8  C   UNL     1     -21.951 -13.278   1.020  1.00  0.00     0.214 C 
BRANCH   8   9
HETATM    9  O   UNL     1     -21.661 -14.483   1.794  1.00  0.00    -0.319 OA
BRANCH   9  10
HETATM   10  C   UNL     1     -22.440 -15.575   1.524  1.00  0.00     0.263 C 
HETATM   11  O   UNL     1     -22.083 -16.479   0.780  1.00  0.00    -0.265 OA
BRANCH  10  12
HETATM   12  C   UNL     1     -23.855 -15.486   2.124  1.00  0.00     0.085 C 
BRANCH  12  13
HETATM   13  C   UNL     1     -24.578 -16.843   1.893  1.00  0.00     0.014 C 
BRANCH  13  14
HETATM   14  C   UNL     1     -26.018 -16.792   1.378  1.00  0.00     0.001 C 
BRANCH  14  15
HETATM   15  C   UNL     1     -26.176 -16.383  -0.085  1.00  0.00     0.000 C 
BRANCH  15  16
HETATM   16  C   UNL     1     -27.662 -16.444  -0.446  1.00  0.00     0.000 C 
BRANCH  16  17
HETATM   17  C   UNL     1     -28.561 -16.447   0.782  1.00  0.00     0.000 C 
BRANCH  17  18
HETATM   18  C   UNL     1     -29.809 -15.601   0.529  1.00  0.00    -0.000 C 
BRANCH  18  19
HETATM   19  C   UNL     1     -30.629 -15.458   1.808  1.00  0.00    -0.005 C 
HETATM   20  C   UNL     1     -31.017 -16.813   2.374  1.00  0.00     0.005 C 
ENDBRANCH  18  19
ENDBRANCH  17  18
ENDBRANCH  16  17
ENDBRANCH  15  16
ENDBRANCH  14  15
ENDBRANCH  13  14
ENDBRANCH  12  13
BRANCH  12  21
HETATM   21  C   UNL     1     -23.903 -15.029   3.602  1.00  0.00     0.014 C 
BRANCH  21  22
HETATM   22  C   UNL     1     -25.123 -15.533   4.386  1.00  0.00     0.001 C 
BRANCH  22  23
HETATM   23  C   UNL     1     -25.283 -14.991   5.815  1.00  0.00     0.000 C 
BRANCH  23  24
HETATM   24  C   UNL     1     -26.740 -14.890   6.272  1.00  0.00    -0.000 C 
BRANCH  24  25
HETATM   25  C   UNL     1     -27.665 -15.798   5.462  1.00  0.00    -0.005 C 
HETATM   26  C   UNL     1     -29.060 -15.197   5.361  1.00  0.00     0.005 C 
ENDBRANCH  24  25
ENDBRANCH  23  24
ENDBRANCH  22  23
ENDBRANCH  21  22
ENDBRANCH  12  21
ENDBRANCH  10  12
ENDBRANCH   9  10
ENDBRANCH   8   9
ENDBRANCH   7   8
BRANCH   7  27
HETATM   27  O   UNL     1     -20.550 -11.513  -0.047  1.00  0.00    -0.310 OA
BRANCH  27  28
HETATM   28  C   UNL     1     -19.895 -11.075  -1.173  1.00  0.00     0.263 C 
HETATM   29  O   UNL     1     -18.767 -11.426  -1.494  1.00  0.00    -0.265 OA
BRANCH  28  30
HETATM   30  C   UNL     1     -20.712 -10.048  -1.950  1.00  0.00     0.085 C 
BRANCH  30  31
HETATM   31  C   UNL     1     -20.271  -8.655  -1.465  1.00  0.00     0.014 C 
BRANCH  31  32
HETATM   32  C   UNL     1     -21.426  -7.797  -0.952  1.00  0.00     0.001 C 
BRANCH  32  33
HETATM   33  C   UNL     1     -21.998  -8.352   0.347  1.00  0.00     0.000 C 
BRANCH  33  34
HETATM   34  C   UNL     1     -23.472  -8.694   0.151  1.00  0.00    -0.000 C 
BRANCH  34  35
HETATM   35  C   UNL     1     -23.717 -10.189   0.297  1.00  0.00    -0.005 C 
HETATM   36  C   UNL     1     -23.929 -10.829  -1.064  1.00  0.00     0.005 C 
ENDBRANCH  34  35
ENDBRANCH  33  34
ENDBRANCH  32  33
ENDBRANCH  31  32
ENDBRANCH  30  31
BRANCH  30  37
HETATM   37  C   UNL     1     -20.486 -10.190  -3.473  1.00  0.00     0.014 C 
BRANCH  37  38
HETATM   38  C   UNL     1     -21.554  -9.516  -4.328  1.00  0.00     0.001 C 
BRANCH  38  39
HETATM   39  C   UNL     1     -20.957  -8.345  -5.111  1.00  0.00     0.000 C 
BRANCH  39  40
HETATM   40  C   UNL     1     -21.585  -7.028  -4.667  1.00  0.00     0.000 C 
BRANCH  40  41
HETATM   41  C   UNL     1     -20.824  -5.834  -5.232  1.00  0.00     0.000 C 
BRANCH  41  42
HETATM   42  C   UNL     1     -20.955  -5.782  -6.753  1.00  0.00    -0.000 C 
BRANCH  42  43
HETATM   43  C   UNL     1     -20.923  -4.342  -7.258  1.00  0.00    -0.005 C 
HETATM   44  C   UNL     1     -19.673  -4.078  -8.081  1.00  0.00     0.005 C 
ENDBRANCH  42  43
ENDBRANCH  41  42
ENDBRANCH  40  41
ENDBRANCH  39  40
ENDBRANCH  38  39
ENDBRANCH  37  38
ENDBRANCH  30  37
ENDBRANCH  28  30
ENDBRANCH  27  28
ENDBRANCH   7  27
ENDBRANCH   1   7
BRANCH   2  45
HETATM   45  O   UNL     1     -19.161 -14.473  -2.373  1.00  0.00    -0.277 OA
BRANCH  45  46
HETATM   46  C   UNL     1     -18.374 -15.207  -1.507  1.00  0.00     0.268 C 
HETATM   47  O   UNL     1     -18.772 -15.759  -0.494  1.00  0.00    -0.264 OA
BRANCH  46  48
HETATM   48  C   UNL     1     -16.949 -15.264  -2.035  1.00  0.00     0.086 C 
BRANCH  48  49
HETATM   49  C   UNL     1     -16.894 -14.824  -3.513  1.00  0.00     0.014 C 
BRANCH  49  50
HETATM   50  C   UNL     1     -16.349 -15.881  -4.485  1.00  0.00     0.001 C 
BRANCH  50  51
HETATM   51  C   UNL     1     -15.292 -15.338  -5.445  1.00  0.00     0.000 C 
BRANCH  51  52
HETATM   52  C   UNL     1     -14.585 -14.088  -4.917  1.00  0.00    -0.000 C 
BRANCH  52  53
HETATM   53  C   UNL     1     -13.358 -14.505  -4.117  1.00  0.00    -0.005 C 
HETATM   54  C   UNL     1     -12.946 -13.438  -3.137  1.00  0.00     0.005 C 
ENDBRANCH  52  53
ENDBRANCH  51  52
ENDBRANCH  50  51
ENDBRANCH  49  50
ENDBRANCH  48  49
BRANCH  48  55
HETATM   55  C   UNL     1     -15.896 -14.518  -1.183  1.00  0.00     0.014 C 
BRANCH  55  56
HETATM   56  C   UNL     1     -16.228 -13.266  -0.331  1.00  0.00     0.001 C 
BRANCH  56  57
HETATM   57  C   UNL     1     -15.182 -12.610   0.616  1.00  0.00     0.000 C 
BRANCH  57  58
HETATM   58  C   UNL     1     -14.013 -13.461   1.049  1.00  0.00     0.000 C 
BRANCH  58  59
HETATM   59  C   UNL     1     -12.378 -14.287   0.461  1.00  0.00     0.000 C 
BRANCH  59  60
HETATM   60  C   UNL     1     -10.682 -13.625   0.964  1.00  0.00    -0.000 C 
BRANCH  60  61
HETATM   61  C   UNL     1      -9.899 -14.496   1.835  1.00  0.00    -0.005 C 
HETATM   62  C   UNL     1      -8.442 -14.341   1.407  1.00  0.00     0.005 C 
ENDBRANCH  60  61
ENDBRANCH  59  60
ENDBRANCH  58  59
ENDBRANCH  57  58
ENDBRANCH  56  57
ENDBRANCH  55  56
ENDBRANCH  48  55
ENDBRANCH  46  48
ENDBRANCH  45  46
ENDBRANCH   2  45
BRANCH   3  63
HETATM   63  O   UNL     1     -21.140 -16.371  -3.703  1.00  0.00    -0.270 OA
BRANCH  63  64
HETATM   64  C   UNL     1     -21.643 -16.108  -4.974  1.00  0.00     0.268 C 
HETATM   65  O   UNL     1     -22.719 -16.332  -5.341  1.00  0.00    -0.264 OA
BRANCH  64  66
HETATM   66  C   UNL     1     -20.575 -15.268  -5.745  1.00  0.00     0.086 C 
BRANCH  66  67
HETATM   67  C   UNL     1     -19.634 -16.104  -6.620  1.00  0.00     0.014 C 
BRANCH  67  68
HETATM   68  C   UNL     1     -18.514 -15.342  -7.396  1.00  0.00     0.001 C 
BRANCH  68  69
HETATM   69  C   UNL     1     -18.893 -14.915  -8.805  1.00  0.00     0.000 C 
BRANCH  69  70
HETATM   70  C   UNL     1     -17.799 -15.134  -9.850  1.00  0.00    -0.000 C 
BRANCH  70  71
HETATM   71  C   UNL     1     -18.029 -16.464 -10.544  1.00  0.00    -0.005 C 
HETATM   72  C   UNL     1     -18.016 -16.329 -12.048  1.00  0.00     0.005 C 
ENDBRANCH  70  71
ENDBRANCH  69  70
ENDBRANCH  68  69
ENDBRANCH  67  68
ENDBRANCH  66  67
BRANCH  66  73
HETATM   73  C   UNL     1     -21.228 -14.097  -6.508  1.00  0.00     0.014 C 
BRANCH  73  74
HETATM   74  C   UNL     1     -20.916 -12.601  -6.146  1.00  0.00     0.001 C 
BRANCH  74  75
HETATM   75  C   UNL     1     -19.740 -11.783  -6.830  1.00  0.00     0.000 C 
BRANCH  75  76
HETATM   76  C   UNL     1     -18.396 -12.041  -6.183  1.00  0.00     0.000 C 
BRANCH  76  77
HETATM   77  C   UNL     1     -16.536 -11.488  -6.239  1.00  0.00     0.000 C 
BRANCH  77  78
HETATM   78  C   UNL     1     -15.768 -10.304  -4.975  1.00  0.00    -0.000 C 
BRANCH  78  79
HETATM   79  C   UNL     1     -15.757 -10.799  -3.566  1.00  0.00    -0.005 C 
HETATM   80  C   UNL     1     -15.963  -9.609  -2.637  1.00  0.00     0.005 C 
ENDBRANCH  78  79
ENDBRANCH  77  78
ENDBRANCH  76  77
ENDBRANCH  75  76
ENDBRANCH  74  75
ENDBRANCH  73  74
ENDBRANCH  66  73
ENDBRANCH  64  66
ENDBRANCH  63  64
ENDBRANCH   3  63
TORSDOF 62
BEGIN_RES ARG D 557
REMARK  4 active torsions:
REMARK  status: ('A' for Active; 'I' for Inactive)
REMARK    1  A    between atoms: CA   and  CB  
REMARK    2  A    between atoms: CB   and  CG  
REMARK    3  A    between atoms: CG   and  CD  
REMARK    4  A    between atoms: CD   and  NE  
REMARK       I    between atoms: NE   and  CZ  
REMARK       I    between atoms: CZ   and  NH1 
REMARK       I    between atoms: CZ   and  NH2 
ROOT
ATOM      1  CA  ARG D 557     -26.217   2.705 -17.014  1.00 35.49     0.159 C 
ENDROOT
BRANCH   1   2
ATOM      2  CB  ARG D 557     -26.789   1.319 -17.183  1.00 35.49     0.034 C 
BRANCH   2   3
ATOM      3  CG  ARG D 557     -28.230   1.227 -17.447  1.00 35.49     0.027 C 
BRANCH   3   4
ATOM      4  CD  ARG D 557     -28.912   0.285 -16.530  1.00 35.49     0.116 C 
BRANCH   4   5
ATOM      5  NE  ARG D 557     -28.121  -0.888 -16.269  1.00 35.49    -0.212 N 
ATOM      6  CZ  ARG D 557     -28.366  -2.097 -16.724  1.00 35.49     0.666 C 
ATOM      7  NH1 ARG D 557     -29.410  -2.370 -17.483  1.00 35.49    -0.235 N 
ATOM      8  NH2 ARG D 557     -27.527  -3.039 -16.404  1.00 35.49    -0.235 N 
ATOM      9  HH  ARG D 557     -29.974  -1.765 -17.708  1.00 35.49     0.174 HD
ATOM     10  HH  ARG D 557     -29.518  -3.177 -17.753  1.00 35.49     0.174 HD
ATOM     11  HH  ARG D 557     -26.858  -2.832 -15.919  1.00 35.49     0.174 HD
ATOM     12  HH  ARG D 557     -27.650  -3.831 -16.682  1.00 35.49     0.174 HD
ATOM     13  HE  ARG D 557     -27.468  -0.817 -15.729  1.00 35.49     0.178 HD
ENDBRANCH   4   5
ENDBRANCH   3   4
ENDBRANCH   2   3
ENDBRANCH   1   2
END_RES ARG D 557
BEGIN_RES GLU D 570
REMARK  3 active torsions:
REMARK  status: ('A' for Active; 'I' for Inactive)
REMARK    5  A    between atoms: CA   and  CB  
REMARK    6  A    between atoms: CB   and  CG  
REMARK    7  A    between atoms: CG   and  CD  
ROOT
ATOM     14  CA  GLU D 570     -18.033  -6.348 -13.375  1.00 32.92     0.160 C 
ENDROOT
BRANCH  14  15
ATOM     15  CB  GLU D 570     -19.500  -6.345 -13.794  1.00 32.92     0.043 C 
BRANCH  15  16
ATOM     16  CG  GLU D 570     -20.442  -5.530 -12.984  1.00 32.92     0.100 C 
BRANCH  16  17
ATOM     17  CD  GLU D 570     -21.732  -5.225 -13.709  1.00 32.92     0.185 C 
ATOM     18  OE1 GLU D 570     -22.180  -6.056 -14.522  1.00 32.92    -0.647 OA
ATOM     19  OE2 GLU D 570     -22.291  -4.136 -13.474  1.00 32.92    -0.647 OA
ENDBRANCH  16  17
ENDBRANCH  15  16
ENDBRANCH  14  15
END_RES GLU D 570
ENDMDL
MODEL 9
REMARK VINA RESULT:      -5.6      1.817      4.331
REMARK WARNING: 32 MAX_TORS EXCEEDED!!!
REMARK  62 active torsions:
REMARK  status: ('A' for Active; 'I' for Inactive)
REMARK    1  A    between atoms: C_2  and  C_3 
REMARK    2  A    between atoms: C_3  and  C_4 
REMARK    3  A    between atoms: C_4  and  C_5 
REMARK    4  A    between atoms: C_5  and  C_6 
REMARK    5  A    between atoms: C_6  and  C_7 
REMARK    6  A    between atoms: C_7  and  C_8 
REMARK    7  A    between atoms: C_8  and  C_9 
REMARK    8  A    between atoms: C_9  and  C_10 
REMARK    9  A    between atoms: C_9  and  C_16 
REMARK   10  A    between atoms: C_10  and  C_11 
REMARK   11  A    between atoms: C_11  and  C_12 
REMARK   12  A    between atoms: C_12  and  C_13 
REMARK   13  A    between atoms: C_13  and  C_14 
REMARK   14  A    between atoms: C_16  and  O_18 
REMARK   15  A    between atoms: O_18  and  C_19 
REMARK   16  A    between atoms: C_19  and  C_20 
REMARK   17  A    between atoms: C_20  and  C_21 
REMARK   18  A    between atoms: C_20  and  O_63 
REMARK   19  A    between atoms: C_22  and  O_45 
REMARK   20  A    between atoms: C_23  and  O_27 
REMARK   21  A    between atoms: O_27  and  C_28 
REMARK   22  A    between atoms: C_28  and  C_30 
REMARK   23  A    between atoms: C_30  and  C_31 
REMARK   24  A    between atoms: C_30  and  C_37 
REMARK   25  A    between atoms: C_31  and  C_32 
REMARK   26  A    between atoms: C_32  and  C_33 
REMARK   27  A    between atoms: C_33  and  C_34 
REMARK   28  A    between atoms: C_34  and  C_35 
REMARK   29  A    between atoms: C_37  and  C_38 
REMARK   30  A    between atoms: C_38  and  C_39 
REMARK   31  A    between atoms: C_39  and  C_40 
REMARK   32  A    between atoms: C_40  and  C_41 
REMARK   33  A    between atoms: C_41  and  C_42 
REMARK   34  A    between atoms: C_42  and  C_43 
REMARK   35  A    between atoms: O_45  and  C_46 
REMARK   36  A    between atoms: C_46  and  C_48 
REMARK   37  A    between atoms: C_48  and  C_49 
REMARK   38  A    between atoms: C_48  and  C_55 
REMARK   39  A    between atoms: C_49  and  C_50 
REMARK   40  A    between atoms: C_50  and  C_51 
REMARK   41  A    between atoms: C_51  and  C_52 
REMARK   42  A    between atoms: C_52  and  C_53 
REMARK   43  A    between atoms: C_55  and  C_56 
REMARK   44  A    between atoms: C_56  and  C_57 
REMARK   45  A    between atoms: C_57  and  C_58 
REMARK   46  A    between atoms: C_58  and  C_59 
REMARK   47  A    between atoms: C_59  and  C_60 
REMARK   48  A    between atoms: C_60  and  C_61 
REMARK   49  A    between atoms: O_63  and  C_64 
REMARK   50  A    between atoms: C_64  and  C_66 
REMARK   51  A    between atoms: C_66  and  C_67 
REMARK   52  A    between atoms: C_66  and  C_73 
REMARK   53  A    between atoms: C_67  and  C_68 
REMARK   54  A    between atoms: C_68  and  C_69 
REMARK   55  A    between atoms: C_69  and  C_70 
REMARK   56  A    between atoms: C_70  and  C_71 
REMARK   57  A    between atoms: C_73  and  C_74 
REMARK   58  A    between atoms: C_74  and  C_75 
REMARK   59  A    between atoms: C_75  and  C_76 
REMARK   60  A    between atoms: C_76  and  C_77 
REMARK   61  A    between atoms: C_77  and  C_78 
REMARK   62  A    between atoms: C_78  and  C_79 
ROOT
HETATM    1  C   UNL     1     -21.480  -9.779  -3.547  1.00  0.00     0.224 C 
HETATM    2  C   UNL     1     -20.914 -10.650  -2.474  1.00  0.00     0.129 C 
HETATM    3  C   UNL     1     -21.329 -10.254  -1.274  1.00  0.00     0.186 C 
HETATM    4  C   UNL     1     -21.970  -8.944  -1.461  1.00  0.00     0.321 C 
HETATM    5  O   UNL     1     -22.358  -8.207  -0.581  1.00  0.00    -0.257 OA
HETATM    6  O   UNL     1     -21.973  -8.652  -2.803  1.00  0.00    -0.301 OA
ENDROOT
BRANCH   1   7
HETATM    7  C   UNL     1     -20.665  -9.278  -4.769  1.00  0.00     0.192 C 
BRANCH   7   8
HETATM    8  C   UNL     1     -19.253  -8.774  -4.376  1.00  0.00     0.214 C 
BRANCH   8   9
HETATM    9  O   UNL     1     -18.192  -9.761  -4.564  1.00  0.00    -0.319 OA
BRANCH   9  10
HETATM   10  C   UNL     1     -17.961 -10.161  -5.853  1.00  0.00     0.263 C 
HETATM   11  O   UNL     1     -17.859  -9.374  -6.784  1.00  0.00    -0.265 OA
BRANCH  10  12
HETATM   12  C   UNL     1     -17.990 -11.689  -6.038  1.00  0.00     0.085 C 
BRANCH  12  13
HETATM   13  C   UNL     1     -18.500 -12.006  -7.472  1.00  0.00     0.014 C 
BRANCH  13  14
HETATM   14  C   UNL     1     -19.974 -12.383  -7.626  1.00  0.00     0.001 C 
BRANCH  14  15
HETATM   15  C   UNL     1     -20.526 -13.317  -6.551  1.00  0.00     0.000 C 
BRANCH  15  16
HETATM   16  C   UNL     1     -20.625 -14.726  -7.141  1.00  0.00     0.000 C 
BRANCH  16  17
HETATM   17  C   UNL     1     -19.335 -15.517  -6.985  1.00  0.00     0.000 C 
BRANCH  17  18
HETATM   18  C   UNL     1     -19.337 -16.730  -7.914  1.00  0.00    -0.000 C 
BRANCH  18  19
HETATM   19  C   UNL     1     -18.256 -16.591  -8.981  1.00  0.00    -0.005 C 
HETATM   20  C   UNL     1     -18.138 -15.159  -9.470  1.00  0.00     0.005 C 
ENDBRANCH  18  19
ENDBRANCH  17  18
ENDBRANCH  16  17
ENDBRANCH  15  16
ENDBRANCH  14  15
ENDBRANCH  13  14
ENDBRANCH  12  13
BRANCH  12  21
HETATM   21  C   UNL     1     -16.660 -12.407  -5.705  1.00  0.00     0.014 C 
BRANCH  21  22
HETATM   22  C   UNL     1     -16.208 -13.431  -6.756  1.00  0.00     0.001 C 
BRANCH  22  23
HETATM   23  C   UNL     1     -15.868 -14.835  -6.231  1.00  0.00     0.000 C 
BRANCH  23  24
HETATM   24  C   UNL     1     -14.411 -14.985  -5.786  1.00  0.00    -0.000 C 
BRANCH  24  25
HETATM   25  C   UNL     1     -14.246 -16.042  -4.693  1.00  0.00    -0.005 C 
HETATM   26  C   UNL     1     -12.804 -16.098  -4.210  1.00  0.00     0.005 C 
ENDBRANCH  24  25
ENDBRANCH  23  24
ENDBRANCH  22  23
ENDBRANCH  21  22
ENDBRANCH  12  21
ENDBRANCH  10  12
ENDBRANCH   9  10
ENDBRANCH   8   9
ENDBRANCH   7   8
BRANCH   7  27
HETATM   27  O   UNL     1     -21.405  -8.286  -5.538  1.00  0.00    -0.310 OA
BRANCH  27  28
HETATM   28  C   UNL     1     -20.970  -6.992  -5.383  1.00  0.00     0.263 C 
HETATM   29  O   UNL     1     -20.569  -6.523  -4.327  1.00  0.00    -0.265 OA
BRANCH  28  30
HETATM   30  C   UNL     1     -21.099  -6.184  -6.670  1.00  0.00     0.085 C 
BRANCH  30  31
HETATM   31  C   UNL     1     -21.762  -4.844  -6.301  1.00  0.00     0.014 C 
BRANCH  31  32
HETATM   32  C   UNL     1     -23.154  -4.670  -6.901  1.00  0.00     0.001 C 
BRANCH  32  33
HETATM   33  C   UNL     1     -23.097  -3.948  -8.243  1.00  0.00     0.000 C 
BRANCH  33  34
HETATM   34  C   UNL     1     -23.364  -4.942  -9.369  1.00  0.00    -0.000 C 
BRANCH  34  35
HETATM   35  C   UNL     1     -24.547  -4.506 -10.223  1.00  0.00    -0.005 C 
HETATM   36  C   UNL     1     -25.042  -3.138  -9.787  1.00  0.00     0.005 C 
ENDBRANCH  34  35
ENDBRANCH  33  34
ENDBRANCH  32  33
ENDBRANCH  31  32
ENDBRANCH  30  31
BRANCH  30  37
HETATM   37  C   UNL     1     -19.718  -5.947  -7.323  1.00  0.00     0.014 C 
BRANCH  37  38
HETATM   38  C   UNL     1     -19.323  -4.477  -7.429  1.00  0.00     0.001 C 
BRANCH  38  39
HETATM   39  C   UNL     1     -19.743  -3.904  -8.784  1.00  0.00     0.000 C 
BRANCH  39  40
HETATM   40  C   UNL     1     -19.698  -4.985  -9.859  1.00  0.00     0.000 C 
BRANCH  40  41
HETATM   41  C   UNL     1     -20.392  -4.524 -11.137  1.00  0.00     0.000 C 
BRANCH  41  42
HETATM   42  C   UNL     1     -20.689  -3.028 -11.079  1.00  0.00    -0.000 C 
BRANCH  42  43
HETATM   43  C   UNL     1     -21.939  -2.685 -11.884  1.00  0.00    -0.005 C 
HETATM   44  C   UNL     1     -22.251  -3.769 -12.901  1.00  0.00     0.005 C 
ENDBRANCH  42  43
ENDBRANCH  41  42
ENDBRANCH  40  41
ENDBRANCH  39  40
ENDBRANCH  38  39
ENDBRANCH  37  38
ENDBRANCH  30  37
ENDBRANCH  28  30
ENDBRANCH  27  28
ENDBRANCH   7  27
ENDBRANCH   1   7
BRANCH   2  45
HETATM   45  O   UNL     1     -20.298 -11.864  -2.788  1.00  0.00    -0.277 OA
BRANCH  45  46
HETATM   46  C   UNL     1     -21.128 -12.945  -3.008  1.00  0.00     0.268 C 
HETATM   47  O   UNL     1     -22.309 -12.874  -3.309  1.00  0.00    -0.264 OA
BRANCH  46  48
HETATM   48  C   UNL     1     -20.335 -14.235  -2.870  1.00  0.00     0.086 C 
BRANCH  48  49
HETATM   49  C   UNL     1     -21.209 -15.456  -3.223  1.00  0.00     0.014 C 
BRANCH  49  50
HETATM   50  C   UNL     1     -21.482 -16.419  -2.057  1.00  0.00     0.001 C 
BRANCH  50  51
HETATM   51  C   UNL     1     -22.832 -16.190  -1.382  1.00  0.00     0.000 C 
BRANCH  51  52
HETATM   52  C   UNL     1     -23.045 -17.071  -0.149  1.00  0.00    -0.000 C 
BRANCH  52  53
HETATM   53  C   UNL     1     -24.422 -16.788   0.439  1.00  0.00    -0.005 C 
HETATM   54  C   UNL     1     -25.139 -15.706  -0.324  1.00  0.00     0.005 C 
ENDBRANCH  52  53
ENDBRANCH  51  52
ENDBRANCH  50  51
ENDBRANCH  49  50
ENDBRANCH  48  49
BRANCH  48  55
HETATM   55  C   UNL     1     -18.985 -14.267  -3.623  1.00  0.00     0.014 C 
BRANCH  55  56
HETATM   56  C   UNL     1     -17.677 -14.811  -2.993  1.00  0.00     0.001 C 
BRANCH  56  57
HETATM   57  C   UNL     1     -17.408 -16.335  -2.836  1.00  0.00     0.000 C 
BRANCH  57  58
HETATM   58  C   UNL     1     -16.480 -16.762  -1.726  1.00  0.00     0.000 C 
BRANCH  58  59
HETATM   59  C   UNL     1     -14.853 -16.330  -0.793  1.00  0.00     0.000 C 
BRANCH  59  60
HETATM   60  C   UNL     1     -13.968 -14.679  -1.034  1.00  0.00    -0.000 C 
BRANCH  60  61
HETATM   61  C   UNL     1     -14.836 -13.528  -1.264  1.00  0.00    -0.005 C 
HETATM   62  C   UNL     1     -14.485 -12.991  -2.650  1.00  0.00     0.005 C 
ENDBRANCH  60  61
ENDBRANCH  59  60
ENDBRANCH  58  59
ENDBRANCH  57  58
ENDBRANCH  56  57
ENDBRANCH  55  56
ENDBRANCH  48  55
ENDBRANCH  46  48
ENDBRANCH  45  46
ENDBRANCH   2  45
BRANCH   3  63
HETATM   63  O   UNL     1     -21.182 -10.895  -0.036  1.00  0.00    -0.270 OA
BRANCH  63  64
HETATM   64  C   UNL     1     -22.218 -11.782   0.242  1.00  0.00     0.268 C 
HETATM   65  O   UNL     1     -23.270 -11.774  -0.243  1.00  0.00    -0.264 OA
BRANCH  64  66
HETATM   66  C   UNL     1     -21.646 -12.912   1.156  1.00  0.00     0.086 C 
BRANCH  66  67
HETATM   67  C   UNL     1     -22.720 -13.770   1.835  1.00  0.00     0.014 C 
BRANCH  67  68
HETATM   68  C   UNL     1     -22.230 -14.907   2.787  1.00  0.00     0.001 C 
BRANCH  68  69
HETATM   69  C   UNL     1     -23.135 -15.173   3.980  1.00  0.00     0.000 C 
BRANCH  69  70
HETATM   70  C   UNL     1     -24.620 -14.928   3.716  1.00  0.00    -0.000 C 
BRANCH  70  71
HETATM   71  C   UNL     1     -25.396 -16.200   4.000  1.00  0.00    -0.005 C 
HETATM   72  C   UNL     1     -25.254 -16.644   5.436  1.00  0.00     0.005 C 
ENDBRANCH  70  71
ENDBRANCH  69  70
ENDBRANCH  68  69
ENDBRANCH  67  68
ENDBRANCH  66  67
BRANCH  66  73
HETATM   73  C   UNL     1     -20.583 -13.749   0.415  1.00  0.00     0.014 C 
BRANCH  73  74
HETATM   74  C   UNL     1     -19.079 -13.302   0.354  1.00  0.00     0.001 C 
BRANCH  74  75
HETATM   75  C   UNL     1     -17.876 -14.319   0.556  1.00  0.00     0.000 C 
BRANCH  75  76
HETATM   76  C   UNL     1     -18.196 -15.411   1.554  1.00  0.00     0.000 C 
BRANCH  76  77
HETATM   77  C   UNL     1     -17.390 -16.505   2.941  1.00  0.00     0.000 C 
BRANCH  77  78
HETATM   78  C   UNL     1     -15.613 -16.261   3.552  1.00  0.00    -0.000 C 
BRANCH  78  79
HETATM   79  C   UNL     1     -14.845 -15.185   2.856  1.00  0.00    -0.005 C 
HETATM   80  C   UNL     1     -13.415 -15.669   2.656  1.00  0.00     0.005 C 
ENDBRANCH  78  79
ENDBRANCH  77  78
ENDBRANCH  76  77
ENDBRANCH  75  76
ENDBRANCH  74  75
ENDBRANCH  73  74
ENDBRANCH  66  73
ENDBRANCH  64  66
ENDBRANCH  63  64
ENDBRANCH   3  63
TORSDOF 62
BEGIN_RES ARG D 557
REMARK  4 active torsions:
REMARK  status: ('A' for Active; 'I' for Inactive)
REMARK    1  A    between atoms: CA   and  CB  
REMARK    2  A    between atoms: CB   and  CG  
REMARK    3  A    between atoms: CG   and  CD  
REMARK    4  A    between atoms: CD   and  NE  
REMARK       I    between atoms: NE   and  CZ  
REMARK       I    between atoms: CZ   and  NH1 
REMARK       I    between atoms: CZ   and  NH2 
ROOT
ATOM      1  CA  ARG D 557     -26.217   2.705 -17.014  1.00 35.49     0.159 C 
ENDROOT
BRANCH   1   2
ATOM      2  CB  ARG D 557     -26.789   1.319 -17.183  1.00 35.49     0.034 C 
BRANCH   2   3
ATOM      3  CG  ARG D 557     -28.224   1.228 -17.477  1.00 35.49     0.027 C 
BRANCH   3   4
ATOM      4  CD  ARG D 557     -28.938   0.336 -16.535  1.00 35.49     0.116 C 
BRANCH   4   5
ATOM      5  NE  ARG D 557     -29.310  -0.913 -17.147  1.00 35.49    -0.212 N 
ATOM      6  CZ  ARG D 557     -28.662  -2.049 -17.027  1.00 35.49     0.666 C 
ATOM      7  NH1 ARG D 557     -27.553  -2.163 -16.319  1.00 35.49    -0.235 N 
ATOM      8  NH2 ARG D 557     -29.156  -3.089 -17.635  1.00 35.49    -0.235 N 
ATOM      9  HH  ARG D 557     -27.212  -1.492 -15.909  1.00 35.49     0.174 HD
ATOM     10  HH  ARG D 557     -27.175  -2.930 -16.274  1.00 35.49     0.174 HD
ATOM     11  HH  ARG D 557     -29.877  -2.988 -18.079  1.00 35.49     0.174 HD
ATOM     12  HH  ARG D 557     -28.767  -3.841 -17.578  1.00 35.49     0.174 HD
ATOM     13  HE  ARG D 557     -29.972  -0.914 -17.680  1.00 35.49     0.178 HD
ENDBRANCH   4   5
ENDBRANCH   3   4
ENDBRANCH   2   3
ENDBRANCH   1   2
END_RES ARG D 557
BEGIN_RES GLU D 570
REMARK  3 active torsions:
REMARK  status: ('A' for Active; 'I' for Inactive)
REMARK    5  A    between atoms: CA   and  CB  
REMARK    6  A    between atoms: CB   and  CG  
REMARK    7  A    between atoms: CG   and  CD  
ROOT
ATOM     14  CA  GLU D 570     -18.033  -6.348 -13.375  1.00 32.92     0.160 C 
ENDROOT
BRANCH  14  15
ATOM     15  CB  GLU D 570     -19.500  -6.345 -13.794  1.00 32.92     0.043 C 
BRANCH  15  16
ATOM     16  CG  GLU D 570     -19.803  -6.073 -15.223  1.00 32.92     0.100 C 
BRANCH  16  17
ATOM     17  CD  GLU D 570     -20.762  -7.074 -15.823  1.00 32.92     0.185 C 
ATOM     18  OE1 GLU D 570     -21.574  -6.691 -16.687  1.00 32.92    -0.647 OA
ATOM     19  OE2 GLU D 570     -20.712  -8.250 -15.413  1.00 32.92    -0.647 OA
ENDBRANCH  16  17
ENDBRANCH  15  16
ENDBRANCH  14  15
END_RES GLU D 570
ENDMDL
