MODEL 1
REMARK VINA RESULT:     -10.1      0.000      0.000
REMARK  10 active torsions:
REMARK  status: ('A' for Active; 'I' for Inactive)
REMARK    1  A    between atoms: C_3  and  C_10 
REMARK    2  A    between atoms: C_11  and  C_12 
REMARK    3  A    between atoms: C_13  and  C_14 
REMARK    4  A    between atoms: C_15  and  C_16 
REMARK    5  A    between atoms: C_17  and  C_18 
REMARK    6  A    between atoms: C_19  and  C_20 
REMARK    7  A    between atoms: C_21  and  C_23 
REMARK    8  A    between atoms: C_24  and  C_25 
REMARK    9  A    between atoms: C_26  and  C_28 
REMARK   10  A    between atoms: C_29  and  C_30 
ROOT
HETATM    1  C   UNL     1     -21.322 -10.244  -0.906  1.00  0.00     0.001 C 
HETATM    2  C   UNL     1     -20.512  -9.165  -0.995  1.00  0.00     0.001 C 
ENDROOT
BRANCH   1   3
HETATM    3  C   UNL     1     -21.550 -11.125   0.264  1.00  0.00     0.007 C 
HETATM    4  C   UNL     1     -21.730 -12.474   0.205  1.00  0.00    -0.062 C 
HETATM    5  C   UNL     1     -21.890 -13.373   1.411  1.00  0.00     0.048 C 
BRANCH   4   6
HETATM    6  C   UNL     1     -21.830 -13.161  -1.061  1.00  0.00     0.007 C 
HETATM    7  C   UNL     1     -22.854 -12.850  -1.872  1.00  0.00     0.001 C 
BRANCH   7   8
HETATM    8  C   UNL     1     -23.067 -13.251  -3.235  1.00  0.00     0.007 C 
HETATM    9  C   UNL     1     -22.225 -12.883  -4.220  1.00  0.00    -0.062 C 
HETATM   10  C   UNL     1     -22.324 -13.518  -5.576  1.00  0.00     0.048 C 
BRANCH   9  11
HETATM   11  C   UNL     1     -21.204 -11.842  -4.067  1.00  0.00     0.007 C 
HETATM   12  C   UNL     1     -19.902 -12.143  -4.007  1.00  0.00     0.009 C 
BRANCH  12  13
HETATM   13  C   UNL     1     -18.754 -11.283  -3.728  1.00  0.00    -0.048 C 
HETATM   14  C   UNL     1     -18.067 -11.531  -2.576  1.00  0.00    -0.077 C 
HETATM   15  C   UNL     1     -18.289 -12.657  -1.575  1.00  0.00     0.044 C 
HETATM   16  C   UNL     1     -16.905 -10.676  -2.131  1.00  0.00     0.034 C 
HETATM   17  C   UNL     1     -16.849  -9.389  -2.924  1.00  0.00     0.005 C 
HETATM   18  C   UNL     1     -16.828  -9.767  -4.404  1.00  0.00     0.014 C 
HETATM   19  C   UNL     1     -18.225 -10.302  -4.844  1.00  0.00    -0.020 C 
HETATM   20  C   UNL     1     -18.035 -11.101  -6.160  1.00  0.00     0.020 C 
HETATM   21  C   UNL     1     -19.054  -9.044  -5.238  1.00  0.00     0.020 C 
ENDBRANCH  12  13
ENDBRANCH   9  11
ENDBRANCH   7   8
ENDBRANCH   4   6
ENDBRANCH   1   3
BRANCH   2  22
HETATM   22  C   UNL     1     -20.558  -8.220  -2.113  1.00  0.00     0.007 C 
HETATM   23  C   UNL     1     -21.341  -7.130  -2.318  1.00  0.00    -0.062 C 
HETATM   24  C   UNL     1     -22.381  -6.548  -1.389  1.00  0.00     0.048 C 
BRANCH  23  25
HETATM   25  C   UNL     1     -21.233  -6.303  -3.540  1.00  0.00     0.007 C 
HETATM   26  C   UNL     1     -21.835  -6.569  -4.717  1.00  0.00     0.001 C 
BRANCH  26  27
HETATM   27  C   UNL     1     -22.049  -5.576  -5.781  1.00  0.00     0.007 C 
HETATM   28  C   UNL     1     -21.103  -4.881  -6.462  1.00  0.00    -0.062 C 
HETATM   29  C   UNL     1     -19.652  -4.858  -6.040  1.00  0.00     0.048 C 
BRANCH  28  30
HETATM   30  C   UNL     1     -21.435  -4.132  -7.705  1.00  0.00     0.007 C 
HETATM   31  C   UNL     1     -21.788  -4.699  -8.878  1.00  0.00     0.009 C 
BRANCH  31  32
HETATM   32  C   UNL     1     -22.292  -4.066 -10.109  1.00  0.00    -0.048 C 
HETATM   33  C   UNL     1     -21.487  -3.531 -11.060  1.00  0.00    -0.077 C 
HETATM   34  C   UNL     1     -22.024  -2.919 -12.347  1.00  0.00     0.034 C 
HETATM   35  C   UNL     1     -19.979  -3.521 -11.022  1.00  0.00     0.044 C 
HETATM   36  C   UNL     1     -23.522  -2.655 -12.352  1.00  0.00     0.005 C 
HETATM   37  C   UNL     1     -24.261  -3.845 -11.774  1.00  0.00     0.014 C 
HETATM   38  C   UNL     1     -23.836  -4.158 -10.311  1.00  0.00    -0.020 C 
HETATM   39  C   UNL     1     -24.400  -5.572 -10.015  1.00  0.00     0.020 C 
HETATM   40  C   UNL     1     -24.536  -3.159  -9.364  1.00  0.00     0.020 C 
ENDBRANCH  31  32
ENDBRANCH  28  30
ENDBRANCH  26  27
ENDBRANCH  23  25
ENDBRANCH   2  22
TORSDOF 10
BEGIN_RES ARG D 557
REMARK  4 active torsions:
REMARK  status: ('A' for Active; 'I' for Inactive)
REMARK    1  A    between atoms: CA   and  CB  
REMARK    2  A    between atoms: CB   and  CG  
REMARK    3  A    between atoms: CG   and  CD  
REMARK    4  A    between atoms: CD   and  NE  
REMARK       I    between atoms: NE   and  CZ  
REMARK       I    between atoms: CZ   and  NH1 
REMARK       I    between atoms: CZ   and  NH2 
ROOT
ATOM      1  CA  ARG D 557     -26.217   2.705 -17.014  1.00 35.49     0.159 C 
ENDROOT
BRANCH   1   2
ATOM      2  CB  ARG D 557     -26.789   1.319 -17.183  1.00 35.49     0.034 C 
BRANCH   2   3
ATOM      3  CG  ARG D 557     -28.221   1.157 -16.906  1.00 35.49     0.027 C 
BRANCH   3   4
ATOM      4  CD  ARG D 557     -28.614  -0.265 -16.776  1.00 35.49     0.116 C 
BRANCH   4   5
ATOM      5  NE  ARG D 557     -27.623  -1.039 -16.075  1.00 35.49    -0.212 N 
ATOM      6  CZ  ARG D 557     -27.485  -2.344 -16.134  1.00 35.49     0.666 C 
ATOM      7  NH1 ARG D 557     -28.280  -3.109 -16.859  1.00 35.49    -0.235 N 
ATOM      8  NH2 ARG D 557     -26.517  -2.877 -15.448  1.00 35.49    -0.235 N 
ATOM      9  HH  ARG D 557     -28.923  -2.779 -17.321  1.00 35.49     0.174 HD
ATOM     10  HH  ARG D 557     -28.141  -3.955 -16.862  1.00 35.49     0.174 HD
ATOM     11  HH  ARG D 557     -26.015  -2.358 -14.994  1.00 35.49     0.174 HD
ATOM     12  HH  ARG D 557     -26.394  -3.716 -15.464  1.00 35.49     0.174 HD
ATOM     13  HE  ARG D 557     -27.114  -0.634 -15.527  1.00 35.49     0.178 HD
ENDBRANCH   4   5
ENDBRANCH   3   4
ENDBRANCH   2   3
ENDBRANCH   1   2
END_RES ARG D 557
BEGIN_RES GLU D 570
REMARK  3 active torsions:
REMARK  status: ('A' for Active; 'I' for Inactive)
REMARK    5  A    between atoms: CA   and  CB  
REMARK    6  A    between atoms: CB   and  CG  
REMARK    7  A    between atoms: CG   and  CD  
ROOT
ATOM     14  CA  GLU D 570     -18.033  -6.348 -13.375  1.00 32.92     0.160 C 
ENDROOT
BRANCH  14  15
ATOM     15  CB  GLU D 570     -19.500  -6.345 -13.794  1.00 32.92     0.043 C 
BRANCH  15  16
ATOM     16  CG  GLU D 570     -19.805  -6.624 -15.221  1.00 32.92     0.100 C 
BRANCH  16  17
ATOM     17  CD  GLU D 570     -20.813  -5.663 -15.807  1.00 32.92     0.185 C 
ATOM     18  OE1 GLU D 570     -20.896  -5.554 -17.046  1.00 32.92    -0.647 OA
ATOM     19  OE2 GLU D 570     -21.515  -4.999 -15.019  1.00 32.92    -0.647 OA
ENDBRANCH  16  17
ENDBRANCH  15  16
ENDBRANCH  14  15
END_RES GLU D 570
ENDMDL
MODEL 2
REMARK VINA RESULT:      -9.7      2.604     12.142
REMARK  10 active torsions:
REMARK  status: ('A' for Active; 'I' for Inactive)
REMARK    1  A    between atoms: C_3  and  C_10 
REMARK    2  A    between atoms: C_11  and  C_12 
REMARK    3  A    between atoms: C_13  and  C_14 
REMARK    4  A    between atoms: C_15  and  C_16 
REMARK    5  A    between atoms: C_17  and  C_18 
REMARK    6  A    between atoms: C_19  and  C_20 
REMARK    7  A    between atoms: C_21  and  C_23 
REMARK    8  A    between atoms: C_24  and  C_25 
REMARK    9  A    between atoms: C_26  and  C_28 
REMARK   10  A    between atoms: C_29  and  C_30 
ROOT
HETATM    1  C   UNL     1     -23.038  -3.937  -9.920  1.00  0.00     0.001 C 
HETATM    2  C   UNL     1     -22.743  -3.653  -8.632  1.00  0.00     0.001 C 
ENDROOT
BRANCH   1   3
HETATM    3  C   UNL     1     -23.409  -2.996 -11.003  1.00  0.00     0.007 C 
HETATM    4  C   UNL     1     -23.487  -3.315 -12.325  1.00  0.00    -0.062 C 
HETATM    5  C   UNL     1     -23.936  -2.364 -13.414  1.00  0.00     0.048 C 
BRANCH   4   6
HETATM    6  C   UNL     1     -23.088  -4.616 -12.805  1.00  0.00     0.007 C 
HETATM    7  C   UNL     1     -23.781  -5.158 -13.820  1.00  0.00     0.001 C 
BRANCH   7   8
HETATM    8  C   UNL     1     -23.473  -6.335 -14.583  1.00  0.00     0.007 C 
HETATM    9  C   UNL     1     -24.284  -6.771 -15.568  1.00  0.00    -0.062 C 
HETATM   10  C   UNL     1     -23.819  -7.842 -16.511  1.00  0.00     0.048 C 
BRANCH   9  11
HETATM   11  C   UNL     1     -25.650  -6.279 -15.770  1.00  0.00     0.007 C 
HETATM   12  C   UNL     1     -26.413  -6.727 -16.773  1.00  0.00     0.009 C 
BRANCH  12  13
HETATM   13  C   UNL     1     -27.730  -6.278 -17.220  1.00  0.00    -0.048 C 
HETATM   14  C   UNL     1     -27.846  -5.928 -18.533  1.00  0.00    -0.077 C 
HETATM   15  C   UNL     1     -26.792  -6.029 -19.628  1.00  0.00     0.044 C 
HETATM   16  C   UNL     1     -29.129  -5.381 -19.112  1.00  0.00     0.034 C 
HETATM   17  C   UNL     1     -30.088  -4.982 -18.012  1.00  0.00     0.005 C 
HETATM   18  C   UNL     1     -30.269  -6.198 -17.104  1.00  0.00     0.014 C 
HETATM   19  C   UNL     1     -28.976  -6.444 -16.268  1.00  0.00    -0.020 C 
HETATM   20  C   UNL     1     -29.016  -7.905 -15.750  1.00  0.00     0.020 C 
HETATM   21  C   UNL     1     -29.117  -5.551 -15.000  1.00  0.00     0.020 C 
ENDBRANCH  12  13
ENDBRANCH   9  11
ENDBRANCH   7   8
ENDBRANCH   4   6
ENDBRANCH   1   3
BRANCH   2  22
HETATM   22  C   UNL     1     -22.143  -4.626  -7.716  1.00  0.00     0.007 C 
HETATM   23  C   UNL     1     -20.856  -5.034  -7.579  1.00  0.00    -0.062 C 
HETATM   24  C   UNL     1     -19.642  -4.539  -8.332  1.00  0.00     0.048 C 
BRANCH  23  25
HETATM   25  C   UNL     1     -20.455  -6.052  -6.583  1.00  0.00     0.007 C 
HETATM   26  C   UNL     1     -21.088  -6.293  -5.417  1.00  0.00     0.001 C 
BRANCH  26  27
HETATM   27  C   UNL     1     -20.939  -7.528  -4.633  1.00  0.00     0.007 C 
HETATM   28  C   UNL     1     -21.369  -7.758  -3.366  1.00  0.00    -0.062 C 
HETATM   29  C   UNL     1     -21.871  -6.651  -2.467  1.00  0.00     0.048 C 
BRANCH  28  30
HETATM   30  C   UNL     1     -21.417  -9.133  -2.799  1.00  0.00     0.007 C 
HETATM   31  C   UNL     1     -21.412  -9.427  -1.482  1.00  0.00     0.009 C 
BRANCH  31  32
HETATM   32  C   UNL     1     -21.621 -10.722  -0.812  1.00  0.00    -0.048 C 
HETATM   33  C   UNL     1     -20.612 -11.561  -0.472  1.00  0.00    -0.077 C 
HETATM   34  C   UNL     1     -20.843 -12.876   0.259  1.00  0.00     0.034 C 
HETATM   35  C   UNL     1     -19.144 -11.297  -0.699  1.00  0.00     0.044 C 
HETATM   36  C   UNL     1     -22.291 -13.341   0.297  1.00  0.00     0.005 C 
HETATM   37  C   UNL     1     -23.201 -12.176   0.634  1.00  0.00     0.014 C 
HETATM   38  C   UNL     1     -23.096 -11.019  -0.401  1.00  0.00    -0.020 C 
HETATM   39  C   UNL     1     -23.791  -9.807   0.271  1.00  0.00     0.020 C 
HETATM   40  C   UNL     1     -23.911 -11.399  -1.657  1.00  0.00     0.020 C 
ENDBRANCH  31  32
ENDBRANCH  28  30
ENDBRANCH  26  27
ENDBRANCH  23  25
ENDBRANCH   2  22
TORSDOF 10
BEGIN_RES ARG D 557
REMARK  4 active torsions:
REMARK  status: ('A' for Active; 'I' for Inactive)
REMARK    1  A    between atoms: CA   and  CB  
REMARK    2  A    between atoms: CB   and  CG  
REMARK    3  A    between atoms: CG   and  CD  
REMARK    4  A    between atoms: CD   and  NE  
REMARK       I    between atoms: NE   and  CZ  
REMARK       I    between atoms: CZ   and  NH1 
REMARK       I    between atoms: CZ   and  NH2 
ROOT
ATOM      1  CA  ARG D 557     -26.217   2.705 -17.014  1.00 35.49     0.159 C 
ENDROOT
BRANCH   1   2
ATOM      2  CB  ARG D 557     -26.789   1.319 -17.183  1.00 35.49     0.034 C 
BRANCH   2   3
ATOM      3  CG  ARG D 557     -28.245   1.220 -17.340  1.00 35.49     0.027 C 
BRANCH   3   4
ATOM      4  CD  ARG D 557     -28.851   0.257 -16.391  1.00 35.49     0.116 C 
BRANCH   4   5
ATOM      5  NE  ARG D 557     -27.908  -0.739 -15.954  1.00 35.49    -0.212 N 
ATOM      6  CZ  ARG D 557     -27.843  -1.978 -16.388  1.00 35.49     0.666 C 
ATOM      7  NH1 ARG D 557     -28.676  -2.456 -17.294  1.00 35.49    -0.235 N 
ATOM      8  NH2 ARG D 557     -26.909  -2.738 -15.896  1.00 35.49    -0.235 N 
ATOM      9  HH  ARG D 557     -29.297  -1.973 -17.633  1.00 35.49     0.174 HD
ATOM     10  HH  ARG D 557     -28.584  -3.272 -17.541  1.00 35.49     0.174 HD
ATOM     11  HH  ARG D 557     -26.381  -2.400 -15.318  1.00 35.49     0.174 HD
ATOM     12  HH  ARG D 557     -26.833  -3.542 -16.154  1.00 35.49     0.174 HD
ATOM     13  HE  ARG D 557     -27.380  -0.537 -15.319  1.00 35.49     0.178 HD
ENDBRANCH   4   5
ENDBRANCH   3   4
ENDBRANCH   2   3
ENDBRANCH   1   2
END_RES ARG D 557
BEGIN_RES GLU D 570
REMARK  3 active torsions:
REMARK  status: ('A' for Active; 'I' for Inactive)
REMARK    5  A    between atoms: CA   and  CB  
REMARK    6  A    between atoms: CB   and  CG  
REMARK    7  A    between atoms: CG   and  CD  
ROOT
ATOM     14  CA  GLU D 570     -18.033  -6.348 -13.375  1.00 32.92     0.160 C 
ENDROOT
BRANCH  14  15
ATOM     15  CB  GLU D 570     -19.500  -6.345 -13.794  1.00 32.92     0.043 C 
BRANCH  15  16
ATOM     16  CG  GLU D 570     -20.091  -7.638 -14.227  1.00 32.92     0.100 C 
BRANCH  16  17
ATOM     17  CD  GLU D 570     -20.407  -7.676 -15.704  1.00 32.92     0.185 C 
ATOM     18  OE1 GLU D 570     -20.497  -6.604 -16.331  1.00 32.92    -0.647 OA
ATOM     19  OE2 GLU D 570     -20.582  -8.790 -16.235  1.00 32.92    -0.647 OA
ENDBRANCH  16  17
ENDBRANCH  15  16
ENDBRANCH  14  15
END_RES GLU D 570
ENDMDL
MODEL 3
REMARK VINA RESULT:      -9.4      2.520     12.175
REMARK  10 active torsions:
REMARK  status: ('A' for Active; 'I' for Inactive)
REMARK    1  A    between atoms: C_3  and  C_10 
REMARK    2  A    between atoms: C_11  and  C_12 
REMARK    3  A    between atoms: C_13  and  C_14 
REMARK    4  A    between atoms: C_15  and  C_16 
REMARK    5  A    between atoms: C_17  and  C_18 
REMARK    6  A    between atoms: C_19  and  C_20 
REMARK    7  A    between atoms: C_21  and  C_23 
REMARK    8  A    between atoms: C_24  and  C_25 
REMARK    9  A    between atoms: C_26  and  C_28 
REMARK   10  A    between atoms: C_29  and  C_30 
ROOT
HETATM    1  C   UNL     1     -22.999  -4.127  -9.608  1.00  0.00     0.001 C 
HETATM    2  C   UNL     1     -22.782  -3.842  -8.304  1.00  0.00     0.001 C 
ENDROOT
BRANCH   1   3
HETATM    3  C   UNL     1     -23.347  -3.191 -10.703  1.00  0.00     0.007 C 
HETATM    4  C   UNL     1     -23.561  -3.549 -11.999  1.00  0.00    -0.062 C 
HETATM    5  C   UNL     1     -23.986  -2.596 -13.095  1.00  0.00     0.048 C 
BRANCH   4   6
HETATM    6  C   UNL     1     -23.347  -4.905 -12.447  1.00  0.00     0.007 C 
HETATM    7  C   UNL     1     -23.680  -5.217 -13.709  1.00  0.00     0.001 C 
BRANCH   7   8
HETATM    8  C   UNL     1     -23.399  -6.424 -14.435  1.00  0.00     0.007 C 
HETATM    9  C   UNL     1     -24.125  -6.787 -15.511  1.00  0.00    -0.062 C 
HETATM   10  C   UNL     1     -23.658  -7.905 -16.396  1.00  0.00     0.048 C 
BRANCH   9  11
HETATM   11  C   UNL     1     -25.404  -6.168 -15.872  1.00  0.00     0.007 C 
HETATM   12  C   UNL     1     -26.321  -6.825 -16.591  1.00  0.00     0.009 C 
BRANCH  12  13
HETATM   13  C   UNL     1     -27.581  -6.351 -17.159  1.00  0.00    -0.048 C 
HETATM   14  C   UNL     1     -27.572  -6.023 -18.483  1.00  0.00    -0.077 C 
HETATM   15  C   UNL     1     -26.429  -6.173 -19.479  1.00  0.00     0.044 C 
HETATM   16  C   UNL     1     -28.784  -5.455 -19.181  1.00  0.00     0.034 C 
HETATM   17  C   UNL     1     -29.825  -5.010 -18.177  1.00  0.00     0.005 C 
HETATM   18  C   UNL     1     -30.117  -6.203 -17.268  1.00  0.00     0.014 C 
HETATM   19  C   UNL     1     -28.910  -6.466 -16.318  1.00  0.00    -0.020 C 
HETATM   20  C   UNL     1     -29.034  -7.916 -15.780  1.00  0.00     0.020 C 
HETATM   21  C   UNL     1     -29.136  -5.545 -15.082  1.00  0.00     0.020 C 
ENDBRANCH  12  13
ENDBRANCH   9  11
ENDBRANCH   7   8
ENDBRANCH   4   6
ENDBRANCH   1   3
BRANCH   2  22
HETATM   22  C   UNL     1     -22.196  -4.801  -7.363  1.00  0.00     0.007 C 
HETATM   23  C   UNL     1     -20.899  -5.063  -7.063  1.00  0.00    -0.062 C 
HETATM   24  C   UNL     1     -19.665  -4.377  -7.603  1.00  0.00     0.048 C 
BRANCH  23  25
HETATM   25  C   UNL     1     -20.514  -6.095  -6.074  1.00  0.00     0.007 C 
HETATM   26  C   UNL     1     -21.138  -6.321  -4.900  1.00  0.00     0.001 C 
BRANCH  26  27
HETATM   27  C   UNL     1     -21.014  -7.562  -4.122  1.00  0.00     0.007 C 
HETATM   28  C   UNL     1     -21.497  -7.807  -2.877  1.00  0.00    -0.062 C 
HETATM   29  C   UNL     1     -22.048  -6.712  -1.992  1.00  0.00     0.048 C 
BRANCH  28  30
HETATM   30  C   UNL     1     -21.559  -9.188  -2.325  1.00  0.00     0.007 C 
HETATM   31  C   UNL     1     -21.423  -9.506  -1.021  1.00  0.00     0.009 C 
BRANCH  31  32
HETATM   32  C   UNL     1     -21.628 -10.799  -0.347  1.00  0.00    -0.048 C 
HETATM   33  C   UNL     1     -22.838 -11.243   0.071  1.00  0.00    -0.077 C 
HETATM   34  C   UNL     1     -23.038 -12.602   0.728  1.00  0.00     0.034 C 
HETATM   35  C   UNL     1     -24.145 -10.510  -0.105  1.00  0.00     0.044 C 
HETATM   36  C   UNL     1     -21.756 -13.290   1.176  1.00  0.00     0.005 C 
HETATM   37  C   UNL     1     -20.701 -13.176   0.094  1.00  0.00     0.014 C 
HETATM   38  C   UNL     1     -20.356 -11.698  -0.250  1.00  0.00    -0.020 C 
HETATM   39  C   UNL     1     -19.560 -11.763  -1.579  1.00  0.00     0.020 C 
HETATM   40  C   UNL     1     -19.416 -11.139   0.841  1.00  0.00     0.020 C 
ENDBRANCH  31  32
ENDBRANCH  28  30
ENDBRANCH  26  27
ENDBRANCH  23  25
ENDBRANCH   2  22
TORSDOF 10
BEGIN_RES ARG D 557
REMARK  4 active torsions:
REMARK  status: ('A' for Active; 'I' for Inactive)
REMARK    1  A    between atoms: CA   and  CB  
REMARK    2  A    between atoms: CB   and  CG  
REMARK    3  A    between atoms: CG   and  CD  
REMARK    4  A    between atoms: CD   and  NE  
REMARK       I    between atoms: NE   and  CZ  
REMARK       I    between atoms: CZ   and  NH1 
REMARK       I    between atoms: CZ   and  NH2 
ROOT
ATOM      1  CA  ARG D 557     -26.217   2.705 -17.014  1.00 35.49     0.159 C 
ENDROOT
BRANCH   1   2
ATOM      2  CB  ARG D 557     -26.789   1.319 -17.183  1.00 35.49     0.034 C 
BRANCH   2   3
ATOM      3  CG  ARG D 557     -28.252   1.202 -17.166  1.00 35.49     0.027 C 
BRANCH   3   4
ATOM      4  CD  ARG D 557     -28.711  -0.042 -16.505  1.00 35.49     0.116 C 
BRANCH   4   5
ATOM      5  NE  ARG D 557     -27.626  -0.764 -15.896  1.00 35.49    -0.212 N 
ATOM      6  CZ  ARG D 557     -27.339  -2.031 -16.094  1.00 35.49     0.666 C 
ATOM      7  NH1 ARG D 557     -28.053  -2.803 -16.892  1.00 35.49    -0.235 N 
ATOM      8  NH2 ARG D 557     -26.303  -2.517 -15.473  1.00 35.49    -0.235 N 
ATOM      9  HH  ARG D 557     -28.738  -2.504 -17.312  1.00 35.49     0.174 HD
ATOM     10  HH  ARG D 557     -27.817  -3.622 -16.985  1.00 35.49     0.174 HD
ATOM     11  HH  ARG D 557     -25.856  -1.993 -14.970  1.00 35.49     0.174 HD
ATOM     12  HH  ARG D 557     -26.085  -3.329 -15.579  1.00 35.49     0.174 HD
ATOM     13  HE  ARG D 557     -27.157  -0.362 -15.311  1.00 35.49     0.178 HD
ENDBRANCH   4   5
ENDBRANCH   3   4
ENDBRANCH   2   3
ENDBRANCH   1   2
END_RES ARG D 557
BEGIN_RES GLU D 570
REMARK  3 active torsions:
REMARK  status: ('A' for Active; 'I' for Inactive)
REMARK    5  A    between atoms: CA   and  CB  
REMARK    6  A    between atoms: CB   and  CG  
REMARK    7  A    between atoms: CG   and  CD  
ROOT
ATOM     14  CA  GLU D 570     -18.033  -6.348 -13.375  1.00 32.92     0.160 C 
ENDROOT
BRANCH  14  15
ATOM     15  CB  GLU D 570     -19.500  -6.345 -13.794  1.00 32.92     0.043 C 
BRANCH  15  16
ATOM     16  CG  GLU D 570     -19.834  -6.920 -15.123  1.00 32.92     0.100 C 
BRANCH  16  17
ATOM     17  CD  GLU D 570     -20.445  -5.909 -16.065  1.00 32.92     0.185 C 
ATOM     18  OE1 GLU D 570     -20.550  -6.195 -17.273  1.00 32.92    -0.647 OA
ATOM     19  OE2 GLU D 570     -20.808  -4.814 -15.593  1.00 32.92    -0.647 OA
ENDBRANCH  16  17
ENDBRANCH  15  16
ENDBRANCH  14  15
END_RES GLU D 570
ENDMDL
MODEL 4
REMARK VINA RESULT:      -9.3      1.444      3.841
REMARK  10 active torsions:
REMARK  status: ('A' for Active; 'I' for Inactive)
REMARK    1  A    between atoms: C_3  and  C_10 
REMARK    2  A    between atoms: C_11  and  C_12 
REMARK    3  A    between atoms: C_13  and  C_14 
REMARK    4  A    between atoms: C_15  and  C_16 
REMARK    5  A    between atoms: C_17  and  C_18 
REMARK    6  A    between atoms: C_19  and  C_20 
REMARK    7  A    between atoms: C_21  and  C_23 
REMARK    8  A    between atoms: C_24  and  C_25 
REMARK    9  A    between atoms: C_26  and  C_28 
REMARK   10  A    between atoms: C_29  and  C_30 
ROOT
HETATM    1  C   UNL     1     -17.782 -11.011  -2.201  1.00  0.00     0.001 C 
HETATM    2  C   UNL     1     -17.453  -9.925  -2.935  1.00  0.00     0.001 C 
ENDROOT
BRANCH   1   3
HETATM    3  C   UNL     1     -17.035 -11.613  -1.071  1.00  0.00     0.007 C 
HETATM    4  C   UNL     1     -17.598 -12.295  -0.036  1.00  0.00    -0.062 C 
HETATM    5  C   UNL     1     -16.820 -12.967   1.075  1.00  0.00     0.048 C 
BRANCH   4   6
HETATM    6  C   UNL     1     -19.031 -12.392   0.106  1.00  0.00     0.007 C 
HETATM    7  C   UNL     1     -19.560 -13.588   0.407  1.00  0.00     0.001 C 
BRANCH   7   8
HETATM    8  C   UNL     1     -20.913 -13.900   0.775  1.00  0.00     0.007 C 
HETATM    9  C   UNL     1     -21.902 -12.990   0.672  1.00  0.00    -0.062 C 
HETATM   10  C   UNL     1     -23.335 -13.410   0.816  1.00  0.00     0.048 C 
BRANCH   9  11
HETATM   11  C   UNL     1     -21.667 -11.559   0.453  1.00  0.00     0.007 C 
HETATM   12  C   UNL     1     -22.230 -10.906  -0.569  1.00  0.00     0.009 C 
BRANCH  12  13
HETATM   13  C   UNL     1     -22.024  -9.535  -1.031  1.00  0.00    -0.048 C 
HETATM   14  C   UNL     1     -21.855  -9.359  -2.374  1.00  0.00    -0.077 C 
HETATM   15  C   UNL     1     -21.944 -10.408  -3.475  1.00  0.00     0.044 C 
HETATM   16  C   UNL     1     -21.564  -8.008  -2.979  1.00  0.00     0.034 C 
HETATM   17  C   UNL     1     -21.170  -7.012  -1.910  1.00  0.00     0.005 C 
HETATM   18  C   UNL     1     -22.279  -7.011  -0.860  1.00  0.00     0.014 C 
HETATM   19  C   UNL     1     -22.241  -8.333  -0.034  1.00  0.00    -0.020 C 
HETATM   20  C   UNL     1     -23.621  -8.502   0.656  1.00  0.00     0.020 C 
HETATM   21  C   UNL     1     -21.229  -8.081   1.121  1.00  0.00     0.020 C 
ENDBRANCH  12  13
ENDBRANCH   9  11
ENDBRANCH   7   8
ENDBRANCH   4   6
ENDBRANCH   1   3
BRANCH   2  22
HETATM   22  C   UNL     1     -18.386  -9.269  -3.855  1.00  0.00     0.007 C 
HETATM   23  C   UNL     1     -18.517  -9.370  -5.202  1.00  0.00    -0.062 C 
HETATM   24  C   UNL     1     -17.739 -10.259  -6.145  1.00  0.00     0.048 C 
BRANCH  23  25
HETATM   25  C   UNL     1     -19.534  -8.601  -5.953  1.00  0.00     0.007 C 
HETATM   26  C   UNL     1     -20.026  -7.399  -5.592  1.00  0.00     0.001 C 
BRANCH  26  27
HETATM   27  C   UNL     1     -20.717  -6.477  -6.507  1.00  0.00     0.007 C 
HETATM   28  C   UNL     1     -20.682  -5.120  -6.492  1.00  0.00    -0.062 C 
HETATM   29  C   UNL     1     -20.092  -4.337  -5.341  1.00  0.00     0.048 C 
BRANCH  28  30
HETATM   30  C   UNL     1     -21.183  -4.318  -7.641  1.00  0.00     0.007 C 
HETATM   31  C   UNL     1     -21.449  -4.809  -8.869  1.00  0.00     0.009 C 
BRANCH  31  32
HETATM   32  C   UNL     1     -22.095  -4.155 -10.019  1.00  0.00    -0.048 C 
HETATM   33  C   UNL     1     -21.410  -3.555 -11.024  1.00  0.00    -0.077 C 
HETATM   34  C   UNL     1     -22.094  -2.921 -12.226  1.00  0.00     0.034 C 
HETATM   35  C   UNL     1     -19.907  -3.487 -11.134  1.00  0.00     0.044 C 
HETATM   36  C   UNL     1     -23.594  -2.716 -12.074  1.00  0.00     0.005 C 
HETATM   37  C   UNL     1     -24.228  -3.955 -11.472  1.00  0.00     0.014 C 
HETATM   38  C   UNL     1     -23.648  -4.301 -10.071  1.00  0.00    -0.020 C 
HETATM   39  C   UNL     1     -24.128  -5.745  -9.777  1.00  0.00     0.020 C 
HETATM   40  C   UNL     1     -24.286  -3.364  -9.022  1.00  0.00     0.020 C 
ENDBRANCH  31  32
ENDBRANCH  28  30
ENDBRANCH  26  27
ENDBRANCH  23  25
ENDBRANCH   2  22
TORSDOF 10
BEGIN_RES ARG D 557
REMARK  4 active torsions:
REMARK  status: ('A' for Active; 'I' for Inactive)
REMARK    1  A    between atoms: CA   and  CB  
REMARK    2  A    between atoms: CB   and  CG  
REMARK    3  A    between atoms: CG   and  CD  
REMARK    4  A    between atoms: CD   and  NE  
REMARK       I    between atoms: NE   and  CZ  
REMARK       I    between atoms: CZ   and  NH1 
REMARK       I    between atoms: CZ   and  NH2 
ROOT
ATOM      1  CA  ARG D 557     -26.217   2.705 -17.014  1.00 35.49     0.159 C 
ENDROOT
BRANCH   1   2
ATOM      2  CB  ARG D 557     -26.789   1.319 -17.183  1.00 35.49     0.034 C 
BRANCH   2   3
ATOM      3  CG  ARG D 557     -25.958   0.200 -16.721  1.00 35.49     0.027 C 
BRANCH   3   4
ATOM      4  CD  ARG D 557     -26.753  -0.855 -16.053  1.00 35.49     0.116 C 
BRANCH   4   5
ATOM      5  NE  ARG D 557     -28.007  -1.092 -16.718  1.00 35.49    -0.212 N 
ATOM      6  CZ  ARG D 557     -28.535  -2.271 -16.964  1.00 35.49     0.666 C 
ATOM      7  NH1 ARG D 557     -27.939  -3.399 -16.626  1.00 35.49    -0.235 N 
ATOM      8  NH2 ARG D 557     -29.692  -2.297 -17.559  1.00 35.49    -0.235 N 
ATOM      9  HH  ARG D 557     -27.178  -3.405 -16.232  1.00 35.49     0.174 HD
ATOM     10  HH  ARG D 557     -28.332  -4.138 -16.810  1.00 35.49     0.174 HD
ATOM     11  HH  ARG D 557     -30.057  -1.553 -17.759  1.00 35.49     0.174 HD
ATOM     12  HH  ARG D 557     -30.066  -3.039 -17.731  1.00 35.49     0.174 HD
ATOM     13  HE  ARG D 557     -28.424  -0.422 -17.035  1.00 35.49     0.178 HD
ENDBRANCH   4   5
ENDBRANCH   3   4
ENDBRANCH   2   3
ENDBRANCH   1   2
END_RES ARG D 557
BEGIN_RES GLU D 570
REMARK  3 active torsions:
REMARK  status: ('A' for Active; 'I' for Inactive)
REMARK    5  A    between atoms: CA   and  CB  
REMARK    6  A    between atoms: CB   and  CG  
REMARK    7  A    between atoms: CG   and  CD  
ROOT
ATOM     14  CA  GLU D 570     -18.033  -6.348 -13.375  1.00 32.92     0.160 C 
ENDROOT
BRANCH  14  15
ATOM     15  CB  GLU D 570     -19.500  -6.345 -13.794  1.00 32.92     0.043 C 
BRANCH  15  16
ATOM     16  CG  GLU D 570     -19.813  -5.940 -15.189  1.00 32.92     0.100 C 
BRANCH  16  17
ATOM     17  CD  GLU D 570     -21.130  -6.492 -15.682  1.00 32.92     0.185 C 
ATOM     18  OE1 GLU D 570     -21.329  -7.721 -15.628  1.00 32.92    -0.647 OA
ATOM     19  OE2 GLU D 570     -21.965  -5.689 -16.142  1.00 32.92    -0.647 OA
ENDBRANCH  16  17
ENDBRANCH  15  16
ENDBRANCH  14  15
END_RES GLU D 570
ENDMDL
MODEL 5
REMARK VINA RESULT:      -9.2      1.424      3.887
REMARK  10 active torsions:
REMARK  status: ('A' for Active; 'I' for Inactive)
REMARK    1  A    between atoms: C_3  and  C_10 
REMARK    2  A    between atoms: C_11  and  C_12 
REMARK    3  A    between atoms: C_13  and  C_14 
REMARK    4  A    between atoms: C_15  and  C_16 
REMARK    5  A    between atoms: C_17  and  C_18 
REMARK    6  A    between atoms: C_19  and  C_20 
REMARK    7  A    between atoms: C_21  and  C_23 
REMARK    8  A    between atoms: C_24  and  C_25 
REMARK    9  A    between atoms: C_26  and  C_28 
REMARK   10  A    between atoms: C_29  and  C_30 
ROOT
HETATM    1  C   UNL     1     -16.835  -9.793  -3.451  1.00  0.00     0.001 C 
HETATM    2  C   UNL     1     -18.140  -9.778  -3.098  1.00  0.00     0.001 C 
ENDROOT
BRANCH   1   3
HETATM    3  C   UNL     1     -15.745 -10.625  -2.889  1.00  0.00     0.007 C 
HETATM    4  C   UNL     1     -15.376 -11.850  -3.354  1.00  0.00    -0.062 C 
HETATM    5  C   UNL     1     -14.214 -12.659  -2.818  1.00  0.00     0.048 C 
BRANCH   4   6
HETATM    6  C   UNL     1     -16.121 -12.509  -4.399  1.00  0.00     0.007 C 
HETATM    7  C   UNL     1     -16.998 -13.463  -4.049  1.00  0.00     0.001 C 
BRANCH   7   8
HETATM    8  C   UNL     1     -17.975 -14.124  -4.869  1.00  0.00     0.007 C 
HETATM    9  C   UNL     1     -19.287 -14.100  -4.565  1.00  0.00    -0.062 C 
HETATM   10  C   UNL     1     -20.304 -14.573  -5.562  1.00  0.00     0.048 C 
BRANCH   9  11
HETATM   11  C   UNL     1     -19.810 -13.660  -3.267  1.00  0.00     0.007 C 
HETATM   12  C   UNL     1     -20.513 -12.529  -3.144  1.00  0.00     0.009 C 
BRANCH  12  13
HETATM   13  C   UNL     1     -21.001 -11.857  -1.942  1.00  0.00    -0.048 C 
HETATM   14  C   UNL     1     -22.110 -11.075  -2.083  1.00  0.00    -0.077 C 
HETATM   15  C   UNL     1     -22.967 -10.879  -3.327  1.00  0.00     0.044 C 
HETATM   16  C   UNL     1     -22.680 -10.270  -0.941  1.00  0.00     0.034 C 
HETATM   17  C   UNL     1     -21.698 -10.196   0.208  1.00  0.00     0.005 C 
HETATM   18  C   UNL     1     -21.316 -11.630   0.571  1.00  0.00     0.014 C 
HETATM   19  C   UNL     1     -20.402 -12.241  -0.534  1.00  0.00    -0.020 C 
HETATM   20  C   UNL     1     -20.439 -13.785  -0.382  1.00  0.00     0.020 C 
HETATM   21  C   UNL     1     -18.949 -11.823  -0.161  1.00  0.00     0.020 C 
ENDBRANCH  12  13
ENDBRANCH   9  11
ENDBRANCH   7   8
ENDBRANCH   4   6
ENDBRANCH   1   3
BRANCH   2  22
HETATM   22  C   UNL     1     -19.174  -9.107  -3.890  1.00  0.00     0.007 C 
HETATM   23  C   UNL     1     -20.149  -8.239  -3.517  1.00  0.00    -0.062 C 
HETATM   24  C   UNL     1     -20.408  -7.673  -2.140  1.00  0.00     0.048 C 
BRANCH  23  25
HETATM   25  C   UNL     1     -21.114  -7.676  -4.487  1.00  0.00     0.007 C 
HETATM   26  C   UNL     1     -21.263  -6.366  -4.767  1.00  0.00     0.001 C 
BRANCH  26  27
HETATM   27  C   UNL     1     -21.917  -5.846  -5.978  1.00  0.00     0.007 C 
HETATM   28  C   UNL     1     -21.322  -5.271  -7.054  1.00  0.00    -0.062 C 
HETATM   29  C   UNL     1     -19.868  -4.858  -7.052  1.00  0.00     0.048 C 
BRANCH  28  30
HETATM   30  C   UNL     1     -22.061  -5.058  -8.328  1.00  0.00     0.007 C 
HETATM   31  C   UNL     1     -22.172  -3.876  -8.969  1.00  0.00     0.009 C 
BRANCH  31  32
HETATM   32  C   UNL     1     -22.728  -3.582 -10.300  1.00  0.00    -0.048 C 
HETATM   33  C   UNL     1     -24.048  -3.377 -10.533  1.00  0.00    -0.077 C 
HETATM   34  C   UNL     1     -24.601  -3.032 -11.909  1.00  0.00     0.034 C 
HETATM   35  C   UNL     1     -25.131  -3.394  -9.483  1.00  0.00     0.044 C 
HETATM   36  C   UNL     1     -23.630  -3.248 -13.060  1.00  0.00     0.005 C 
HETATM   37  C   UNL     1     -22.261  -2.709 -12.692  1.00  0.00     0.014 C 
HETATM   38  C   UNL     1     -21.668  -3.398 -11.430  1.00  0.00    -0.020 C 
HETATM   39  C   UNL     1     -20.476  -2.505 -10.999  1.00  0.00     0.020 C 
HETATM   40  C   UNL     1     -21.106  -4.779 -11.834  1.00  0.00     0.020 C 
ENDBRANCH  31  32
ENDBRANCH  28  30
ENDBRANCH  26  27
ENDBRANCH  23  25
ENDBRANCH   2  22
TORSDOF 10
BEGIN_RES ARG D 557
REMARK  4 active torsions:
REMARK  status: ('A' for Active; 'I' for Inactive)
REMARK    1  A    between atoms: CA   and  CB  
REMARK    2  A    between atoms: CB   and  CG  
REMARK    3  A    between atoms: CG   and  CD  
REMARK    4  A    between atoms: CD   and  NE  
REMARK       I    between atoms: NE   and  CZ  
REMARK       I    between atoms: CZ   and  NH1 
REMARK       I    between atoms: CZ   and  NH2 
ROOT
ATOM      1  CA  ARG D 557     -26.217   2.705 -17.014  1.00 35.49     0.159 C 
ENDROOT
BRANCH   1   2
ATOM      2  CB  ARG D 557     -26.789   1.319 -17.183  1.00 35.49     0.034 C 
BRANCH   2   3
ATOM      3  CG  ARG D 557     -28.237   1.174 -16.993  1.00 35.49     0.027 C 
BRANCH   3   4
ATOM      4  CD  ARG D 557     -28.642  -0.236 -16.792  1.00 35.49     0.116 C 
BRANCH   4   5
ATOM      5  NE  ARG D 557     -27.627  -1.000 -16.115  1.00 35.49    -0.212 N 
ATOM      6  CZ  ARG D 557     -27.472  -2.303 -16.186  1.00 35.49     0.666 C 
ATOM      7  NH1 ARG D 557     -28.270  -3.075 -16.900  1.00 35.49    -0.235 N 
ATOM      8  NH2 ARG D 557     -26.483  -2.827 -15.522  1.00 35.49    -0.235 N 
ATOM      9  HH  ARG D 557     -28.926  -2.751 -17.347  1.00 35.49     0.174 HD
ATOM     10  HH  ARG D 557     -28.119  -3.918 -16.911  1.00 35.49     0.174 HD
ATOM     11  HH  ARG D 557     -25.979  -2.303 -15.075  1.00 35.49     0.174 HD
ATOM     12  HH  ARG D 557     -26.348  -3.664 -15.546  1.00 35.49     0.174 HD
ATOM     13  HE  ARG D 557     -27.113  -0.591 -15.575  1.00 35.49     0.178 HD
ENDBRANCH   4   5
ENDBRANCH   3   4
ENDBRANCH   2   3
ENDBRANCH   1   2
END_RES ARG D 557
BEGIN_RES GLU D 570
REMARK  3 active torsions:
REMARK  status: ('A' for Active; 'I' for Inactive)
REMARK    5  A    between atoms: CA   and  CB  
REMARK    6  A    between atoms: CB   and  CG  
REMARK    7  A    between atoms: CG   and  CD  
ROOT
ATOM     14  CA  GLU D 570     -18.033  -6.348 -13.375  1.00 32.92     0.160 C 
ENDROOT
BRANCH  14  15
ATOM     15  CB  GLU D 570     -19.500  -6.345 -13.794  1.00 32.92     0.043 C 
BRANCH  15  16
ATOM     16  CG  GLU D 570     -19.799  -6.175 -15.239  1.00 32.92     0.100 C 
BRANCH  16  17
ATOM     17  CD  GLU D 570     -21.255  -5.874 -15.509  1.00 32.92     0.185 C 
ATOM     18  OE1 GLU D 570     -21.547  -4.999 -16.346  1.00 32.92    -0.647 OA
ATOM     19  OE2 GLU D 570     -22.112  -6.509 -14.863  1.00 32.92    -0.647 OA
ENDBRANCH  16  17
ENDBRANCH  15  16
ENDBRANCH  14  15
END_RES GLU D 570
ENDMDL
MODEL 6
REMARK VINA RESULT:      -9.1      1.591      4.255
REMARK  10 active torsions:
REMARK  status: ('A' for Active; 'I' for Inactive)
REMARK    1  A    between atoms: C_3  and  C_10 
REMARK    2  A    between atoms: C_11  and  C_12 
REMARK    3  A    between atoms: C_13  and  C_14 
REMARK    4  A    between atoms: C_15  and  C_16 
REMARK    5  A    between atoms: C_17  and  C_18 
REMARK    6  A    between atoms: C_19  and  C_20 
REMARK    7  A    between atoms: C_21  and  C_23 
REMARK    8  A    between atoms: C_24  and  C_25 
REMARK    9  A    between atoms: C_26  and  C_28 
REMARK   10  A    between atoms: C_29  and  C_30 
ROOT
HETATM    1  C   UNL     1     -15.839 -10.544  -5.163  1.00  0.00     0.001 C 
HETATM    2  C   UNL     1     -16.909 -10.268  -4.385  1.00  0.00     0.001 C 
ENDROOT
BRANCH   1   3
HETATM    3  C   UNL     1     -14.695 -11.437  -4.863  1.00  0.00     0.007 C 
HETATM    4  C   UNL     1     -14.529 -12.133  -3.704  1.00  0.00    -0.062 C 
HETATM    5  C   UNL     1     -13.394 -13.098  -3.437  1.00  0.00     0.048 C 
BRANCH   4   6
HETATM    6  C   UNL     1     -15.430 -11.959  -2.591  1.00  0.00     0.007 C 
HETATM    7  C   UNL     1     -16.112 -13.029  -2.153  1.00  0.00     0.001 C 
BRANCH   7   8
HETATM    8  C   UNL     1     -16.914 -13.154  -0.968  1.00  0.00     0.007 C 
HETATM    9  C   UNL     1     -18.249 -12.967  -0.995  1.00  0.00    -0.062 C 
HETATM   10  C   UNL     1     -19.090 -13.350   0.188  1.00  0.00     0.048 C 
BRANCH   9  11
HETATM   11  C   UNL     1     -18.960 -12.364  -2.126  1.00  0.00     0.007 C 
HETATM   12  C   UNL     1     -19.623 -13.112  -3.014  1.00  0.00     0.009 C 
BRANCH  12  13
HETATM   13  C   UNL     1     -20.274 -12.723  -4.263  1.00  0.00    -0.048 C 
HETATM   14  C   UNL     1     -19.540 -12.857  -5.406  1.00  0.00    -0.077 C 
HETATM   15  C   UNL     1     -18.144 -13.447  -5.560  1.00  0.00     0.044 C 
HETATM   16  C   UNL     1     -20.063 -12.429  -6.755  1.00  0.00     0.034 C 
HETATM   17  C   UNL     1     -21.300 -11.570  -6.605  1.00  0.00     0.005 C 
HETATM   18  C   UNL     1     -22.298 -12.356  -5.758  1.00  0.00     0.014 C 
HETATM   19  C   UNL     1     -21.820 -12.413  -4.275  1.00  0.00    -0.020 C 
HETATM   20  C   UNL     1     -22.567 -13.581  -3.579  1.00  0.00     0.020 C 
HETATM   21  C   UNL     1     -22.363 -11.116  -3.605  1.00  0.00     0.020 C 
ENDBRANCH  12  13
ENDBRANCH   9  11
ENDBRANCH   7   8
ENDBRANCH   4   6
ENDBRANCH   1   3
BRANCH   2  22
HETATM   22  C   UNL     1     -18.102  -9.576  -4.882  1.00  0.00     0.007 C 
HETATM   23  C   UNL     1     -19.159  -9.049  -4.215  1.00  0.00    -0.062 C 
HETATM   24  C   UNL     1     -19.375  -8.988  -2.720  1.00  0.00     0.048 C 
BRANCH  23  25
HETATM   25  C   UNL     1     -20.283  -8.390  -4.917  1.00  0.00     0.007 C 
HETATM   26  C   UNL     1     -20.291  -7.113  -5.349  1.00  0.00     0.001 C 
BRANCH  26  27
HETATM   27  C   UNL     1     -21.215  -6.588  -6.366  1.00  0.00     0.007 C 
HETATM   28  C   UNL     1     -21.109  -5.422  -7.053  1.00  0.00    -0.062 C 
HETATM   29  C   UNL     1     -20.110  -4.350  -6.682  1.00  0.00     0.048 C 
BRANCH  28  30
HETATM   30  C   UNL     1     -21.945  -5.150  -8.254  1.00  0.00     0.007 C 
HETATM   31  C   UNL     1     -21.938  -3.997  -8.955  1.00  0.00     0.009 C 
BRANCH  31  32
HETATM   32  C   UNL     1     -22.589  -3.678 -10.237  1.00  0.00    -0.048 C 
HETATM   33  C   UNL     1     -23.927  -3.515 -10.379  1.00  0.00    -0.077 C 
HETATM   34  C   UNL     1     -24.579  -3.143 -11.703  1.00  0.00     0.034 C 
HETATM   35  C   UNL     1     -24.940  -3.608  -9.264  1.00  0.00     0.044 C 
HETATM   36  C   UNL     1     -23.676  -3.281 -12.920  1.00  0.00     0.005 C 
HETATM   37  C   UNL     1     -22.307  -2.704 -12.619  1.00  0.00     0.014 C 
HETATM   38  C   UNL     1     -21.610  -3.415 -11.423  1.00  0.00    -0.020 C 
HETATM   39  C   UNL     1     -20.426  -2.494 -11.036  1.00  0.00     0.020 C 
HETATM   40  C   UNL     1     -21.027  -4.759 -11.913  1.00  0.00     0.020 C 
ENDBRANCH  31  32
ENDBRANCH  28  30
ENDBRANCH  26  27
ENDBRANCH  23  25
ENDBRANCH   2  22
TORSDOF 10
BEGIN_RES ARG D 557
REMARK  4 active torsions:
REMARK  status: ('A' for Active; 'I' for Inactive)
REMARK    1  A    between atoms: CA   and  CB  
REMARK    2  A    between atoms: CB   and  CG  
REMARK    3  A    between atoms: CG   and  CD  
REMARK    4  A    between atoms: CD   and  NE  
REMARK       I    between atoms: NE   and  CZ  
REMARK       I    between atoms: CZ   and  NH1 
REMARK       I    between atoms: CZ   and  NH2 
ROOT
ATOM      1  CA  ARG D 557     -26.217   2.705 -17.014  1.00 35.49     0.159 C 
ENDROOT
BRANCH   1   2
ATOM      2  CB  ARG D 557     -26.789   1.319 -17.183  1.00 35.49     0.034 C 
BRANCH   2   3
ATOM      3  CG  ARG D 557     -28.222   1.158 -16.908  1.00 35.49     0.027 C 
BRANCH   3   4
ATOM      4  CD  ARG D 557     -28.621  -0.265 -16.813  1.00 35.49     0.116 C 
BRANCH   4   5
ATOM      5  NE  ARG D 557     -27.649  -1.055 -16.105  1.00 35.49    -0.212 N 
ATOM      6  CZ  ARG D 557     -27.523  -2.362 -16.174  1.00 35.49     0.666 C 
ATOM      7  NH1 ARG D 557     -28.315  -3.112 -16.918  1.00 35.49    -0.235 N 
ATOM      8  NH2 ARG D 557     -26.570  -2.911 -15.479  1.00 35.49    -0.235 N 
ATOM      9  HH  ARG D 557     -28.947  -2.771 -17.386  1.00 35.49     0.174 HD
ATOM     10  HH  ARG D 557     -28.184  -3.959 -16.927  1.00 35.49     0.174 HD
ATOM     11  HH  ARG D 557     -26.069  -2.401 -15.013  1.00 35.49     0.174 HD
ATOM     12  HH  ARG D 557     -26.455  -3.751 -15.501  1.00 35.49     0.174 HD
ATOM     13  HE  ARG D 557     -27.144  -0.661 -15.546  1.00 35.49     0.178 HD
ENDBRANCH   4   5
ENDBRANCH   3   4
ENDBRANCH   2   3
ENDBRANCH   1   2
END_RES ARG D 557
BEGIN_RES GLU D 570
REMARK  3 active torsions:
REMARK  status: ('A' for Active; 'I' for Inactive)
REMARK    5  A    between atoms: CA   and  CB  
REMARK    6  A    between atoms: CB   and  CG  
REMARK    7  A    between atoms: CG   and  CD  
ROOT
ATOM     14  CA  GLU D 570     -18.033  -6.348 -13.375  1.00 32.92     0.160 C 
ENDROOT
BRANCH  14  15
ATOM     15  CB  GLU D 570     -19.500  -6.345 -13.794  1.00 32.92     0.043 C 
BRANCH  15  16
ATOM     16  CG  GLU D 570     -19.806  -6.031 -15.214  1.00 32.92     0.100 C 
BRANCH  16  17
ATOM     17  CD  GLU D 570     -21.267  -5.728 -15.449  1.00 32.92     0.185 C 
ATOM     18  OE1 GLU D 570     -21.577  -4.804 -16.225  1.00 32.92    -0.647 OA
ATOM     19  OE2 GLU D 570     -22.112  -6.412 -14.837  1.00 32.92    -0.647 OA
ENDBRANCH  16  17
ENDBRANCH  15  16
ENDBRANCH  14  15
END_RES GLU D 570
ENDMDL
MODEL 7
REMARK VINA RESULT:      -9.1      1.787      4.077
REMARK  10 active torsions:
REMARK  status: ('A' for Active; 'I' for Inactive)
REMARK    1  A    between atoms: C_3  and  C_10 
REMARK    2  A    between atoms: C_11  and  C_12 
REMARK    3  A    between atoms: C_13  and  C_14 
REMARK    4  A    between atoms: C_15  and  C_16 
REMARK    5  A    between atoms: C_17  and  C_18 
REMARK    6  A    between atoms: C_19  and  C_20 
REMARK    7  A    between atoms: C_21  and  C_23 
REMARK    8  A    between atoms: C_24  and  C_25 
REMARK    9  A    between atoms: C_26  and  C_28 
REMARK   10  A    between atoms: C_29  and  C_30 
ROOT
HETATM    1  C   UNL     1     -17.114 -11.530  -1.310  1.00  0.00     0.001 C 
HETATM    2  C   UNL     1     -16.801 -10.581  -2.221  1.00  0.00     0.001 C 
ENDROOT
BRANCH   1   3
HETATM    3  C   UNL     1     -16.392 -11.876  -0.064  1.00  0.00     0.007 C 
HETATM    4  C   UNL     1     -16.390 -13.105   0.525  1.00  0.00    -0.062 C 
HETATM    5  C   UNL     1     -15.591 -13.466   1.758  1.00  0.00     0.048 C 
BRANCH   4   6
HETATM    6  C   UNL     1     -17.217 -14.176   0.022  1.00  0.00     0.007 C 
HETATM    7  C   UNL     1     -18.377 -14.430   0.647  1.00  0.00     0.001 C 
BRANCH   7   8
HETATM    8  C   UNL     1     -19.440 -15.304   0.237  1.00  0.00     0.007 C 
HETATM    9  C   UNL     1     -20.701 -14.856   0.076  1.00  0.00    -0.062 C 
HETATM   10  C   UNL     1     -21.731 -15.718  -0.593  1.00  0.00     0.048 C 
BRANCH   9  11
HETATM   11  C   UNL     1     -21.165 -13.550   0.556  1.00  0.00     0.007 C 
HETATM   12  C   UNL     1     -21.344 -12.521  -0.280  1.00  0.00     0.009 C 
BRANCH  12  13
HETATM   13  C   UNL     1     -21.668 -11.126   0.009  1.00  0.00    -0.048 C 
HETATM   14  C   UNL     1     -20.784 -10.441   0.792  1.00  0.00    -0.077 C 
HETATM   15  C   UNL     1     -19.445 -10.921   1.336  1.00  0.00     0.044 C 
HETATM   16  C   UNL     1     -21.028  -9.016   1.225  1.00  0.00     0.034 C 
HETATM   17  C   UNL     1     -22.464  -8.613   0.967  1.00  0.00     0.005 C 
HETATM   18  C   UNL     1     -22.753  -8.886  -0.507  1.00  0.00     0.014 C 
HETATM   19  C   UNL     1     -22.847 -10.421  -0.764  1.00  0.00    -0.020 C 
HETATM   20  C   UNL     1     -22.658 -10.661  -2.285  1.00  0.00     0.020 C 
HETATM   21  C   UNL     1     -24.324 -10.811  -0.463  1.00  0.00     0.020 C 
ENDBRANCH  12  13
ENDBRANCH   9  11
ENDBRANCH   7   8
ENDBRANCH   4   6
ENDBRANCH   1   3
BRANCH   2  22
HETATM   22  C   UNL     1     -17.721 -10.152  -3.278  1.00  0.00     0.007 C 
HETATM   23  C   UNL     1     -18.834  -9.378  -3.220  1.00  0.00    -0.062 C 
HETATM   24  C   UNL     1     -19.418  -8.684  -2.012  1.00  0.00     0.048 C 
BRANCH  23  25
HETATM   25  C   UNL     1     -19.639  -9.068  -4.422  1.00  0.00     0.007 C 
HETATM   26  C   UNL     1     -20.703  -8.241  -4.455  1.00  0.00     0.001 C 
BRANCH  26  27
HETATM   27  C   UNL     1     -21.245  -7.637  -5.682  1.00  0.00     0.007 C 
HETATM   28  C   UNL     1     -21.118  -6.349  -6.092  1.00  0.00    -0.062 C 
HETATM   29  C   UNL     1     -20.580  -5.260  -5.192  1.00  0.00     0.048 C 
BRANCH  28  30
HETATM   30  C   UNL     1     -21.459  -5.940  -7.483  1.00  0.00     0.007 C 
HETATM   31  C   UNL     1     -21.709  -4.674  -7.876  1.00  0.00     0.009 C 
BRANCH  31  32
HETATM   32  C   UNL     1     -21.891  -4.135  -9.234  1.00  0.00    -0.048 C 
HETATM   33  C   UNL     1     -23.100  -3.819  -9.760  1.00  0.00    -0.077 C 
HETATM   34  C   UNL     1     -23.265  -3.222 -11.151  1.00  0.00     0.034 C 
HETATM   35  C   UNL     1     -24.422  -3.942  -9.044  1.00  0.00     0.044 C 
HETATM   36  C   UNL     1     -22.027  -3.303 -12.032  1.00  0.00     0.005 C 
HETATM   37  C   UNL     1     -20.797  -2.912 -11.237  1.00  0.00     0.014 C 
HETATM   38  C   UNL     1     -20.568  -3.831 -10.003  1.00  0.00    -0.020 C 
HETATM   39  C   UNL     1     -19.520  -3.091  -9.132  1.00  0.00     0.020 C 
HETATM   40  C   UNL     1     -19.938  -5.158 -10.481  1.00  0.00     0.020 C 
ENDBRANCH  31  32
ENDBRANCH  28  30
ENDBRANCH  26  27
ENDBRANCH  23  25
ENDBRANCH   2  22
TORSDOF 10
BEGIN_RES ARG D 557
REMARK  4 active torsions:
REMARK  status: ('A' for Active; 'I' for Inactive)
REMARK    1  A    between atoms: CA   and  CB  
REMARK    2  A    between atoms: CB   and  CG  
REMARK    3  A    between atoms: CG   and  CD  
REMARK    4  A    between atoms: CD   and  NE  
REMARK       I    between atoms: NE   and  CZ  
REMARK       I    between atoms: CZ   and  NH1 
REMARK       I    between atoms: CZ   and  NH2 
ROOT
ATOM      1  CA  ARG D 557     -26.217   2.705 -17.014  1.00 35.49     0.159 C 
ENDROOT
BRANCH   1   2
ATOM      2  CB  ARG D 557     -26.789   1.319 -17.183  1.00 35.49     0.034 C 
BRANCH   2   3
ATOM      3  CG  ARG D 557     -28.236   1.225 -17.413  1.00 35.49     0.027 C 
BRANCH   3   4
ATOM      4  CD  ARG D 557     -28.896   0.286 -16.478  1.00 35.49     0.116 C 
BRANCH   4   5
ATOM      5  NE  ARG D 557     -29.272  -0.945 -17.121  1.00 35.49    -0.212 N 
ATOM      6  CZ  ARG D 557     -28.631  -2.089 -17.026  1.00 35.49     0.666 C 
ATOM      7  NH1 ARG D 557     -27.526  -2.225 -16.316  1.00 35.49    -0.235 N 
ATOM      8  NH2 ARG D 557     -29.128  -3.110 -17.661  1.00 35.49    -0.235 N 
ATOM      9  HH  ARG D 557     -27.183  -1.567 -15.888  1.00 35.49     0.174 HD
ATOM     10  HH  ARG D 557     -27.153  -2.996 -16.288  1.00 35.49     0.174 HD
ATOM     11  HH  ARG D 557     -29.846  -2.994 -18.106  1.00 35.49     0.174 HD
ATOM     12  HH  ARG D 557     -28.744  -3.865 -17.620  1.00 35.49     0.174 HD
ATOM     13  HE  ARG D 557     -29.932  -0.931 -17.657  1.00 35.49     0.178 HD
ENDBRANCH   4   5
ENDBRANCH   3   4
ENDBRANCH   2   3
ENDBRANCH   1   2
END_RES ARG D 557
BEGIN_RES GLU D 570
REMARK  3 active torsions:
REMARK  status: ('A' for Active; 'I' for Inactive)
REMARK    5  A    between atoms: CA   and  CB  
REMARK    6  A    between atoms: CB   and  CG  
REMARK    7  A    between atoms: CG   and  CD  
ROOT
ATOM     14  CA  GLU D 570     -18.033  -6.348 -13.375  1.00 32.92     0.160 C 
ENDROOT
BRANCH  14  15
ATOM     15  CB  GLU D 570     -19.500  -6.345 -13.794  1.00 32.92     0.043 C 
BRANCH  15  16
ATOM     16  CG  GLU D 570     -19.807  -6.013 -15.209  1.00 32.92     0.100 C 
BRANCH  16  17
ATOM     17  CD  GLU D 570     -21.268  -5.705 -15.439  1.00 32.92     0.185 C 
ATOM     18  OE1 GLU D 570     -21.577  -4.781 -16.215  1.00 32.92    -0.647 OA
ATOM     19  OE2 GLU D 570     -22.113  -6.384 -14.823  1.00 32.92    -0.647 OA
ENDBRANCH  16  17
ENDBRANCH  15  16
ENDBRANCH  14  15
END_RES GLU D 570
ENDMDL
MODEL 8
REMARK VINA RESULT:      -9.0      1.302      2.132
REMARK  10 active torsions:
REMARK  status: ('A' for Active; 'I' for Inactive)
REMARK    1  A    between atoms: C_3  and  C_10 
REMARK    2  A    between atoms: C_11  and  C_12 
REMARK    3  A    between atoms: C_13  and  C_14 
REMARK    4  A    between atoms: C_15  and  C_16 
REMARK    5  A    between atoms: C_17  and  C_18 
REMARK    6  A    between atoms: C_19  and  C_20 
REMARK    7  A    between atoms: C_21  and  C_23 
REMARK    8  A    between atoms: C_24  and  C_25 
REMARK    9  A    between atoms: C_26  and  C_28 
REMARK   10  A    between atoms: C_29  and  C_30 
ROOT
HETATM    1  C   UNL     1     -21.781 -11.156  -0.124  1.00  0.00     0.001 C 
HETATM    2  C   UNL     1     -21.236  -9.919  -0.152  1.00  0.00     0.001 C 
ENDROOT
BRANCH   1   3
HETATM    3  C   UNL     1     -21.923 -12.068   1.035  1.00  0.00     0.007 C 
HETATM    4  C   UNL     1     -22.635 -13.228   1.035  1.00  0.00    -0.062 C 
HETATM    5  C   UNL     1     -22.714 -14.188   2.203  1.00  0.00     0.048 C 
BRANCH   4   6
HETATM    6  C   UNL     1     -23.431 -13.618  -0.104  1.00  0.00     0.007 C 
HETATM    7  C   UNL     1     -22.812 -14.205  -1.140  1.00  0.00     0.001 C 
BRANCH   7   8
HETATM    8  C   UNL     1     -23.398 -14.839  -2.288  1.00  0.00     0.007 C 
HETATM    9  C   UNL     1     -23.067 -14.474  -3.543  1.00  0.00    -0.062 C 
HETATM   10  C   UNL     1     -23.492 -15.313  -4.712  1.00  0.00     0.048 C 
BRANCH   9  11
HETATM   11  C   UNL     1     -22.323 -13.252  -3.862  1.00  0.00     0.007 C 
HETATM   12  C   UNL     1     -20.993 -13.188  -3.729  1.00  0.00     0.009 C 
BRANCH  12  13
HETATM   13  C   UNL     1     -20.093 -12.045  -3.865  1.00  0.00    -0.048 C 
HETATM   14  C   UNL     1     -19.212 -11.833  -2.845  1.00  0.00    -0.077 C 
HETATM   15  C   UNL     1     -18.982 -12.694  -1.610  1.00  0.00     0.044 C 
HETATM   16  C   UNL     1     -18.274 -10.651  -2.823  1.00  0.00     0.034 C 
HETATM   17  C   UNL     1     -18.677  -9.624  -3.858  1.00  0.00     0.005 C 
HETATM   18  C   UNL     1     -18.759 -10.344  -5.203  1.00  0.00     0.014 C 
HETATM   19  C   UNL     1     -20.006 -11.278  -5.240  1.00  0.00    -0.020 C 
HETATM   20  C   UNL     1     -19.792 -12.314  -6.375  1.00  0.00     0.020 C 
HETATM   21  C   UNL     1     -21.190 -10.384  -5.714  1.00  0.00     0.020 C 
ENDBRANCH  12  13
ENDBRANCH   9  11
ENDBRANCH   7   8
ENDBRANCH   4   6
ENDBRANCH   1   3
BRANCH   2  22
HETATM   22  C   UNL     1     -21.378  -9.007  -1.290  1.00  0.00     0.007 C 
HETATM   23  C   UNL     1     -21.905  -7.758  -1.361  1.00  0.00    -0.062 C 
HETATM   24  C   UNL     1     -22.461  -6.922  -0.233  1.00  0.00     0.048 C 
BRANCH  23  25
HETATM   25  C   UNL     1     -21.963  -7.001  -2.631  1.00  0.00     0.007 C 
HETATM   26  C   UNL     1     -21.306  -7.325  -3.763  1.00  0.00     0.001 C 
BRANCH  26  27
HETATM   27  C   UNL     1     -21.660  -6.822  -5.099  1.00  0.00     0.007 C 
HETATM   28  C   UNL     1     -21.097  -5.781  -5.764  1.00  0.00    -0.062 C 
HETATM   29  C   UNL     1     -20.150  -4.810  -5.097  1.00  0.00     0.048 C 
BRANCH  28  30
HETATM   30  C   UNL     1     -21.343  -5.562  -7.216  1.00  0.00     0.007 C 
HETATM   31  C   UNL     1     -21.748  -4.397  -7.764  1.00  0.00     0.009 C 
BRANCH  31  32
HETATM   32  C   UNL     1     -21.862  -4.021  -9.183  1.00  0.00    -0.048 C 
HETATM   33  C   UNL     1     -23.037  -3.712  -9.784  1.00  0.00    -0.077 C 
HETATM   34  C   UNL     1     -23.132  -3.284 -11.242  1.00  0.00     0.034 C 
HETATM   35  C   UNL     1     -24.383  -3.680  -9.103  1.00  0.00     0.044 C 
HETATM   36  C   UNL     1     -21.877  -3.535 -12.064  1.00  0.00     0.005 C 
HETATM   37  C   UNL     1     -20.650  -3.111 -11.281  1.00  0.00     0.014 C 
HETATM   38  C   UNL     1     -20.504  -3.882  -9.938  1.00  0.00    -0.020 C 
HETATM   39  C   UNL     1     -19.442  -3.095  -9.129  1.00  0.00     0.020 C 
HETATM   40  C   UNL     1     -19.934  -5.288 -10.229  1.00  0.00     0.020 C 
ENDBRANCH  31  32
ENDBRANCH  28  30
ENDBRANCH  26  27
ENDBRANCH  23  25
ENDBRANCH   2  22
TORSDOF 10
BEGIN_RES ARG D 557
REMARK  4 active torsions:
REMARK  status: ('A' for Active; 'I' for Inactive)
REMARK    1  A    between atoms: CA   and  CB  
REMARK    2  A    between atoms: CB   and  CG  
REMARK    3  A    between atoms: CG   and  CD  
REMARK    4  A    between atoms: CD   and  NE  
REMARK       I    between atoms: NE   and  CZ  
REMARK       I    between atoms: CZ   and  NH1 
REMARK       I    between atoms: CZ   and  NH2 
ROOT
ATOM      1  CA  ARG D 557     -26.217   2.705 -17.014  1.00 35.49     0.159 C 
ENDROOT
BRANCH   1   2
ATOM      2  CB  ARG D 557     -26.789   1.319 -17.183  1.00 35.49     0.034 C 
BRANCH   2   3
ATOM      3  CG  ARG D 557     -25.971   0.202 -16.694  1.00 35.49     0.027 C 
BRANCH   3   4
ATOM      4  CD  ARG D 557     -26.793  -0.933 -16.216  1.00 35.49     0.116 C 
BRANCH   4   5
ATOM      5  NE  ARG D 557     -26.224  -1.563 -15.054  1.00 35.49    -0.212 N 
ATOM      6  CZ  ARG D 557     -26.266  -2.847 -14.779  1.00 35.49     0.666 C 
ATOM      7  NH1 ARG D 557     -26.868  -3.721 -15.564  1.00 35.49    -0.235 N 
ATOM      8  NH2 ARG D 557     -25.677  -3.247 -13.690  1.00 35.49    -0.235 N 
ATOM      9  HH  ARG D 557     -27.260  -3.481 -16.287  1.00 35.49     0.174 HD
ATOM     10  HH  ARG D 557     -26.861  -4.547 -15.335  1.00 35.49     0.174 HD
ATOM     11  HH  ARG D 557     -25.290  -2.661 -13.206  1.00 35.49     0.174 HD
ATOM     12  HH  ARG D 557     -25.680  -4.069 -13.481  1.00 35.49     0.174 HD
ATOM     13  HE  ARG D 557     -25.880  -1.064 -14.458  1.00 35.49     0.178 HD
ENDBRANCH   4   5
ENDBRANCH   3   4
ENDBRANCH   2   3
ENDBRANCH   1   2
END_RES ARG D 557
BEGIN_RES GLU D 570
REMARK  3 active torsions:
REMARK  status: ('A' for Active; 'I' for Inactive)
REMARK    5  A    between atoms: CA   and  CB  
REMARK    6  A    between atoms: CB   and  CG  
REMARK    7  A    between atoms: CG   and  CD  
ROOT
ATOM     14  CA  GLU D 570     -18.033  -6.348 -13.375  1.00 32.92     0.160 C 
ENDROOT
BRANCH  14  15
ATOM     15  CB  GLU D 570     -19.500  -6.345 -13.794  1.00 32.92     0.043 C 
BRANCH  15  16
ATOM     16  CG  GLU D 570     -19.810  -5.974 -15.199  1.00 32.92     0.100 C 
BRANCH  16  17
ATOM     17  CD  GLU D 570     -21.276  -5.687 -15.423  1.00 32.92     0.185 C 
ATOM     18  OE1 GLU D 570     -21.628  -5.117 -16.473  1.00 32.92    -0.647 OA
ATOM     19  OE2 GLU D 570     -22.080  -6.022 -14.531  1.00 32.92    -0.647 OA
ENDBRANCH  16  17
ENDBRANCH  15  16
ENDBRANCH  14  15
END_RES GLU D 570
ENDMDL
MODEL 9
REMARK VINA RESULT:      -9.0      1.709      3.214
REMARK  10 active torsions:
REMARK  status: ('A' for Active; 'I' for Inactive)
REMARK    1  A    between atoms: C_3  and  C_10 
REMARK    2  A    between atoms: C_11  and  C_12 
REMARK    3  A    between atoms: C_13  and  C_14 
REMARK    4  A    between atoms: C_15  and  C_16 
REMARK    5  A    between atoms: C_17  and  C_18 
REMARK    6  A    between atoms: C_19  and  C_20 
REMARK    7  A    between atoms: C_21  and  C_23 
REMARK    8  A    between atoms: C_24  and  C_25 
REMARK    9  A    between atoms: C_26  and  C_28 
REMARK   10  A    between atoms: C_29  and  C_30 
ROOT
HETATM    1  C   UNL     1     -21.487 -11.142  -0.225  1.00  0.00     0.001 C 
HETATM    2  C   UNL     1     -20.882  -9.935  -0.295  1.00  0.00     0.001 C 
ENDROOT
BRANCH   1   3
HETATM    3  C   UNL     1     -21.671 -12.006   0.965  1.00  0.00     0.007 C 
HETATM    4  C   UNL     1     -22.518 -13.069   1.037  1.00  0.00    -0.062 C 
HETATM    5  C   UNL     1     -22.645 -13.988   2.233  1.00  0.00     0.048 C 
BRANCH   4   6
HETATM    6  C   UNL     1     -23.422 -13.381  -0.045  1.00  0.00     0.007 C 
HETATM    7  C   UNL     1     -23.542 -14.664  -0.421  1.00  0.00     0.001 C 
BRANCH   7   8
HETATM    8  C   UNL     1     -24.493 -15.243  -1.329  1.00  0.00     0.007 C 
HETATM    9  C   UNL     1     -24.177 -15.504  -2.613  1.00  0.00    -0.062 C 
HETATM   10  C   UNL     1     -25.092 -16.336  -3.463  1.00  0.00     0.048 C 
BRANCH   9  11
HETATM   11  C   UNL     1     -22.974 -14.987  -3.272  1.00  0.00     0.007 C 
HETATM   12  C   UNL     1     -23.046 -14.049  -4.223  1.00  0.00     0.009 C 
BRANCH  12  13
HETATM   13  C   UNL     1     -21.996 -13.504  -5.082  1.00  0.00    -0.048 C 
HETATM   14  C   UNL     1     -21.884 -14.042  -6.330  1.00  0.00    -0.077 C 
HETATM   15  C   UNL     1     -22.778 -15.088  -6.985  1.00  0.00     0.044 C 
HETATM   16  C   UNL     1     -20.802 -13.623  -7.295  1.00  0.00     0.034 C 
HETATM   17  C   UNL     1     -19.728 -12.826  -6.586  1.00  0.00     0.005 C 
HETATM   18  C   UNL     1     -20.421 -11.670  -5.867  1.00  0.00     0.014 C 
HETATM   19  C   UNL     1     -21.226 -12.200  -4.642  1.00  0.00    -0.020 C 
HETATM   20  C   UNL     1     -22.266 -11.117  -4.251  1.00  0.00     0.020 C 
HETATM   21  C   UNL     1     -20.214 -12.249  -3.460  1.00  0.00     0.020 C 
ENDBRANCH  12  13
ENDBRANCH   9  11
ENDBRANCH   7   8
ENDBRANCH   4   6
ENDBRANCH   1   3
BRANCH   2  22
HETATM   22  C   UNL     1     -20.983  -9.057  -1.464  1.00  0.00     0.007 C 
HETATM   23  C   UNL     1     -21.642  -7.883  -1.634  1.00  0.00    -0.062 C 
HETATM   24  C   UNL     1     -22.439  -7.112  -0.608  1.00  0.00     0.048 C 
BRANCH  23  25
HETATM   25  C   UNL     1     -21.623  -7.149  -2.919  1.00  0.00     0.007 C 
HETATM   26  C   UNL     1     -21.145  -7.629  -4.084  1.00  0.00     0.001 C 
BRANCH  26  27
HETATM   27  C   UNL     1     -21.475  -7.077  -5.406  1.00  0.00     0.007 C 
HETATM   28  C   UNL     1     -21.008  -5.930  -5.961  1.00  0.00    -0.062 C 
HETATM   29  C   UNL     1     -20.234  -4.902  -5.167  1.00  0.00     0.048 C 
BRANCH  28  30
HETATM   30  C   UNL     1     -21.190  -5.637  -7.409  1.00  0.00     0.007 C 
HETATM   31  C   UNL     1     -21.882  -4.590  -7.904  1.00  0.00     0.009 C 
BRANCH  31  32
HETATM   32  C   UNL     1     -21.990  -4.113  -9.293  1.00  0.00    -0.048 C 
HETATM   33  C   UNL     1     -23.166  -3.796  -9.889  1.00  0.00    -0.077 C 
HETATM   34  C   UNL     1     -23.254  -3.263 -11.312  1.00  0.00     0.034 C 
HETATM   35  C   UNL     1     -24.521  -3.858  -9.230  1.00  0.00     0.044 C 
HETATM   36  C   UNL     1     -21.980  -3.413 -12.130  1.00  0.00     0.005 C 
HETATM   37  C   UNL     1     -20.778  -3.010 -11.298  1.00  0.00     0.014 C 
HETATM   38  C   UNL     1     -20.626  -3.874 -10.013  1.00  0.00    -0.020 C 
HETATM   39  C   UNL     1     -19.602  -3.116  -9.130  1.00  0.00     0.020 C 
HETATM   40  C   UNL     1     -20.006  -5.235 -10.399  1.00  0.00     0.020 C 
ENDBRANCH  31  32
ENDBRANCH  28  30
ENDBRANCH  26  27
ENDBRANCH  23  25
ENDBRANCH   2  22
TORSDOF 10
BEGIN_RES ARG D 557
REMARK  4 active torsions:
REMARK  status: ('A' for Active; 'I' for Inactive)
REMARK    1  A    between atoms: CA   and  CB  
REMARK    2  A    between atoms: CB   and  CG  
REMARK    3  A    between atoms: CG   and  CD  
REMARK    4  A    between atoms: CD   and  NE  
REMARK       I    between atoms: NE   and  CZ  
REMARK       I    between atoms: CZ   and  NH1 
REMARK       I    between atoms: CZ   and  NH2 
ROOT
ATOM      1  CA  ARG D 557     -26.217   2.705 -17.014  1.00 35.49     0.159 C 
ENDROOT
BRANCH   1   2
ATOM      2  CB  ARG D 557     -26.789   1.319 -17.183  1.00 35.49     0.034 C 
BRANCH   2   3
ATOM      3  CG  ARG D 557     -28.225   1.228 -17.476  1.00 35.49     0.027 C 
BRANCH   3   4
ATOM      4  CD  ARG D 557     -28.936   0.330 -16.538  1.00 35.49     0.116 C 
BRANCH   4   5
ATOM      5  NE  ARG D 557     -29.306  -0.916 -17.156  1.00 35.49    -0.212 N 
ATOM      6  CZ  ARG D 557     -28.665  -2.056 -17.031  1.00 35.49     0.666 C 
ATOM      7  NH1 ARG D 557     -27.565  -2.176 -16.310  1.00 35.49    -0.235 N 
ATOM      8  NH2 ARG D 557     -29.156  -3.092 -17.646  1.00 35.49    -0.235 N 
ATOM      9  HH  ARG D 557     -27.225  -1.508 -15.895  1.00 35.49     0.174 HD
ATOM     10  HH  ARG D 557     -27.191  -2.945 -16.263  1.00 35.49     0.174 HD
ATOM     11  HH  ARG D 557     -29.872  -2.987 -18.098  1.00 35.49     0.174 HD
ATOM     12  HH  ARG D 557     -28.772  -3.846 -17.586  1.00 35.49     0.174 HD
ATOM     13  HE  ARG D 557     -29.963  -0.914 -17.697  1.00 35.49     0.178 HD
ENDBRANCH   4   5
ENDBRANCH   3   4
ENDBRANCH   2   3
ENDBRANCH   1   2
END_RES ARG D 557
BEGIN_RES GLU D 570
REMARK  3 active torsions:
REMARK  status: ('A' for Active; 'I' for Inactive)
REMARK    5  A    between atoms: CA   and  CB  
REMARK    6  A    between atoms: CB   and  CG  
REMARK    7  A    between atoms: CG   and  CD  
ROOT
ATOM     14  CA  GLU D 570     -18.033  -6.348 -13.375  1.00 32.92     0.160 C 
ENDROOT
BRANCH  14  15
ATOM     15  CB  GLU D 570     -19.500  -6.345 -13.794  1.00 32.92     0.043 C 
BRANCH  15  16
ATOM     16  CG  GLU D 570     -19.951  -7.420 -14.715  1.00 32.92     0.100 C 
BRANCH  16  17
ATOM     17  CD  GLU D 570     -21.345  -7.191 -15.250  1.00 32.92     0.185 C 
ATOM     18  OE1 GLU D 570     -22.002  -6.219 -14.831  1.00 32.92    -0.647 OA
ATOM     19  OE2 GLU D 570     -21.791  -8.002 -16.085  1.00 32.92    -0.647 OA
ENDBRANCH  16  17
ENDBRANCH  15  16
ENDBRANCH  14  15
END_RES GLU D 570
ENDMDL
