MODEL 1
REMARK VINA RESULT:      -2.7      0.000      0.000
REMARK  1 active torsions:
REMARK  status: ('A' for Active; 'I' for Inactive)
REMARK    1  A    between atoms: C_2  and  O_3 
ROOT
HETATM    1  C   UNL     1     -23.146  -3.828  -9.697  1.00  0.00     0.033 C 
HETATM    2  C   UNL     1     -24.592  -3.424  -9.895  1.00  0.00     0.159 C 
ENDROOT
BRANCH   2   3
HETATM    3  O   UNL     1     -24.862  -3.242 -11.277  1.00  0.00    -0.401 OA
HETATM    4  H   UNL     1     -25.039  -2.296 -11.420  1.00  0.00     0.209 HD
ENDBRANCH   2   3
TORSDOF 1
BEGIN_RES ARG D 557
REMARK  4 active torsions:
REMARK  status: ('A' for Active; 'I' for Inactive)
REMARK    1  A    between atoms: CA   and  CB  
REMARK    2  A    between atoms: CB   and  CG  
REMARK    3  A    between atoms: CG   and  CD  
REMARK    4  A    between atoms: CD   and  NE  
REMARK       I    between atoms: NE   and  CZ  
REMARK       I    between atoms: CZ   and  NH1 
REMARK       I    between atoms: CZ   and  NH2 
ROOT
ATOM      1  CA  ARG D 557     -26.217   2.705 -17.014  1.00 35.49     0.159 C 
ENDROOT
BRANCH   1   2
ATOM      2  CB  ARG D 557     -26.789   1.319 -17.183  1.00 35.49     0.034 C 
BRANCH   2   3
ATOM      3  CG  ARG D 557     -25.856   0.196 -17.030  1.00 35.49     0.027 C 
BRANCH   3   4
ATOM      4  CD  ARG D 557     -26.170  -0.642 -15.850  1.00 35.49     0.116 C 
BRANCH   4   5
ATOM      5  NE  ARG D 557     -25.053  -0.751 -14.949  1.00 35.49    -0.212 N 
ATOM      6  CZ  ARG D 557     -24.657  -1.849 -14.346  1.00 35.49     0.666 C 
ATOM      7  NH1 ARG D 557     -25.275  -3.006 -14.501  1.00 35.49    -0.235 N 
ATOM      8  NH2 ARG D 557     -23.609  -1.768 -13.579  1.00 35.49    -0.235 N 
ATOM      9  HH  ARG D 557     -25.966  -3.082 -15.003  1.00 35.49     0.174 HD
ATOM     10  HH  ARG D 557     -24.970  -3.689 -14.084  1.00 35.49     0.174 HD
ATOM     11  HH  ARG D 557     -23.226  -1.010 -13.504  1.00 35.49     0.174 HD
ATOM     12  HH  ARG D 557     -23.321  -2.457 -13.176  1.00 35.49     0.174 HD
ATOM     13  HE  ARG D 557     -24.642  -0.038 -14.735  1.00 35.49     0.178 HD
ENDBRANCH   4   5
ENDBRANCH   3   4
ENDBRANCH   2   3
ENDBRANCH   1   2
END_RES ARG D 557
BEGIN_RES GLU D 570
REMARK  3 active torsions:
REMARK  status: ('A' for Active; 'I' for Inactive)
REMARK    5  A    between atoms: CA   and  CB  
REMARK    6  A    between atoms: CB   and  CG  
REMARK    7  A    between atoms: CG   and  CD  
ROOT
ATOM     14  CA  GLU D 570     -18.033  -6.348 -13.375  1.00 32.92     0.160 C 
ENDROOT
BRANCH  14  15
ATOM     15  CB  GLU D 570     -19.500  -6.345 -13.794  1.00 32.92     0.043 C 
BRANCH  15  16
ATOM     16  CG  GLU D 570     -20.445  -5.547 -12.971  1.00 32.92     0.100 C 
BRANCH  16  17
ATOM     17  CD  GLU D 570     -21.693  -5.150 -13.725  1.00 32.92     0.185 C 
ATOM     18  OE1 GLU D 570     -22.613  -4.575 -13.113  1.00 32.92    -0.647 OA
ATOM     19  OE2 GLU D 570     -21.758  -5.432 -14.938  1.00 32.92    -0.647 OA
ENDBRANCH  16  17
ENDBRANCH  15  16
ENDBRANCH  14  15
END_RES GLU D 570
ENDMDL
MODEL 2
REMARK VINA RESULT:      -2.6      1.908      2.175
REMARK  1 active torsions:
REMARK  status: ('A' for Active; 'I' for Inactive)
REMARK    1  A    between atoms: C_2  and  O_3 
ROOT
HETATM    1  C   UNL     1     -20.470  -4.037 -11.020  1.00  0.00     0.033 C 
HETATM    2  C   UNL     1     -21.689  -3.267 -11.480  1.00  0.00     0.159 C 
ENDROOT
BRANCH   2   3
HETATM    3  O   UNL     1     -21.783  -3.304 -12.897  1.00  0.00    -0.401 OA
HETATM    4  H   UNL     1     -21.147  -2.659 -13.250  1.00  0.00     0.209 HD
ENDBRANCH   2   3
TORSDOF 1
BEGIN_RES ARG D 557
REMARK  4 active torsions:
REMARK  status: ('A' for Active; 'I' for Inactive)
REMARK    1  A    between atoms: CA   and  CB  
REMARK    2  A    between atoms: CB   and  CG  
REMARK    3  A    between atoms: CG   and  CD  
REMARK    4  A    between atoms: CD   and  NE  
REMARK       I    between atoms: NE   and  CZ  
REMARK       I    between atoms: CZ   and  NH1 
REMARK       I    between atoms: CZ   and  NH2 
ROOT
ATOM      1  CA  ARG D 557     -26.217   2.705 -17.014  1.00 35.49     0.159 C 
ENDROOT
BRANCH   1   2
ATOM      2  CB  ARG D 557     -26.789   1.319 -17.183  1.00 35.49     0.034 C 
BRANCH   2   3
ATOM      3  CG  ARG D 557     -25.835   0.204 -17.164  1.00 35.49     0.027 C 
BRANCH   3   4
ATOM      4  CD  ARG D 557     -24.765   0.393 -16.158  1.00 35.49     0.116 C 
BRANCH   4   5
ATOM      5  NE  ARG D 557     -24.934  -0.469 -15.018  1.00 35.49    -0.212 N 
ATOM      6  CZ  ARG D 557     -24.126  -1.443 -14.665  1.00 35.49     0.666 C 
ATOM      7  NH1 ARG D 557     -23.043  -1.751 -15.355  1.00 35.49    -0.235 N 
ATOM      8  NH2 ARG D 557     -24.423  -2.110 -13.588  1.00 35.49    -0.235 N 
ATOM      9  HH  ARG D 557     -22.827  -1.325 -16.066  1.00 35.49     0.174 HD
ATOM     10  HH  ARG D 557     -22.552  -2.396 -15.076  1.00 35.49     0.174 HD
ATOM     11  HH  ARG D 557     -25.125  -1.884 -13.158  1.00 35.49     0.174 HD
ATOM     12  HH  ARG D 557     -23.924  -2.743 -13.326  1.00 35.49     0.174 HD
ATOM     13  HE  ARG D 557     -25.645  -0.388 -14.557  1.00 35.49     0.178 HD
ENDBRANCH   4   5
ENDBRANCH   3   4
ENDBRANCH   2   3
ENDBRANCH   1   2
END_RES ARG D 557
BEGIN_RES GLU D 570
REMARK  3 active torsions:
REMARK  status: ('A' for Active; 'I' for Inactive)
REMARK    5  A    between atoms: CA   and  CB  
REMARK    6  A    between atoms: CB   and  CG  
REMARK    7  A    between atoms: CG   and  CD  
ROOT
ATOM     14  CA  GLU D 570     -18.033  -6.348 -13.375  1.00 32.92     0.160 C 
ENDROOT
BRANCH  14  15
ATOM     15  CB  GLU D 570     -19.500  -6.345 -13.794  1.00 32.92     0.043 C 
BRANCH  15  16
ATOM     16  CG  GLU D 570     -19.818  -5.884 -15.170  1.00 32.92     0.100 C 
BRANCH  16  17
ATOM     17  CD  GLU D 570     -21.297  -5.673 -15.394  1.00 32.92     0.185 C 
ATOM     18  OE1 GLU D 570     -21.711  -4.531 -15.672  1.00 32.92    -0.647 OA
ATOM     19  OE2 GLU D 570     -22.053  -6.658 -15.274  1.00 32.92    -0.647 OA
ENDBRANCH  16  17
ENDBRANCH  15  16
ENDBRANCH  14  15
END_RES GLU D 570
ENDMDL
MODEL 3
REMARK VINA RESULT:      -2.6      8.203      9.426
REMARK  1 active torsions:
REMARK  status: ('A' for Active; 'I' for Inactive)
REMARK    1  A    between atoms: C_2  and  O_3 
ROOT
HETATM    1  C   UNL     1      -9.467   6.210 -20.419  1.00  0.00     0.033 C 
HETATM    2  C   UNL     1     -10.077   5.392 -19.300  1.00  0.00     0.159 C 
ENDROOT
BRANCH   2   3
HETATM    3  O   UNL     1      -9.561   5.819 -18.048  1.00  0.00    -0.401 OA
HETATM    4  H   UNL     1      -9.967   5.264 -17.359  1.00  0.00     0.209 HD
ENDBRANCH   2   3
TORSDOF 1
BEGIN_RES ARG D 557
REMARK  4 active torsions:
REMARK  status: ('A' for Active; 'I' for Inactive)
REMARK    1  A    between atoms: CA   and  CB  
REMARK    2  A    between atoms: CB   and  CG  
REMARK    3  A    between atoms: CG   and  CD  
REMARK    4  A    between atoms: CD   and  NE  
REMARK       I    between atoms: NE   and  CZ  
REMARK       I    between atoms: CZ   and  NH1 
REMARK       I    between atoms: CZ   and  NH2 
ROOT
ATOM      1  CA  ARG D 557     -26.217   2.705 -17.014  1.00 35.49     0.159 C 
ENDROOT
BRANCH   1   2
ATOM      2  CB  ARG D 557     -26.789   1.319 -17.183  1.00 35.49     0.034 C 
BRANCH   2   3
ATOM      3  CG  ARG D 557     -25.834   0.204 -17.168  1.00 35.49     0.027 C 
BRANCH   3   4
ATOM      4  CD  ARG D 557     -24.749   0.403 -16.181  1.00 35.49     0.116 C 
BRANCH   4   5
ATOM      5  NE  ARG D 557     -24.905  -0.443 -15.026  1.00 35.49    -0.212 N 
ATOM      6  CZ  ARG D 557     -24.094  -1.413 -14.670  1.00 35.49     0.666 C 
ATOM      7  NH1 ARG D 557     -23.021  -1.733 -15.370  1.00 35.49    -0.235 N 
ATOM      8  NH2 ARG D 557     -24.379  -2.064 -13.580  1.00 35.49    -0.235 N 
ATOM      9  HH  ARG D 557     -22.813  -1.317 -16.089  1.00 35.49     0.174 HD
ATOM     10  HH  ARG D 557     -22.527  -2.374 -15.087  1.00 35.49     0.174 HD
ATOM     11  HH  ARG D 557     -25.074  -1.831 -13.145  1.00 35.49     0.174 HD
ATOM     12  HH  ARG D 557     -23.877  -2.695 -13.316  1.00 35.49     0.174 HD
ATOM     13  HE  ARG D 557     -25.610  -0.354 -14.558  1.00 35.49     0.178 HD
ENDBRANCH   4   5
ENDBRANCH   3   4
ENDBRANCH   2   3
ENDBRANCH   1   2
END_RES ARG D 557
BEGIN_RES GLU D 570
REMARK  3 active torsions:
REMARK  status: ('A' for Active; 'I' for Inactive)
REMARK    5  A    between atoms: CA   and  CB  
REMARK    6  A    between atoms: CB   and  CG  
REMARK    7  A    between atoms: CG   and  CD  
ROOT
ATOM     14  CA  GLU D 570     -18.033  -6.348 -13.375  1.00 32.92     0.160 C 
ENDROOT
BRANCH  14  15
ATOM     15  CB  GLU D 570     -19.500  -6.345 -13.794  1.00 32.92     0.043 C 
BRANCH  15  16
ATOM     16  CG  GLU D 570     -20.446  -5.549 -12.969  1.00 32.92     0.100 C 
BRANCH  16  17
ATOM     17  CD  GLU D 570     -21.727  -5.216 -13.698  1.00 32.92     0.185 C 
ATOM     18  OE1 GLU D 570     -22.289  -4.129 -13.467  1.00 32.92    -0.647 OA
ATOM     19  OE2 GLU D 570     -22.181  -6.059 -14.497  1.00 32.92    -0.647 OA
ENDBRANCH  16  17
ENDBRANCH  15  16
ENDBRANCH  14  15
END_RES GLU D 570
ENDMDL
MODEL 4
REMARK VINA RESULT:      -2.5      3.488      4.829
REMARK  1 active torsions:
REMARK  status: ('A' for Active; 'I' for Inactive)
REMARK    1  A    between atoms: C_2  and  O_3 
ROOT
HETATM    1  C   UNL     1     -29.259  -4.780 -18.425  1.00  0.00     0.033 C 
HETATM    2  C   UNL     1     -30.330  -4.214 -17.516  1.00  0.00     0.159 C 
ENDROOT
BRANCH   2   3
HETATM    3  O   UNL     1     -30.932  -3.080 -18.120  1.00  0.00    -0.401 OA
HETATM    4  H   UNL     1     -31.893  -3.230 -18.134  1.00  0.00     0.209 HD
ENDBRANCH   2   3
TORSDOF 1
BEGIN_RES ARG D 557
REMARK  4 active torsions:
REMARK  status: ('A' for Active; 'I' for Inactive)
REMARK    1  A    between atoms: CA   and  CB  
REMARK    2  A    between atoms: CB   and  CG  
REMARK    3  A    between atoms: CG   and  CD  
REMARK    4  A    between atoms: CD   and  NE  
REMARK       I    between atoms: NE   and  CZ  
REMARK       I    between atoms: CZ   and  NH1 
REMARK       I    between atoms: CZ   and  NH2 
ROOT
ATOM      1  CA  ARG D 557     -26.217   2.705 -17.014  1.00 35.49     0.159 C 
ENDROOT
BRANCH   1   2
ATOM      2  CB  ARG D 557     -26.789   1.319 -17.183  1.00 35.49     0.034 C 
BRANCH   2   3
ATOM      3  CG  ARG D 557     -25.835   0.203 -17.159  1.00 35.49     0.027 C 
BRANCH   3   4
ATOM      4  CD  ARG D 557     -24.758   0.403 -16.162  1.00 35.49     0.116 C 
BRANCH   4   5
ATOM      5  NE  ARG D 557     -24.917  -0.451 -15.014  1.00 35.49    -0.212 N 
ATOM      6  CZ  ARG D 557     -24.108  -1.426 -14.665  1.00 35.49     0.666 C 
ATOM      7  NH1 ARG D 557     -23.035  -1.743 -15.366  1.00 35.49    -0.235 N 
ATOM      8  NH2 ARG D 557     -24.395  -2.084 -13.580  1.00 35.49    -0.235 N 
ATOM      9  HH  ARG D 557     -22.826  -1.322 -16.083  1.00 35.49     0.174 HD
ATOM     10  HH  ARG D 557     -22.543  -2.387 -15.088  1.00 35.49     0.174 HD
ATOM     11  HH  ARG D 557     -25.090  -1.853 -13.143  1.00 35.49     0.174 HD
ATOM     12  HH  ARG D 557     -23.894  -2.718 -13.320  1.00 35.49     0.174 HD
ATOM     13  HE  ARG D 557     -25.621  -0.364 -14.546  1.00 35.49     0.178 HD
ENDBRANCH   4   5
ENDBRANCH   3   4
ENDBRANCH   2   3
ENDBRANCH   1   2
END_RES ARG D 557
BEGIN_RES GLU D 570
REMARK  3 active torsions:
REMARK  status: ('A' for Active; 'I' for Inactive)
REMARK    5  A    between atoms: CA   and  CB  
REMARK    6  A    between atoms: CB   and  CG  
REMARK    7  A    between atoms: CG   and  CD  
ROOT
ATOM     14  CA  GLU D 570     -18.033  -6.348 -13.375  1.00 32.92     0.160 C 
ENDROOT
BRANCH  14  15
ATOM     15  CB  GLU D 570     -19.500  -6.345 -13.794  1.00 32.92     0.043 C 
BRANCH  15  16
ATOM     16  CG  GLU D 570     -20.441  -5.529 -12.984  1.00 32.92     0.100 C 
BRANCH  16  17
ATOM     17  CD  GLU D 570     -21.740  -5.242 -13.702  1.00 32.92     0.185 C 
ATOM     18  OE1 GLU D 570     -22.303  -4.146 -13.519  1.00 32.92    -0.647 OA
ATOM     19  OE2 GLU D 570     -22.207  -6.130 -14.442  1.00 32.92    -0.647 OA
ENDBRANCH  16  17
ENDBRANCH  15  16
ENDBRANCH  14  15
END_RES GLU D 570
ENDMDL
MODEL 5
REMARK VINA RESULT:      -2.5      6.470      6.691
REMARK  1 active torsions:
REMARK  status: ('A' for Active; 'I' for Inactive)
REMARK    1  A    between atoms: C_2  and  O_3 
ROOT
HETATM    1  C   UNL     1     -34.469  -6.168  -2.363  1.00  0.00     0.033 C 
HETATM    2  C   UNL     1     -34.246  -6.006  -0.875  1.00  0.00     0.159 C 
ENDROOT
BRANCH   2   3
HETATM    3  O   UNL     1     -33.613  -4.763  -0.609  1.00  0.00    -0.401 OA
HETATM    4  H   UNL     1     -33.744  -4.195  -1.387  1.00  0.00     0.209 HD
ENDBRANCH   2   3
TORSDOF 1
BEGIN_RES ARG D 557
REMARK  4 active torsions:
REMARK  status: ('A' for Active; 'I' for Inactive)
REMARK    1  A    between atoms: CA   and  CB  
REMARK    2  A    between atoms: CB   and  CG  
REMARK    3  A    between atoms: CG   and  CD  
REMARK    4  A    between atoms: CD   and  NE  
REMARK       I    between atoms: NE   and  CZ  
REMARK       I    between atoms: CZ   and  NH1 
REMARK       I    between atoms: CZ   and  NH2 
ROOT
ATOM      1  CA  ARG D 557     -26.217   2.705 -17.014  1.00 35.49     0.159 C 
ENDROOT
BRANCH   1   2
ATOM      2  CB  ARG D 557     -26.789   1.319 -17.183  1.00 35.49     0.034 C 
BRANCH   2   3
ATOM      3  CG  ARG D 557     -25.834   0.204 -17.169  1.00 35.49     0.027 C 
BRANCH   3   4
ATOM      4  CD  ARG D 557     -24.743   0.408 -16.189  1.00 35.49     0.116 C 
BRANCH   4   5
ATOM      5  NE  ARG D 557     -24.886  -0.437 -15.033  1.00 35.49    -0.212 N 
ATOM      6  CZ  ARG D 557     -24.066  -1.402 -14.682  1.00 35.49     0.666 C 
ATOM      7  NH1 ARG D 557     -22.995  -1.715 -15.387  1.00 35.49    -0.235 N 
ATOM      8  NH2 ARG D 557     -24.340  -2.054 -13.589  1.00 35.49    -0.235 N 
ATOM      9  HH  ARG D 557     -22.794  -1.298 -16.109  1.00 35.49     0.174 HD
ATOM     10  HH  ARG D 557     -22.495  -2.353 -15.108  1.00 35.49     0.174 HD
ATOM     11  HH  ARG D 557     -25.034  -1.825 -13.150  1.00 35.49     0.174 HD
ATOM     12  HH  ARG D 557     -23.832  -2.681 -13.328  1.00 35.49     0.174 HD
ATOM     13  HE  ARG D 557     -25.588  -0.353 -14.561  1.00 35.49     0.178 HD
ENDBRANCH   4   5
ENDBRANCH   3   4
ENDBRANCH   2   3
ENDBRANCH   1   2
END_RES ARG D 557
BEGIN_RES GLU D 570
REMARK  3 active torsions:
REMARK  status: ('A' for Active; 'I' for Inactive)
REMARK    5  A    between atoms: CA   and  CB  
REMARK    6  A    between atoms: CB   and  CG  
REMARK    7  A    between atoms: CG   and  CD  
ROOT
ATOM     14  CA  GLU D 570     -18.033  -6.348 -13.375  1.00 32.92     0.160 C 
ENDROOT
BRANCH  14  15
ATOM     15  CB  GLU D 570     -19.500  -6.345 -13.794  1.00 32.92     0.043 C 
BRANCH  15  16
ATOM     16  CG  GLU D 570     -20.443  -5.536 -12.979  1.00 32.92     0.100 C 
BRANCH  16  17
ATOM     17  CD  GLU D 570     -21.743  -5.249 -13.694  1.00 32.92     0.185 C 
ATOM     18  OE1 GLU D 570     -22.219  -6.113 -14.455  1.00 32.92    -0.647 OA
ATOM     19  OE2 GLU D 570     -22.282  -4.141 -13.504  1.00 32.92    -0.647 OA
ENDBRANCH  16  17
ENDBRANCH  15  16
ENDBRANCH  14  15
END_RES GLU D 570
ENDMDL
MODEL 6
REMARK VINA RESULT:      -2.5      6.789      7.762
REMARK  1 active torsions:
REMARK  status: ('A' for Active; 'I' for Inactive)
REMARK    1  A    between atoms: C_2  and  O_3 
ROOT
HETATM    1  C   UNL     1     -30.866 -14.789 -21.191  1.00  0.00     0.033 C 
HETATM    2  C   UNL     1     -30.280 -14.828 -19.795  1.00  0.00     0.159 C 
ENDROOT
BRANCH   2   3
HETATM    3  O   UNL     1     -30.534 -13.602 -19.126  1.00  0.00    -0.401 OA
HETATM    4  H   UNL     1     -30.073 -12.899 -19.615  1.00  0.00     0.209 HD
ENDBRANCH   2   3
TORSDOF 1
BEGIN_RES ARG D 557
REMARK  4 active torsions:
REMARK  status: ('A' for Active; 'I' for Inactive)
REMARK    1  A    between atoms: CA   and  CB  
REMARK    2  A    between atoms: CB   and  CG  
REMARK    3  A    between atoms: CG   and  CD  
REMARK    4  A    between atoms: CD   and  NE  
REMARK       I    between atoms: NE   and  CZ  
REMARK       I    between atoms: CZ   and  NH1 
REMARK       I    between atoms: CZ   and  NH2 
ROOT
ATOM      1  CA  ARG D 557     -26.217   2.705 -17.014  1.00 35.49     0.159 C 
ENDROOT
BRANCH   1   2
ATOM      2  CB  ARG D 557     -26.789   1.319 -17.183  1.00 35.49     0.034 C 
BRANCH   2   3
ATOM      3  CG  ARG D 557     -25.866   0.195 -16.986  1.00 35.49     0.027 C 
BRANCH   3   4
ATOM      4  CD  ARG D 557     -26.287  -0.694 -15.878  1.00 35.49     0.116 C 
BRANCH   4   5
ATOM      5  NE  ARG D 557     -25.227  -0.921 -14.932  1.00 35.49    -0.212 N 
ATOM      6  CZ  ARG D 557     -24.945  -2.068 -14.355  1.00 35.49     0.666 C 
ATOM      7  NH1 ARG D 557     -25.642  -3.166 -14.583  1.00 35.49    -0.235 N 
ATOM      8  NH2 ARG D 557     -23.933  -2.096 -13.538  1.00 35.49    -0.235 N 
ATOM      9  HH  ARG D 557     -26.311  -3.171 -15.118  1.00 35.49     0.174 HD
ATOM     10  HH  ARG D 557     -25.410  -3.886 -14.180  1.00 35.49     0.174 HD
ATOM     11  HH  ARG D 557     -23.497  -1.373 -13.416  1.00 35.49     0.174 HD
ATOM     12  HH  ARG D 557     -23.718  -2.819 -13.150  1.00 35.49     0.174 HD
ATOM     13  HE  ARG D 557     -24.773  -0.251 -14.673  1.00 35.49     0.178 HD
ENDBRANCH   4   5
ENDBRANCH   3   4
ENDBRANCH   2   3
ENDBRANCH   1   2
END_RES ARG D 557
BEGIN_RES GLU D 570
REMARK  3 active torsions:
REMARK  status: ('A' for Active; 'I' for Inactive)
REMARK    5  A    between atoms: CA   and  CB  
REMARK    6  A    between atoms: CB   and  CG  
REMARK    7  A    between atoms: CG   and  CD  
ROOT
ATOM     14  CA  GLU D 570     -18.033  -6.348 -13.375  1.00 32.92     0.160 C 
ENDROOT
BRANCH  14  15
ATOM     15  CB  GLU D 570     -19.500  -6.345 -13.794  1.00 32.92     0.043 C 
BRANCH  15  16
ATOM     16  CG  GLU D 570     -20.444  -5.543 -12.974  1.00 32.92     0.100 C 
BRANCH  16  17
ATOM     17  CD  GLU D 570     -21.686  -5.138 -13.733  1.00 32.92     0.185 C 
ATOM     18  OE1 GLU D 570     -21.629  -5.028 -14.973  1.00 32.92    -0.647 OA
ATOM     19  OE2 GLU D 570     -22.724  -4.912 -13.079  1.00 32.92    -0.647 OA
ENDBRANCH  16  17
ENDBRANCH  15  16
ENDBRANCH  14  15
END_RES GLU D 570
ENDMDL
MODEL 7
REMARK VINA RESULT:      -2.4      5.382      5.548
REMARK  1 active torsions:
REMARK  status: ('A' for Active; 'I' for Inactive)
REMARK    1  A    between atoms: C_2  and  O_3 
ROOT
HETATM    1  C   UNL     1     -22.304  -6.894  -0.964  1.00  0.00     0.033 C 
HETATM    2  C   UNL     1     -22.352  -7.863   0.198  1.00  0.00     0.159 C 
ENDROOT
BRANCH   2   3
HETATM    3  O   UNL     1     -23.682  -7.981   0.679  1.00  0.00    -0.401 OA
HETATM    4  H   UNL     1     -23.790  -7.343   1.405  1.00  0.00     0.209 HD
ENDBRANCH   2   3
TORSDOF 1
BEGIN_RES ARG D 557
REMARK  4 active torsions:
REMARK  status: ('A' for Active; 'I' for Inactive)
REMARK    1  A    between atoms: CA   and  CB  
REMARK    2  A    between atoms: CB   and  CG  
REMARK    3  A    between atoms: CG   and  CD  
REMARK    4  A    between atoms: CD   and  NE  
REMARK       I    between atoms: NE   and  CZ  
REMARK       I    between atoms: CZ   and  NH1 
REMARK       I    between atoms: CZ   and  NH2 
ROOT
ATOM      1  CA  ARG D 557     -26.217   2.705 -17.014  1.00 35.49     0.159 C 
ENDROOT
BRANCH   1   2
ATOM      2  CB  ARG D 557     -26.789   1.319 -17.183  1.00 35.49     0.034 C 
BRANCH   2   3
ATOM      3  CG  ARG D 557     -25.835   0.203 -17.161  1.00 35.49     0.027 C 
BRANCH   3   4
ATOM      4  CD  ARG D 557     -24.745   0.412 -16.182  1.00 35.49     0.116 C 
BRANCH   4   5
ATOM      5  NE  ARG D 557     -24.887  -0.430 -15.024  1.00 35.49    -0.212 N 
ATOM      6  CZ  ARG D 557     -24.071  -1.400 -14.675  1.00 35.49     0.666 C 
ATOM      7  NH1 ARG D 557     -23.005  -1.720 -15.385  1.00 35.49    -0.235 N 
ATOM      8  NH2 ARG D 557     -24.343  -2.048 -13.580  1.00 35.49    -0.235 N 
ATOM      9  HH  ARG D 557     -22.805  -1.305 -16.108  1.00 35.49     0.174 HD
ATOM     10  HH  ARG D 557     -22.508  -2.360 -15.107  1.00 35.49     0.174 HD
ATOM     11  HH  ARG D 557     -25.033  -1.815 -13.137  1.00 35.49     0.174 HD
ATOM     12  HH  ARG D 557     -23.837  -2.678 -13.320  1.00 35.49     0.174 HD
ATOM     13  HE  ARG D 557     -25.586  -0.341 -14.548  1.00 35.49     0.178 HD
ENDBRANCH   4   5
ENDBRANCH   3   4
ENDBRANCH   2   3
ENDBRANCH   1   2
END_RES ARG D 557
BEGIN_RES GLU D 570
REMARK  3 active torsions:
REMARK  status: ('A' for Active; 'I' for Inactive)
REMARK    5  A    between atoms: CA   and  CB  
REMARK    6  A    between atoms: CB   and  CG  
REMARK    7  A    between atoms: CG   and  CD  
ROOT
ATOM     14  CA  GLU D 570     -18.033  -6.348 -13.375  1.00 32.92     0.160 C 
ENDROOT
BRANCH  14  15
ATOM     15  CB  GLU D 570     -19.500  -6.345 -13.794  1.00 32.92     0.043 C 
BRANCH  15  16
ATOM     16  CG  GLU D 570     -20.444  -5.540 -12.976  1.00 32.92     0.100 C 
BRANCH  16  17
ATOM     17  CD  GLU D 570     -21.748  -5.260 -13.686  1.00 32.92     0.185 C 
ATOM     18  OE1 GLU D 570     -22.252  -6.149 -14.399  1.00 32.92    -0.647 OA
ATOM     19  OE2 GLU D 570     -22.263  -4.134 -13.540  1.00 32.92    -0.647 OA
ENDBRANCH  16  17
ENDBRANCH  15  16
ENDBRANCH  14  15
END_RES GLU D 570
ENDMDL
MODEL 8
REMARK VINA RESULT:      -2.4      2.111      3.273
REMARK  1 active torsions:
REMARK  status: ('A' for Active; 'I' for Inactive)
REMARK    1  A    between atoms: C_2  and  O_3 
ROOT
HETATM    1  C   UNL     1     -26.670  -6.613 -15.962  1.00  0.00     0.033 C 
HETATM    2  C   UNL     1     -25.181  -6.820 -15.782  1.00  0.00     0.159 C 
ENDROOT
BRANCH   2   3
HETATM    3  O   UNL     1     -24.558  -5.594 -15.426  1.00  0.00    -0.401 OA
HETATM    4  H   UNL     1     -23.720  -5.538 -15.915  1.00  0.00     0.209 HD
ENDBRANCH   2   3
TORSDOF 1
BEGIN_RES ARG D 557
REMARK  4 active torsions:
REMARK  status: ('A' for Active; 'I' for Inactive)
REMARK    1  A    between atoms: CA   and  CB  
REMARK    2  A    between atoms: CB   and  CG  
REMARK    3  A    between atoms: CG   and  CD  
REMARK    4  A    between atoms: CD   and  NE  
REMARK       I    between atoms: NE   and  CZ  
REMARK       I    between atoms: CZ   and  NH1 
REMARK       I    between atoms: CZ   and  NH2 
ROOT
ATOM      1  CA  ARG D 557     -26.217   2.705 -17.014  1.00 35.49     0.159 C 
ENDROOT
BRANCH   1   2
ATOM      2  CB  ARG D 557     -26.789   1.319 -17.183  1.00 35.49     0.034 C 
BRANCH   2   3
ATOM      3  CG  ARG D 557     -25.862   0.195 -17.002  1.00 35.49     0.027 C 
BRANCH   3   4
ATOM      4  CD  ARG D 557     -26.303  -0.734 -15.937  1.00 35.49     0.116 C 
BRANCH   4   5
ATOM      5  NE  ARG D 557     -25.271  -0.970 -14.962  1.00 35.49    -0.212 N 
ATOM      6  CZ  ARG D 557     -25.073  -2.094 -14.310  1.00 35.49     0.666 C 
ATOM      7  NH1 ARG D 557     -25.838  -3.157 -14.479  1.00 35.49    -0.235 N 
ATOM      8  NH2 ARG D 557     -24.074  -2.136 -13.476  1.00 35.49    -0.235 N 
ATOM      9  HH  ARG D 557     -26.499  -3.152 -15.024  1.00 35.49     0.174 HD
ATOM     10  HH  ARG D 557     -25.659  -3.863 -14.029  1.00 35.49     0.174 HD
ATOM     11  HH  ARG D 557     -23.593  -1.437 -13.393  1.00 35.49     0.174 HD
ATOM     12  HH  ARG D 557     -23.913  -2.845 -13.041  1.00 35.49     0.174 HD
ATOM     13  HE  ARG D 557     -24.777  -0.316 -14.737  1.00 35.49     0.178 HD
ENDBRANCH   4   5
ENDBRANCH   3   4
ENDBRANCH   2   3
ENDBRANCH   1   2
END_RES ARG D 557
BEGIN_RES GLU D 570
REMARK  3 active torsions:
REMARK  status: ('A' for Active; 'I' for Inactive)
REMARK    5  A    between atoms: CA   and  CB  
REMARK    6  A    between atoms: CB   and  CG  
REMARK    7  A    between atoms: CG   and  CD  
ROOT
ATOM     14  CA  GLU D 570     -18.033  -6.348 -13.375  1.00 32.92     0.160 C 
ENDROOT
BRANCH  14  15
ATOM     15  CB  GLU D 570     -19.500  -6.345 -13.794  1.00 32.92     0.043 C 
BRANCH  15  16
ATOM     16  CG  GLU D 570     -20.437  -5.508 -13.000  1.00 32.92     0.100 C 
BRANCH  16  17
ATOM     17  CD  GLU D 570     -21.684  -5.132 -13.766  1.00 32.92     0.185 C 
ATOM     18  OE1 GLU D 570     -21.647  -5.113 -15.011  1.00 32.92    -0.647 OA
ATOM     19  OE2 GLU D 570     -22.704  -4.837 -13.113  1.00 32.92    -0.647 OA
ENDBRANCH  16  17
ENDBRANCH  15  16
ENDBRANCH  14  15
END_RES GLU D 570
ENDMDL
MODEL 9
REMARK VINA RESULT:      -2.4      5.846      6.328
REMARK  1 active torsions:
REMARK  status: ('A' for Active; 'I' for Inactive)
REMARK    1  A    between atoms: C_2  and  O_3 
ROOT
HETATM    1  C   UNL     1     -34.300  -6.505 -10.527  1.00  0.00     0.033 C 
HETATM    2  C   UNL     1     -34.604  -7.930 -10.115  1.00  0.00     0.159 C 
ENDROOT
BRANCH   2   3
HETATM    3  O   UNL     1     -33.471  -8.755 -10.342  1.00  0.00    -0.401 OA
HETATM    4  H   UNL     1     -33.445  -9.420  -9.632  1.00  0.00     0.209 HD
ENDBRANCH   2   3
TORSDOF 1
BEGIN_RES ARG D 557
REMARK  4 active torsions:
REMARK  status: ('A' for Active; 'I' for Inactive)
REMARK    1  A    between atoms: CA   and  CB  
REMARK    2  A    between atoms: CB   and  CG  
REMARK    3  A    between atoms: CG   and  CD  
REMARK    4  A    between atoms: CD   and  NE  
REMARK       I    between atoms: NE   and  CZ  
REMARK       I    between atoms: CZ   and  NH1 
REMARK       I    between atoms: CZ   and  NH2 
ROOT
ATOM      1  CA  ARG D 557     -26.217   2.705 -17.014  1.00 35.49     0.159 C 
ENDROOT
BRANCH   1   2
ATOM      2  CB  ARG D 557     -26.789   1.319 -17.183  1.00 35.49     0.034 C 
BRANCH   2   3
ATOM      3  CG  ARG D 557     -28.229   1.227 -17.452  1.00 35.49     0.027 C 
BRANCH   3   4
ATOM      4  CD  ARG D 557     -28.921   0.313 -16.514  1.00 35.49     0.116 C 
BRANCH   4   5
ATOM      5  NE  ARG D 557     -29.313  -0.919 -17.148  1.00 35.49    -0.212 N 
ATOM      6  CZ  ARG D 557     -28.694  -2.072 -17.034  1.00 35.49     0.666 C 
ATOM      7  NH1 ARG D 557     -27.599  -2.221 -16.311  1.00 35.49    -0.235 N 
ATOM      8  NH2 ARG D 557     -29.203  -3.091 -17.662  1.00 35.49    -0.235 N 
ATOM      9  HH  ARG D 557     -27.248  -1.564 -15.887  1.00 35.49     0.174 HD
ATOM     10  HH  ARG D 557     -27.240  -2.998 -16.271  1.00 35.49     0.174 HD
ATOM     11  HH  ARG D 557     -29.915  -2.967 -18.116  1.00 35.49     0.174 HD
ATOM     12  HH  ARG D 557     -28.834  -3.853 -17.610  1.00 35.49     0.174 HD
ATOM     13  HE  ARG D 557     -29.967  -0.898 -17.691  1.00 35.49     0.178 HD
ENDBRANCH   4   5
ENDBRANCH   3   4
ENDBRANCH   2   3
ENDBRANCH   1   2
END_RES ARG D 557
BEGIN_RES GLU D 570
REMARK  3 active torsions:
REMARK  status: ('A' for Active; 'I' for Inactive)
REMARK    5  A    between atoms: CA   and  CB  
REMARK    6  A    between atoms: CB   and  CG  
REMARK    7  A    between atoms: CG   and  CD  
ROOT
ATOM     14  CA  GLU D 570     -18.033  -6.348 -13.375  1.00 32.92     0.160 C 
ENDROOT
BRANCH  14  15
ATOM     15  CB  GLU D 570     -19.500  -6.345 -13.794  1.00 32.92     0.043 C 
BRANCH  15  16
ATOM     16  CG  GLU D 570     -20.123  -7.655 -14.115  1.00 32.92     0.100 C 
BRANCH  16  17
ATOM     17  CD  GLU D 570     -20.854  -7.652 -15.438  1.00 32.92     0.185 C 
ATOM     18  OE1 GLU D 570     -21.576  -6.678 -15.728  1.00 32.92    -0.647 OA
ATOM     19  OE2 GLU D 570     -20.716  -8.641 -16.184  1.00 32.92    -0.647 OA
ENDBRANCH  16  17
ENDBRANCH  15  16
ENDBRANCH  14  15
END_RES GLU D 570
ENDMDL
