MODEL 1
REMARK VINA RESULT:      -9.9      0.000      0.000
REMARK  12 active torsions:
REMARK  status: ('A' for Active; 'I' for Inactive)
REMARK    1  A    between atoms: C_2  and  C_19 
REMARK    2  A    between atoms: C_3  and  C_4 
REMARK    3  A    between atoms: C_5  and  C_6 
REMARK    4  A    between atoms: C_7  and  C_9 
REMARK    5  A    between atoms: C_10  and  C_11 
REMARK    6  A    between atoms: C_12  and  C_14 
REMARK    7  A    between atoms: C_15  and  C_16 
REMARK    8  A    between atoms: C_16  and  O_18 
REMARK    9  A    between atoms: C_20  and  C_21 
REMARK   10  A    between atoms: C_22  and  C_24 
REMARK   11  A    between atoms: C_25  and  C_26 
REMARK   12  A    between atoms: C_26  and  O_28 
ROOT
HETATM    1  C   UNL     1     -20.892  -6.761  -5.996  1.00  0.00     0.001 C 
HETATM    2  C   UNL     1     -21.784  -7.026  -5.028  1.00  0.00     0.001 C 
ENDROOT
BRANCH   1   3
HETATM    3  C   UNL     1     -21.182  -5.887  -7.125  1.00  0.00     0.007 C 
HETATM    4  C   UNL     1     -20.371  -4.939  -7.644  1.00  0.00    -0.062 C 
HETATM    5  C   UNL     1     -18.988  -4.645  -7.101  1.00  0.00     0.048 C 
BRANCH   4   6
HETATM    6  C   UNL     1     -20.814  -4.128  -8.797  1.00  0.00     0.007 C 
HETATM    7  C   UNL     1     -20.689  -4.518 -10.080  1.00  0.00     0.001 C 
BRANCH   7   8
HETATM    8  C   UNL     1     -21.091  -3.795 -11.275  1.00  0.00     0.007 C 
HETATM    9  C   UNL     1     -22.350  -3.761 -11.781  1.00  0.00    -0.062 C 
HETATM   10  C   UNL     1     -23.534  -4.480 -11.170  1.00  0.00     0.048 C 
BRANCH   9  11
HETATM   11  C   UNL     1     -22.641  -2.990 -13.003  1.00  0.00     0.013 C 
HETATM   12  C   UNL     1     -23.876  -2.671 -13.433  1.00  0.00     0.082 C 
BRANCH  12  13
HETATM   13  C   UNL     1     -24.062  -1.895 -14.672  1.00  0.00     0.165 C 
HETATM   14  O   UNL     1     -25.093  -1.309 -14.956  1.00  0.00    -0.647 OA
BRANCH  13  15
HETATM   15  O   UNL     1     -22.969  -1.901 -15.467  1.00  0.00    -0.773 OA
HETATM   16  H   UNL     1     -22.119  -1.798 -15.002  1.00  0.00     0.167 HD
ENDBRANCH  13  15
ENDBRANCH  12  13
ENDBRANCH   9  11
ENDBRANCH   7   8
ENDBRANCH   4   6
ENDBRANCH   1   3
BRANCH   2  17
HETATM   17  C   UNL     1     -21.525  -7.895  -3.887  1.00  0.00     0.007 C 
HETATM   18  C   UNL     1     -21.572  -7.533  -2.585  1.00  0.00    -0.062 C 
HETATM   19  C   UNL     1     -21.912  -6.129  -2.127  1.00  0.00     0.048 C 
BRANCH  18  20
HETATM   20  C   UNL     1     -21.285  -8.520  -1.520  1.00  0.00     0.007 C 
HETATM   21  C   UNL     1     -21.814  -9.756  -1.494  1.00  0.00     0.001 C 
BRANCH  21  22
HETATM   22  C   UNL     1     -21.605 -10.799  -0.507  1.00  0.00     0.007 C 
HETATM   23  C   UNL     1     -22.590 -11.555   0.038  1.00  0.00    -0.062 C 
HETATM   24  C   UNL     1     -24.061 -11.421  -0.305  1.00  0.00     0.048 C 
BRANCH  23  25
HETATM   25  C   UNL     1     -22.260 -12.586   1.032  1.00  0.00     0.013 C 
HETATM   26  C   UNL     1     -23.125 -13.486   1.534  1.00  0.00     0.082 C 
BRANCH  26  27
HETATM   27  C   UNL     1     -22.693 -14.483   2.532  1.00  0.00     0.165 C 
HETATM   28  O   UNL     1     -23.300 -14.751   3.553  1.00  0.00    -0.647 OA
BRANCH  27  29
HETATM   29  O   UNL     1     -21.532 -15.075   2.185  1.00  0.00    -0.773 OA
HETATM   30  H   UNL     1     -20.888 -15.206   2.902  1.00  0.00     0.167 HD
ENDBRANCH  27  29
ENDBRANCH  26  27
ENDBRANCH  23  25
ENDBRANCH  21  22
ENDBRANCH  18  20
ENDBRANCH   2  17
TORSDOF 12
BEGIN_RES ARG D 557
REMARK  4 active torsions:
REMARK  status: ('A' for Active; 'I' for Inactive)
REMARK    1  A    between atoms: CA   and  CB  
REMARK    2  A    between atoms: CB   and  CG  
REMARK    3  A    between atoms: CG   and  CD  
REMARK    4  A    between atoms: CD   and  NE  
REMARK       I    between atoms: NE   and  CZ  
REMARK       I    between atoms: CZ   and  NH1 
REMARK       I    between atoms: CZ   and  NH2 
ROOT
ATOM      1  CA  ARG D 557     -26.217   2.705 -17.014  1.00 35.49     0.159 C 
ENDROOT
BRANCH   1   2
ATOM      2  CB  ARG D 557     -26.789   1.319 -17.183  1.00 35.49     0.034 C 
BRANCH   2   3
ATOM      3  CG  ARG D 557     -28.193   1.132 -16.796  1.00 35.49     0.027 C 
BRANCH   3   4
ATOM      4  CD  ARG D 557     -28.680  -0.236 -17.086  1.00 35.49     0.116 C 
BRANCH   4   5
ATOM      5  NE  ARG D 557     -27.871  -1.245 -16.454  1.00 35.49    -0.212 N 
ATOM      6  CZ  ARG D 557     -27.990  -2.543 -16.625  1.00 35.49     0.666 C 
ATOM      7  NH1 ARG D 557     -28.907  -3.073 -17.413  1.00 35.49    -0.235 N 
ATOM      8  NH2 ARG D 557     -27.155  -3.311 -15.987  1.00 35.49    -0.235 N 
ATOM      9  HH  ARG D 557     -29.465  -2.587 -17.844  1.00 35.49     0.174 HD
ATOM     10  HH  ARG D 557     -28.935  -3.927 -17.488  1.00 35.49     0.174 HD
ATOM     11  HH  ARG D 557     -26.569  -2.940 -15.491  1.00 35.49     0.174 HD
ATOM     12  HH  ARG D 557     -27.198  -4.153 -16.075  1.00 35.49     0.174 HD
ATOM     13  HE  ARG D 557     -27.302  -0.995 -15.873  1.00 35.49     0.178 HD
ENDBRANCH   4   5
ENDBRANCH   3   4
ENDBRANCH   2   3
ENDBRANCH   1   2
END_RES ARG D 557
BEGIN_RES GLU D 570
REMARK  3 active torsions:
REMARK  status: ('A' for Active; 'I' for Inactive)
REMARK    5  A    between atoms: CA   and  CB  
REMARK    6  A    between atoms: CB   and  CG  
REMARK    7  A    between atoms: CG   and  CD  
ROOT
ATOM     14  CA  GLU D 570     -18.033  -6.348 -13.375  1.00 32.92     0.160 C 
ENDROOT
BRANCH  14  15
ATOM     15  CB  GLU D 570     -19.500  -6.345 -13.794  1.00 32.92     0.043 C 
BRANCH  15  16
ATOM     16  CG  GLU D 570     -19.827  -5.805 -15.139  1.00 32.92     0.100 C 
BRANCH  16  17
ATOM     17  CD  GLU D 570     -21.291  -5.470 -15.300  1.00 32.92     0.185 C 
ATOM     18  OE1 GLU D 570     -21.621  -4.559 -16.083  1.00 32.92    -0.647 OA
ATOM     19  OE2 GLU D 570     -22.116  -6.114 -14.622  1.00 32.92    -0.647 OA
ENDBRANCH  16  17
ENDBRANCH  15  16
ENDBRANCH  14  15
END_RES GLU D 570
ENDMDL
MODEL 2
REMARK VINA RESULT:      -9.8      0.563     12.273
REMARK  12 active torsions:
REMARK  status: ('A' for Active; 'I' for Inactive)
REMARK    1  A    between atoms: C_2  and  C_19 
REMARK    2  A    between atoms: C_3  and  C_4 
REMARK    3  A    between atoms: C_5  and  C_6 
REMARK    4  A    between atoms: C_7  and  C_9 
REMARK    5  A    between atoms: C_10  and  C_11 
REMARK    6  A    between atoms: C_12  and  C_14 
REMARK    7  A    between atoms: C_15  and  C_16 
REMARK    8  A    between atoms: C_16  and  O_18 
REMARK    9  A    between atoms: C_20  and  C_21 
REMARK   10  A    between atoms: C_22  and  C_24 
REMARK   11  A    between atoms: C_25  and  C_26 
REMARK   12  A    between atoms: C_26  and  O_28 
ROOT
HETATM    1  C   UNL     1     -21.628  -6.679  -4.797  1.00  0.00     0.001 C 
HETATM    2  C   UNL     1     -21.051  -6.874  -5.993  1.00  0.00     0.001 C 
ENDROOT
BRANCH   1   3
HETATM    3  C   UNL     1     -21.483  -7.609  -3.685  1.00  0.00     0.007 C 
HETATM    4  C   UNL     1     -21.648  -7.332  -2.373  1.00  0.00    -0.062 C 
HETATM    5  C   UNL     1     -22.024  -5.959  -1.856  1.00  0.00     0.048 C 
BRANCH   4   6
HETATM    6  C   UNL     1     -21.463  -8.391  -1.358  1.00  0.00     0.007 C 
HETATM    7  C   UNL     1     -21.819  -9.676  -1.542  1.00  0.00     0.001 C 
BRANCH   7   8
HETATM    8  C   UNL     1     -21.679 -10.782  -0.611  1.00  0.00     0.007 C 
HETATM    9  C   UNL     1     -22.707 -11.490  -0.078  1.00  0.00    -0.062 C 
HETATM   10  C   UNL     1     -24.168 -11.229  -0.378  1.00  0.00     0.048 C 
BRANCH   9  11
HETATM   11  C   UNL     1     -22.443 -12.597   0.860  1.00  0.00     0.013 C 
HETATM   12  C   UNL     1     -23.392 -13.283   1.523  1.00  0.00     0.082 C 
BRANCH  12  13
HETATM   13  C   UNL     1     -23.024 -14.376   2.441  1.00  0.00     0.165 C 
HETATM   14  O   UNL     1     -23.831 -14.998   3.110  1.00  0.00    -0.647 OA
BRANCH  13  15
HETATM   15  O   UNL     1     -21.694 -14.617   2.468  1.00  0.00    -0.773 OA
HETATM   16  H   UNL     1     -21.329 -15.012   1.656  1.00  0.00     0.167 HD
ENDBRANCH  13  15
ENDBRANCH  12  13
ENDBRANCH   9  11
ENDBRANCH   7   8
ENDBRANCH   4   6
ENDBRANCH   1   3
BRANCH   2  17
HETATM   17  C   UNL     1     -21.176  -5.964  -7.125  1.00  0.00     0.007 C 
HETATM   18  C   UNL     1     -20.315  -4.971  -7.447  1.00  0.00    -0.062 C 
HETATM   19  C   UNL     1     -19.066  -4.666  -6.645  1.00  0.00     0.048 C 
BRANCH  18  20
HETATM   20  C   UNL     1     -20.563  -4.116  -8.628  1.00  0.00     0.007 C 
HETATM   21  C   UNL     1     -21.256  -4.525  -9.707  1.00  0.00     0.001 C 
BRANCH  21  22
HETATM   22  C   UNL     1     -21.558  -3.777 -10.913  1.00  0.00     0.007 C 
HETATM   23  C   UNL     1     -22.780  -3.280 -11.227  1.00  0.00    -0.062 C 
HETATM   24  C   UNL     1     -24.015  -3.435 -10.362  1.00  0.00     0.048 C 
BRANCH  23  25
HETATM   25  C   UNL     1     -22.969  -2.536 -12.481  1.00  0.00     0.013 C 
HETATM   26  C   UNL     1     -23.895  -2.815 -13.417  1.00  0.00     0.082 C 
BRANCH  26  27
HETATM   27  C   UNL     1     -24.004  -2.005 -14.645  1.00  0.00     0.165 C 
HETATM   28  O   UNL     1     -24.950  -1.291 -14.923  1.00  0.00    -0.647 OA
BRANCH  27  29
HETATM   29  O   UNL     1     -22.923  -2.143 -15.439  1.00  0.00    -0.773 OA
HETATM   30  H   UNL     1     -22.110  -1.705 -15.134  1.00  0.00     0.167 HD
ENDBRANCH  27  29
ENDBRANCH  26  27
ENDBRANCH  23  25
ENDBRANCH  21  22
ENDBRANCH  18  20
ENDBRANCH   2  17
TORSDOF 12
BEGIN_RES ARG D 557
REMARK  4 active torsions:
REMARK  status: ('A' for Active; 'I' for Inactive)
REMARK    1  A    between atoms: CA   and  CB  
REMARK    2  A    between atoms: CB   and  CG  
REMARK    3  A    between atoms: CG   and  CD  
REMARK    4  A    between atoms: CD   and  NE  
REMARK       I    between atoms: NE   and  CZ  
REMARK       I    between atoms: CZ   and  NH1 
REMARK       I    between atoms: CZ   and  NH2 
ROOT
ATOM      1  CA  ARG D 557     -26.217   2.705 -17.014  1.00 35.49     0.159 C 
ENDROOT
BRANCH   1   2
ATOM      2  CB  ARG D 557     -26.789   1.319 -17.183  1.00 35.49     0.034 C 
BRANCH   2   3
ATOM      3  CG  ARG D 557     -28.237   1.224 -17.404  1.00 35.49     0.027 C 
BRANCH   3   4
ATOM      4  CD  ARG D 557     -28.892   0.289 -16.462  1.00 35.49     0.116 C 
BRANCH   4   5
ATOM      5  NE  ARG D 557     -29.265  -0.948 -17.096  1.00 35.49    -0.212 N 
ATOM      6  CZ  ARG D 557     -28.614  -2.086 -17.003  1.00 35.49     0.666 C 
ATOM      7  NH1 ARG D 557     -27.501  -2.211 -16.303  1.00 35.49    -0.235 N 
ATOM      8  NH2 ARG D 557     -29.109  -3.114 -17.629  1.00 35.49    -0.235 N 
ATOM      9  HH  ARG D 557     -27.159  -1.548 -15.882  1.00 35.49     0.174 HD
ATOM     10  HH  ARG D 557     -27.121  -2.978 -16.277  1.00 35.49     0.174 HD
ATOM     11  HH  ARG D 557     -29.833  -3.005 -18.067  1.00 35.49     0.174 HD
ATOM     12  HH  ARG D 557     -28.719  -3.865 -17.589  1.00 35.49     0.174 HD
ATOM     13  HE  ARG D 557     -29.930  -0.940 -17.625  1.00 35.49     0.178 HD
ENDBRANCH   4   5
ENDBRANCH   3   4
ENDBRANCH   2   3
ENDBRANCH   1   2
END_RES ARG D 557
BEGIN_RES GLU D 570
REMARK  3 active torsions:
REMARK  status: ('A' for Active; 'I' for Inactive)
REMARK    5  A    between atoms: CA   and  CB  
REMARK    6  A    between atoms: CB   and  CG  
REMARK    7  A    between atoms: CG   and  CD  
ROOT
ATOM     14  CA  GLU D 570     -18.033  -6.348 -13.375  1.00 32.92     0.160 C 
ENDROOT
BRANCH  14  15
ATOM     15  CB  GLU D 570     -19.500  -6.345 -13.794  1.00 32.92     0.043 C 
BRANCH  15  16
ATOM     16  CG  GLU D 570     -19.818  -5.882 -15.169  1.00 32.92     0.100 C 
BRANCH  16  17
ATOM     17  CD  GLU D 570     -21.257  -5.448 -15.327  1.00 32.92     0.185 C 
ATOM     18  OE1 GLU D 570     -22.111  -5.886 -14.533  1.00 32.92    -0.647 OA
ATOM     19  OE2 GLU D 570     -21.535  -4.676 -16.266  1.00 32.92    -0.647 OA
ENDBRANCH  16  17
ENDBRANCH  15  16
ENDBRANCH  14  15
END_RES GLU D 570
ENDMDL
MODEL 3
REMARK VINA RESULT:      -8.7      2.335     12.492
REMARK  12 active torsions:
REMARK  status: ('A' for Active; 'I' for Inactive)
REMARK    1  A    between atoms: C_2  and  C_19 
REMARK    2  A    between atoms: C_3  and  C_4 
REMARK    3  A    between atoms: C_5  and  C_6 
REMARK    4  A    between atoms: C_7  and  C_9 
REMARK    5  A    between atoms: C_10  and  C_11 
REMARK    6  A    between atoms: C_12  and  C_14 
REMARK    7  A    between atoms: C_15  and  C_16 
REMARK    8  A    between atoms: C_16  and  O_18 
REMARK    9  A    between atoms: C_20  and  C_21 
REMARK   10  A    between atoms: C_22  and  C_24 
REMARK   11  A    between atoms: C_25  and  C_26 
REMARK   12  A    between atoms: C_26  and  O_28 
ROOT
HETATM    1  C   UNL     1     -21.250  -7.205  -5.569  1.00  0.00     0.001 C 
HETATM    2  C   UNL     1     -20.734  -6.392  -6.504  1.00  0.00     0.001 C 
ENDROOT
BRANCH   1   3
HETATM    3  C   UNL     1     -20.428  -7.957  -4.630  1.00  0.00     0.007 C 
HETATM    4  C   UNL     1     -20.552  -7.979  -3.285  1.00  0.00    -0.062 C 
HETATM    5  C   UNL     1     -21.608  -7.193  -2.536  1.00  0.00     0.048 C 
BRANCH   4   6
HETATM    6  C   UNL     1     -19.633  -8.796  -2.464  1.00  0.00     0.007 C 
HETATM    7  C   UNL     1     -19.660 -10.142  -2.424  1.00  0.00     0.001 C 
BRANCH   7   8
HETATM    8  C   UNL     1     -18.804 -11.028  -1.653  1.00  0.00     0.007 C 
HETATM    9  C   UNL     1     -19.124 -11.574  -0.453  1.00  0.00    -0.062 C 
HETATM   10  C   UNL     1     -20.434 -11.339   0.269  1.00  0.00     0.048 C 
BRANCH   9  11
HETATM   11  C   UNL     1     -18.173 -12.463   0.239  1.00  0.00     0.013 C 
HETATM   12  C   UNL     1     -16.890 -12.154   0.504  1.00  0.00     0.082 C 
BRANCH  12  13
HETATM   13  C   UNL     1     -16.017 -13.115   1.204  1.00  0.00     0.165 C 
HETATM   14  O   UNL     1     -16.038 -13.295   2.409  1.00  0.00    -0.647 OA
BRANCH  13  15
HETATM   15  O   UNL     1     -15.186 -13.778   0.369  1.00  0.00    -0.773 OA
HETATM   16  H   UNL     1     -14.686 -14.508   0.777  1.00  0.00     0.167 HD
ENDBRANCH  13  15
ENDBRANCH  12  13
ENDBRANCH   9  11
ENDBRANCH   7   8
ENDBRANCH   4   6
ENDBRANCH   1   3
BRANCH   2  17
HETATM   17  C   UNL     1     -21.528  -5.627  -7.457  1.00  0.00     0.007 C 
HETATM   18  C   UNL     1     -21.096  -4.575  -8.190  1.00  0.00    -0.062 C 
HETATM   19  C   UNL     1     -19.681  -4.037  -8.113  1.00  0.00     0.048 C 
BRANCH  18  20
HETATM   20  C   UNL     1     -22.011  -3.884  -9.125  1.00  0.00     0.007 C 
HETATM   21  C   UNL     1     -21.735  -3.698 -10.429  1.00  0.00     0.001 C 
BRANCH  21  22
HETATM   22  C   UNL     1     -22.552  -3.039 -11.431  1.00  0.00     0.007 C 
HETATM   23  C   UNL     1     -23.376  -3.679 -12.297  1.00  0.00    -0.062 C 
HETATM   24  C   UNL     1     -23.566  -5.183 -12.345  1.00  0.00     0.048 C 
BRANCH  23  25
HETATM   25  C   UNL     1     -24.159  -2.907 -13.273  1.00  0.00     0.013 C 
HETATM   26  C   UNL     1     -23.695  -1.870 -13.994  1.00  0.00     0.082 C 
BRANCH  26  27
HETATM   27  C   UNL     1     -24.564  -1.159 -14.950  1.00  0.00     0.165 C 
HETATM   28  O   UNL     1     -24.416   0.000 -15.292  1.00  0.00    -0.647 OA
BRANCH  27  29
HETATM   29  O   UNL     1     -25.559  -1.945 -15.411  1.00  0.00    -0.773 OA
HETATM   30  H   UNL     1     -26.462  -1.609 -15.285  1.00  0.00     0.167 HD
ENDBRANCH  27  29
ENDBRANCH  26  27
ENDBRANCH  23  25
ENDBRANCH  21  22
ENDBRANCH  18  20
ENDBRANCH   2  17
TORSDOF 12
BEGIN_RES ARG D 557
REMARK  4 active torsions:
REMARK  status: ('A' for Active; 'I' for Inactive)
REMARK    1  A    between atoms: CA   and  CB  
REMARK    2  A    between atoms: CB   and  CG  
REMARK    3  A    between atoms: CG   and  CD  
REMARK    4  A    between atoms: CD   and  NE  
REMARK       I    between atoms: NE   and  CZ  
REMARK       I    between atoms: CZ   and  NH1 
REMARK       I    between atoms: CZ   and  NH2 
ROOT
ATOM      1  CA  ARG D 557     -26.217   2.705 -17.014  1.00 35.49     0.159 C 
ENDROOT
BRANCH   1   2
ATOM      2  CB  ARG D 557     -26.789   1.319 -17.183  1.00 35.49     0.034 C 
BRANCH   2   3
ATOM      3  CG  ARG D 557     -28.169   1.114 -16.727  1.00 35.49     0.027 C 
BRANCH   3   4
ATOM      4  CD  ARG D 557     -28.780  -0.103 -17.308  1.00 35.49     0.116 C 
BRANCH   4   5
ATOM      5  NE  ARG D 557     -28.134  -1.306 -16.853  1.00 35.49    -0.212 N 
ATOM      6  CZ  ARG D 557     -28.595  -2.528 -16.999  1.00 35.49     0.666 C 
ATOM      7  NH1 ARG D 557     -29.748  -2.785 -17.588  1.00 35.49    -0.235 N 
ATOM      8  NH2 ARG D 557     -27.865  -3.503 -16.541  1.00 35.49    -0.235 N 
ATOM      9  HH  ARG D 557     -30.244  -2.159 -17.898  1.00 35.49     0.174 HD
ATOM     10  HH  ARG D 557     -29.996  -3.603 -17.657  1.00 35.49     0.174 HD
ATOM     11  HH  ARG D 557     -27.121  -3.307 -16.172  1.00 35.49     0.174 HD
ATOM     12  HH  ARG D 557     -28.127  -4.306 -16.621  1.00 35.49     0.174 HD
ATOM     13  HE  ARG D 557     -27.420  -1.227 -16.397  1.00 35.49     0.178 HD
ENDBRANCH   4   5
ENDBRANCH   3   4
ENDBRANCH   2   3
ENDBRANCH   1   2
END_RES ARG D 557
BEGIN_RES GLU D 570
REMARK  3 active torsions:
REMARK  status: ('A' for Active; 'I' for Inactive)
REMARK    5  A    between atoms: CA   and  CB  
REMARK    6  A    between atoms: CB   and  CG  
REMARK    7  A    between atoms: CG   and  CD  
ROOT
ATOM     14  CA  GLU D 570     -18.033  -6.348 -13.375  1.00 32.92     0.160 C 
ENDROOT
BRANCH  14  15
ATOM     15  CB  GLU D 570     -19.500  -6.345 -13.794  1.00 32.92     0.043 C 
BRANCH  15  16
ATOM     16  CG  GLU D 570     -19.805  -6.038 -15.215  1.00 32.92     0.100 C 
BRANCH  16  17
ATOM     17  CD  GLU D 570     -21.281  -5.835 -15.471  1.00 32.92     0.185 C 
ATOM     18  OE1 GLU D 570     -21.666  -4.758 -15.965  1.00 32.92    -0.647 OA
ATOM     19  OE2 GLU D 570     -22.061  -6.755 -15.157  1.00 32.92    -0.647 OA
ENDBRANCH  16  17
ENDBRANCH  15  16
ENDBRANCH  14  15
END_RES GLU D 570
ENDMDL
MODEL 4
REMARK VINA RESULT:      -8.5      2.280      2.676
REMARK  12 active torsions:
REMARK  status: ('A' for Active; 'I' for Inactive)
REMARK    1  A    between atoms: C_2  and  C_19 
REMARK    2  A    between atoms: C_3  and  C_4 
REMARK    3  A    between atoms: C_5  and  C_6 
REMARK    4  A    between atoms: C_7  and  C_9 
REMARK    5  A    between atoms: C_10  and  C_11 
REMARK    6  A    between atoms: C_12  and  C_14 
REMARK    7  A    between atoms: C_15  and  C_16 
REMARK    8  A    between atoms: C_16  and  O_18 
REMARK    9  A    between atoms: C_20  and  C_21 
REMARK   10  A    between atoms: C_22  and  C_24 
REMARK   11  A    between atoms: C_25  and  C_26 
REMARK   12  A    between atoms: C_26  and  O_28 
ROOT
HETATM    1  C   UNL     1     -20.823  -6.548  -6.048  1.00  0.00     0.001 C 
HETATM    2  C   UNL     1     -21.634  -7.110  -5.137  1.00  0.00     0.001 C 
ENDROOT
BRANCH   1   3
HETATM    3  C   UNL     1     -21.314  -5.761  -7.171  1.00  0.00     0.007 C 
HETATM    4  C   UNL     1     -20.634  -4.815  -7.855  1.00  0.00    -0.062 C 
HETATM    5  C   UNL     1     -19.205  -4.428  -7.536  1.00  0.00     0.048 C 
BRANCH   4   6
HETATM    6  C   UNL     1     -21.277  -4.099  -8.976  1.00  0.00     0.007 C 
HETATM    7  C   UNL     1     -22.599  -4.135  -9.229  1.00  0.00     0.001 C 
BRANCH   7   8
HETATM    8  C   UNL     1     -23.320  -3.469 -10.300  1.00  0.00     0.007 C 
HETATM    9  C   UNL     1     -23.075  -3.630 -11.625  1.00  0.00    -0.062 C 
HETATM   10  C   UNL     1     -22.001  -4.536 -12.189  1.00  0.00     0.048 C 
BRANCH   9  11
HETATM   11  C   UNL     1     -23.875  -2.900 -12.626  1.00  0.00     0.013 C 
HETATM   12  C   UNL     1     -23.370  -2.291 -13.715  1.00  0.00     0.082 C 
BRANCH  12  13
HETATM   13  C   UNL     1     -24.256  -1.585 -14.658  1.00  0.00     0.165 C 
HETATM   14  O   UNL     1     -25.473  -1.596 -14.580  1.00  0.00    -0.647 OA
BRANCH  13  15
HETATM   15  O   UNL     1     -23.581  -0.922 -15.622  1.00  0.00    -0.773 OA
HETATM   16  H   UNL     1     -23.950  -0.054 -15.864  1.00  0.00     0.167 HD
ENDBRANCH  13  15
ENDBRANCH  12  13
ENDBRANCH   9  11
ENDBRANCH   7   8
ENDBRANCH   4   6
ENDBRANCH   1   3
BRANCH   2  17
HETATM   17  C   UNL     1     -21.174  -7.902  -4.004  1.00  0.00     0.007 C 
HETATM   18  C   UNL     1     -21.324  -7.584  -2.698  1.00  0.00    -0.062 C 
HETATM   19  C   UNL     1     -22.013  -6.319  -2.227  1.00  0.00     0.048 C 
BRANCH  18  20
HETATM   20  C   UNL     1     -20.806  -8.482  -1.641  1.00  0.00     0.007 C 
HETATM   21  C   UNL     1     -20.005  -9.533  -1.890  1.00  0.00     0.001 C 
BRANCH  21  22
HETATM   22  C   UNL     1     -19.442 -10.474  -0.940  1.00  0.00     0.007 C 
HETATM   23  C   UNL     1     -18.860 -11.653  -1.273  1.00  0.00    -0.062 C 
HETATM   24  C   UNL     1     -18.714 -12.164  -2.693  1.00  0.00     0.048 C 
BRANCH  23  25
HETATM   25  C   UNL     1     -18.322 -12.529  -0.222  1.00  0.00     0.013 C 
HETATM   26  C   UNL     1     -17.108 -12.406   0.344  1.00  0.00     0.082 C 
BRANCH  26  27
HETATM   27  C   UNL     1     -16.660 -13.341   1.394  1.00  0.00     0.165 C 
HETATM   28  O   UNL     1     -16.955 -14.521   1.443  1.00  0.00    -0.647 OA
BRANCH  27  29
HETATM   29  O   UNL     1     -15.876 -12.736   2.309  1.00  0.00    -0.773 OA
HETATM   30  H   UNL     1     -15.313 -12.015   1.980  1.00  0.00     0.167 HD
ENDBRANCH  27  29
ENDBRANCH  26  27
ENDBRANCH  23  25
ENDBRANCH  21  22
ENDBRANCH  18  20
ENDBRANCH   2  17
TORSDOF 12
BEGIN_RES ARG D 557
REMARK  4 active torsions:
REMARK  status: ('A' for Active; 'I' for Inactive)
REMARK    1  A    between atoms: CA   and  CB  
REMARK    2  A    between atoms: CB   and  CG  
REMARK    3  A    between atoms: CG   and  CD  
REMARK    4  A    between atoms: CD   and  NE  
REMARK       I    between atoms: NE   and  CZ  
REMARK       I    between atoms: CZ   and  NH1 
REMARK       I    between atoms: CZ   and  NH2 
ROOT
ATOM      1  CA  ARG D 557     -26.217   2.705 -17.014  1.00 35.49     0.159 C 
ENDROOT
BRANCH   1   2
ATOM      2  CB  ARG D 557     -26.789   1.319 -17.183  1.00 35.49     0.034 C 
BRANCH   2   3
ATOM      3  CG  ARG D 557     -28.236   1.225 -17.409  1.00 35.49     0.027 C 
BRANCH   3   4
ATOM      4  CD  ARG D 557     -28.895   0.289 -16.469  1.00 35.49     0.116 C 
BRANCH   4   5
ATOM      5  NE  ARG D 557     -29.317  -0.924 -17.118  1.00 35.49    -0.212 N 
ATOM      6  CZ  ARG D 557     -28.709  -2.087 -17.044  1.00 35.49     0.666 C 
ATOM      7  NH1 ARG D 557     -27.599  -2.264 -16.353  1.00 35.49    -0.235 N 
ATOM      8  NH2 ARG D 557     -29.246  -3.087 -17.681  1.00 35.49    -0.235 N 
ATOM      9  HH  ARG D 557     -27.229  -1.620 -15.924  1.00 35.49     0.174 HD
ATOM     10  HH  ARG D 557     -27.248  -3.045 -16.339  1.00 35.49     0.174 HD
ATOM     11  HH  ARG D 557     -29.968  -2.945 -18.114  1.00 35.49     0.174 HD
ATOM     12  HH  ARG D 557     -28.885  -3.853 -17.654  1.00 35.49     0.174 HD
ATOM     13  HE  ARG D 557     -29.985  -0.884 -17.644  1.00 35.49     0.178 HD
ENDBRANCH   4   5
ENDBRANCH   3   4
ENDBRANCH   2   3
ENDBRANCH   1   2
END_RES ARG D 557
BEGIN_RES GLU D 570
REMARK  3 active torsions:
REMARK  status: ('A' for Active; 'I' for Inactive)
REMARK    5  A    between atoms: CA   and  CB  
REMARK    6  A    between atoms: CB   and  CG  
REMARK    7  A    between atoms: CG   and  CD  
ROOT
ATOM     14  CA  GLU D 570     -18.033  -6.348 -13.375  1.00 32.92     0.160 C 
ENDROOT
BRANCH  14  15
ATOM     15  CB  GLU D 570     -19.500  -6.345 -13.794  1.00 32.92     0.043 C 
BRANCH  15  16
ATOM     16  CG  GLU D 570     -19.802  -6.102 -15.228  1.00 32.92     0.100 C 
BRANCH  16  17
ATOM     17  CD  GLU D 570     -21.268  -5.846 -15.487  1.00 32.92     0.185 C 
ATOM     18  OE1 GLU D 570     -21.603  -4.818 -16.105  1.00 32.92    -0.647 OA
ATOM     19  OE2 GLU D 570     -22.092  -6.675 -15.052  1.00 32.92    -0.647 OA
ENDBRANCH  16  17
ENDBRANCH  15  16
ENDBRANCH  14  15
END_RES GLU D 570
ENDMDL
MODEL 5
REMARK VINA RESULT:      -8.4      4.336     12.843
REMARK  12 active torsions:
REMARK  status: ('A' for Active; 'I' for Inactive)
REMARK    1  A    between atoms: C_2  and  C_19 
REMARK    2  A    between atoms: C_3  and  C_4 
REMARK    3  A    between atoms: C_5  and  C_6 
REMARK    4  A    between atoms: C_7  and  C_9 
REMARK    5  A    between atoms: C_10  and  C_11 
REMARK    6  A    between atoms: C_12  and  C_14 
REMARK    7  A    between atoms: C_15  and  C_16 
REMARK    8  A    between atoms: C_16  and  O_18 
REMARK    9  A    between atoms: C_20  and  C_21 
REMARK   10  A    between atoms: C_22  and  C_24 
REMARK   11  A    between atoms: C_25  and  C_26 
REMARK   12  A    between atoms: C_26  and  O_28 
ROOT
HETATM    1  C   UNL     1     -18.879 -10.282  -3.088  1.00  0.00     0.001 C 
HETATM    2  C   UNL     1     -19.224  -8.987  -3.009  1.00  0.00     0.001 C 
ENDROOT
BRANCH   1   3
HETATM    3  C   UNL     1     -18.084 -10.956  -2.069  1.00  0.00     0.007 C 
HETATM    4  C   UNL     1     -16.737 -10.957  -1.964  1.00  0.00    -0.062 C 
HETATM    5  C   UNL     1     -15.829 -10.226  -2.931  1.00  0.00     0.048 C 
BRANCH   4   6
HETATM    6  C   UNL     1     -16.075 -11.694  -0.867  1.00  0.00     0.007 C 
HETATM    7  C   UNL     1     -16.621 -11.874   0.351  1.00  0.00     0.001 C 
BRANCH   7   8
HETATM    8  C   UNL     1     -16.052 -12.579   1.487  1.00  0.00     0.007 C 
HETATM    9  C   UNL     1     -16.351 -13.853   1.846  1.00  0.00    -0.062 C 
HETATM   10  C   UNL     1     -17.334 -14.738   1.108  1.00  0.00     0.048 C 
BRANCH   9  11
HETATM   11  C   UNL     1     -15.708 -14.467   3.022  1.00  0.00     0.013 C 
HETATM   12  C   UNL     1     -14.713 -15.371   2.968  1.00  0.00     0.082 C 
BRANCH  12  13
HETATM   13  C   UNL     1     -14.136 -15.927   4.206  1.00  0.00     0.165 C 
HETATM   14  O   UNL     1     -14.791 -16.181   5.202  1.00  0.00    -0.647 OA
BRANCH  13  15
HETATM   15  O   UNL     1     -12.802 -16.125   4.124  1.00  0.00    -0.773 OA
HETATM   16  H   UNL     1     -12.452 -16.218   3.220  1.00  0.00     0.167 HD
ENDBRANCH  13  15
ENDBRANCH  12  13
ENDBRANCH   9  11
ENDBRANCH   7   8
ENDBRANCH   4   6
ENDBRANCH   1   3
BRANCH   2  17
HETATM   17  C   UNL     1     -20.017  -8.286  -4.010  1.00  0.00     0.007 C 
HETATM   18  C   UNL     1     -20.993  -7.382  -3.762  1.00  0.00    -0.062 C 
HETATM   19  C   UNL     1     -21.402  -6.968  -2.363  1.00  0.00     0.048 C 
BRANCH  18  20
HETATM   20  C   UNL     1     -21.724  -6.741  -4.878  1.00  0.00     0.007 C 
HETATM   21  C   UNL     1     -21.341  -5.583  -5.445  1.00  0.00     0.001 C 
BRANCH  21  22
HETATM   22  C   UNL     1     -21.977  -4.868  -6.536  1.00  0.00     0.007 C 
HETATM   23  C   UNL     1     -21.415  -4.659  -7.752  1.00  0.00    -0.062 C 
HETATM   24  C   UNL     1     -20.035  -5.142  -8.153  1.00  0.00     0.048 C 
BRANCH  23  25
HETATM   25  C   UNL     1     -22.155  -3.918  -8.785  1.00  0.00     0.013 C 
HETATM   26  C   UNL     1     -23.300  -4.326  -9.363  1.00  0.00     0.082 C 
BRANCH  26  27
HETATM   27  C   UNL     1     -23.966  -3.507 -10.393  1.00  0.00     0.165 C 
HETATM   28  O   UNL     1     -25.170  -3.355 -10.487  1.00  0.00    -0.647 OA
BRANCH  27  29
HETATM   29  O   UNL     1     -23.080  -2.935 -11.235  1.00  0.00    -0.773 OA
HETATM   30  H   UNL     1     -22.360  -3.508 -11.550  1.00  0.00     0.167 HD
ENDBRANCH  27  29
ENDBRANCH  26  27
ENDBRANCH  23  25
ENDBRANCH  21  22
ENDBRANCH  18  20
ENDBRANCH   2  17
TORSDOF 12
BEGIN_RES ARG D 557
REMARK  4 active torsions:
REMARK  status: ('A' for Active; 'I' for Inactive)
REMARK    1  A    between atoms: CA   and  CB  
REMARK    2  A    between atoms: CB   and  CG  
REMARK    3  A    between atoms: CG   and  CD  
REMARK    4  A    between atoms: CD   and  NE  
REMARK       I    between atoms: NE   and  CZ  
REMARK       I    between atoms: CZ   and  NH1 
REMARK       I    between atoms: CZ   and  NH2 
ROOT
ATOM      1  CA  ARG D 557     -26.217   2.705 -17.014  1.00 35.49     0.159 C 
ENDROOT
BRANCH   1   2
ATOM      2  CB  ARG D 557     -26.789   1.319 -17.183  1.00 35.49     0.034 C 
BRANCH   2   3
ATOM      3  CG  ARG D 557     -25.837   0.202 -17.147  1.00 35.49     0.027 C 
BRANCH   3   4
ATOM      4  CD  ARG D 557     -24.805   0.374 -16.099  1.00 35.49     0.116 C 
BRANCH   4   5
ATOM      5  NE  ARG D 557     -25.012  -0.510 -14.983  1.00 35.49    -0.212 N 
ATOM      6  CZ  ARG D 557     -24.222  -1.500 -14.630  1.00 35.49     0.666 C 
ATOM      7  NH1 ARG D 557     -23.124  -1.803 -15.297  1.00 35.49    -0.235 N 
ATOM      8  NH2 ARG D 557     -24.555  -2.186 -13.576  1.00 35.49    -0.235 N 
ATOM      9  HH  ARG D 557     -22.885  -1.363 -15.993  1.00 35.49     0.174 HD
ATOM     10  HH  ARG D 557     -22.646  -2.457 -15.019  1.00 35.49     0.174 HD
ATOM     11  HH  ARG D 557     -25.265  -1.963 -13.161  1.00 35.49     0.174 HD
ATOM     12  HH  ARG D 557     -24.068  -2.830 -13.315  1.00 35.49     0.174 HD
ATOM     13  HE  ARG D 557     -25.734  -0.433 -14.541  1.00 35.49     0.178 HD
ENDBRANCH   4   5
ENDBRANCH   3   4
ENDBRANCH   2   3
ENDBRANCH   1   2
END_RES ARG D 557
BEGIN_RES GLU D 570
REMARK  3 active torsions:
REMARK  status: ('A' for Active; 'I' for Inactive)
REMARK    5  A    between atoms: CA   and  CB  
REMARK    6  A    between atoms: CB   and  CG  
REMARK    7  A    between atoms: CG   and  CD  
ROOT
ATOM     14  CA  GLU D 570     -18.033  -6.348 -13.375  1.00 32.92     0.160 C 
ENDROOT
BRANCH  14  15
ATOM     15  CB  GLU D 570     -19.500  -6.345 -13.794  1.00 32.92     0.043 C 
BRANCH  15  16
ATOM     16  CG  GLU D 570     -20.434  -5.494 -13.012  1.00 32.92     0.100 C 
BRANCH  16  17
ATOM     17  CD  GLU D 570     -21.736  -5.232 -13.732  1.00 32.92     0.185 C 
ATOM     18  OE1 GLU D 570     -22.280  -4.117 -13.612  1.00 32.92    -0.647 OA
ATOM     19  OE2 GLU D 570     -22.226  -6.157 -14.410  1.00 32.92    -0.647 OA
ENDBRANCH  16  17
ENDBRANCH  15  16
ENDBRANCH  14  15
END_RES GLU D 570
ENDMDL
MODEL 6
REMARK VINA RESULT:      -8.3      5.395     12.477
REMARK  12 active torsions:
REMARK  status: ('A' for Active; 'I' for Inactive)
REMARK    1  A    between atoms: C_2  and  C_19 
REMARK    2  A    between atoms: C_3  and  C_4 
REMARK    3  A    between atoms: C_5  and  C_6 
REMARK    4  A    between atoms: C_7  and  C_9 
REMARK    5  A    between atoms: C_10  and  C_11 
REMARK    6  A    between atoms: C_12  and  C_14 
REMARK    7  A    between atoms: C_15  and  C_16 
REMARK    8  A    between atoms: C_16  and  O_18 
REMARK    9  A    between atoms: C_20  and  C_21 
REMARK   10  A    between atoms: C_22  and  C_24 
REMARK   11  A    between atoms: C_25  and  C_26 
REMARK   12  A    between atoms: C_26  and  O_28 
ROOT
HETATM    1  C   UNL     1     -18.233  -9.311  -3.602  1.00  0.00     0.001 C 
HETATM    2  C   UNL     1     -19.520  -9.058  -3.315  1.00  0.00     0.001 C 
ENDROOT
BRANCH   1   3
HETATM    3  C   UNL     1     -17.359 -10.077  -2.723  1.00  0.00     0.007 C 
HETATM    4  C   UNL     1     -16.200 -10.683  -3.062  1.00  0.00    -0.062 C 
HETATM    5  C   UNL     1     -15.624 -10.646  -4.463  1.00  0.00     0.048 C 
BRANCH   4   6
HETATM    6  C   UNL     1     -15.425 -11.429  -2.049  1.00  0.00     0.007 C 
HETATM    7  C   UNL     1     -15.308 -12.770  -2.033  1.00  0.00     0.001 C 
BRANCH   7   8
HETATM    8  C   UNL     1     -14.573 -13.590  -1.085  1.00  0.00     0.007 C 
HETATM    9  C   UNL     1     -13.409 -14.237  -1.348  1.00  0.00    -0.062 C 
HETATM   10  C   UNL     1     -12.697 -14.201  -2.684  1.00  0.00     0.048 C 
BRANCH   9  11
HETATM   11  C   UNL     1     -12.751 -15.042  -0.304  1.00  0.00     0.013 C 
HETATM   12  C   UNL     1     -11.825 -14.576   0.555  1.00  0.00     0.082 C 
BRANCH  12  13
HETATM   13  C   UNL     1     -11.225 -15.465   1.566  1.00  0.00     0.165 C 
HETATM   14  O   UNL     1     -10.117 -15.962   1.458  1.00  0.00    -0.647 OA
BRANCH  13  15
HETATM   15  O   UNL     1     -12.032 -15.675   2.629  1.00  0.00    -0.773 OA
HETATM   16  H   UNL     1     -11.577 -15.950   3.446  1.00  0.00     0.167 HD
ENDBRANCH  13  15
ENDBRANCH  12  13
ENDBRANCH   9  11
ENDBRANCH   7   8
ENDBRANCH   4   6
ENDBRANCH   1   3
BRANCH   2  17
HETATM   17  C   UNL     1     -20.419  -8.295  -4.172  1.00  0.00     0.007 C 
HETATM   18  C   UNL     1     -21.231  -7.288  -3.777  1.00  0.00    -0.062 C 
HETATM   19  C   UNL     1     -21.315  -6.806  -2.343  1.00  0.00     0.048 C 
BRANCH  18  20
HETATM   20  C   UNL     1     -22.098  -6.595  -4.756  1.00  0.00     0.007 C 
HETATM   21  C   UNL     1     -21.624  -5.795  -5.729  1.00  0.00     0.001 C 
BRANCH  21  22
HETATM   22  C   UNL     1     -22.376  -5.070  -6.736  1.00  0.00     0.007 C 
HETATM   23  C   UNL     1     -21.822  -4.358  -7.748  1.00  0.00    -0.062 C 
HETATM   24  C   UNL     1     -20.330  -4.212  -7.976  1.00  0.00     0.048 C 
BRANCH  23  25
HETATM   25  C   UNL     1     -22.684  -3.661  -8.713  1.00  0.00     0.013 C 
HETATM   26  C   UNL     1     -23.862  -4.120  -9.175  1.00  0.00     0.082 C 
BRANCH  26  27
HETATM   27  C   UNL     1     -24.653  -3.342 -10.147  1.00  0.00     0.165 C 
HETATM   28  O   UNL     1     -24.212  -2.861 -11.175  1.00  0.00    -0.647 OA
BRANCH  27  29
HETATM   29  O   UNL     1     -25.941  -3.218  -9.766  1.00  0.00    -0.773 OA
HETATM   30  H   UNL     1     -26.478  -2.587 -10.274  1.00  0.00     0.167 HD
ENDBRANCH  27  29
ENDBRANCH  26  27
ENDBRANCH  23  25
ENDBRANCH  21  22
ENDBRANCH  18  20
ENDBRANCH   2  17
TORSDOF 12
BEGIN_RES ARG D 557
REMARK  4 active torsions:
REMARK  status: ('A' for Active; 'I' for Inactive)
REMARK    1  A    between atoms: CA   and  CB  
REMARK    2  A    between atoms: CB   and  CG  
REMARK    3  A    between atoms: CG   and  CD  
REMARK    4  A    between atoms: CD   and  NE  
REMARK       I    between atoms: NE   and  CZ  
REMARK       I    between atoms: CZ   and  NH1 
REMARK       I    between atoms: CZ   and  NH2 
ROOT
ATOM      1  CA  ARG D 557     -26.217   2.705 -17.014  1.00 35.49     0.159 C 
ENDROOT
BRANCH   1   2
ATOM      2  CB  ARG D 557     -26.789   1.319 -17.183  1.00 35.49     0.034 C 
BRANCH   2   3
ATOM      3  CG  ARG D 557     -25.927   0.196 -16.794  1.00 35.49     0.027 C 
BRANCH   3   4
ATOM      4  CD  ARG D 557     -26.679  -0.886 -16.119  1.00 35.49     0.116 C 
BRANCH   4   5
ATOM      5  NE  ARG D 557     -25.889  -1.552 -15.117  1.00 35.49    -0.212 N 
ATOM      6  CZ  ARG D 557     -25.952  -2.829 -14.813  1.00 35.49     0.666 C 
ATOM      7  NH1 ARG D 557     -26.788  -3.659 -15.409  1.00 35.49    -0.235 N 
ATOM      8  NH2 ARG D 557     -25.145  -3.266 -13.891  1.00 35.49    -0.235 N 
ATOM      9  HH  ARG D 557     -27.326  -3.393 -16.020  1.00 35.49     0.174 HD
ATOM     10  HH  ARG D 557     -26.783  -4.482 -15.171  1.00 35.49     0.174 HD
ATOM     11  HH  ARG D 557     -24.611  -2.709 -13.528  1.00 35.49     0.174 HD
ATOM     12  HH  ARG D 557     -25.154  -4.085 -13.670  1.00 35.49     0.174 HD
ATOM     13  HE  ARG D 557     -25.375  -1.077 -14.634  1.00 35.49     0.178 HD
ENDBRANCH   4   5
ENDBRANCH   3   4
ENDBRANCH   2   3
ENDBRANCH   1   2
END_RES ARG D 557
BEGIN_RES GLU D 570
REMARK  3 active torsions:
REMARK  status: ('A' for Active; 'I' for Inactive)
REMARK    5  A    between atoms: CA   and  CB  
REMARK    6  A    between atoms: CB   and  CG  
REMARK    7  A    between atoms: CG   and  CD  
ROOT
ATOM     14  CA  GLU D 570     -18.033  -6.348 -13.375  1.00 32.92     0.160 C 
ENDROOT
BRANCH  14  15
ATOM     15  CB  GLU D 570     -19.500  -6.345 -13.794  1.00 32.92     0.043 C 
BRANCH  15  16
ATOM     16  CG  GLU D 570     -20.441  -5.529 -12.984  1.00 32.92     0.100 C 
BRANCH  16  17
ATOM     17  CD  GLU D 570     -21.734  -5.230 -13.707  1.00 32.92     0.185 C 
ATOM     18  OE1 GLU D 570     -22.263  -4.111 -13.564  1.00 32.92    -0.647 OA
ATOM     19  OE2 GLU D 570     -22.232  -6.130 -14.412  1.00 32.92    -0.647 OA
ENDBRANCH  16  17
ENDBRANCH  15  16
ENDBRANCH  14  15
END_RES GLU D 570
ENDMDL
MODEL 7
REMARK VINA RESULT:      -7.9      3.154      5.439
REMARK  12 active torsions:
REMARK  status: ('A' for Active; 'I' for Inactive)
REMARK    1  A    between atoms: C_2  and  C_19 
REMARK    2  A    between atoms: C_3  and  C_4 
REMARK    3  A    between atoms: C_5  and  C_6 
REMARK    4  A    between atoms: C_7  and  C_9 
REMARK    5  A    between atoms: C_10  and  C_11 
REMARK    6  A    between atoms: C_12  and  C_14 
REMARK    7  A    between atoms: C_15  and  C_16 
REMARK    8  A    between atoms: C_16  and  O_18 
REMARK    9  A    between atoms: C_20  and  C_21 
REMARK   10  A    between atoms: C_22  and  C_24 
REMARK   11  A    between atoms: C_25  and  C_26 
REMARK   12  A    between atoms: C_26  and  O_28 
ROOT
HETATM    1  C   UNL     1     -23.559  -5.112 -10.231  1.00  0.00     0.001 C 
HETATM    2  C   UNL     1     -22.389  -5.113  -9.573  1.00  0.00     0.001 C 
ENDROOT
BRANCH   1   3
HETATM    3  C   UNL     1     -23.652  -5.163 -11.684  1.00  0.00     0.007 C 
HETATM    4  C   UNL     1     -23.489  -4.131 -12.541  1.00  0.00    -0.062 C 
HETATM    5  C   UNL     1     -23.171  -2.721 -12.090  1.00  0.00     0.048 C 
BRANCH   4   6
HETATM    6  C   UNL     1     -23.618  -4.345 -13.998  1.00  0.00     0.007 C 
HETATM    7  C   UNL     1     -24.038  -5.498 -14.552  1.00  0.00     0.001 C 
BRANCH   7   8
HETATM    8  C   UNL     1     -24.196  -5.803 -15.964  1.00  0.00     0.007 C 
HETATM    9  C   UNL     1     -25.257  -6.450 -16.510  1.00  0.00    -0.062 C 
HETATM   10  C   UNL     1     -26.445  -6.957 -15.719  1.00  0.00     0.048 C 
BRANCH   9  11
HETATM   11  C   UNL     1     -25.309  -6.704 -17.961  1.00  0.00     0.013 C 
HETATM   12  C   UNL     1     -24.281  -7.168 -18.696  1.00  0.00     0.082 C 
BRANCH  12  13
HETATM   13  C   UNL     1     -24.436  -7.390 -20.145  1.00  0.00     0.165 C 
HETATM   14  O   UNL     1     -25.078  -6.656 -20.877  1.00  0.00    -0.647 OA
BRANCH  13  15
HETATM   15  O   UNL     1     -23.791  -8.494 -20.582  1.00  0.00    -0.773 OA
HETATM   16  H   UNL     1     -24.067  -9.328 -20.162  1.00  0.00     0.167 HD
ENDBRANCH  13  15
ENDBRANCH  12  13
ENDBRANCH   9  11
ENDBRANCH   7   8
ENDBRANCH   4   6
ENDBRANCH   1   3
BRANCH   2  17
HETATM   17  C   UNL     1     -22.262  -5.063  -8.122  1.00  0.00     0.007 C 
HETATM   18  C   UNL     1     -21.103  -5.015  -7.426  1.00  0.00    -0.062 C 
HETATM   19  C   UNL     1     -19.739  -5.005  -8.087  1.00  0.00     0.048 C 
BRANCH  18  20
HETATM   20  C   UNL     1     -21.116  -4.968  -5.947  1.00  0.00     0.007 C 
HETATM   21  C   UNL     1     -21.447  -6.019  -5.175  1.00  0.00     0.001 C 
BRANCH  21  22
HETATM   22  C   UNL     1     -21.494  -6.086  -3.727  1.00  0.00     0.007 C 
HETATM   23  C   UNL     1     -21.567  -7.235  -3.010  1.00  0.00    -0.062 C 
HETATM   24  C   UNL     1     -21.611  -8.623  -3.618  1.00  0.00     0.048 C 
BRANCH  23  25
HETATM   25  C   UNL     1     -21.609  -7.182  -1.541  1.00  0.00     0.013 C 
HETATM   26  C   UNL     1     -22.107  -8.145  -0.744  1.00  0.00     0.082 C 
BRANCH  26  27
HETATM   27  C   UNL     1     -22.103  -7.995   0.724  1.00  0.00     0.165 C 
HETATM   28  O   UNL     1     -21.128  -8.159   1.435  1.00  0.00    -0.647 OA
BRANCH  27  29
HETATM   29  O   UNL     1     -23.317  -7.652   1.200  1.00  0.00    -0.773 OA
HETATM   30  H   UNL     1     -23.321  -7.077   1.984  1.00  0.00     0.167 HD
ENDBRANCH  27  29
ENDBRANCH  26  27
ENDBRANCH  23  25
ENDBRANCH  21  22
ENDBRANCH  18  20
ENDBRANCH   2  17
TORSDOF 12
BEGIN_RES ARG D 557
REMARK  4 active torsions:
REMARK  status: ('A' for Active; 'I' for Inactive)
REMARK    1  A    between atoms: CA   and  CB  
REMARK    2  A    between atoms: CB   and  CG  
REMARK    3  A    between atoms: CG   and  CD  
REMARK    4  A    between atoms: CD   and  NE  
REMARK       I    between atoms: NE   and  CZ  
REMARK       I    between atoms: CZ   and  NH1 
REMARK       I    between atoms: CZ   and  NH2 
ROOT
ATOM      1  CA  ARG D 557     -26.217   2.705 -17.014  1.00 35.49     0.159 C 
ENDROOT
BRANCH   1   2
ATOM      2  CB  ARG D 557     -26.789   1.319 -17.183  1.00 35.49     0.034 C 
BRANCH   2   3
ATOM      3  CG  ARG D 557     -28.182   1.124 -16.764  1.00 35.49     0.027 C 
BRANCH   3   4
ATOM      4  CD  ARG D 557     -28.724  -0.185 -17.197  1.00 35.49     0.116 C 
BRANCH   4   5
ATOM      5  NE  ARG D 557     -27.987  -1.288 -16.639  1.00 35.49    -0.212 N 
ATOM      6  CZ  ARG D 557     -28.264  -2.561 -16.811  1.00 35.49     0.666 C 
ATOM      7  NH1 ARG D 557     -29.292  -2.973 -17.529  1.00 35.49    -0.235 N 
ATOM      8  NH2 ARG D 557     -27.474  -3.429 -16.246  1.00 35.49    -0.235 N 
ATOM      9  HH  ARG D 557     -29.823  -2.420 -17.912  1.00 35.49     0.174 HD
ATOM     10  HH  ARG D 557     -29.421  -3.817 -17.609  1.00 35.49     0.174 HD
ATOM     11  HH  ARG D 557     -26.814  -3.134 -15.794  1.00 35.49     0.174 HD
ATOM     12  HH  ARG D 557     -27.618  -4.259 -16.338  1.00 35.49     0.174 HD
ATOM     13  HE  ARG D 557     -27.351  -1.113 -16.102  1.00 35.49     0.178 HD
ENDBRANCH   4   5
ENDBRANCH   3   4
ENDBRANCH   2   3
ENDBRANCH   1   2
END_RES ARG D 557
BEGIN_RES GLU D 570
REMARK  3 active torsions:
REMARK  status: ('A' for Active; 'I' for Inactive)
REMARK    5  A    between atoms: CA   and  CB  
REMARK    6  A    between atoms: CB   and  CG  
REMARK    7  A    between atoms: CG   and  CD  
ROOT
ATOM     14  CA  GLU D 570     -18.033  -6.348 -13.375  1.00 32.92     0.160 C 
ENDROOT
BRANCH  14  15
ATOM     15  CB  GLU D 570     -19.500  -6.345 -13.794  1.00 32.92     0.043 C 
BRANCH  15  16
ATOM     16  CG  GLU D 570     -20.045  -7.593 -14.387  1.00 32.92     0.100 C 
BRANCH  16  17
ATOM     17  CD  GLU D 570     -20.780  -7.357 -15.686  1.00 32.92     0.185 C 
ATOM     18  OE1 GLU D 570     -21.567  -8.228 -16.103  1.00 32.92    -0.647 OA
ATOM     19  OE2 GLU D 570     -20.553  -6.297 -16.302  1.00 32.92    -0.647 OA
ENDBRANCH  16  17
ENDBRANCH  15  16
ENDBRANCH  14  15
END_RES GLU D 570
ENDMDL
MODEL 8
REMARK VINA RESULT:      -7.0      2.837      4.999
REMARK  12 active torsions:
REMARK  status: ('A' for Active; 'I' for Inactive)
REMARK    1  A    between atoms: C_2  and  C_19 
REMARK    2  A    between atoms: C_3  and  C_4 
REMARK    3  A    between atoms: C_5  and  C_6 
REMARK    4  A    between atoms: C_7  and  C_9 
REMARK    5  A    between atoms: C_10  and  C_11 
REMARK    6  A    between atoms: C_12  and  C_14 
REMARK    7  A    between atoms: C_15  and  C_16 
REMARK    8  A    between atoms: C_16  and  O_18 
REMARK    9  A    between atoms: C_20  and  C_21 
REMARK   10  A    between atoms: C_22  and  C_24 
REMARK   11  A    between atoms: C_25  and  C_26 
REMARK   12  A    between atoms: C_26  and  O_28 
ROOT
HETATM    1  C   UNL     1     -23.620  -3.623  -9.275  1.00  0.00     0.001 C 
HETATM    2  C   UNL     1     -23.322  -4.811  -8.725  1.00  0.00     0.001 C 
ENDROOT
BRANCH   1   3
HETATM    3  C   UNL     1     -24.140  -3.484 -10.629  1.00  0.00     0.007 C 
HETATM    4  C   UNL     1     -23.437  -3.161 -11.736  1.00  0.00    -0.062 C 
HETATM    5  C   UNL     1     -21.947  -2.889 -11.722  1.00  0.00     0.048 C 
BRANCH   4   6
HETATM    6  C   UNL     1     -24.114  -3.057 -13.046  1.00  0.00     0.007 C 
HETATM    7  C   UNL     1     -24.968  -3.982 -13.524  1.00  0.00     0.001 C 
BRANCH   7   8
HETATM    8  C   UNL     1     -25.678  -3.969 -14.791  1.00  0.00     0.007 C 
HETATM    9  C   UNL     1     -25.911  -5.057 -15.568  1.00  0.00    -0.062 C 
HETATM   10  C   UNL     1     -25.459  -6.462 -15.225  1.00  0.00     0.048 C 
BRANCH   9  11
HETATM   11  C   UNL     1     -26.646  -4.924 -16.838  1.00  0.00     0.013 C 
HETATM   12  C   UNL     1     -27.563  -5.800 -17.290  1.00  0.00     0.082 C 
BRANCH  12  13
HETATM   13  C   UNL     1     -28.244  -5.575 -18.578  1.00  0.00     0.165 C 
HETATM   14  O   UNL     1     -29.279  -4.941 -18.694  1.00  0.00    -0.647 OA
BRANCH  13  15
HETATM   15  O   UNL     1     -27.603  -6.146 -19.621  1.00  0.00    -0.773 OA
HETATM   16  H   UNL     1     -26.679  -6.405 -19.448  1.00  0.00     0.167 HD
ENDBRANCH  13  15
ENDBRANCH  12  13
ENDBRANCH   9  11
ENDBRANCH   7   8
ENDBRANCH   4   6
ENDBRANCH   1   3
BRANCH   2  17
HETATM   17  C   UNL     1     -22.800  -4.983  -7.374  1.00  0.00     0.007 C 
HETATM   18  C   UNL     1     -21.501  -5.154  -7.039  1.00  0.00    -0.062 C 
HETATM   19  C   UNL     1     -20.380  -5.190  -8.059  1.00  0.00     0.048 C 
BRANCH  18  20
HETATM   20  C   UNL     1     -21.106  -5.318  -5.623  1.00  0.00     0.007 C 
HETATM   21  C   UNL     1     -21.689  -6.198  -4.789  1.00  0.00     0.001 C 
BRANCH  21  22
HETATM   22  C   UNL     1     -21.386  -6.443  -3.391  1.00  0.00     0.007 C 
HETATM   23  C   UNL     1     -21.361  -7.667  -2.810  1.00  0.00    -0.062 C 
HETATM   24  C   UNL     1     -21.648  -8.966  -3.537  1.00  0.00     0.048 C 
BRANCH  23  25
HETATM   25  C   UNL     1     -21.039  -7.796  -1.381  1.00  0.00     0.013 C 
HETATM   26  C   UNL     1     -21.577  -8.701  -0.543  1.00  0.00     0.082 C 
BRANCH  26  27
HETATM   27  C   UNL     1     -21.186  -8.747   0.879  1.00  0.00     0.165 C 
HETATM   28  O   UNL     1     -20.500  -9.619   1.382  1.00  0.00    -0.647 OA
BRANCH  27  29
HETATM   29  O   UNL     1     -21.679  -7.701   1.573  1.00  0.00    -0.773 OA
HETATM   30  H   UNL     1     -22.106  -7.004   1.048  1.00  0.00     0.167 HD
ENDBRANCH  27  29
ENDBRANCH  26  27
ENDBRANCH  23  25
ENDBRANCH  21  22
ENDBRANCH  18  20
ENDBRANCH   2  17
TORSDOF 12
BEGIN_RES ARG D 557
REMARK  4 active torsions:
REMARK  status: ('A' for Active; 'I' for Inactive)
REMARK    1  A    between atoms: CA   and  CB  
REMARK    2  A    between atoms: CB   and  CG  
REMARK    3  A    between atoms: CG   and  CD  
REMARK    4  A    between atoms: CD   and  NE  
REMARK       I    between atoms: NE   and  CZ  
REMARK       I    between atoms: CZ   and  NH1 
REMARK       I    between atoms: CZ   and  NH2 
ROOT
ATOM      1  CA  ARG D 557     -26.217   2.705 -17.014  1.00 35.49     0.159 C 
ENDROOT
BRANCH   1   2
ATOM      2  CB  ARG D 557     -26.789   1.319 -17.183  1.00 35.49     0.034 C 
BRANCH   2   3
ATOM      3  CG  ARG D 557     -25.976   0.203 -16.684  1.00 35.49     0.027 C 
BRANCH   3   4
ATOM      4  CD  ARG D 557     -26.747  -0.710 -15.810  1.00 35.49     0.116 C 
BRANCH   4   5
ATOM      5  NE  ARG D 557     -27.598  -1.592 -16.565  1.00 35.49    -0.212 N 
ATOM      6  CZ  ARG D 557     -28.850  -1.358 -16.892  1.00 35.49     0.666 C 
ATOM      7  NH1 ARG D 557     -29.481  -0.255 -16.536  1.00 35.49    -0.235 N 
ATOM      8  NH2 ARG D 557     -29.464  -2.262 -17.599  1.00 35.49    -0.235 N 
ATOM      9  HH  ARG D 557     -29.096   0.354 -16.073  1.00 35.49     0.174 HD
ATOM     10  HH  ARG D 557     -30.296  -0.156 -16.780  1.00 35.49     0.174 HD
ATOM     11  HH  ARG D 557     -29.029  -2.961 -17.820  1.00 35.49     0.174 HD
ATOM     12  HH  ARG D 557     -30.271  -2.145 -17.832  1.00 35.49     0.174 HD
ATOM     13  HE  ARG D 557     -27.295  -2.359 -16.773  1.00 35.49     0.178 HD
ENDBRANCH   4   5
ENDBRANCH   3   4
ENDBRANCH   2   3
ENDBRANCH   1   2
END_RES ARG D 557
BEGIN_RES GLU D 570
REMARK  3 active torsions:
REMARK  status: ('A' for Active; 'I' for Inactive)
REMARK    5  A    between atoms: CA   and  CB  
REMARK    6  A    between atoms: CB   and  CG  
REMARK    7  A    between atoms: CG   and  CD  
ROOT
ATOM     14  CA  GLU D 570     -18.033  -6.348 -13.375  1.00 32.92     0.160 C 
ENDROOT
BRANCH  14  15
ATOM     15  CB  GLU D 570     -19.500  -6.345 -13.794  1.00 32.92     0.043 C 
BRANCH  15  16
ATOM     16  CG  GLU D 570     -19.808  -5.992 -15.204  1.00 32.92     0.100 C 
BRANCH  16  17
ATOM     17  CD  GLU D 570     -21.292  -5.895 -15.476  1.00 32.92     0.185 C 
ATOM     18  OE1 GLU D 570     -21.976  -6.936 -15.479  1.00 32.92    -0.647 OA
ATOM     19  OE2 GLU D 570     -21.771  -4.767 -15.706  1.00 32.92    -0.647 OA
ENDBRANCH  16  17
ENDBRANCH  15  16
ENDBRANCH  14  15
END_RES GLU D 570
ENDMDL
