MODEL 1
REMARK VINA RESULT:     -10.6      0.000      0.000
REMARK  7 active torsions:
REMARK  status: ('A' for Active; 'I' for Inactive)
REMARK       I    between atoms: C_2  and  N_4 
REMARK    1  A    between atoms: N_7  and  C_10 
REMARK    2  A    between atoms: C_13  and  O_16 
REMARK    3  A    between atoms: O_16  and  C_17 
REMARK    4  A    between atoms: C_17  and  C_18 
REMARK    5  A    between atoms: C_21  and  C_23 
REMARK    6  A    between atoms: C_21  and  C_30 
REMARK    7  A    between atoms: C_23  and  N_24 
ROOT
HETATM    1  C   UNL     1     -21.847  -6.652  -4.002  1.00  0.00     0.173 C 
HETATM    2  C   UNL     1     -21.964  -6.311  -2.541  1.00  0.00     0.206 C 
HETATM    3  O   UNL     1     -21.158  -7.257  -1.856  1.00  0.00    -0.347 OA
HETATM    4  C   UNL     1     -20.958  -8.384  -2.738  1.00  0.00     0.212 C 
HETATM    5  O   UNL     1     -21.467  -8.030  -4.042  1.00  0.00    -0.340 OA
ENDROOT
BRANCH   1   6
HETATM    6  C   UNL     1     -20.878  -5.733  -4.768  1.00  0.00     0.209 C 
BRANCH   6   7
HETATM    7  O   UNL     1     -20.533  -6.253  -6.058  1.00  0.00    -0.349 OA
BRANCH   7   8
HETATM    8  C   UNL     1     -20.898  -5.482  -7.131  1.00  0.00     0.069 A 
HETATM    9  C   UNL     1     -22.193  -4.964  -7.107  1.00  0.00     0.039 A 
HETATM   10  C   UNL     1     -22.688  -4.220  -8.192  1.00  0.00     0.032 A 
HETATM   11  C   UNL     1     -21.911  -3.983  -9.331  1.00  0.00     0.030 A 
HETATM   12  C   UNL     1     -20.596  -4.464  -9.307  1.00  0.00     0.032 A 
HETATM   13  C   UNL     1     -20.087  -5.191  -8.221  1.00  0.00     0.039 A 
BRANCH  11  14
HETATM   14  N   UNL     1     -22.393  -3.326 -10.444  1.00  0.00    -0.378 N 
HETATM   15  C   UNL     1     -23.814  -3.008 -10.650  1.00  0.00     0.143 C 
HETATM   16  C   UNL     1     -24.336  -3.592 -11.981  1.00  0.00     0.145 C 
HETATM   17  N   UNL     1     -23.427  -3.303 -13.102  1.00  0.00    -0.349 N 
HETATM   18  C   UNL     1     -23.754  -2.675 -14.288  1.00  0.00     0.215 C 
HETATM   19  C   UNL     1     -22.035  -3.690 -12.857  1.00  0.00     0.145 C 
HETATM   20  C   UNL     1     -25.181  -2.227 -14.467  1.00  0.00     0.117 C 
HETATM   21  O   UNL     1     -22.927  -2.454 -15.173  1.00  0.00    -0.274 OA
HETATM   22  C   UNL     1     -21.498  -3.025 -11.578  1.00  0.00     0.143 C 
ENDBRANCH  11  14
ENDBRANCH   7   8
ENDBRANCH   6   7
ENDBRANCH   1   6
BRANCH   4  23
HETATM   23  C   UNL     1     -19.430  -8.597  -2.858  1.00  0.00     0.203 C 
BRANCH  23  24
HETATM   24  N   UNL     1     -19.007  -9.475  -3.922  1.00  0.00    -0.346 N 
HETATM   25  C   UNL     1     -18.794 -10.823  -3.827  1.00  0.00     0.109 A 
HETATM   26  C   UNL     1     -18.547 -11.233  -5.115  1.00  0.00     0.106 A 
HETATM   27  N   UNL     1     -18.600 -10.176  -5.985  1.00  0.00    -0.361 N 
HETATM   28  C   UNL     1     -18.891  -9.132  -5.242  1.00  0.00     0.182 A 
ATOM     29  HN  UNL     1     -18.446 -10.194  -6.994  1.00  0.00     0.166 HD
ENDBRANCH  23  24
ENDBRANCH   4  23
BRANCH   4  30
HETATM   30  C   UNL     1     -21.725  -9.615  -2.219  1.00  0.00     0.027 A 
HETATM   31  C   UNL     1     -21.879  -9.925  -0.850  1.00  0.00     0.047 A 
HETATM   32  C   UNL     1     -22.637 -11.032  -0.431  1.00  0.00     0.048 A 
HETATM   33 CL   UNL     1     -21.152  -9.001   0.419  1.00  0.00    -0.084 Cl
HETATM   34  C   UNL     1     -23.234 -11.867  -1.367  1.00  0.00     0.035 A 
HETATM   35  C   UNL     1     -23.081 -11.608  -2.720  1.00  0.00     0.024 A 
HETATM   36 CL   UNL     1     -24.156 -13.221  -0.847  1.00  0.00    -0.084 Cl
HETATM   37  C   UNL     1     -22.341 -10.495  -3.139  1.00  0.00     0.016 A 
ENDBRANCH   4  30
TORSDOF 7
BEGIN_RES ARG D 557
REMARK  4 active torsions:
REMARK  status: ('A' for Active; 'I' for Inactive)
REMARK    1  A    between atoms: CA   and  CB  
REMARK    2  A    between atoms: CB   and  CG  
REMARK    3  A    between atoms: CG   and  CD  
REMARK    4  A    between atoms: CD   and  NE  
REMARK       I    between atoms: NE   and  CZ  
REMARK       I    between atoms: CZ   and  NH1 
REMARK       I    between atoms: CZ   and  NH2 
ROOT
ATOM      1  CA  ARG D 557     -26.217   2.705 -17.014  1.00 35.49     0.159 C 
ENDROOT
BRANCH   1   2
ATOM      2  CB  ARG D 557     -26.789   1.319 -17.183  1.00 35.49     0.034 C 
BRANCH   2   3
ATOM      3  CG  ARG D 557     -28.148   1.099 -16.674  1.00 35.49     0.027 C 
BRANCH   3   4
ATOM      4  CD  ARG D 557     -28.787  -0.097 -17.270  1.00 35.49     0.116 C 
BRANCH   4   5
ATOM      5  NE  ARG D 557     -28.170  -1.319 -16.826  1.00 35.49    -0.212 N 
ATOM      6  CZ  ARG D 557     -28.643  -2.531 -17.014  1.00 35.49     0.666 C 
ATOM      7  NH1 ARG D 557     -29.783  -2.758 -17.639  1.00 35.49    -0.235 N 
ATOM      8  NH2 ARG D 557     -27.938  -3.527 -16.562  1.00 35.49    -0.235 N 
ATOM      9  HH  ARG D 557     -30.262  -2.117 -17.947  1.00 35.49     0.174 HD
ATOM     10  HH  ARG D 557     -30.041  -3.570 -17.735  1.00 35.49     0.174 HD
ATOM     11  HH  ARG D 557     -27.202  -3.351 -16.168  1.00 35.49     0.174 HD
ATOM     12  HH  ARG D 557     -28.209  -4.324 -16.667  1.00 35.49     0.174 HD
ATOM     13  HE  ARG D 557     -27.467  -1.262 -16.351  1.00 35.49     0.178 HD
ENDBRANCH   4   5
ENDBRANCH   3   4
ENDBRANCH   2   3
ENDBRANCH   1   2
END_RES ARG D 557
BEGIN_RES GLU D 570
REMARK  3 active torsions:
REMARK  status: ('A' for Active; 'I' for Inactive)
REMARK    5  A    between atoms: CA   and  CB  
REMARK    6  A    between atoms: CB   and  CG  
REMARK    7  A    between atoms: CG   and  CD  
ROOT
ATOM     14  CA  GLU D 570     -18.033  -6.348 -13.375  1.00 32.92     0.160 C 
ENDROOT
BRANCH  14  15
ATOM     15  CB  GLU D 570     -19.500  -6.345 -13.794  1.00 32.92     0.043 C 
BRANCH  15  16
ATOM     16  CG  GLU D 570     -20.101  -7.645 -14.190  1.00 32.92     0.100 C 
BRANCH  16  17
ATOM     17  CD  GLU D 570     -20.949  -7.546 -15.437  1.00 32.92     0.185 C 
ATOM     18  OE1 GLU D 570     -20.882  -8.454 -16.288  1.00 32.92    -0.647 OA
ATOM     19  OE2 GLU D 570     -21.674  -6.541 -15.573  1.00 32.92    -0.647 OA
ENDBRANCH  16  17
ENDBRANCH  15  16
ENDBRANCH  14  15
END_RES GLU D 570
ENDMDL
MODEL 2
REMARK VINA RESULT:      -9.9      2.096      3.505
REMARK  7 active torsions:
REMARK  status: ('A' for Active; 'I' for Inactive)
REMARK       I    between atoms: C_2  and  N_4 
REMARK    1  A    between atoms: N_7  and  C_10 
REMARK    2  A    between atoms: C_13  and  O_16 
REMARK    3  A    between atoms: O_16  and  C_17 
REMARK    4  A    between atoms: C_17  and  C_18 
REMARK    5  A    between atoms: C_21  and  C_23 
REMARK    6  A    between atoms: C_21  and  C_30 
REMARK    7  A    between atoms: C_23  and  N_24 
ROOT
HETATM    1  C   UNL     1     -20.368  -7.747  -4.670  1.00  0.00     0.173 C 
HETATM    2  C   UNL     1     -20.512  -8.982  -5.518  1.00  0.00     0.206 C 
HETATM    3  O   UNL     1     -20.840 -10.033  -4.623  1.00  0.00    -0.347 OA
HETATM    4  C   UNL     1     -20.448  -9.616  -3.295  1.00  0.00     0.212 C 
HETATM    5  O   UNL     1     -20.076  -8.222  -3.354  1.00  0.00    -0.340 OA
ENDROOT
BRANCH   1   6
HETATM    6  C   UNL     1     -21.598  -6.824  -4.723  1.00  0.00     0.209 C 
BRANCH   6   7
HETATM    7  O   UNL     1     -21.262  -5.482  -5.093  1.00  0.00    -0.349 OA
BRANCH   7   8
HETATM    8  C   UNL     1     -21.468  -5.154  -6.409  1.00  0.00     0.069 A 
HETATM    9  C   UNL     1     -22.747  -4.702  -6.738  1.00  0.00     0.039 A 
HETATM   10  C   UNL     1     -23.082  -4.409  -8.071  1.00  0.00     0.032 A 
HETATM   11  C   UNL     1     -22.157  -4.570  -9.110  1.00  0.00     0.030 A 
HETATM   12  C   UNL     1     -20.866  -4.971  -8.746  1.00  0.00     0.032 A 
HETATM   13  C   UNL     1     -20.516  -5.247  -7.417  1.00  0.00     0.039 A 
BRANCH  11  14
HETATM   14  N   UNL     1     -22.478  -4.367 -10.436  1.00  0.00    -0.378 N 
HETATM   15  C   UNL     1     -21.546  -3.800 -11.423  1.00  0.00     0.143 C 
HETATM   16  C   UNL     1     -22.141  -2.549 -12.105  1.00  0.00     0.145 C 
HETATM   17  N   UNL     1     -23.522  -2.774 -12.559  1.00  0.00    -0.349 N 
HETATM   18  C   UNL     1     -24.009  -2.599 -13.840  1.00  0.00     0.215 C 
HETATM   19  C   UNL     1     -24.415  -3.290 -11.517  1.00  0.00     0.145 C 
HETATM   20  C   UNL     1     -23.039  -2.138 -14.894  1.00  0.00     0.117 C 
HETATM   21  O   UNL     1     -25.181  -2.828 -14.142  1.00  0.00    -0.274 OA
HETATM   22  C   UNL     1     -23.857  -4.590 -10.912  1.00  0.00     0.143 C 
ENDBRANCH  11  14
ENDBRANCH   7   8
ENDBRANCH   6   7
ENDBRANCH   1   6
BRANCH   4  23
HETATM   23  C   UNL     1     -21.701  -9.743  -2.396  1.00  0.00     0.203 C 
BRANCH  23  24
HETATM   24  N   UNL     1     -21.599  -9.121  -1.097  1.00  0.00    -0.346 N 
HETATM   25  C   UNL     1     -22.141  -7.921  -0.725  1.00  0.00     0.109 A 
HETATM   26  C   UNL     1     -21.897  -7.826   0.624  1.00  0.00     0.106 A 
HETATM   27  N   UNL     1     -21.221  -8.928   1.078  1.00  0.00    -0.361 N 
HETATM   28  C   UNL     1     -21.066  -9.697   0.024  1.00  0.00     0.182 A 
ATOM     29  HN  UNL     1     -20.906  -9.113   2.031  1.00  0.00     0.166 HD
ENDBRANCH  23  24
ENDBRANCH   4  23
BRANCH   4  30
HETATM   30  C   UNL     1     -19.240 -10.437  -2.809  1.00  0.00     0.027 A 
HETATM   31  C   UNL     1     -19.305 -11.807  -2.472  1.00  0.00     0.047 A 
HETATM   32  C   UNL     1     -18.158 -12.522  -2.087  1.00  0.00     0.048 A 
HETATM   33 CL   UNL     1     -20.776 -12.718  -2.487  1.00  0.00    -0.084 Cl
HETATM   34  C   UNL     1     -16.929 -11.880  -2.003  1.00  0.00     0.035 A 
HETATM   35  C   UNL     1     -16.833 -10.530  -2.300  1.00  0.00     0.024 A 
HETATM   36 CL   UNL     1     -15.530 -12.760  -1.527  1.00  0.00    -0.084 Cl
HETATM   37  C   UNL     1     -17.972  -9.821  -2.701  1.00  0.00     0.016 A 
ENDBRANCH   4  30
TORSDOF 7
BEGIN_RES ARG D 557
REMARK  4 active torsions:
REMARK  status: ('A' for Active; 'I' for Inactive)
REMARK    1  A    between atoms: CA   and  CB  
REMARK    2  A    between atoms: CB   and  CG  
REMARK    3  A    between atoms: CG   and  CD  
REMARK    4  A    between atoms: CD   and  NE  
REMARK       I    between atoms: NE   and  CZ  
REMARK       I    between atoms: CZ   and  NH1 
REMARK       I    between atoms: CZ   and  NH2 
ROOT
ATOM      1  CA  ARG D 557     -26.217   2.705 -17.014  1.00 35.49     0.159 C 
ENDROOT
BRANCH   1   2
ATOM      2  CB  ARG D 557     -26.789   1.319 -17.183  1.00 35.49     0.034 C 
BRANCH   2   3
ATOM      3  CG  ARG D 557     -28.243   1.221 -17.361  1.00 35.49     0.027 C 
BRANCH   3   4
ATOM      4  CD  ARG D 557     -28.860   0.243 -16.436  1.00 35.49     0.116 C 
BRANCH   4   5
ATOM      5  NE  ARG D 557     -29.211  -0.984 -17.100  1.00 35.49    -0.212 N 
ATOM      6  CZ  ARG D 557     -28.569  -2.126 -16.995  1.00 35.49     0.666 C 
ATOM      7  NH1 ARG D 557     -27.486  -2.264 -16.252  1.00 35.49    -0.235 N 
ATOM      8  NH2 ARG D 557     -29.042  -3.144 -17.653  1.00 35.49    -0.235 N 
ATOM      9  HH  ARG D 557     -27.159  -1.608 -15.809  1.00 35.49     0.174 HD
ATOM     10  HH  ARG D 557     -27.111  -3.033 -16.219  1.00 35.49     0.174 HD
ATOM     11  HH  ARG D 557     -29.747  -3.027 -18.119  1.00 35.49     0.174 HD
ATOM     12  HH  ARG D 557     -28.657  -3.898 -17.607  1.00 35.49     0.174 HD
ATOM     13  HE  ARG D 557     -29.854  -0.967 -17.657  1.00 35.49     0.178 HD
ENDBRANCH   4   5
ENDBRANCH   3   4
ENDBRANCH   2   3
ENDBRANCH   1   2
END_RES ARG D 557
BEGIN_RES GLU D 570
REMARK  3 active torsions:
REMARK  status: ('A' for Active; 'I' for Inactive)
REMARK    5  A    between atoms: CA   and  CB  
REMARK    6  A    between atoms: CB   and  CG  
REMARK    7  A    between atoms: CG   and  CD  
ROOT
ATOM     14  CA  GLU D 570     -18.033  -6.348 -13.375  1.00 32.92     0.160 C 
ENDROOT
BRANCH  14  15
ATOM     15  CB  GLU D 570     -19.500  -6.345 -13.794  1.00 32.92     0.043 C 
BRANCH  15  16
ATOM     16  CG  GLU D 570     -19.798  -6.199 -15.242  1.00 32.92     0.100 C 
BRANCH  16  17
ATOM     17  CD  GLU D 570     -21.132  -5.540 -15.506  1.00 32.92     0.185 C 
ATOM     18  OE1 GLU D 570     -21.383  -5.120 -16.652  1.00 32.92    -0.647 OA
ATOM     19  OE2 GLU D 570     -21.927  -5.428 -14.553  1.00 32.92    -0.647 OA
ENDBRANCH  16  17
ENDBRANCH  15  16
ENDBRANCH  14  15
END_RES GLU D 570
ENDMDL
MODEL 3
REMARK VINA RESULT:      -9.7      1.253      1.708
REMARK  7 active torsions:
REMARK  status: ('A' for Active; 'I' for Inactive)
REMARK       I    between atoms: C_2  and  N_4 
REMARK    1  A    between atoms: N_7  and  C_10 
REMARK    2  A    between atoms: C_13  and  O_16 
REMARK    3  A    between atoms: O_16  and  C_17 
REMARK    4  A    between atoms: C_17  and  C_18 
REMARK    5  A    between atoms: C_21  and  C_23 
REMARK    6  A    between atoms: C_21  and  C_30 
REMARK    7  A    between atoms: C_23  and  N_24 
ROOT
HETATM    1  C   UNL     1     -21.582  -7.843  -4.279  1.00  0.00     0.173 C 
HETATM    2  C   UNL     1     -20.893  -7.350  -3.035  1.00  0.00     0.206 C 
HETATM    3  O   UNL     1     -20.134  -8.447  -2.549  1.00  0.00    -0.347 OA
HETATM    4  C   UNL     1     -20.682  -9.650  -3.132  1.00  0.00     0.212 C 
HETATM    5  O   UNL     1     -21.640  -9.266  -4.141  1.00  0.00    -0.340 OA
ENDROOT
BRANCH   1   6
HETATM    6  C   UNL     1     -20.896  -7.387  -5.579  1.00  0.00     0.209 C 
BRANCH   6   7
HETATM    7  O   UNL     1     -20.581  -5.990  -5.572  1.00  0.00    -0.349 OA
BRANCH   7   8
HETATM    8  C   UNL     1     -20.903  -5.298  -6.711  1.00  0.00     0.069 A 
HETATM    9  C   UNL     1     -22.234  -4.895  -6.831  1.00  0.00     0.039 A 
HETATM   10  C   UNL     1     -22.683  -4.243  -7.992  1.00  0.00     0.032 A 
HETATM   11  C   UNL     1     -21.822  -3.985  -9.066  1.00  0.00     0.030 A 
HETATM   12  C   UNL     1     -20.480  -4.348  -8.897  1.00  0.00     0.032 A 
HETATM   13  C   UNL     1     -20.019  -4.982  -7.735  1.00  0.00     0.039 A 
BRANCH  11  14
HETATM   14  N   UNL     1     -22.248  -3.419 -10.249  1.00  0.00    -0.378 N 
HETATM   15  C   UNL     1     -23.633  -2.988 -10.494  1.00  0.00     0.143 C 
HETATM   16  C   UNL     1     -24.223  -3.670 -11.747  1.00  0.00     0.145 C 
HETATM   17  N   UNL     1     -23.301  -3.607 -12.893  1.00  0.00    -0.349 N 
HETATM   18  C   UNL     1     -23.577  -3.093 -14.146  1.00  0.00     0.215 C 
HETATM   19  C   UNL     1     -21.951  -4.098 -12.601  1.00  0.00     0.145 C 
HETATM   20  C   UNL     1     -24.954  -2.531 -14.378  1.00  0.00     0.117 C 
HETATM   21  O   UNL     1     -22.740  -3.060 -15.048  1.00  0.00    -0.274 OA
HETATM   22  C   UNL     1     -21.340  -3.343 -11.409  1.00  0.00     0.143 C 
ENDBRANCH  11  14
ENDBRANCH   7   8
ENDBRANCH   6   7
ENDBRANCH   1   6
BRANCH   4  23
HETATM   23  C   UNL     1     -19.513 -10.384  -3.832  1.00  0.00     0.203 C 
BRANCH  23  24
HETATM   24  N   UNL     1     -18.270 -10.410  -3.099  1.00  0.00    -0.346 N 
HETATM   25  C   UNL     1     -17.914 -11.314  -2.135  1.00  0.00     0.109 A 
HETATM   26  C   UNL     1     -16.605 -11.018  -1.839  1.00  0.00     0.106 A 
HETATM   27  N   UNL     1     -16.160  -9.962  -2.591  1.00  0.00    -0.361 N 
HETATM   28  C   UNL     1     -17.178  -9.624  -3.349  1.00  0.00     0.182 A 
ATOM     29  HN  UNL     1     -15.235  -9.531  -2.567  1.00  0.00     0.166 HD
ENDBRANCH  23  24
ENDBRANCH   4  23
BRANCH   4  30
HETATM   30  C   UNL     1     -21.397 -10.491  -2.057  1.00  0.00     0.027 A 
HETATM   31  C   UNL     1     -22.221 -11.600  -2.347  1.00  0.00     0.047 A 
HETATM   32  C   UNL     1     -22.804 -12.366  -1.323  1.00  0.00     0.048 A 
HETATM   33 CL   UNL     1     -22.598 -12.106  -3.958  1.00  0.00    -0.084 Cl
HETATM   34  C   UNL     1     -22.601 -12.026   0.009  1.00  0.00     0.035 A 
HETATM   35  C   UNL     1     -21.819 -10.927   0.329  1.00  0.00     0.024 A 
HETATM   36 CL   UNL     1     -23.321 -12.964   1.256  1.00  0.00    -0.084 Cl
HETATM   37  C   UNL     1     -21.223 -10.173  -0.690  1.00  0.00     0.016 A 
ENDBRANCH   4  30
TORSDOF 7
BEGIN_RES ARG D 557
REMARK  4 active torsions:
REMARK  status: ('A' for Active; 'I' for Inactive)
REMARK    1  A    between atoms: CA   and  CB  
REMARK    2  A    between atoms: CB   and  CG  
REMARK    3  A    between atoms: CG   and  CD  
REMARK    4  A    between atoms: CD   and  NE  
REMARK       I    between atoms: NE   and  CZ  
REMARK       I    between atoms: CZ   and  NH1 
REMARK       I    between atoms: CZ   and  NH2 
ROOT
ATOM      1  CA  ARG D 557     -26.217   2.705 -17.014  1.00 35.49     0.159 C 
ENDROOT
BRANCH   1   2
ATOM      2  CB  ARG D 557     -26.789   1.319 -17.183  1.00 35.49     0.034 C 
BRANCH   2   3
ATOM      3  CG  ARG D 557     -28.195   1.230 -17.595  1.00 35.49     0.027 C 
BRANCH   3   4
ATOM      4  CD  ARG D 557     -28.960   0.255 -16.784  1.00 35.49     0.116 C 
BRANCH   4   5
ATOM      5  NE  ARG D 557     -28.213  -0.950 -16.539  1.00 35.49    -0.212 N 
ATOM      6  CZ  ARG D 557     -28.585  -2.166 -16.872  1.00 35.49     0.666 C 
ATOM      7  NH1 ARG D 557     -29.733  -2.416 -17.475  1.00 35.49    -0.235 N 
ATOM      8  NH2 ARG D 557     -27.771  -3.142 -16.590  1.00 35.49    -0.235 N 
ATOM      9  HH  ARG D 557     -30.283  -1.789 -17.672  1.00 35.49     0.174 HD
ATOM     10  HH  ARG D 557     -29.921  -3.229 -17.670  1.00 35.49     0.174 HD
ATOM     11  HH  ARG D 557     -27.034  -2.949 -16.207  1.00 35.49     0.174 HD
ATOM     12  HH  ARG D 557     -27.975  -3.939 -16.793  1.00 35.49     0.174 HD
ATOM     13  HE  ARG D 557     -27.493  -0.890 -16.089  1.00 35.49     0.178 HD
ENDBRANCH   4   5
ENDBRANCH   3   4
ENDBRANCH   2   3
ENDBRANCH   1   2
END_RES ARG D 557
BEGIN_RES GLU D 570
REMARK  3 active torsions:
REMARK  status: ('A' for Active; 'I' for Inactive)
REMARK    5  A    between atoms: CA   and  CB  
REMARK    6  A    between atoms: CB   and  CG  
REMARK    7  A    between atoms: CG   and  CD  
ROOT
ATOM     14  CA  GLU D 570     -18.033  -6.348 -13.375  1.00 32.92     0.160 C 
ENDROOT
BRANCH  14  15
ATOM     15  CB  GLU D 570     -19.500  -6.345 -13.794  1.00 32.92     0.043 C 
BRANCH  15  16
ATOM     16  CG  GLU D 570     -20.081  -7.630 -14.261  1.00 32.92     0.100 C 
BRANCH  16  17
ATOM     17  CD  GLU D 570     -20.801  -7.505 -15.584  1.00 32.92     0.185 C 
ATOM     18  OE1 GLU D 570     -21.214  -8.536 -16.148  1.00 32.92    -0.647 OA
ATOM     19  OE2 GLU D 570     -20.938  -6.365 -16.069  1.00 32.92    -0.647 OA
ENDBRANCH  16  17
ENDBRANCH  15  16
ENDBRANCH  14  15
END_RES GLU D 570
ENDMDL
MODEL 4
REMARK VINA RESULT:      -9.7      2.382      3.645
REMARK  7 active torsions:
REMARK  status: ('A' for Active; 'I' for Inactive)
REMARK       I    between atoms: C_2  and  N_4 
REMARK    1  A    between atoms: N_7  and  C_10 
REMARK    2  A    between atoms: C_13  and  O_16 
REMARK    3  A    between atoms: O_16  and  C_17 
REMARK    4  A    between atoms: C_17  and  C_18 
REMARK    5  A    between atoms: C_21  and  C_23 
REMARK    6  A    between atoms: C_21  and  C_30 
REMARK    7  A    between atoms: C_23  and  N_24 
ROOT
HETATM    1  C   UNL     1     -19.268  -8.796  -4.660  1.00  0.00     0.173 C 
HETATM    2  C   UNL     1     -19.169 -10.195  -5.207  1.00  0.00     0.206 C 
HETATM    3  O   UNL     1     -19.609 -11.052  -4.165  1.00  0.00    -0.347 OA
HETATM    4  C   UNL     1     -19.515 -10.317  -2.924  1.00  0.00     0.212 C 
HETATM    5  O   UNL     1     -19.219  -8.940  -3.239  1.00  0.00    -0.340 OA
ENDROOT
BRANCH   1   6
HETATM    6  C   UNL     1     -20.514  -8.036  -5.150  1.00  0.00     0.209 C 
BRANCH   6   7
HETATM    7  O   UNL     1     -20.378  -6.616  -5.016  1.00  0.00    -0.349 OA
BRANCH   7   8
HETATM    8  C   UNL     1     -20.707  -5.877  -6.123  1.00  0.00     0.069 A 
HETATM    9  C   UNL     1     -22.001  -5.357  -6.155  1.00  0.00     0.039 A 
HETATM   10  C   UNL     1     -22.460  -4.646  -7.277  1.00  0.00     0.032 A 
HETATM   11  C   UNL     1     -21.646  -4.444  -8.398  1.00  0.00     0.030 A 
HETATM   12  C   UNL     1     -20.334  -4.926  -8.318  1.00  0.00     0.032 A 
HETATM   13  C   UNL     1     -19.861  -5.620  -7.195  1.00  0.00     0.039 A 
BRANCH  11  14
HETATM   14  N   UNL     1     -22.091  -3.820  -9.545  1.00  0.00    -0.378 N 
HETATM   15  C   UNL     1     -23.484  -3.394  -9.753  1.00  0.00     0.143 C 
HETATM   16  C   UNL     1     -24.077  -4.015 -11.036  1.00  0.00     0.145 C 
HETATM   17  N   UNL     1     -23.169  -3.877 -12.185  1.00  0.00    -0.349 N 
HETATM   18  C   UNL     1     -23.463  -3.300 -13.405  1.00  0.00     0.215 C 
HETATM   19  C   UNL     1     -21.810  -4.366 -11.933  1.00  0.00     0.145 C 
HETATM   20  C   UNL     1     -24.849  -2.744 -13.594  1.00  0.00     0.117 C 
HETATM   21  O   UNL     1     -22.636  -3.207 -14.313  1.00  0.00    -0.274 OA
HETATM   22  C   UNL     1     -21.195  -3.669 -10.708  1.00  0.00     0.143 C 
ENDBRANCH  11  14
ENDBRANCH   7   8
ENDBRANCH   6   7
ENDBRANCH   1   6
BRANCH   4  23
HETATM   23  C   UNL     1     -20.913 -10.370  -2.262  1.00  0.00     0.203 C 
BRANCH  23  24
HETATM   24  N   UNL     1     -21.239  -9.252  -1.410  1.00  0.00    -0.346 N 
HETATM   25  C   UNL     1     -21.881  -8.104  -1.786  1.00  0.00     0.109 A 
HETATM   26  C   UNL     1     -22.086  -7.414  -0.616  1.00  0.00     0.106 A 
HETATM   27  N   UNL     1     -21.585  -8.107   0.455  1.00  0.00    -0.361 N 
HETATM   28  C   UNL     1     -21.092  -9.215  -0.050  1.00  0.00     0.182 A 
ATOM     29  HN  UNL     1     -21.593  -7.823   1.435  1.00  0.00     0.166 HD
ENDBRANCH  23  24
ENDBRANCH   4  23
BRANCH   4  30
HETATM   30  C   UNL     1     -18.383 -10.886  -2.048  1.00  0.00     0.027 A 
HETATM   31  C   UNL     1     -17.013 -10.627  -2.269  1.00  0.00     0.047 A 
HETATM   32  C   UNL     1     -16.024 -11.127  -1.403  1.00  0.00     0.048 A 
HETATM   33 CL   UNL     1     -16.427  -9.700  -3.607  1.00  0.00    -0.084 Cl
HETATM   34  C   UNL     1     -16.379 -11.917  -0.317  1.00  0.00     0.035 A 
HETATM   35  C   UNL     1     -17.713 -12.214  -0.085  1.00  0.00     0.024 A 
HETATM   36 CL   UNL     1     -15.165 -12.529   0.735  1.00  0.00    -0.084 Cl
HETATM   37  C   UNL     1     -18.700 -11.701  -0.937  1.00  0.00     0.016 A 
ENDBRANCH   4  30
TORSDOF 7
BEGIN_RES ARG D 557
REMARK  4 active torsions:
REMARK  status: ('A' for Active; 'I' for Inactive)
REMARK    1  A    between atoms: CA   and  CB  
REMARK    2  A    between atoms: CB   and  CG  
REMARK    3  A    between atoms: CG   and  CD  
REMARK    4  A    between atoms: CD   and  NE  
REMARK       I    between atoms: NE   and  CZ  
REMARK       I    between atoms: CZ   and  NH1 
REMARK       I    between atoms: CZ   and  NH2 
ROOT
ATOM      1  CA  ARG D 557     -26.217   2.705 -17.014  1.00 35.49     0.159 C 
ENDROOT
BRANCH   1   2
ATOM      2  CB  ARG D 557     -26.789   1.319 -17.183  1.00 35.49     0.034 C 
BRANCH   2   3
ATOM      3  CG  ARG D 557     -28.239   1.224 -17.391  1.00 35.49     0.027 C 
BRANCH   3   4
ATOM      4  CD  ARG D 557     -28.882   0.273 -16.456  1.00 35.49     0.116 C 
BRANCH   4   5
ATOM      5  NE  ARG D 557     -29.265  -0.953 -17.106  1.00 35.49    -0.212 N 
ATOM      6  CZ  ARG D 557     -28.628  -2.099 -17.021  1.00 35.49     0.666 C 
ATOM      7  NH1 ARG D 557     -27.521  -2.245 -16.316  1.00 35.49    -0.235 N 
ATOM      8  NH2 ARG D 557     -29.131  -3.114 -17.661  1.00 35.49    -0.235 N 
ATOM      9  HH  ARG D 557     -27.174  -1.591 -15.885  1.00 35.49     0.174 HD
ATOM     10  HH  ARG D 557     -27.151  -3.017 -16.295  1.00 35.49     0.174 HD
ATOM     11  HH  ARG D 557     -29.850  -2.992 -18.103  1.00 35.49     0.174 HD
ATOM     12  HH  ARG D 557     -28.750  -3.871 -17.627  1.00 35.49     0.174 HD
ATOM     13  HE  ARG D 557     -29.926  -0.932 -17.640  1.00 35.49     0.178 HD
ENDBRANCH   4   5
ENDBRANCH   3   4
ENDBRANCH   2   3
ENDBRANCH   1   2
END_RES ARG D 557
BEGIN_RES GLU D 570
REMARK  3 active torsions:
REMARK  status: ('A' for Active; 'I' for Inactive)
REMARK    5  A    between atoms: CA   and  CB  
REMARK    6  A    between atoms: CB   and  CG  
REMARK    7  A    between atoms: CG   and  CD  
ROOT
ATOM     14  CA  GLU D 570     -18.033  -6.348 -13.375  1.00 32.92     0.160 C 
ENDROOT
BRANCH  14  15
ATOM     15  CB  GLU D 570     -19.500  -6.345 -13.794  1.00 32.92     0.043 C 
BRANCH  15  16
ATOM     16  CG  GLU D 570     -19.812  -5.945 -15.190  1.00 32.92     0.100 C 
BRANCH  16  17
ATOM     17  CD  GLU D 570     -21.218  -6.309 -15.608  1.00 32.92     0.185 C 
ATOM     18  OE1 GLU D 570     -22.079  -6.505 -14.728  1.00 32.92    -0.647 OA
ATOM     19  OE2 GLU D 570     -21.457  -6.417 -16.827  1.00 32.92    -0.647 OA
ENDBRANCH  16  17
ENDBRANCH  15  16
ENDBRANCH  14  15
END_RES GLU D 570
ENDMDL
MODEL 5
REMARK VINA RESULT:      -8.6      6.081     11.947
REMARK  7 active torsions:
REMARK  status: ('A' for Active; 'I' for Inactive)
REMARK       I    between atoms: C_2  and  N_4 
REMARK    1  A    between atoms: N_7  and  C_10 
REMARK    2  A    between atoms: C_13  and  O_16 
REMARK    3  A    between atoms: O_16  and  C_17 
REMARK    4  A    between atoms: C_17  and  C_18 
REMARK    5  A    between atoms: C_21  and  C_23 
REMARK    6  A    between atoms: C_21  and  C_30 
REMARK    7  A    between atoms: C_23  and  N_24 
ROOT
HETATM    1  C   UNL     1     -26.806  -5.745 -15.570  1.00  0.00     0.173 C 
HETATM    2  C   UNL     1     -26.865  -7.234 -15.779  1.00  0.00     0.206 C 
HETATM    3  O   UNL     1     -27.387  -7.424 -17.085  1.00  0.00    -0.347 OA
HETATM    4  C   UNL     1     -28.061  -6.204 -17.468  1.00  0.00     0.212 C 
HETATM    5  O   UNL     1     -27.764  -5.196 -16.478  1.00  0.00    -0.340 OA
ENDROOT
BRANCH   1   6
HETATM    6  C   UNL     1     -25.394  -5.159 -15.751  1.00  0.00     0.209 C 
BRANCH   6   7
HETATM    7  O   UNL     1     -25.230  -3.907 -15.075  1.00  0.00    -0.349 OA
BRANCH   7   8
HETATM    8  C   UNL     1     -24.465  -3.937 -13.937  1.00  0.00     0.069 A 
HETATM    9  C   UNL     1     -24.811  -3.027 -12.937  1.00  0.00     0.039 A 
HETATM   10  C   UNL     1     -24.046  -2.929 -11.762  1.00  0.00     0.032 A 
HETATM   11  C   UNL     1     -22.913  -3.726 -11.557  1.00  0.00     0.030 A 
HETATM   12  C   UNL     1     -22.621  -4.670 -12.549  1.00  0.00     0.032 A 
HETATM   13  C   UNL     1     -23.389  -4.789 -13.716  1.00  0.00     0.039 A 
BRANCH  11  14
HETATM   14  N   UNL     1     -22.098  -3.599 -10.453  1.00  0.00    -0.378 N 
HETATM   15  C   UNL     1     -20.629  -3.646 -10.514  1.00  0.00     0.143 C 
HETATM   16  C   UNL     1     -20.061  -4.742  -9.587  1.00  0.00     0.145 C 
HETATM   17  N   UNL     1     -20.662  -4.693  -8.244  1.00  0.00    -0.349 N 
HETATM   18  C   UNL     1     -19.989  -4.588  -7.043  1.00  0.00     0.215 C 
HETATM   19  C   UNL     1     -22.128  -4.701  -8.247  1.00  0.00     0.145 C 
HETATM   20  C   UNL     1     -18.486  -4.508  -7.093  1.00  0.00     0.117 C 
HETATM   21  O   UNL     1     -20.570  -4.535  -5.958  1.00  0.00    -0.274 OA
HETATM   22  C   UNL     1     -22.680  -3.545  -9.098  1.00  0.00     0.143 C 
ENDBRANCH  11  14
ENDBRANCH   7   8
ENDBRANCH   6   7
ENDBRANCH   1   6
BRANCH   4  23
HETATM   23  C   UNL     1     -27.445  -5.753 -18.815  1.00  0.00     0.203 C 
BRANCH  23  24
HETATM   24  N   UNL     1     -26.415  -6.614 -19.344  1.00  0.00    -0.346 N 
HETATM   25  C   UNL     1     -26.446  -7.277 -20.541  1.00  0.00     0.109 A 
HETATM   26  C   UNL     1     -25.200  -7.843 -20.664  1.00  0.00     0.106 A 
HETATM   27  N   UNL     1     -24.418  -7.547 -19.578  1.00  0.00    -0.361 N 
HETATM   28  C   UNL     1     -25.171  -6.796 -18.805  1.00  0.00     0.182 A 
ATOM     29  HN  UNL     1     -23.458  -7.846 -19.405  1.00  0.00     0.166 HD
ENDBRANCH  23  24
ENDBRANCH   4  23
BRANCH   4  30
HETATM   30  C   UNL     1     -29.585  -6.424 -17.517  1.00  0.00     0.027 A 
HETATM   31  C   UNL     1     -30.208  -7.440 -18.274  1.00  0.00     0.047 A 
HETATM   32  C   UNL     1     -31.600  -7.631 -18.238  1.00  0.00     0.048 A 
HETATM   33 CL   UNL     1     -29.338  -8.519 -19.310  1.00  0.00    -0.084 Cl
HETATM   34  C   UNL     1     -32.401  -6.797 -17.469  1.00  0.00     0.035 A 
HETATM   35  C   UNL     1     -31.826  -5.772 -16.734  1.00  0.00     0.024 A 
HETATM   36 CL   UNL     1     -34.103  -7.033 -17.432  1.00  0.00    -0.084 Cl
HETATM   37  C   UNL     1     -30.438  -5.592 -16.755  1.00  0.00     0.016 A 
ENDBRANCH   4  30
TORSDOF 7
BEGIN_RES ARG D 557
REMARK  4 active torsions:
REMARK  status: ('A' for Active; 'I' for Inactive)
REMARK    1  A    between atoms: CA   and  CB  
REMARK    2  A    between atoms: CB   and  CG  
REMARK    3  A    between atoms: CG   and  CD  
REMARK    4  A    between atoms: CD   and  NE  
REMARK       I    between atoms: NE   and  CZ  
REMARK       I    between atoms: CZ   and  NH1 
REMARK       I    between atoms: CZ   and  NH2 
ROOT
ATOM      1  CA  ARG D 557     -26.217   2.705 -17.014  1.00 35.49     0.159 C 
ENDROOT
BRANCH   1   2
ATOM      2  CB  ARG D 557     -26.789   1.319 -17.183  1.00 35.49     0.034 C 
BRANCH   2   3
ATOM      3  CG  ARG D 557     -28.225   1.228 -17.476  1.00 35.49     0.027 C 
BRANCH   3   4
ATOM      4  CD  ARG D 557     -28.941   0.351 -16.522  1.00 35.49     0.116 C 
BRANCH   4   5
ATOM      5  NE  ARG D 557     -29.388  -0.870 -17.139  1.00 35.49    -0.212 N 
ATOM      6  CZ  ARG D 557     -28.768  -2.028 -17.090  1.00 35.49     0.666 C 
ATOM      7  NH1 ARG D 557     -27.620  -2.191 -16.459  1.00 35.49    -0.235 N 
ATOM      8  NH2 ARG D 557     -29.331  -3.036 -17.690  1.00 35.49    -0.235 N 
ATOM      9  HH  ARG D 557     -27.233  -1.542 -16.056  1.00 35.49     0.174 HD
ATOM     10  HH  ARG D 557     -27.263  -2.970 -16.459  1.00 35.49     0.174 HD
ATOM     11  HH  ARG D 557     -30.075  -2.903 -18.084  1.00 35.49     0.174 HD
ATOM     12  HH  ARG D 557     -28.962  -3.800 -17.678  1.00 35.49     0.174 HD
ATOM     13  HE  ARG D 557     -30.083  -0.839 -17.628  1.00 35.49     0.178 HD
ENDBRANCH   4   5
ENDBRANCH   3   4
ENDBRANCH   2   3
ENDBRANCH   1   2
END_RES ARG D 557
BEGIN_RES GLU D 570
REMARK  3 active torsions:
REMARK  status: ('A' for Active; 'I' for Inactive)
REMARK    5  A    between atoms: CA   and  CB  
REMARK    6  A    between atoms: CB   and  CG  
REMARK    7  A    between atoms: CG   and  CD  
ROOT
ATOM     14  CA  GLU D 570     -18.033  -6.348 -13.375  1.00 32.92     0.160 C 
ENDROOT
BRANCH  14  15
ATOM     15  CB  GLU D 570     -19.500  -6.345 -13.794  1.00 32.92     0.043 C 
BRANCH  15  16
ATOM     16  CG  GLU D 570     -20.098  -7.642 -14.202  1.00 32.92     0.100 C 
BRANCH  16  17
ATOM     17  CD  GLU D 570     -20.801  -7.573 -15.538  1.00 32.92     0.185 C 
ATOM     18  OE1 GLU D 570     -21.048  -8.631 -16.148  1.00 32.92    -0.647 OA
ATOM     19  OE2 GLU D 570     -21.094  -6.447 -15.986  1.00 32.92    -0.647 OA
ENDBRANCH  16  17
ENDBRANCH  15  16
ENDBRANCH  14  15
END_RES GLU D 570
ENDMDL
MODEL 6
REMARK VINA RESULT:      -8.0      3.053      4.481
REMARK  7 active torsions:
REMARK  status: ('A' for Active; 'I' for Inactive)
REMARK       I    between atoms: C_2  and  N_4 
REMARK    1  A    between atoms: N_7  and  C_10 
REMARK    2  A    between atoms: C_13  and  O_16 
REMARK    3  A    between atoms: O_16  and  C_17 
REMARK    4  A    between atoms: C_17  and  C_18 
REMARK    5  A    between atoms: C_21  and  C_23 
REMARK    6  A    between atoms: C_21  and  C_30 
REMARK    7  A    between atoms: C_23  and  N_24 
ROOT
HETATM    1  C   UNL     1     -19.220  -9.765  -2.332  1.00  0.00     0.173 C 
HETATM    2  C   UNL     1     -17.865  -9.435  -2.897  1.00  0.00     0.206 C 
HETATM    3  O   UNL     1     -17.288 -10.675  -3.275  1.00  0.00    -0.347 OA
HETATM    4  C   UNL     1     -17.988 -11.719  -2.562  1.00  0.00     0.212 C 
HETATM    5  O   UNL     1     -19.134 -11.129  -1.912  1.00  0.00    -0.340 OA
ENDROOT
BRANCH   1   6
HETATM    6  C   UNL     1     -20.373  -9.506  -3.318  1.00  0.00     0.209 C 
BRANCH   6   7
HETATM    7  O   UNL     1     -21.048  -8.270  -3.061  1.00  0.00    -0.349 OA
BRANCH   7   8
HETATM    8  C   UNL     1     -21.248  -7.459  -4.149  1.00  0.00     0.069 A 
HETATM    9  C   UNL     1     -20.164  -7.312  -5.015  1.00  0.00     0.039 A 
HETATM   10  C   UNL     1     -20.242  -6.447  -6.121  1.00  0.00     0.032 A 
HETATM   11  C   UNL     1     -21.396  -5.700  -6.385  1.00  0.00     0.030 A 
HETATM   12  C   UNL     1     -22.489  -5.909  -5.534  1.00  0.00     0.032 A 
HETATM   13  C   UNL     1     -22.427  -6.783  -4.440  1.00  0.00     0.039 A 
BRANCH  11  14
HETATM   14  N   UNL     1     -21.477  -4.785  -7.413  1.00  0.00    -0.378 N 
HETATM   15  C   UNL     1     -22.740  -4.388  -8.054  1.00  0.00     0.143 C 
HETATM   16  C   UNL     1     -22.697  -4.625  -9.579  1.00  0.00     0.145 C 
HETATM   17  N   UNL     1     -21.461  -4.103 -10.183  1.00  0.00    -0.349 N 
HETATM   18  C   UNL     1     -21.369  -3.202 -11.226  1.00  0.00     0.215 C 
HETATM   19  C   UNL     1     -20.234  -4.575  -9.533  1.00  0.00     0.145 C 
HETATM   20  C   UNL     1     -22.656  -2.687 -11.814  1.00  0.00     0.117 C 
HETATM   21  O   UNL     1     -20.290  -2.800 -11.663  1.00  0.00    -0.274 OA
HETATM   22  C   UNL     1     -20.249  -4.247  -8.031  1.00  0.00     0.143 C 
ENDBRANCH  11  14
ENDBRANCH   7   8
ENDBRANCH   6   7
ENDBRANCH   1   6
BRANCH   4  23
HETATM   23  C   UNL     1     -18.500 -12.723  -3.623  1.00  0.00     0.203 C 
BRANCH  23  24
HETATM   24  N   UNL     1     -18.373 -12.295  -4.995  1.00  0.00    -0.346 N 
HETATM   25  C   UNL     1     -17.359 -12.617  -5.856  1.00  0.00     0.109 A 
HETATM   26  C   UNL     1     -17.746 -12.099  -7.068  1.00  0.00     0.106 A 
HETATM   27  N   UNL     1     -18.960 -11.471  -6.967  1.00  0.00    -0.361 N 
HETATM   28  C   UNL     1     -19.320 -11.615  -5.711  1.00  0.00     0.182 A 
ATOM     29  HN  UNL     1     -19.475 -10.993  -7.707  1.00  0.00     0.166 HD
ENDBRANCH  23  24
ENDBRANCH   4  23
BRANCH   4  30
HETATM   30  C   UNL     1     -17.073 -12.347  -1.494  1.00  0.00     0.027 A 
HETATM   31  C   UNL     1     -15.736 -12.732  -1.733  1.00  0.00     0.047 A 
HETATM   32  C   UNL     1     -14.928 -13.248  -0.705  1.00  0.00     0.048 A 
HETATM   33 CL   UNL     1     -14.981 -12.622  -3.285  1.00  0.00    -0.084 Cl
HETATM   34  C   UNL     1     -15.444 -13.416   0.574  1.00  0.00     0.035 A 
HETATM   35  C   UNL     1     -16.761 -13.074   0.838  1.00  0.00     0.024 A 
HETATM   36 CL   UNL     1     -14.452 -14.053   1.825  1.00  0.00    -0.084 Cl
HETATM   37  C   UNL     1     -17.562 -12.543  -0.181  1.00  0.00     0.016 A 
ENDBRANCH   4  30
TORSDOF 7
BEGIN_RES ARG D 557
REMARK  4 active torsions:
REMARK  status: ('A' for Active; 'I' for Inactive)
REMARK    1  A    between atoms: CA   and  CB  
REMARK    2  A    between atoms: CB   and  CG  
REMARK    3  A    between atoms: CG   and  CD  
REMARK    4  A    between atoms: CD   and  NE  
REMARK       I    between atoms: NE   and  CZ  
REMARK       I    between atoms: CZ   and  NH1 
REMARK       I    between atoms: CZ   and  NH2 
ROOT
ATOM      1  CA  ARG D 557     -26.217   2.705 -17.014  1.00 35.49     0.159 C 
ENDROOT
BRANCH   1   2
ATOM      2  CB  ARG D 557     -26.789   1.319 -17.183  1.00 35.49     0.034 C 
BRANCH   2   3
ATOM      3  CG  ARG D 557     -25.974   0.203 -16.688  1.00 35.49     0.027 C 
BRANCH   3   4
ATOM      4  CD  ARG D 557     -26.789  -0.843 -16.029  1.00 35.49     0.116 C 
BRANCH   4   5
ATOM      5  NE  ARG D 557     -28.026  -1.084 -16.725  1.00 35.49    -0.212 N 
ATOM      6  CZ  ARG D 557     -28.554  -2.264 -16.965  1.00 35.49     0.666 C 
ATOM      7  NH1 ARG D 557     -27.975  -3.390 -16.592  1.00 35.49    -0.235 N 
ATOM      8  NH2 ARG D 557     -29.695  -2.294 -17.591  1.00 35.49    -0.235 N 
ATOM      9  HH  ARG D 557     -27.225  -3.393 -16.177  1.00 35.49     0.174 HD
ATOM     10  HH  ARG D 557     -28.367  -4.129 -16.774  1.00 35.49     0.174 HD
ATOM     11  HH  ARG D 557     -30.049  -1.551 -17.813  1.00 35.49     0.174 HD
ATOM     12  HH  ARG D 557     -30.068  -3.036 -17.761  1.00 35.49     0.174 HD
ATOM     13  HE  ARG D 557     -28.430  -0.418 -17.064  1.00 35.49     0.178 HD
ENDBRANCH   4   5
ENDBRANCH   3   4
ENDBRANCH   2   3
ENDBRANCH   1   2
END_RES ARG D 557
BEGIN_RES GLU D 570
REMARK  3 active torsions:
REMARK  status: ('A' for Active; 'I' for Inactive)
REMARK    5  A    between atoms: CA   and  CB  
REMARK    6  A    between atoms: CB   and  CG  
REMARK    7  A    between atoms: CG   and  CD  
ROOT
ATOM     14  CA  GLU D 570     -18.033  -6.348 -13.375  1.00 32.92     0.160 C 
ENDROOT
BRANCH  14  15
ATOM     15  CB  GLU D 570     -19.500  -6.345 -13.794  1.00 32.92     0.043 C 
BRANCH  15  16
ATOM     16  CG  GLU D 570     -19.797  -6.229 -15.245  1.00 32.92     0.100 C 
BRANCH  16  17
ATOM     17  CD  GLU D 570     -21.251  -5.928 -15.527  1.00 32.92     0.185 C 
ATOM     18  OE1 GLU D 570     -21.611  -4.742 -15.648  1.00 32.92    -0.647 OA
ATOM     19  OE2 GLU D 570     -22.041  -6.889 -15.610  1.00 32.92    -0.647 OA
ENDBRANCH  16  17
ENDBRANCH  15  16
ENDBRANCH  14  15
END_RES GLU D 570
ENDMDL
MODEL 7
REMARK VINA RESULT:      -7.8      5.706     12.126
REMARK  7 active torsions:
REMARK  status: ('A' for Active; 'I' for Inactive)
REMARK       I    between atoms: C_2  and  N_4 
REMARK    1  A    between atoms: N_7  and  C_10 
REMARK    2  A    between atoms: C_13  and  O_16 
REMARK    3  A    between atoms: O_16  and  C_17 
REMARK    4  A    between atoms: C_17  and  C_18 
REMARK    5  A    between atoms: C_21  and  C_23 
REMARK    6  A    between atoms: C_21  and  C_30 
REMARK    7  A    between atoms: C_23  and  N_24 
ROOT
HETATM    1  C   UNL     1     -25.927  -6.163 -15.555  1.00  0.00     0.173 C 
HETATM    2  C   UNL     1     -26.739  -7.400 -15.826  1.00  0.00     0.206 C 
HETATM    3  O   UNL     1     -27.283  -7.232 -17.126  1.00  0.00    -0.347 OA
HETATM    4  C   UNL     1     -27.239  -5.822 -17.440  1.00  0.00     0.212 C 
HETATM    5  O   UNL     1     -26.469  -5.157 -16.415  1.00  0.00    -0.340 OA
ENDROOT
BRANCH   1   6
HETATM    6  C   UNL     1     -24.414  -6.371 -15.744  1.00  0.00     0.209 C 
BRANCH   6   7
HETATM    7  O   UNL     1     -23.664  -5.170 -15.529  1.00  0.00    -0.349 OA
BRANCH   7   8
HETATM    8  C   UNL     1     -23.331  -4.898 -14.227  1.00  0.00     0.069 A 
HETATM    9  C   UNL     1     -22.349  -3.925 -14.032  1.00  0.00     0.039 A 
HETATM   10  C   UNL     1     -21.885  -3.623 -12.740  1.00  0.00     0.032 A 
HETATM   11  C   UNL     1     -22.378  -4.290 -11.612  1.00  0.00     0.030 A 
HETATM   12  C   UNL     1     -23.402  -5.221 -11.829  1.00  0.00     0.032 A 
HETATM   13  C   UNL     1     -23.884  -5.515 -13.112  1.00  0.00     0.039 A 
BRANCH  11  14
HETATM   14  N   UNL     1     -21.888  -4.075 -10.341  1.00  0.00    -0.378 N 
HETATM   15  C   UNL     1     -20.454  -3.994 -10.022  1.00  0.00     0.143 C 
HETATM   16  C   UNL     1     -20.059  -5.022  -8.940  1.00  0.00     0.145 C 
HETATM   17  N   UNL     1     -20.988  -5.004  -7.799  1.00  0.00    -0.349 N 
HETATM   18  C   UNL     1     -20.659  -4.822  -6.470  1.00  0.00     0.215 C 
HETATM   19  C   UNL     1     -22.398  -5.140  -8.176  1.00  0.00     0.145 C 
HETATM   20  C   UNL     1     -19.205  -4.612  -6.137  1.00  0.00     0.117 C 
HETATM   21  O   UNL     1     -21.503  -4.802  -5.573  1.00  0.00    -0.274 OA
HETATM   22  C   UNL     1     -22.803  -4.050  -9.183  1.00  0.00     0.143 C 
ENDBRANCH  11  14
ENDBRANCH   7   8
ENDBRANCH   6   7
ENDBRANCH   1   6
BRANCH   4  23
HETATM   23  C   UNL     1     -26.477  -5.683 -18.780  1.00  0.00     0.203 C 
BRANCH  23  24
HETATM   24  N   UNL     1     -26.545  -6.830 -19.653  1.00  0.00    -0.346 N 
HETATM   25  C   UNL     1     -27.675  -7.357 -20.217  1.00  0.00     0.109 A 
HETATM   26  C   UNL     1     -27.223  -8.336 -21.068  1.00  0.00     0.106 A 
HETATM   27  N   UNL     1     -25.855  -8.421 -21.034  1.00  0.00    -0.361 N 
HETATM   28  C   UNL     1     -25.473  -7.494 -20.184  1.00  0.00     0.182 A 
ATOM     29  HN  UNL     1     -25.261  -9.065 -21.556  1.00  0.00     0.166 HD
ENDBRANCH  23  24
ENDBRANCH   4  23
BRANCH   4  30
HETATM   30  C   UNL     1     -28.661  -5.231 -17.461  1.00  0.00     0.027 A 
HETATM   31  C   UNL     1     -29.837  -6.011 -17.411  1.00  0.00     0.047 A 
HETATM   32  C   UNL     1     -31.109  -5.415 -17.377  1.00  0.00     0.048 A 
HETATM   33 CL   UNL     1     -29.827  -7.741 -17.401  1.00  0.00    -0.084 Cl
HETATM   34  C   UNL     1     -31.237  -4.033 -17.420  1.00  0.00     0.035 A 
HETATM   35  C   UNL     1     -30.105  -3.237 -17.497  1.00  0.00     0.024 A 
HETATM   36 CL   UNL     1     -32.797  -3.311 -17.383  1.00  0.00    -0.084 Cl
HETATM   37  C   UNL     1     -28.836  -3.828 -17.513  1.00  0.00     0.016 A 
ENDBRANCH   4  30
TORSDOF 7
BEGIN_RES ARG D 557
REMARK  4 active torsions:
REMARK  status: ('A' for Active; 'I' for Inactive)
REMARK    1  A    between atoms: CA   and  CB  
REMARK    2  A    between atoms: CB   and  CG  
REMARK    3  A    between atoms: CG   and  CD  
REMARK    4  A    between atoms: CD   and  NE  
REMARK       I    between atoms: NE   and  CZ  
REMARK       I    between atoms: CZ   and  NH1 
REMARK       I    between atoms: CZ   and  NH2 
ROOT
ATOM      1  CA  ARG D 557     -26.217   2.705 -17.014  1.00 35.49     0.159 C 
ENDROOT
BRANCH   1   2
ATOM      2  CB  ARG D 557     -26.789   1.319 -17.183  1.00 35.49     0.034 C 
BRANCH   2   3
ATOM      3  CG  ARG D 557     -26.008   0.209 -16.624  1.00 35.49     0.027 C 
BRANCH   3   4
ATOM      4  CD  ARG D 557     -26.841  -0.983 -16.346  1.00 35.49     0.116 C 
BRANCH   4   5
ATOM      5  NE  ARG D 557     -26.451  -1.646 -15.130  1.00 35.49    -0.212 N 
ATOM      6  CZ  ARG D 557     -25.275  -1.557 -14.549  1.00 35.49     0.666 C 
ATOM      7  NH1 ARG D 557     -24.290  -0.834 -15.049  1.00 35.49    -0.235 N 
ATOM      8  NH2 ARG D 557     -25.104  -2.210 -13.437  1.00 35.49    -0.235 N 
ATOM      9  HH  ARG D 557     -24.382  -0.394 -15.779  1.00 35.49     0.174 HD
ATOM     10  HH  ARG D 557     -23.546  -0.811 -14.625  1.00 35.49     0.174 HD
ATOM     11  HH  ARG D 557     -25.760  -2.663 -13.133  1.00 35.49     0.174 HD
ATOM     12  HH  ARG D 557     -24.360  -2.174 -13.031  1.00 35.49     0.174 HD
ATOM     13  HE  ARG D 557     -27.001  -2.191 -14.777  1.00 35.49     0.178 HD
ENDBRANCH   4   5
ENDBRANCH   3   4
ENDBRANCH   2   3
ENDBRANCH   1   2
END_RES ARG D 557
BEGIN_RES GLU D 570
REMARK  3 active torsions:
REMARK  status: ('A' for Active; 'I' for Inactive)
REMARK    5  A    between atoms: CA   and  CB  
REMARK    6  A    between atoms: CB   and  CG  
REMARK    7  A    between atoms: CG   and  CD  
ROOT
ATOM     14  CA  GLU D 570     -18.033  -6.348 -13.375  1.00 32.92     0.160 C 
ENDROOT
BRANCH  14  15
ATOM     15  CB  GLU D 570     -19.500  -6.345 -13.794  1.00 32.92     0.043 C 
BRANCH  15  16
ATOM     16  CG  GLU D 570     -19.798  -6.217 -15.244  1.00 32.92     0.100 C 
BRANCH  16  17
ATOM     17  CD  GLU D 570     -20.636  -7.355 -15.776  1.00 32.92     0.185 C 
ATOM     18  OE1 GLU D 570     -21.280  -7.191 -16.831  1.00 32.92    -0.647 OA
ATOM     19  OE2 GLU D 570     -20.663  -8.417 -15.123  1.00 32.92    -0.647 OA
ENDBRANCH  16  17
ENDBRANCH  15  16
ENDBRANCH  14  15
END_RES GLU D 570
ENDMDL
