MODEL 1
REMARK VINA RESULT:      -7.0      0.000      0.000
REMARK  18 active torsions:
REMARK  status: ('A' for Active; 'I' for Inactive)
REMARK    1  A    between atoms: C_2  and  C_3 
REMARK    2  A    between atoms: C_3  and  C_4 
REMARK    3  A    between atoms: C_4  and  C_5 
REMARK    4  A    between atoms: C_5  and  C_6 
REMARK    5  A    between atoms: C_6  and  C_7 
REMARK    6  A    between atoms: C_7  and  C_8 
REMARK    7  A    between atoms: C_7  and  O_21 
REMARK    8  A    between atoms: C_8  and  C_9 
REMARK    9  A    between atoms: C_9  and  C_10 
REMARK   10  A    between atoms: C_10  and  C_11 
REMARK   11  A    between atoms: C_11  and  C_12 
REMARK   12  A    between atoms: C_12  and  C_13 
REMARK   13  A    between atoms: C_13  and  C_14 
REMARK   14  A    between atoms: C_14  and  C_15 
REMARK   15  A    between atoms: C_15  and  C_16 
REMARK   16  A    between atoms: C_16  and  C_17 
REMARK   17  A    between atoms: C_17  and  C_18 
REMARK   18  A    between atoms: C_18  and  O_20 
ROOT
HETATM    1  C   UNL     1     -21.913  -5.852  -5.932  1.00  0.00     0.000 C 
ENDROOT
BRANCH   1   2
HETATM    2  C   UNL     1     -22.279  -6.645  -4.672  1.00  0.00     0.002 C 
BRANCH   2   3
HETATM    3  C   UNL     1     -21.427  -6.276  -3.449  1.00  0.00     0.032 C 
BRANCH   3   4
HETATM    4  C   UNL     1     -21.537  -7.317  -2.327  1.00  0.00     0.118 C 
BRANCH   4   5
HETATM    5  C   UNL     1     -22.269  -6.802  -1.075  1.00  0.00     0.032 C 
BRANCH   5   6
HETATM    6  C   UNL     1     -22.125  -7.739   0.120  1.00  0.00     0.002 C 
BRANCH   6   7
HETATM    7  C   UNL     1     -23.411  -8.495   0.462  1.00  0.00     0.000 C 
BRANCH   7   8
HETATM    8  C   UNL     1     -23.325  -9.910  -0.116  1.00  0.00    -0.000 C 
BRANCH   8   9
HETATM    9  C   UNL     1     -21.892 -10.391  -0.326  1.00  0.00    -0.005 C 
HETATM   10  C   UNL     1     -21.592 -11.575   0.583  1.00  0.00     0.005 C 
ENDBRANCH   8   9
ENDBRANCH   7   8
ENDBRANCH   6   7
ENDBRANCH   5   6
ENDBRANCH   4   5
BRANCH   4  11
HETATM   11  O   UNL     1     -20.224  -7.718  -1.929  1.00  0.00    -0.396 OA
HETATM   12  H   UNL     1     -19.726  -6.915  -1.695  1.00  0.00     0.210 HD
ENDBRANCH   4  11
ENDBRANCH   3   4
ENDBRANCH   2   3
ENDBRANCH   1   2
BRANCH   1  13
HETATM   13  C   UNL     1     -20.476  -6.106  -6.386  1.00  0.00     0.000 C 
BRANCH  13  14
HETATM   14  C   UNL     1     -19.680  -4.812  -6.512  1.00  0.00     0.000 C 
BRANCH  14  15
HETATM   15  C   UNL     1     -20.334  -3.884  -7.536  1.00  0.00     0.000 C 
BRANCH  15  16
HETATM   16  C   UNL     1     -20.189  -4.454  -8.942  1.00  0.00     0.000 C 
BRANCH  16  17
HETATM   17  C   UNL     1     -21.359  -4.061  -9.843  1.00  0.00     0.001 C 
BRANCH  17  18
HETATM   18  C   UNL     1     -22.607  -3.827  -8.997  1.00  0.00     0.010 C 
BRANCH  18  19
HETATM   19  C   UNL     1     -23.849  -4.469  -9.607  1.00  0.00     0.110 C 
BRANCH  19  20
HETATM   20  C   UNL     1     -24.726  -3.437 -10.280  1.00  0.00     0.139 C 
HETATM   21  O   UNL     1     -24.444  -2.822 -11.298  1.00  0.00    -0.650 OA
BRANCH  20  22
HETATM   22  O   UNL     1     -25.894  -3.249  -9.626  1.00  0.00    -0.776 OA
HETATM   23  H   UNL     1     -26.098  -2.312  -9.448  1.00  0.00     0.167 HD
ENDBRANCH  20  22
ENDBRANCH  19  20
ENDBRANCH  18  19
ENDBRANCH  17  18
ENDBRANCH  16  17
ENDBRANCH  15  16
ENDBRANCH  14  15
ENDBRANCH  13  14
ENDBRANCH   1  13
TORSDOF 18
BEGIN_RES ARG D 557
REMARK  4 active torsions:
REMARK  status: ('A' for Active; 'I' for Inactive)
REMARK    1  A    between atoms: CA   and  CB  
REMARK    2  A    between atoms: CB   and  CG  
REMARK    3  A    between atoms: CG   and  CD  
REMARK    4  A    between atoms: CD   and  NE  
REMARK       I    between atoms: NE   and  CZ  
REMARK       I    between atoms: CZ   and  NH1 
REMARK       I    between atoms: CZ   and  NH2 
ROOT
ATOM      1  CA  ARG D 557     -26.217   2.705 -17.014  1.00 35.49     0.159 C 
ENDROOT
BRANCH   1   2
ATOM      2  CB  ARG D 557     -26.789   1.319 -17.183  1.00 35.49     0.034 C 
BRANCH   2   3
ATOM      3  CG  ARG D 557     -25.944   0.199 -16.752  1.00 35.49     0.027 C 
BRANCH   3   4
ATOM      4  CD  ARG D 557     -26.719  -0.864 -16.072  1.00 35.49     0.116 C 
BRANCH   4   5
ATOM      5  NE  ARG D 557     -25.916  -1.607 -15.136  1.00 35.49    -0.212 N 
ATOM      6  CZ  ARG D 557     -25.995  -2.899 -14.914  1.00 35.49     0.666 C 
ATOM      7  NH1 ARG D 557     -26.862  -3.675 -15.539  1.00 35.49    -0.235 N 
ATOM      8  NH2 ARG D 557     -25.173  -3.410 -14.044  1.00 35.49    -0.235 N 
ATOM      9  HH  ARG D 557     -27.411  -3.361 -16.116  1.00 35.49     0.174 HD
ATOM     10  HH  ARG D 557     -26.865  -4.512 -15.354  1.00 35.49     0.174 HD
ATOM     11  HH  ARG D 557     -24.619  -2.886 -13.661  1.00 35.49     0.174 HD
ATOM     12  HH  ARG D 557     -25.191  -4.241 -13.876  1.00 35.49     0.174 HD
ATOM     13  HE  ARG D 557     -25.381  -1.173 -14.638  1.00 35.49     0.178 HD
ENDBRANCH   4   5
ENDBRANCH   3   4
ENDBRANCH   2   3
ENDBRANCH   1   2
END_RES ARG D 557
BEGIN_RES GLU D 570
REMARK  3 active torsions:
REMARK  status: ('A' for Active; 'I' for Inactive)
REMARK    5  A    between atoms: CA   and  CB  
REMARK    6  A    between atoms: CB   and  CG  
REMARK    7  A    between atoms: CG   and  CD  
ROOT
ATOM     14  CA  GLU D 570     -18.033  -6.348 -13.375  1.00 32.92     0.160 C 
ENDROOT
BRANCH  14  15
ATOM     15  CB  GLU D 570     -19.500  -6.345 -13.794  1.00 32.92     0.043 C 
BRANCH  15  16
ATOM     16  CG  GLU D 570     -20.448  -5.562 -12.960  1.00 32.92     0.100 C 
BRANCH  16  17
ATOM     17  CD  GLU D 570     -21.710  -5.183 -13.701  1.00 32.92     0.185 C 
ATOM     18  OE1 GLU D 570     -22.734  -4.904 -13.048  1.00 32.92    -0.647 OA
ATOM     19  OE2 GLU D 570     -21.678  -5.182 -14.947  1.00 32.92    -0.647 OA
ENDBRANCH  16  17
ENDBRANCH  15  16
ENDBRANCH  14  15
END_RES GLU D 570
ENDMDL
MODEL 2
REMARK VINA RESULT:      -6.9      2.207      3.136
REMARK  18 active torsions:
REMARK  status: ('A' for Active; 'I' for Inactive)
REMARK    1  A    between atoms: C_2  and  C_3 
REMARK    2  A    between atoms: C_3  and  C_4 
REMARK    3  A    between atoms: C_4  and  C_5 
REMARK    4  A    between atoms: C_5  and  C_6 
REMARK    5  A    between atoms: C_6  and  C_7 
REMARK    6  A    between atoms: C_7  and  C_8 
REMARK    7  A    between atoms: C_7  and  O_21 
REMARK    8  A    between atoms: C_8  and  C_9 
REMARK    9  A    between atoms: C_9  and  C_10 
REMARK   10  A    between atoms: C_10  and  C_11 
REMARK   11  A    between atoms: C_11  and  C_12 
REMARK   12  A    between atoms: C_12  and  C_13 
REMARK   13  A    between atoms: C_13  and  C_14 
REMARK   14  A    between atoms: C_14  and  C_15 
REMARK   15  A    between atoms: C_15  and  C_16 
REMARK   16  A    between atoms: C_16  and  C_17 
REMARK   17  A    between atoms: C_17  and  C_18 
REMARK   18  A    between atoms: C_18  and  O_20 
ROOT
HETATM    1  C   UNL     1     -20.441  -4.592  -6.549  1.00  0.00     0.000 C 
ENDROOT
BRANCH   1   2
HETATM    2  C   UNL     1     -20.910  -6.051  -6.528  1.00  0.00     0.002 C 
BRANCH   2   3
HETATM    3  C   UNL     1     -21.930  -6.349  -5.420  1.00  0.00     0.032 C 
BRANCH   3   4
HETATM    4  C   UNL     1     -21.744  -7.747  -4.816  1.00  0.00     0.118 C 
BRANCH   4   5
HETATM    5  C   UNL     1     -21.257  -7.731  -3.356  1.00  0.00     0.032 C 
BRANCH   5   6
HETATM    6  C   UNL     1     -21.501  -6.391  -2.668  1.00  0.00     0.002 C 
BRANCH   6   7
HETATM    7  C   UNL     1     -22.256  -6.512  -1.343  1.00  0.00     0.000 C 
BRANCH   7   8
HETATM    8  C   UNL     1     -22.199  -7.967  -0.869  1.00  0.00    -0.000 C 
BRANCH   8   9
HETATM    9  C   UNL     1     -21.828  -8.107   0.604  1.00  0.00    -0.005 C 
HETATM   10  C   UNL     1     -21.136  -9.441   0.852  1.00  0.00     0.005 C 
ENDBRANCH   8   9
ENDBRANCH   7   8
ENDBRANCH   6   7
ENDBRANCH   5   6
ENDBRANCH   4   5
BRANCH   4  11
HETATM   11  O   UNL     1     -20.780  -8.467  -5.588  1.00  0.00    -0.396 OA
HETATM   12  H   UNL     1     -21.054  -8.422  -6.521  1.00  0.00     0.210 HD
ENDBRANCH   4  11
ENDBRANCH   3   4
ENDBRANCH   2   3
ENDBRANCH   1   2
BRANCH   1  13
HETATM   13  C   UNL     1     -21.394  -3.681  -7.322  1.00  0.00     0.000 C 
BRANCH  13  14
HETATM   14  C   UNL     1     -21.600  -4.155  -8.756  1.00  0.00     0.000 C 
BRANCH  14  15
HETATM   15  C   UNL     1     -20.259  -4.239  -9.485  1.00  0.00     0.000 C 
BRANCH  15  16
HETATM   16  C   UNL     1     -20.466  -4.149 -10.993  1.00  0.00     0.000 C 
BRANCH  16  17
HETATM   17  C   UNL     1     -21.456  -3.048 -11.370  1.00  0.00     0.001 C 
BRANCH  17  18
HETATM   18  C   UNL     1     -22.397  -3.550 -12.461  1.00  0.00     0.010 C 
BRANCH  18  19
HETATM   19  C   UNL     1     -23.248  -2.431 -13.052  1.00  0.00     0.110 C 
BRANCH  19  20
HETATM   20  C   UNL     1     -23.550  -2.684 -14.512  1.00  0.00     0.139 C 
HETATM   21  O   UNL     1     -24.627  -3.049 -14.960  1.00  0.00    -0.650 OA
BRANCH  20  22
HETATM   22  O   UNL     1     -22.478  -2.463 -15.306  1.00  0.00    -0.776 OA
HETATM   23  H   UNL     1     -21.966  -1.669 -15.062  1.00  0.00     0.167 HD
ENDBRANCH  20  22
ENDBRANCH  19  20
ENDBRANCH  18  19
ENDBRANCH  17  18
ENDBRANCH  16  17
ENDBRANCH  15  16
ENDBRANCH  14  15
ENDBRANCH  13  14
ENDBRANCH   1  13
TORSDOF 18
BEGIN_RES ARG D 557
REMARK  4 active torsions:
REMARK  status: ('A' for Active; 'I' for Inactive)
REMARK    1  A    between atoms: CA   and  CB  
REMARK    2  A    between atoms: CB   and  CG  
REMARK    3  A    between atoms: CG   and  CD  
REMARK    4  A    between atoms: CD   and  NE  
REMARK       I    between atoms: NE   and  CZ  
REMARK       I    between atoms: CZ   and  NH1 
REMARK       I    between atoms: CZ   and  NH2 
ROOT
ATOM      1  CA  ARG D 557     -26.217   2.705 -17.014  1.00 35.49     0.159 C 
ENDROOT
BRANCH   1   2
ATOM      2  CB  ARG D 557     -26.789   1.319 -17.183  1.00 35.49     0.034 C 
BRANCH   2   3
ATOM      3  CG  ARG D 557     -28.238   1.224 -17.396  1.00 35.49     0.027 C 
BRANCH   3   4
ATOM      4  CD  ARG D 557     -28.885   0.274 -16.462  1.00 35.49     0.116 C 
BRANCH   4   5
ATOM      5  NE  ARG D 557     -29.225  -0.969 -17.103  1.00 35.49    -0.212 N 
ATOM      6  CZ  ARG D 557     -28.561  -2.098 -16.990  1.00 35.49     0.666 C 
ATOM      7  NH1 ARG D 557     -27.466  -2.207 -16.261  1.00 35.49    -0.235 N 
ATOM      8  NH2 ARG D 557     -29.027  -3.134 -17.625  1.00 35.49    -0.235 N 
ATOM      9  HH  ARG D 557     -27.143  -1.539 -15.833  1.00 35.49     0.174 HD
ATOM     10  HH  ARG D 557     -27.077  -2.969 -16.223  1.00 35.49     0.174 HD
ATOM     11  HH  ARG D 557     -29.740  -3.036 -18.082  1.00 35.49     0.174 HD
ATOM     12  HH  ARG D 557     -28.628  -3.881 -17.574  1.00 35.49     0.174 HD
ATOM     13  HE  ARG D 557     -29.876  -0.972 -17.649  1.00 35.49     0.178 HD
ENDBRANCH   4   5
ENDBRANCH   3   4
ENDBRANCH   2   3
ENDBRANCH   1   2
END_RES ARG D 557
BEGIN_RES GLU D 570
REMARK  3 active torsions:
REMARK  status: ('A' for Active; 'I' for Inactive)
REMARK    5  A    between atoms: CA   and  CB  
REMARK    6  A    between atoms: CB   and  CG  
REMARK    7  A    between atoms: CG   and  CD  
ROOT
ATOM     14  CA  GLU D 570     -18.033  -6.348 -13.375  1.00 32.92     0.160 C 
ENDROOT
BRANCH  14  15
ATOM     15  CB  GLU D 570     -19.500  -6.345 -13.794  1.00 32.92     0.043 C 
BRANCH  15  16
ATOM     16  CG  GLU D 570     -19.815  -5.916 -15.181  1.00 32.92     0.100 C 
BRANCH  16  17
ATOM     17  CD  GLU D 570     -21.297  -5.755 -15.426  1.00 32.92     0.185 C 
ATOM     18  OE1 GLU D 570     -21.680  -5.061 -16.387  1.00 32.92    -0.647 OA
ATOM     19  OE2 GLU D 570     -22.084  -6.317 -14.639  1.00 32.92    -0.647 OA
ENDBRANCH  16  17
ENDBRANCH  15  16
ENDBRANCH  14  15
END_RES GLU D 570
ENDMDL
MODEL 3
REMARK VINA RESULT:      -6.7      1.741      2.292
REMARK  18 active torsions:
REMARK  status: ('A' for Active; 'I' for Inactive)
REMARK    1  A    between atoms: C_2  and  C_3 
REMARK    2  A    between atoms: C_3  and  C_4 
REMARK    3  A    between atoms: C_4  and  C_5 
REMARK    4  A    between atoms: C_5  and  C_6 
REMARK    5  A    between atoms: C_6  and  C_7 
REMARK    6  A    between atoms: C_7  and  C_8 
REMARK    7  A    between atoms: C_7  and  O_21 
REMARK    8  A    between atoms: C_8  and  C_9 
REMARK    9  A    between atoms: C_9  and  C_10 
REMARK   10  A    between atoms: C_10  and  C_11 
REMARK   11  A    between atoms: C_11  and  C_12 
REMARK   12  A    between atoms: C_12  and  C_13 
REMARK   13  A    between atoms: C_13  and  C_14 
REMARK   14  A    between atoms: C_14  and  C_15 
REMARK   15  A    between atoms: C_15  and  C_16 
REMARK   16  A    between atoms: C_16  and  C_17 
REMARK   17  A    between atoms: C_17  and  C_18 
REMARK   18  A    between atoms: C_18  and  O_20 
ROOT
HETATM    1  C   UNL     1     -20.603  -5.160  -5.614  1.00  0.00     0.000 C 
ENDROOT
BRANCH   1   2
HETATM    2  C   UNL     1     -20.748  -6.553  -4.992  1.00  0.00     0.002 C 
BRANCH   2   3
HETATM    3  C   UNL     1     -21.917  -6.662  -4.003  1.00  0.00     0.032 C 
BRANCH   3   4
HETATM    4  C   UNL     1     -21.493  -6.357  -2.561  1.00  0.00     0.118 C 
BRANCH   4   5
HETATM    5  C   UNL     1     -21.148  -7.612  -1.739  1.00  0.00     0.032 C 
BRANCH   5   6
HETATM    6  C   UNL     1     -21.924  -7.690  -0.428  1.00  0.00     0.002 C 
BRANCH   6   7
HETATM    7  C   UNL     1     -21.349  -8.704   0.564  1.00  0.00     0.000 C 
BRANCH   7   8
HETATM    8  C   UNL     1     -21.929 -10.087   0.255  1.00  0.00    -0.000 C 
BRANCH   8   9
HETATM    9  C   UNL     1     -23.386 -10.043  -0.196  1.00  0.00    -0.005 C 
HETATM   10  C   UNL     1     -23.907 -11.452  -0.443  1.00  0.00     0.005 C 
ENDBRANCH   8   9
ENDBRANCH   7   8
ENDBRANCH   6   7
ENDBRANCH   5   6
ENDBRANCH   4   5
BRANCH   4  11
HETATM   11  O   UNL     1     -22.557  -5.677  -1.892  1.00  0.00    -0.396 OA
HETATM   12  H   UNL     1     -22.437  -4.722  -2.038  1.00  0.00     0.210 HD
ENDBRANCH   4  11
ENDBRANCH   3   4
ENDBRANCH   2   3
ENDBRANCH   1   2
BRANCH   1  13
HETATM   13  C   UNL     1     -19.692  -5.159  -6.842  1.00  0.00     0.000 C 
BRANCH  13  14
HETATM   14  C   UNL     1     -19.994  -3.992  -7.775  1.00  0.00     0.000 C 
BRANCH  14  15
HETATM   15  C   UNL     1     -19.907  -4.443  -9.234  1.00  0.00     0.000 C 
BRANCH  15  16
HETATM   16  C   UNL     1     -21.231  -4.198  -9.947  1.00  0.00     0.000 C 
BRANCH  16  17
HETATM   17  C   UNL     1     -21.049  -4.047 -11.457  1.00  0.00     0.001 C 
BRANCH  17  18
HETATM   18  C   UNL     1     -22.369  -4.330 -12.168  1.00  0.00     0.010 C 
BRANCH  18  19
HETATM   19  C   UNL     1     -23.517  -4.557 -11.190  1.00  0.00     0.110 C 
BRANCH  19  20
HETATM   20  C   UNL     1     -24.448  -3.366 -11.151  1.00  0.00     0.139 C 
HETATM   21  O   UNL     1     -25.312  -3.170 -10.310  1.00  0.00    -0.650 OA
BRANCH  20  22
HETATM   22  O   UNL     1     -24.228  -2.507 -12.171  1.00  0.00    -0.776 OA
HETATM   23  H   UNL     1     -24.946  -1.860 -12.302  1.00  0.00     0.167 HD
ENDBRANCH  20  22
ENDBRANCH  19  20
ENDBRANCH  18  19
ENDBRANCH  17  18
ENDBRANCH  16  17
ENDBRANCH  15  16
ENDBRANCH  14  15
ENDBRANCH  13  14
ENDBRANCH   1  13
TORSDOF 18
BEGIN_RES ARG D 557
REMARK  4 active torsions:
REMARK  status: ('A' for Active; 'I' for Inactive)
REMARK    1  A    between atoms: CA   and  CB  
REMARK    2  A    between atoms: CB   and  CG  
REMARK    3  A    between atoms: CG   and  CD  
REMARK    4  A    between atoms: CD   and  NE  
REMARK       I    between atoms: NE   and  CZ  
REMARK       I    between atoms: CZ   and  NH1 
REMARK       I    between atoms: CZ   and  NH2 
ROOT
ATOM      1  CA  ARG D 557     -26.217   2.705 -17.014  1.00 35.49     0.159 C 
ENDROOT
BRANCH   1   2
ATOM      2  CB  ARG D 557     -26.789   1.319 -17.183  1.00 35.49     0.034 C 
BRANCH   2   3
ATOM      3  CG  ARG D 557     -28.236   1.225 -17.413  1.00 35.49     0.027 C 
BRANCH   3   4
ATOM      4  CD  ARG D 557     -28.896   0.285 -16.478  1.00 35.49     0.116 C 
BRANCH   4   5
ATOM      5  NE  ARG D 557     -29.283  -0.941 -17.124  1.00 35.49    -0.212 N 
ATOM      6  CZ  ARG D 557     -28.650  -2.089 -17.035  1.00 35.49     0.666 C 
ATOM      7  NH1 ARG D 557     -27.545  -2.236 -16.328  1.00 35.49    -0.235 N 
ATOM      8  NH2 ARG D 557     -29.156  -3.105 -17.672  1.00 35.49    -0.235 N 
ATOM      9  HH  ARG D 557     -27.195  -1.582 -15.899  1.00 35.49     0.174 HD
ATOM     10  HH  ARG D 557     -27.177  -3.010 -16.304  1.00 35.49     0.174 HD
ATOM     11  HH  ARG D 557     -29.874  -2.982 -18.115  1.00 35.49     0.174 HD
ATOM     12  HH  ARG D 557     -28.778  -3.863 -17.635  1.00 35.49     0.174 HD
ATOM     13  HE  ARG D 557     -29.944  -0.919 -17.659  1.00 35.49     0.178 HD
ENDBRANCH   4   5
ENDBRANCH   3   4
ENDBRANCH   2   3
ENDBRANCH   1   2
END_RES ARG D 557
BEGIN_RES GLU D 570
REMARK  3 active torsions:
REMARK  status: ('A' for Active; 'I' for Inactive)
REMARK    5  A    between atoms: CA   and  CB  
REMARK    6  A    between atoms: CB   and  CG  
REMARK    7  A    between atoms: CG   and  CD  
ROOT
ATOM     14  CA  GLU D 570     -18.033  -6.348 -13.375  1.00 32.92     0.160 C 
ENDROOT
BRANCH  14  15
ATOM     15  CB  GLU D 570     -19.500  -6.345 -13.794  1.00 32.92     0.043 C 
BRANCH  15  16
ATOM     16  CG  GLU D 570     -19.804  -6.056 -15.219  1.00 32.92     0.100 C 
BRANCH  16  17
ATOM     17  CD  GLU D 570     -21.269  -5.775 -15.464  1.00 32.92     0.185 C 
ATOM     18  OE1 GLU D 570     -22.120  -6.560 -15.004  1.00 32.92    -0.647 OA
ATOM     19  OE2 GLU D 570     -21.567  -4.769 -16.137  1.00 32.92    -0.647 OA
ENDBRANCH  16  17
ENDBRANCH  15  16
ENDBRANCH  14  15
END_RES GLU D 570
ENDMDL
MODEL 4
REMARK VINA RESULT:      -6.7      2.027      2.795
REMARK  18 active torsions:
REMARK  status: ('A' for Active; 'I' for Inactive)
REMARK    1  A    between atoms: C_2  and  C_3 
REMARK    2  A    between atoms: C_3  and  C_4 
REMARK    3  A    between atoms: C_4  and  C_5 
REMARK    4  A    between atoms: C_5  and  C_6 
REMARK    5  A    between atoms: C_6  and  C_7 
REMARK    6  A    between atoms: C_7  and  C_8 
REMARK    7  A    between atoms: C_7  and  O_21 
REMARK    8  A    between atoms: C_8  and  C_9 
REMARK    9  A    between atoms: C_9  and  C_10 
REMARK   10  A    between atoms: C_10  and  C_11 
REMARK   11  A    between atoms: C_11  and  C_12 
REMARK   12  A    between atoms: C_12  and  C_13 
REMARK   13  A    between atoms: C_13  and  C_14 
REMARK   14  A    between atoms: C_14  and  C_15 
REMARK   15  A    between atoms: C_15  and  C_16 
REMARK   16  A    between atoms: C_16  and  C_17 
REMARK   17  A    between atoms: C_17  and  C_18 
REMARK   18  A    between atoms: C_18  and  O_20 
ROOT
HETATM    1  C   UNL     1     -20.079  -4.491  -6.478  1.00  0.00     0.000 C 
ENDROOT
BRANCH   1   2
HETATM    2  C   UNL     1     -20.516  -5.239  -5.214  1.00  0.00     0.002 C 
BRANCH   2   3
HETATM    3  C   UNL     1     -21.731  -6.152  -5.433  1.00  0.00     0.032 C 
BRANCH   3   4
HETATM    4  C   UNL     1     -22.041  -7.016  -4.203  1.00  0.00     0.118 C 
BRANCH   4   5
HETATM    5  C   UNL     1     -21.335  -6.542  -2.920  1.00  0.00     0.032 C 
BRANCH   5   6
HETATM    6  C   UNL     1     -22.278  -6.463  -1.724  1.00  0.00     0.002 C 
BRANCH   6   7
HETATM    7  C   UNL     1     -21.906  -7.419  -0.588  1.00  0.00     0.000 C 
BRANCH   7   8
HETATM    8  C   UNL     1     -22.387  -8.828  -0.946  1.00  0.00    -0.000 C 
BRANCH   8   9
HETATM    9  C   UNL     1     -23.365  -9.408   0.070  1.00  0.00    -0.005 C 
HETATM   10  C   UNL     1     -23.630 -10.878  -0.228  1.00  0.00     0.005 C 
ENDBRANCH   8   9
ENDBRANCH   7   8
ENDBRANCH   6   7
ENDBRANCH   5   6
ENDBRANCH   4   5
BRANCH   4  11
HETATM   11  O   UNL     1     -21.628  -8.360  -4.458  1.00  0.00    -0.396 OA
HETATM   12  H   UNL     1     -21.152  -8.369  -5.307  1.00  0.00     0.210 HD
ENDBRANCH   4  11
ENDBRANCH   3   4
ENDBRANCH   2   3
ENDBRANCH   1   2
BRANCH   1  13
HETATM   13  C   UNL     1     -21.224  -3.706  -7.119  1.00  0.00     0.000 C 
BRANCH  13  14
HETATM   14  C   UNL     1     -21.473  -4.134  -8.560  1.00  0.00     0.000 C 
BRANCH  14  15
HETATM   15  C   UNL     1     -20.195  -4.708  -9.172  1.00  0.00     0.000 C 
BRANCH  15  16
HETATM   16  C   UNL     1     -20.250  -4.628 -10.693  1.00  0.00     0.000 C 
BRANCH  16  17
HETATM   17  C   UNL     1     -20.749  -3.267 -11.177  1.00  0.00     0.001 C 
BRANCH  17  18
HETATM   18  C   UNL     1     -21.829  -3.459 -12.238  1.00  0.00     0.010 C 
BRANCH  18  19
HETATM   19  C   UNL     1     -22.523  -4.813 -12.120  1.00  0.00     0.110 C 
BRANCH  19  20
HETATM   20  C   UNL     1     -23.087  -5.258 -13.450  1.00  0.00     0.139 C 
HETATM   21  O   UNL     1     -23.871  -6.181 -13.614  1.00  0.00    -0.650 OA
BRANCH  20  22
HETATM   22  O   UNL     1     -22.628  -4.512 -14.479  1.00  0.00    -0.776 OA
HETATM   23  H   UNL     1     -23.082  -3.654 -14.577  1.00  0.00     0.167 HD
ENDBRANCH  20  22
ENDBRANCH  19  20
ENDBRANCH  18  19
ENDBRANCH  17  18
ENDBRANCH  16  17
ENDBRANCH  15  16
ENDBRANCH  14  15
ENDBRANCH  13  14
ENDBRANCH   1  13
TORSDOF 18
BEGIN_RES ARG D 557
REMARK  4 active torsions:
REMARK  status: ('A' for Active; 'I' for Inactive)
REMARK    1  A    between atoms: CA   and  CB  
REMARK    2  A    between atoms: CB   and  CG  
REMARK    3  A    between atoms: CG   and  CD  
REMARK    4  A    between atoms: CD   and  NE  
REMARK       I    between atoms: NE   and  CZ  
REMARK       I    between atoms: CZ   and  NH1 
REMARK       I    between atoms: CZ   and  NH2 
ROOT
ATOM      1  CA  ARG D 557     -26.217   2.705 -17.014  1.00 35.49     0.159 C 
ENDROOT
BRANCH   1   2
ATOM      2  CB  ARG D 557     -26.789   1.319 -17.183  1.00 35.49     0.034 C 
BRANCH   2   3
ATOM      3  CG  ARG D 557     -25.834   0.204 -17.174  1.00 35.49     0.027 C 
BRANCH   3   4
ATOM      4  CD  ARG D 557     -24.766   0.385 -16.163  1.00 35.49     0.116 C 
BRANCH   4   5
ATOM      5  NE  ARG D 557     -24.962  -0.455 -15.011  1.00 35.49    -0.212 N 
ATOM      6  CZ  ARG D 557     -24.171  -1.433 -14.630  1.00 35.49     0.666 C 
ATOM      7  NH1 ARG D 557     -23.083  -1.767 -15.299  1.00 35.49    -0.235 N 
ATOM      8  NH2 ARG D 557     -24.492  -2.077 -13.546  1.00 35.49    -0.235 N 
ATOM      9  HH  ARG D 557     -22.851  -1.355 -16.014  1.00 35.49     0.174 HD
ATOM     10  HH  ARG D 557     -22.604  -2.412 -15.002  1.00 35.49     0.174 HD
ATOM     11  HH  ARG D 557     -25.197  -1.835 -13.130  1.00 35.49     0.174 HD
ATOM     12  HH  ARG D 557     -24.004  -2.712 -13.267  1.00 35.49     0.174 HD
ATOM     13  HE  ARG D 557     -25.678  -0.357 -14.563  1.00 35.49     0.178 HD
ENDBRANCH   4   5
ENDBRANCH   3   4
ENDBRANCH   2   3
ENDBRANCH   1   2
END_RES ARG D 557
BEGIN_RES GLU D 570
REMARK  3 active torsions:
REMARK  status: ('A' for Active; 'I' for Inactive)
REMARK    5  A    between atoms: CA   and  CB  
REMARK    6  A    between atoms: CB   and  CG  
REMARK    7  A    between atoms: CG   and  CD  
ROOT
ATOM     14  CA  GLU D 570     -18.033  -6.348 -13.375  1.00 32.92     0.160 C 
ENDROOT
BRANCH  14  15
ATOM     15  CB  GLU D 570     -19.500  -6.345 -13.794  1.00 32.92     0.043 C 
BRANCH  15  16
ATOM     16  CG  GLU D 570     -19.797  -6.257 -15.247  1.00 32.92     0.100 C 
BRANCH  16  17
ATOM     17  CD  GLU D 570     -20.816  -7.275 -15.703  1.00 32.92     0.185 C 
ATOM     18  OE1 GLU D 570     -21.804  -6.890 -16.359  1.00 32.92    -0.647 OA
ATOM     19  OE2 GLU D 570     -20.633  -8.467 -15.388  1.00 32.92    -0.647 OA
ENDBRANCH  16  17
ENDBRANCH  15  16
ENDBRANCH  14  15
END_RES GLU D 570
ENDMDL
MODEL 5
REMARK VINA RESULT:      -6.6      1.910      2.725
REMARK  18 active torsions:
REMARK  status: ('A' for Active; 'I' for Inactive)
REMARK    1  A    between atoms: C_2  and  C_3 
REMARK    2  A    between atoms: C_3  and  C_4 
REMARK    3  A    between atoms: C_4  and  C_5 
REMARK    4  A    between atoms: C_5  and  C_6 
REMARK    5  A    between atoms: C_6  and  C_7 
REMARK    6  A    between atoms: C_7  and  C_8 
REMARK    7  A    between atoms: C_7  and  O_21 
REMARK    8  A    between atoms: C_8  and  C_9 
REMARK    9  A    between atoms: C_9  and  C_10 
REMARK   10  A    between atoms: C_10  and  C_11 
REMARK   11  A    between atoms: C_11  and  C_12 
REMARK   12  A    between atoms: C_12  and  C_13 
REMARK   13  A    between atoms: C_13  and  C_14 
REMARK   14  A    between atoms: C_14  and  C_15 
REMARK   15  A    between atoms: C_15  and  C_16 
REMARK   16  A    between atoms: C_16  and  C_17 
REMARK   17  A    between atoms: C_17  and  C_18 
REMARK   18  A    between atoms: C_18  and  O_20 
ROOT
HETATM    1  C   UNL     1     -20.851  -6.140  -6.859  1.00  0.00     0.000 C 
ENDROOT
BRANCH   1   2
HETATM    2  C   UNL     1     -21.676  -6.260  -5.573  1.00  0.00     0.002 C 
BRANCH   2   3
HETATM    3  C   UNL     1     -20.933  -6.973  -4.434  1.00  0.00     0.032 C 
BRANCH   3   4
HETATM    4  C   UNL     1     -21.326  -6.434  -3.053  1.00  0.00     0.118 C 
BRANCH   4   5
HETATM    5  C   UNL     1     -21.202  -7.473  -1.924  1.00  0.00     0.032 C 
BRANCH   5   6
HETATM    6  C   UNL     1     -22.108  -7.164  -0.736  1.00  0.00     0.002 C 
BRANCH   6   7
HETATM    7  C   UNL     1     -22.036  -8.214   0.375  1.00  0.00     0.000 C 
BRANCH   7   8
HETATM    8  C   UNL     1     -23.279  -9.106   0.298  1.00  0.00    -0.000 C 
BRANCH   8   9
HETATM    9  C   UNL     1     -23.088 -10.330  -0.592  1.00  0.00    -0.005 C 
HETATM   10  C   UNL     1     -23.961 -11.479  -0.107  1.00  0.00     0.005 C 
ENDBRANCH   8   9
ENDBRANCH   7   8
ENDBRANCH   6   7
ENDBRANCH   5   6
ENDBRANCH   4   5
BRANCH   4  11
HETATM   11  O   UNL     1     -22.684  -5.991  -3.091  1.00  0.00    -0.396 OA
HETATM   12  H   UNL     1     -23.255  -6.777  -3.021  1.00  0.00     0.210 HD
ENDBRANCH   4  11
ENDBRANCH   3   4
ENDBRANCH   2   3
ENDBRANCH   1   2
BRANCH   1  13
HETATM   13  C   UNL     1     -20.840  -4.717  -7.416  1.00  0.00     0.000 C 
BRANCH  13  14
HETATM   14  C   UNL     1     -22.246  -4.206  -7.708  1.00  0.00     0.000 C 
BRANCH  14  15
HETATM   15  C   UNL     1     -22.372  -3.808  -9.179  1.00  0.00     0.000 C 
BRANCH  15  16
HETATM   16  C   UNL     1     -21.120  -4.210  -9.949  1.00  0.00     0.000 C 
BRANCH  16  17
HETATM   17  C   UNL     1     -20.945  -3.388 -11.225  1.00  0.00     0.001 C 
BRANCH  17  18
HETATM   18  C   UNL     1     -22.284  -3.259 -11.945  1.00  0.00     0.010 C 
BRANCH  18  19
HETATM   19  C   UNL     1     -22.444  -4.288 -13.060  1.00  0.00     0.110 C 
BRANCH  19  20
HETATM   20  C   UNL     1     -22.684  -3.619 -14.394  1.00  0.00     0.139 C 
HETATM   21  O   UNL     1     -23.532  -2.767 -14.617  1.00  0.00    -0.650 OA
BRANCH  20  22
HETATM   22  O   UNL     1     -21.844  -4.067 -15.354  1.00  0.00    -0.776 OA
HETATM   23  H   UNL     1     -21.540  -4.983 -15.213  1.00  0.00     0.167 HD
ENDBRANCH  20  22
ENDBRANCH  19  20
ENDBRANCH  18  19
ENDBRANCH  17  18
ENDBRANCH  16  17
ENDBRANCH  15  16
ENDBRANCH  14  15
ENDBRANCH  13  14
ENDBRANCH   1  13
TORSDOF 18
BEGIN_RES ARG D 557
REMARK  4 active torsions:
REMARK  status: ('A' for Active; 'I' for Inactive)
REMARK    1  A    between atoms: CA   and  CB  
REMARK    2  A    between atoms: CB   and  CG  
REMARK    3  A    between atoms: CG   and  CD  
REMARK    4  A    between atoms: CD   and  NE  
REMARK       I    between atoms: NE   and  CZ  
REMARK       I    between atoms: CZ   and  NH1 
REMARK       I    between atoms: CZ   and  NH2 
ROOT
ATOM      1  CA  ARG D 557     -26.217   2.705 -17.014  1.00 35.49     0.159 C 
ENDROOT
BRANCH   1   2
ATOM      2  CB  ARG D 557     -26.789   1.319 -17.183  1.00 35.49     0.034 C 
BRANCH   2   3
ATOM      3  CG  ARG D 557     -28.223   1.158 -16.911  1.00 35.49     0.027 C 
BRANCH   3   4
ATOM      4  CD  ARG D 557     -28.607  -0.260 -16.728  1.00 35.49     0.116 C 
BRANCH   4   5
ATOM      5  NE  ARG D 557     -27.605  -1.005 -16.011  1.00 35.49    -0.212 N 
ATOM      6  CZ  ARG D 557     -27.417  -2.303 -16.080  1.00 35.49     0.666 C 
ATOM      7  NH1 ARG D 557     -28.165  -3.089 -16.833  1.00 35.49    -0.235 N 
ATOM      8  NH2 ARG D 557     -26.446  -2.808 -15.376  1.00 35.49    -0.235 N 
ATOM      9  HH  ARG D 557     -28.808  -2.778 -17.307  1.00 35.49     0.174 HD
ATOM     10  HH  ARG D 557     -27.993  -3.928 -16.841  1.00 35.49     0.174 HD
ATOM     11  HH  ARG D 557     -25.975  -2.276 -14.905  1.00 35.49     0.174 HD
ATOM     12  HH  ARG D 557     -26.291  -3.641 -15.398  1.00 35.49     0.174 HD
ATOM     13  HE  ARG D 557     -27.125  -0.587 -15.446  1.00 35.49     0.178 HD
ENDBRANCH   4   5
ENDBRANCH   3   4
ENDBRANCH   2   3
ENDBRANCH   1   2
END_RES ARG D 557
BEGIN_RES GLU D 570
REMARK  3 active torsions:
REMARK  status: ('A' for Active; 'I' for Inactive)
REMARK    5  A    between atoms: CA   and  CB  
REMARK    6  A    between atoms: CB   and  CG  
REMARK    7  A    between atoms: CG   and  CD  
ROOT
ATOM     14  CA  GLU D 570     -18.033  -6.348 -13.375  1.00 32.92     0.160 C 
ENDROOT
BRANCH  14  15
ATOM     15  CB  GLU D 570     -19.500  -6.345 -13.794  1.00 32.92     0.043 C 
BRANCH  15  16
ATOM     16  CG  GLU D 570     -20.067  -7.618 -14.309  1.00 32.92     0.100 C 
BRANCH  16  17
ATOM     17  CD  GLU D 570     -20.755  -7.459 -15.645  1.00 32.92     0.185 C 
ATOM     18  OE1 GLU D 570     -20.526  -6.441 -16.326  1.00 32.92    -0.647 OA
ATOM     19  OE2 GLU D 570     -21.545  -8.353 -16.006  1.00 32.92    -0.647 OA
ENDBRANCH  16  17
ENDBRANCH  15  16
ENDBRANCH  14  15
END_RES GLU D 570
ENDMDL
MODEL 6
REMARK VINA RESULT:      -6.5      1.637      2.245
REMARK  18 active torsions:
REMARK  status: ('A' for Active; 'I' for Inactive)
REMARK    1  A    between atoms: C_2  and  C_3 
REMARK    2  A    between atoms: C_3  and  C_4 
REMARK    3  A    between atoms: C_4  and  C_5 
REMARK    4  A    between atoms: C_5  and  C_6 
REMARK    5  A    between atoms: C_6  and  C_7 
REMARK    6  A    between atoms: C_7  and  C_8 
REMARK    7  A    between atoms: C_7  and  O_21 
REMARK    8  A    between atoms: C_8  and  C_9 
REMARK    9  A    between atoms: C_9  and  C_10 
REMARK   10  A    between atoms: C_10  and  C_11 
REMARK   11  A    between atoms: C_11  and  C_12 
REMARK   12  A    between atoms: C_12  and  C_13 
REMARK   13  A    between atoms: C_13  and  C_14 
REMARK   14  A    between atoms: C_14  and  C_15 
REMARK   15  A    between atoms: C_15  and  C_16 
REMARK   16  A    between atoms: C_16  and  C_17 
REMARK   17  A    between atoms: C_17  and  C_18 
REMARK   18  A    between atoms: C_18  and  O_20 
ROOT
HETATM    1  C   UNL     1     -21.978  -7.508  -3.916  1.00  0.00     0.000 C 
ENDROOT
BRANCH   1   2
HETATM    2  C   UNL     1     -21.302  -7.191  -2.578  1.00  0.00     0.002 C 
BRANCH   2   3
HETATM    3  C   UNL     1     -22.267  -6.629  -1.524  1.00  0.00     0.032 C 
BRANCH   3   4
HETATM    4  C   UNL     1     -22.287  -7.472  -0.242  1.00  0.00     0.118 C 
BRANCH   4   5
HETATM    5  C   UNL     1     -21.870  -8.937  -0.458  1.00  0.00     0.032 C 
BRANCH   5   6
HETATM    6  C   UNL     1     -23.044  -9.906  -0.360  1.00  0.00     0.002 C 
BRANCH   6   7
HETATM    7  C   UNL     1     -22.814 -11.223  -1.104  1.00  0.00     0.000 C 
BRANCH   7   8
HETATM    8  C   UNL     1     -23.002 -10.986  -2.605  1.00  0.00    -0.000 C 
BRANCH   8   9
HETATM    9  C   UNL     1     -21.789 -11.393  -3.437  1.00  0.00    -0.005 C 
HETATM   10  C   UNL     1     -20.611 -11.720  -2.530  1.00  0.00     0.005 C 
ENDBRANCH   8   9
ENDBRANCH   7   8
ENDBRANCH   6   7
ENDBRANCH   5   6
ENDBRANCH   4   5
BRANCH   4  11
HETATM   11  O   UNL     1     -23.610  -7.470   0.299  1.00  0.00    -0.396 OA
HETATM   12  H   UNL     1     -24.203  -7.865  -0.365  1.00  0.00     0.210 HD
ENDBRANCH   4  11
ENDBRANCH   3   4
ENDBRANCH   2   3
ENDBRANCH   1   2
BRANCH   1  13
HETATM   13  C   UNL     1     -21.881  -6.351  -4.910  1.00  0.00     0.000 C 
BRANCH  13  14
HETATM   14  C   UNL     1     -20.453  -6.137  -5.400  1.00  0.00     0.000 C 
BRANCH  14  15
HETATM   15  C   UNL     1     -20.439  -5.905  -6.911  1.00  0.00     0.000 C 
BRANCH  15  16
HETATM   16  C   UNL     1     -21.105  -4.577  -7.252  1.00  0.00     0.000 C 
BRANCH  16  17
HETATM   17  C   UNL     1     -20.886  -4.187  -8.713  1.00  0.00     0.001 C 
BRANCH  17  18
HETATM   18  C   UNL     1     -22.059  -4.674  -9.560  1.00  0.00     0.010 C 
BRANCH  18  19
HETATM   19  C   UNL     1     -22.728  -3.539 -10.330  1.00  0.00     0.110 C 
BRANCH  19  20
HETATM   20  C   UNL     1     -24.194  -3.425  -9.976  1.00  0.00     0.139 C 
HETATM   21  O   UNL     1     -25.099  -3.212 -10.768  1.00  0.00    -0.650 OA
BRANCH  20  22
HETATM   22  O   UNL     1     -24.418  -3.588  -8.653  1.00  0.00    -0.776 OA
HETATM   23  H   UNL     1     -25.147  -3.039  -8.308  1.00  0.00     0.167 HD
ENDBRANCH  20  22
ENDBRANCH  19  20
ENDBRANCH  18  19
ENDBRANCH  17  18
ENDBRANCH  16  17
ENDBRANCH  15  16
ENDBRANCH  14  15
ENDBRANCH  13  14
ENDBRANCH   1  13
TORSDOF 18
BEGIN_RES ARG D 557
REMARK  4 active torsions:
REMARK  status: ('A' for Active; 'I' for Inactive)
REMARK    1  A    between atoms: CA   and  CB  
REMARK    2  A    between atoms: CB   and  CG  
REMARK    3  A    between atoms: CG   and  CD  
REMARK    4  A    between atoms: CD   and  NE  
REMARK       I    between atoms: NE   and  CZ  
REMARK       I    between atoms: CZ   and  NH1 
REMARK       I    between atoms: CZ   and  NH2 
ROOT
ATOM      1  CA  ARG D 557     -26.217   2.705 -17.014  1.00 35.49     0.159 C 
ENDROOT
BRANCH   1   2
ATOM      2  CB  ARG D 557     -26.789   1.319 -17.183  1.00 35.49     0.034 C 
BRANCH   2   3
ATOM      3  CG  ARG D 557     -25.838   0.201 -17.135  1.00 35.49     0.027 C 
BRANCH   3   4
ATOM      4  CD  ARG D 557     -24.766   0.416 -16.136  1.00 35.49     0.116 C 
BRANCH   4   5
ATOM      5  NE  ARG D 557     -24.906  -0.451 -14.996  1.00 35.49    -0.212 N 
ATOM      6  CZ  ARG D 557     -24.086  -1.423 -14.665  1.00 35.49     0.666 C 
ATOM      7  NH1 ARG D 557     -23.017  -1.724 -15.380  1.00 35.49    -0.235 N 
ATOM      8  NH2 ARG D 557     -24.356  -2.095 -13.583  1.00 35.49    -0.235 N 
ATOM      9  HH  ARG D 557     -22.819  -1.294 -16.094  1.00 35.49     0.174 HD
ATOM     10  HH  ARG D 557     -22.517  -2.367 -15.113  1.00 35.49     0.174 HD
ATOM     11  HH  ARG D 557     -25.049  -1.874 -13.138  1.00 35.49     0.174 HD
ATOM     12  HH  ARG D 557     -23.848  -2.727 -13.336  1.00 35.49     0.174 HD
ATOM     13  HE  ARG D 557     -25.606  -0.375 -14.520  1.00 35.49     0.178 HD
ENDBRANCH   4   5
ENDBRANCH   3   4
ENDBRANCH   2   3
ENDBRANCH   1   2
END_RES ARG D 557
BEGIN_RES GLU D 570
REMARK  3 active torsions:
REMARK  status: ('A' for Active; 'I' for Inactive)
REMARK    5  A    between atoms: CA   and  CB  
REMARK    6  A    between atoms: CB   and  CG  
REMARK    7  A    between atoms: CG   and  CD  
ROOT
ATOM     14  CA  GLU D 570     -18.033  -6.348 -13.375  1.00 32.92     0.160 C 
ENDROOT
BRANCH  14  15
ATOM     15  CB  GLU D 570     -19.500  -6.345 -13.794  1.00 32.92     0.043 C 
BRANCH  15  16
ATOM     16  CG  GLU D 570     -20.435  -5.502 -13.006  1.00 32.92     0.100 C 
BRANCH  16  17
ATOM     17  CD  GLU D 570     -21.738  -5.236 -13.724  1.00 32.92     0.185 C 
ATOM     18  OE1 GLU D 570     -22.249  -6.145 -14.406  1.00 32.92    -0.647 OA
ATOM     19  OE2 GLU D 570     -22.244  -4.102 -13.618  1.00 32.92    -0.647 OA
ENDBRANCH  16  17
ENDBRANCH  15  16
ENDBRANCH  14  15
END_RES GLU D 570
ENDMDL
MODEL 7
REMARK VINA RESULT:      -6.4      2.937      4.855
REMARK  18 active torsions:
REMARK  status: ('A' for Active; 'I' for Inactive)
REMARK    1  A    between atoms: C_2  and  C_3 
REMARK    2  A    between atoms: C_3  and  C_4 
REMARK    3  A    between atoms: C_4  and  C_5 
REMARK    4  A    between atoms: C_5  and  C_6 
REMARK    5  A    between atoms: C_6  and  C_7 
REMARK    6  A    between atoms: C_7  and  C_8 
REMARK    7  A    between atoms: C_7  and  O_21 
REMARK    8  A    between atoms: C_8  and  C_9 
REMARK    9  A    between atoms: C_9  and  C_10 
REMARK   10  A    between atoms: C_10  and  C_11 
REMARK   11  A    between atoms: C_11  and  C_12 
REMARK   12  A    between atoms: C_12  and  C_13 
REMARK   13  A    between atoms: C_13  and  C_14 
REMARK   14  A    between atoms: C_14  and  C_15 
REMARK   15  A    between atoms: C_15  and  C_16 
REMARK   16  A    between atoms: C_16  and  C_17 
REMARK   17  A    between atoms: C_17  and  C_18 
REMARK   18  A    between atoms: C_18  and  O_20 
ROOT
HETATM    1  C   UNL     1     -20.413  -4.110 -10.004  1.00  0.00     0.000 C 
ENDROOT
BRANCH   1   2
HETATM    2  C   UNL     1     -20.892  -4.716  -8.680  1.00  0.00     0.002 C 
BRANCH   2   3
HETATM    3  C   UNL     1     -19.764  -4.919  -7.658  1.00  0.00     0.032 C 
BRANCH   3   4
HETATM    4  C   UNL     1     -20.287  -5.419  -6.304  1.00  0.00     0.118 C 
BRANCH   4   5
HETATM    5  C   UNL     1     -21.801  -5.696  -6.289  1.00  0.00     0.032 C 
BRANCH   5   6
HETATM    6  C   UNL     1     -22.248  -6.459  -5.046  1.00  0.00     0.002 C 
BRANCH   6   7
HETATM    7  C   UNL     1     -21.281  -7.569  -4.629  1.00  0.00     0.000 C 
BRANCH   7   8
HETATM    8  C   UNL     1     -20.996  -7.444  -3.130  1.00  0.00    -0.000 C 
BRANCH   8   9
HETATM    9  C   UNL     1     -21.727  -6.278  -2.472  1.00  0.00    -0.005 C 
HETATM   10  C   UNL     1     -22.342  -6.718  -1.150  1.00  0.00     0.005 C 
ENDBRANCH   8   9
ENDBRANCH   7   8
ENDBRANCH   6   7
ENDBRANCH   5   6
ENDBRANCH   4   5
BRANCH   4  11
HETATM   11  O   UNL     1     -20.013  -4.436  -5.304  1.00  0.00    -0.396 OA
HETATM   12  H   UNL     1     -20.651  -4.564  -4.580  1.00  0.00     0.210 HD
ENDBRANCH   4  11
ENDBRANCH   3   4
ENDBRANCH   2   3
ENDBRANCH   1   2
BRANCH   1  13
HETATM   13  C   UNL     1     -21.566  -3.582 -10.857  1.00  0.00     0.000 C 
BRANCH  13  14
HETATM   14  C   UNL     1     -22.924  -3.892 -10.237  1.00  0.00     0.000 C 
BRANCH  14  15
HETATM   15  C   UNL     1     -23.898  -4.382 -11.308  1.00  0.00     0.000 C 
BRANCH  15  16
HETATM   16  C   UNL     1     -23.219  -4.412 -12.672  1.00  0.00     0.000 C 
BRANCH  16  17
HETATM   17  C   UNL     1     -23.378  -5.767 -13.361  1.00  0.00     0.001 C 
BRANCH  17  18
HETATM   18  C   UNL     1     -23.808  -5.564 -14.810  1.00  0.00     0.010 C 
BRANCH  18  19
HETATM   19  C   UNL     1     -24.090  -6.884 -15.521  1.00  0.00     0.110 C 
BRANCH  19  20
HETATM   20  C   UNL     1     -25.523  -6.954 -15.999  1.00  0.00     0.139 C 
HETATM   21  O   UNL     1     -26.465  -7.392 -15.354  1.00  0.00    -0.650 OA
BRANCH  20  22
HETATM   22  O   UNL     1     -25.673  -6.469 -17.252  1.00  0.00    -0.776 OA
HETATM   23  H   UNL     1     -25.487  -7.123 -17.951  1.00  0.00     0.167 HD
ENDBRANCH  20  22
ENDBRANCH  19  20
ENDBRANCH  18  19
ENDBRANCH  17  18
ENDBRANCH  16  17
ENDBRANCH  15  16
ENDBRANCH  14  15
ENDBRANCH  13  14
ENDBRANCH   1  13
TORSDOF 18
BEGIN_RES ARG D 557
REMARK  4 active torsions:
REMARK  status: ('A' for Active; 'I' for Inactive)
REMARK    1  A    between atoms: CA   and  CB  
REMARK    2  A    between atoms: CB   and  CG  
REMARK    3  A    between atoms: CG   and  CD  
REMARK    4  A    between atoms: CD   and  NE  
REMARK       I    between atoms: NE   and  CZ  
REMARK       I    between atoms: CZ   and  NH1 
REMARK       I    between atoms: CZ   and  NH2 
ROOT
ATOM      1  CA  ARG D 557     -26.217   2.705 -17.014  1.00 35.49     0.159 C 
ENDROOT
BRANCH   1   2
ATOM      2  CB  ARG D 557     -26.789   1.319 -17.183  1.00 35.49     0.034 C 
BRANCH   2   3
ATOM      3  CG  ARG D 557     -28.157   1.105 -16.696  1.00 35.49     0.027 C 
BRANCH   3   4
ATOM      4  CD  ARG D 557     -28.777  -0.112 -17.269  1.00 35.49     0.116 C 
BRANCH   4   5
ATOM      5  NE  ARG D 557     -28.144  -1.316 -16.799  1.00 35.49    -0.212 N 
ATOM      6  CZ  ARG D 557     -28.582  -2.540 -16.994  1.00 35.49     0.666 C 
ATOM      7  NH1 ARG D 557     -29.695  -2.798 -17.654  1.00 35.49    -0.235 N 
ATOM      8  NH2 ARG D 557     -27.868  -3.516 -16.512  1.00 35.49    -0.235 N 
ATOM      9  HH  ARG D 557     -30.179  -2.171 -17.981  1.00 35.49     0.174 HD
ATOM     10  HH  ARG D 557     -29.930  -3.616 -17.752  1.00 35.49     0.174 HD
ATOM     11  HH  ARG D 557     -27.150  -3.319 -16.097  1.00 35.49     0.174 HD
ATOM     12  HH  ARG D 557     -28.116  -4.319 -16.621  1.00 35.49     0.174 HD
ATOM     13  HE  ARG D 557     -27.459  -1.239 -16.301  1.00 35.49     0.178 HD
ENDBRANCH   4   5
ENDBRANCH   3   4
ENDBRANCH   2   3
ENDBRANCH   1   2
END_RES ARG D 557
BEGIN_RES GLU D 570
REMARK  3 active torsions:
REMARK  status: ('A' for Active; 'I' for Inactive)
REMARK    5  A    between atoms: CA   and  CB  
REMARK    6  A    between atoms: CB   and  CG  
REMARK    7  A    between atoms: CG   and  CD  
ROOT
ATOM     14  CA  GLU D 570     -18.033  -6.348 -13.375  1.00 32.92     0.160 C 
ENDROOT
BRANCH  14  15
ATOM     15  CB  GLU D 570     -19.500  -6.345 -13.794  1.00 32.92     0.043 C 
BRANCH  15  16
ATOM     16  CG  GLU D 570     -20.082  -7.631 -14.257  1.00 32.92     0.100 C 
BRANCH  16  17
ATOM     17  CD  GLU D 570     -20.535  -7.589 -15.698  1.00 32.92     0.185 C 
ATOM     18  OE1 GLU D 570     -20.615  -6.487 -16.275  1.00 32.92    -0.647 OA
ATOM     19  OE2 GLU D 570     -20.828  -8.667 -16.251  1.00 32.92    -0.647 OA
ENDBRANCH  16  17
ENDBRANCH  15  16
ENDBRANCH  14  15
END_RES GLU D 570
ENDMDL
MODEL 8
REMARK VINA RESULT:      -6.3      4.018      9.945
REMARK  18 active torsions:
REMARK  status: ('A' for Active; 'I' for Inactive)
REMARK    1  A    between atoms: C_2  and  C_3 
REMARK    2  A    between atoms: C_3  and  C_4 
REMARK    3  A    between atoms: C_4  and  C_5 
REMARK    4  A    between atoms: C_5  and  C_6 
REMARK    5  A    between atoms: C_6  and  C_7 
REMARK    6  A    between atoms: C_7  and  C_8 
REMARK    7  A    between atoms: C_7  and  O_21 
REMARK    8  A    between atoms: C_8  and  C_9 
REMARK    9  A    between atoms: C_9  and  C_10 
REMARK   10  A    between atoms: C_10  and  C_11 
REMARK   11  A    between atoms: C_11  and  C_12 
REMARK   12  A    between atoms: C_12  and  C_13 
REMARK   13  A    between atoms: C_13  and  C_14 
REMARK   14  A    between atoms: C_14  and  C_15 
REMARK   15  A    between atoms: C_15  and  C_16 
REMARK   16  A    between atoms: C_16  and  C_17 
REMARK   17  A    between atoms: C_17  and  C_18 
REMARK   18  A    between atoms: C_18  and  O_20 
ROOT
HETATM    1  C   UNL     1     -23.064  -4.967 -13.021  1.00  0.00     0.000 C 
ENDROOT
BRANCH   1   2
HETATM    2  C   UNL     1     -23.317  -5.318 -14.490  1.00  0.00     0.002 C 
BRANCH   2   3
HETATM    3  C   UNL     1     -24.125  -6.610 -14.680  1.00  0.00     0.032 C 
BRANCH   3   4
HETATM    4  C   UNL     1     -24.429  -6.898 -16.156  1.00  0.00     0.118 C 
BRANCH   4   5
HETATM    5  C   UNL     1     -25.856  -6.506 -16.581  1.00  0.00     0.032 C 
BRANCH   5   6
HETATM    6  C   UNL     1     -26.925  -7.076 -15.654  1.00  0.00     0.002 C 
BRANCH   6   7
HETATM    7  C   UNL     1     -28.348  -6.666 -16.038  1.00  0.00     0.000 C 
BRANCH   7   8
HETATM    8  C   UNL     1     -28.387  -6.345 -17.535  1.00  0.00    -0.000 C 
BRANCH   8   9
HETATM    9  C   UNL     1     -29.803  -6.257 -18.096  1.00  0.00    -0.005 C 
HETATM   10  C   UNL     1     -30.325  -7.645 -18.438  1.00  0.00     0.005 C 
ENDBRANCH   8   9
ENDBRANCH   7   8
ENDBRANCH   6   7
ENDBRANCH   5   6
ENDBRANCH   4   5
BRANCH   4  11
HETATM   11  O   UNL     1     -24.268  -8.296 -16.405  1.00  0.00    -0.396 OA
HETATM   12  H   UNL     1     -24.435  -8.767 -15.570  1.00  0.00     0.210 HD
ENDBRANCH   4  11
ENDBRANCH   3   4
ENDBRANCH   2   3
ENDBRANCH   1   2
BRANCH   1  13
HETATM   13  C   UNL     1     -22.655  -3.506 -12.830  1.00  0.00     0.000 C 
BRANCH  13  14
HETATM   14  C   UNL     1     -22.290  -3.200 -11.382  1.00  0.00     0.000 C 
BRANCH  14  15
HETATM   15  C   UNL     1     -20.779  -3.316 -11.180  1.00  0.00     0.000 C 
BRANCH  15  16
HETATM   16  C   UNL     1     -20.450  -4.511 -10.292  1.00  0.00     0.000 C 
BRANCH  16  17
HETATM   17  C   UNL     1     -20.077  -4.084  -8.873  1.00  0.00     0.001 C 
BRANCH  17  18
HETATM   18  C   UNL     1     -20.313  -5.240  -7.906  1.00  0.00     0.010 C 
BRANCH  18  19
HETATM   19  C   UNL     1     -21.483  -4.977  -6.963  1.00  0.00     0.110 C 
BRANCH  19  20
HETATM   20  C   UNL     1     -21.613  -6.075  -5.931  1.00  0.00     0.139 C 
HETATM   21  O   UNL     1     -22.132  -5.955  -4.831  1.00  0.00    -0.650 OA
BRANCH  20  22
HETATM   22  O   UNL     1     -21.083  -7.244  -6.353  1.00  0.00    -0.776 OA
HETATM   23  H   UNL     1     -21.745  -7.881  -6.680  1.00  0.00     0.167 HD
ENDBRANCH  20  22
ENDBRANCH  19  20
ENDBRANCH  18  19
ENDBRANCH  17  18
ENDBRANCH  16  17
ENDBRANCH  15  16
ENDBRANCH  14  15
ENDBRANCH  13  14
ENDBRANCH   1  13
TORSDOF 18
BEGIN_RES ARG D 557
REMARK  4 active torsions:
REMARK  status: ('A' for Active; 'I' for Inactive)
REMARK    1  A    between atoms: CA   and  CB  
REMARK    2  A    between atoms: CB   and  CG  
REMARK    3  A    between atoms: CG   and  CD  
REMARK    4  A    between atoms: CD   and  NE  
REMARK       I    between atoms: NE   and  CZ  
REMARK       I    between atoms: CZ   and  NH1 
REMARK       I    between atoms: CZ   and  NH2 
ROOT
ATOM      1  CA  ARG D 557     -26.217   2.705 -17.014  1.00 35.49     0.159 C 
ENDROOT
BRANCH   1   2
ATOM      2  CB  ARG D 557     -26.789   1.319 -17.183  1.00 35.49     0.034 C 
BRANCH   2   3
ATOM      3  CG  ARG D 557     -28.227   1.162 -16.931  1.00 35.49     0.027 C 
BRANCH   3   4
ATOM      4  CD  ARG D 557     -28.585  -0.223 -16.551  1.00 35.49     0.116 C 
BRANCH   4   5
ATOM      5  NE  ARG D 557     -27.518  -0.887 -15.849  1.00 35.49    -0.212 N 
ATOM      6  CZ  ARG D 557     -27.238  -2.169 -15.912  1.00 35.49     0.666 C 
ATOM      7  NH1 ARG D 557     -27.944  -3.014 -16.641  1.00 35.49    -0.235 N 
ATOM      8  NH2 ARG D 557     -26.219  -2.596 -15.224  1.00 35.49    -0.235 N 
ATOM      9  HH  ARG D 557     -28.617  -2.755 -17.103  1.00 35.49     0.174 HD
ATOM     10  HH  ARG D 557     -27.713  -3.839 -16.645  1.00 35.49     0.174 HD
ATOM     11  HH  ARG D 557     -25.777  -2.026 -14.768  1.00 35.49     0.174 HD
ATOM     12  HH  ARG D 557     -26.006  -3.416 -15.242  1.00 35.49     0.174 HD
ATOM     13  HE  ARG D 557     -27.057  -0.430 -15.299  1.00 35.49     0.178 HD
ENDBRANCH   4   5
ENDBRANCH   3   4
ENDBRANCH   2   3
ENDBRANCH   1   2
END_RES ARG D 557
BEGIN_RES GLU D 570
REMARK  3 active torsions:
REMARK  status: ('A' for Active; 'I' for Inactive)
REMARK    5  A    between atoms: CA   and  CB  
REMARK    6  A    between atoms: CB   and  CG  
REMARK    7  A    between atoms: CG   and  CD  
ROOT
ATOM     14  CA  GLU D 570     -18.033  -6.348 -13.375  1.00 32.92     0.160 C 
ENDROOT
BRANCH  14  15
ATOM     15  CB  GLU D 570     -19.500  -6.345 -13.794  1.00 32.92     0.043 C 
BRANCH  15  16
ATOM     16  CG  GLU D 570     -20.094  -7.640 -14.217  1.00 32.92     0.100 C 
BRANCH  16  17
ATOM     17  CD  GLU D 570     -20.681  -7.592 -15.608  1.00 32.92     0.185 C 
ATOM     18  OE1 GLU D 570     -20.588  -6.540 -16.269  1.00 32.92    -0.647 OA
ATOM     19  OE2 GLU D 570     -21.254  -8.613 -16.036  1.00 32.92    -0.647 OA
ENDBRANCH  16  17
ENDBRANCH  15  16
ENDBRANCH  14  15
END_RES GLU D 570
ENDMDL
MODEL 9
REMARK VINA RESULT:      -6.3      5.443      9.722
REMARK  18 active torsions:
REMARK  status: ('A' for Active; 'I' for Inactive)
REMARK    1  A    between atoms: C_2  and  C_3 
REMARK    2  A    between atoms: C_3  and  C_4 
REMARK    3  A    between atoms: C_4  and  C_5 
REMARK    4  A    between atoms: C_5  and  C_6 
REMARK    5  A    between atoms: C_6  and  C_7 
REMARK    6  A    between atoms: C_7  and  C_8 
REMARK    7  A    between atoms: C_7  and  O_21 
REMARK    8  A    between atoms: C_8  and  C_9 
REMARK    9  A    between atoms: C_9  and  C_10 
REMARK   10  A    between atoms: C_10  and  C_11 
REMARK   11  A    between atoms: C_11  and  C_12 
REMARK   12  A    between atoms: C_12  and  C_13 
REMARK   13  A    between atoms: C_13  and  C_14 
REMARK   14  A    between atoms: C_14  and  C_15 
REMARK   15  A    between atoms: C_15  and  C_16 
REMARK   16  A    between atoms: C_16  and  C_17 
REMARK   17  A    between atoms: C_17  and  C_18 
REMARK   18  A    between atoms: C_18  and  O_20 
ROOT
HETATM    1  C   UNL     1     -22.882  -4.989 -13.178  1.00  0.00     0.000 C 
ENDROOT
BRANCH   1   2
HETATM    2  C   UNL     1     -23.787  -5.238 -14.389  1.00  0.00     0.002 C 
BRANCH   2   3
HETATM    3  C   UNL     1     -23.984  -6.726 -14.709  1.00  0.00     0.032 C 
BRANCH   3   4
HETATM    4  C   UNL     1     -24.351  -6.964 -16.180  1.00  0.00     0.118 C 
BRANCH   4   5
HETATM    5  C   UNL     1     -25.745  -6.437 -16.564  1.00  0.00     0.032 C 
BRANCH   5   6
HETATM    6  C   UNL     1     -26.860  -7.060 -15.729  1.00  0.00     0.002 C 
BRANCH   6   7
HETATM    7  C   UNL     1     -28.244  -6.480 -16.030  1.00  0.00     0.000 C 
BRANCH   7   8
HETATM    8  C   UNL     1     -28.306  -6.078 -17.506  1.00  0.00    -0.000 C 
BRANCH   8   9
HETATM    9  C   UNL     1     -29.727  -6.019 -18.057  1.00  0.00    -0.005 C 
HETATM   10  C   UNL     1     -30.401  -7.378 -17.932  1.00  0.00     0.005 C 
ENDBRANCH   8   9
ENDBRANCH   7   8
ENDBRANCH   6   7
ENDBRANCH   5   6
ENDBRANCH   4   5
BRANCH   4  11
HETATM   11  O   UNL     1     -24.325  -8.367 -16.450  1.00  0.00    -0.396 OA
HETATM   12  H   UNL     1     -23.419  -8.601 -16.718  1.00  0.00     0.210 HD
ENDBRANCH   4  11
ENDBRANCH   3   4
ENDBRANCH   2   3
ENDBRANCH   1   2
BRANCH   1  13
HETATM   13  C   UNL     1     -22.035  -3.726 -13.330  1.00  0.00     0.000 C 
BRANCH  13  14
HETATM   14  C   UNL     1     -21.860  -2.993 -12.004  1.00  0.00     0.000 C 
BRANCH  14  15
HETATM   15  C   UNL     1     -20.656  -3.550 -11.244  1.00  0.00     0.000 C 
BRANCH  15  16
HETATM   16  C   UNL     1     -21.116  -4.421 -10.081  1.00  0.00     0.000 C 
BRANCH  16  17
HETATM   17  C   UNL     1     -21.889  -3.619  -9.036  1.00  0.00     0.001 C 
BRANCH  17  18
HETATM   18  C   UNL     1     -23.152  -4.375  -8.633  1.00  0.00     0.010 C 
BRANCH  18  19
HETATM   19  C   UNL     1     -24.078  -4.628  -9.818  1.00  0.00     0.110 C 
BRANCH  19  20
HETATM   20  C   UNL     1     -24.911  -3.406 -10.134  1.00  0.00     0.139 C 
HETATM   21  O   UNL     1     -25.382  -2.638  -9.308  1.00  0.00    -0.650 OA
BRANCH  20  22
HETATM   22  O   UNL     1     -25.095  -3.237 -11.462  1.00  0.00    -0.776 OA
HETATM   23  H   UNL     1     -24.264  -3.193 -11.971  1.00  0.00     0.167 HD
ENDBRANCH  20  22
ENDBRANCH  19  20
ENDBRANCH  18  19
ENDBRANCH  17  18
ENDBRANCH  16  17
ENDBRANCH  15  16
ENDBRANCH  14  15
ENDBRANCH  13  14
ENDBRANCH   1  13
TORSDOF 18
BEGIN_RES ARG D 557
REMARK  4 active torsions:
REMARK  status: ('A' for Active; 'I' for Inactive)
REMARK    1  A    between atoms: CA   and  CB  
REMARK    2  A    between atoms: CB   and  CG  
REMARK    3  A    between atoms: CG   and  CD  
REMARK    4  A    between atoms: CD   and  NE  
REMARK       I    between atoms: NE   and  CZ  
REMARK       I    between atoms: CZ   and  NH1 
REMARK       I    between atoms: CZ   and  NH2 
ROOT
ATOM      1  CA  ARG D 557     -26.217   2.705 -17.014  1.00 35.49     0.159 C 
ENDROOT
BRANCH   1   2
ATOM      2  CB  ARG D 557     -26.789   1.319 -17.183  1.00 35.49     0.034 C 
BRANCH   2   3
ATOM      3  CG  ARG D 557     -28.227   1.227 -17.464  1.00 35.49     0.027 C 
BRANCH   3   4
ATOM      4  CD  ARG D 557     -28.911   0.245 -16.592  1.00 35.49     0.116 C 
BRANCH   4   5
ATOM      5  NE  ARG D 557     -28.037  -0.826 -16.192  1.00 35.49    -0.212 N 
ATOM      6  CZ  ARG D 557     -28.118  -2.074 -16.593  1.00 35.49     0.666 C 
ATOM      7  NH1 ARG D 557     -29.053  -2.492 -17.426  1.00 35.49    -0.235 N 
ATOM      8  NH2 ARG D 557     -27.226  -2.909 -16.144  1.00 35.49    -0.235 N 
ATOM      9  HH  ARG D 557     -29.649  -1.960 -17.736  1.00 35.49     0.174 HD
ATOM     10  HH  ARG D 557     -29.055  -3.318 -17.655  1.00 35.49     0.174 HD
ATOM     11  HH  ARG D 557     -26.629  -2.609 -15.613  1.00 35.49     0.174 HD
ATOM     12  HH  ARG D 557     -27.243  -3.722 -16.383  1.00 35.49     0.174 HD
ATOM     13  HE  ARG D 557     -27.449  -0.661 -15.600  1.00 35.49     0.178 HD
ENDBRANCH   4   5
ENDBRANCH   3   4
ENDBRANCH   2   3
ENDBRANCH   1   2
END_RES ARG D 557
BEGIN_RES GLU D 570
REMARK  3 active torsions:
REMARK  status: ('A' for Active; 'I' for Inactive)
REMARK    5  A    between atoms: CA   and  CB  
REMARK    6  A    between atoms: CB   and  CG  
REMARK    7  A    between atoms: CG   and  CD  
ROOT
ATOM     14  CA  GLU D 570     -18.033  -6.348 -13.375  1.00 32.92     0.160 C 
ENDROOT
BRANCH  14  15
ATOM     15  CB  GLU D 570     -19.500  -6.345 -13.794  1.00 32.92     0.043 C 
BRANCH  15  16
ATOM     16  CG  GLU D 570     -20.086  -7.634 -14.245  1.00 32.92     0.100 C 
BRANCH  16  17
ATOM     17  CD  GLU D 570     -20.591  -7.585 -15.668  1.00 32.92     0.185 C 
ATOM     18  OE1 GLU D 570     -20.764  -6.477 -16.212  1.00 32.92    -0.647 OA
ATOM     19  OE2 GLU D 570     -20.834  -8.666 -16.240  1.00 32.92    -0.647 OA
ENDBRANCH  16  17
ENDBRANCH  15  16
ENDBRANCH  14  15
END_RES GLU D 570
ENDMDL
