MODEL 1
REMARK VINA RESULT:      -1.3      0.000      0.000
REMARK  7 active torsions:
REMARK  status: ('A' for Active; 'I' for Inactive)
REMARK    1  A    between atoms: C_3  and  S_31 
REMARK    2  A    between atoms: C_6  and  N_7 
REMARK    3  A    between atoms: N_9  and  C_11 
REMARK    4  A    between atoms: C_12  and  C_28 
REMARK    5  A    between atoms: N_15  and  C_18 
REMARK    6  A    between atoms: C_21  and  S_24 
REMARK    7  A    between atoms: S_31  and  O_32 
ROOT
HETATM    1 NA   UNL     3     -32.361  -8.535   4.539  1.00  0.00     0.000 Na
ENDROOT
TORSDOF 7
BEGIN_RES ARG D 557
REMARK  4 active torsions:
REMARK  status: ('A' for Active; 'I' for Inactive)
REMARK    1  A    between atoms: CA   and  CB  
REMARK    2  A    between atoms: CB   and  CG  
REMARK    3  A    between atoms: CG   and  CD  
REMARK    4  A    between atoms: CD   and  NE  
REMARK       I    between atoms: NE   and  CZ  
REMARK       I    between atoms: CZ   and  NH1 
REMARK       I    between atoms: CZ   and  NH2 
ROOT
ATOM      1  CA  ARG D 557     -26.217   2.705 -17.014  1.00 35.49     0.159 C 
ENDROOT
BRANCH   1   2
ATOM      2  CB  ARG D 557     -26.789   1.319 -17.183  1.00 35.49     0.034 C 
BRANCH   2   3
ATOM      3  CG  ARG D 557     -25.835   0.204 -17.164  1.00 35.49     0.027 C 
BRANCH   3   4
ATOM      4  CD  ARG D 557     -24.742   0.413 -16.186  1.00 35.49     0.116 C 
BRANCH   4   5
ATOM      5  NE  ARG D 557     -24.883  -0.429 -15.027  1.00 35.49    -0.212 N 
ATOM      6  CZ  ARG D 557     -24.064  -1.395 -14.675  1.00 35.49     0.666 C 
ATOM      7  NH1 ARG D 557     -22.997  -1.713 -15.384  1.00 35.49    -0.235 N 
ATOM      8  NH2 ARG D 557     -24.336  -2.042 -13.580  1.00 35.49    -0.235 N 
ATOM      9  HH  ARG D 557     -22.798  -1.299 -16.107  1.00 35.49     0.174 HD
ATOM     10  HH  ARG D 557     -22.498  -2.351 -15.104  1.00 35.49     0.174 HD
ATOM     11  HH  ARG D 557     -25.028  -1.810 -13.138  1.00 35.49     0.174 HD
ATOM     12  HH  ARG D 557     -23.829  -2.670 -13.318  1.00 35.49     0.174 HD
ATOM     13  HE  ARG D 557     -25.583  -0.341 -14.553  1.00 35.49     0.178 HD
ENDBRANCH   4   5
ENDBRANCH   3   4
ENDBRANCH   2   3
ENDBRANCH   1   2
END_RES ARG D 557
BEGIN_RES GLU D 570
REMARK  3 active torsions:
REMARK  status: ('A' for Active; 'I' for Inactive)
REMARK    5  A    between atoms: CA   and  CB  
REMARK    6  A    between atoms: CB   and  CG  
REMARK    7  A    between atoms: CG   and  CD  
ROOT
ATOM     14  CA  GLU D 570     -18.033  -6.348 -13.375  1.00 32.92     0.160 C 
ENDROOT
BRANCH  14  15
ATOM     15  CB  GLU D 570     -19.500  -6.345 -13.794  1.00 32.92     0.043 C 
BRANCH  15  16
ATOM     16  CG  GLU D 570     -20.441  -5.527 -12.986  1.00 32.92     0.100 C 
BRANCH  16  17
ATOM     17  CD  GLU D 570     -21.735  -5.231 -13.709  1.00 32.92     0.185 C 
ATOM     18  OE1 GLU D 570     -22.317  -4.151 -13.490  1.00 32.92    -0.647 OA
ATOM     19  OE2 GLU D 570     -22.179  -6.096 -14.489  1.00 32.92    -0.647 OA
ENDBRANCH  16  17
ENDBRANCH  15  16
ENDBRANCH  14  15
END_RES GLU D 570
ENDMDL
MODEL 2
REMARK VINA RESULT:      -1.3      7.076      7.076
REMARK  7 active torsions:
REMARK  status: ('A' for Active; 'I' for Inactive)
REMARK    1  A    between atoms: C_3  and  S_31 
REMARK    2  A    between atoms: C_6  and  N_7 
REMARK    3  A    between atoms: N_9  and  C_11 
REMARK    4  A    between atoms: C_12  and  C_28 
REMARK    5  A    between atoms: N_15  and  C_18 
REMARK    6  A    between atoms: C_21  and  S_24 
REMARK    7  A    between atoms: S_31  and  O_32 
ROOT
HETATM    1 NA   UNL     3     -11.254   1.488   2.342  1.00  0.00     0.000 Na
ENDROOT
TORSDOF 7
BEGIN_RES ARG D 557
REMARK  4 active torsions:
REMARK  status: ('A' for Active; 'I' for Inactive)
REMARK    1  A    between atoms: CA   and  CB  
REMARK    2  A    between atoms: CB   and  CG  
REMARK    3  A    between atoms: CG   and  CD  
REMARK    4  A    between atoms: CD   and  NE  
REMARK       I    between atoms: NE   and  CZ  
REMARK       I    between atoms: CZ   and  NH1 
REMARK       I    between atoms: CZ   and  NH2 
ROOT
ATOM      1  CA  ARG D 557     -26.217   2.705 -17.014  1.00 35.49     0.159 C 
ENDROOT
BRANCH   1   2
ATOM      2  CB  ARG D 557     -26.789   1.319 -17.183  1.00 35.49     0.034 C 
BRANCH   2   3
ATOM      3  CG  ARG D 557     -25.834   0.204 -17.170  1.00 35.49     0.027 C 
BRANCH   3   4
ATOM      4  CD  ARG D 557     -24.749   0.401 -16.182  1.00 35.49     0.116 C 
BRANCH   4   5
ATOM      5  NE  ARG D 557     -24.907  -0.443 -15.027  1.00 35.49    -0.212 N 
ATOM      6  CZ  ARG D 557     -24.097  -1.414 -14.669  1.00 35.49     0.666 C 
ATOM      7  NH1 ARG D 557     -23.023  -1.734 -15.366  1.00 35.49    -0.235 N 
ATOM      8  NH2 ARG D 557     -24.384  -2.063 -13.578  1.00 35.49    -0.235 N 
ATOM      9  HH  ARG D 557     -22.813  -1.319 -16.085  1.00 35.49     0.174 HD
ATOM     10  HH  ARG D 557     -22.530  -2.375 -15.082  1.00 35.49     0.174 HD
ATOM     11  HH  ARG D 557     -25.081  -1.830 -13.145  1.00 35.49     0.174 HD
ATOM     12  HH  ARG D 557     -23.883  -2.694 -13.313  1.00 35.49     0.174 HD
ATOM     13  HE  ARG D 557     -25.613  -0.354 -14.561  1.00 35.49     0.178 HD
ENDBRANCH   4   5
ENDBRANCH   3   4
ENDBRANCH   2   3
ENDBRANCH   1   2
END_RES ARG D 557
BEGIN_RES GLU D 570
REMARK  3 active torsions:
REMARK  status: ('A' for Active; 'I' for Inactive)
REMARK    5  A    between atoms: CA   and  CB  
REMARK    6  A    between atoms: CB   and  CG  
REMARK    7  A    between atoms: CG   and  CD  
ROOT
ATOM     14  CA  GLU D 570     -18.033  -6.348 -13.375  1.00 32.92     0.160 C 
ENDROOT
BRANCH  14  15
ATOM     15  CB  GLU D 570     -19.500  -6.345 -13.794  1.00 32.92     0.043 C 
BRANCH  15  16
ATOM     16  CG  GLU D 570     -20.440  -5.524 -12.988  1.00 32.92     0.100 C 
BRANCH  16  17
ATOM     17  CD  GLU D 570     -21.743  -5.249 -13.702  1.00 32.92     0.185 C 
ATOM     18  OE1 GLU D 570     -22.327  -4.167 -13.501  1.00 32.92    -0.647 OA
ATOM     19  OE2 GLU D 570     -22.193  -6.132 -14.458  1.00 32.92    -0.647 OA
ENDBRANCH  16  17
ENDBRANCH  15  16
ENDBRANCH  14  15
END_RES GLU D 570
ENDMDL
MODEL 3
REMARK VINA RESULT:      -1.2     10.532     10.573
REMARK  7 active torsions:
REMARK  status: ('A' for Active; 'I' for Inactive)
REMARK    1  A    between atoms: C_3  and  S_31 
REMARK    2  A    between atoms: C_6  and  N_7 
REMARK    3  A    between atoms: N_9  and  C_11 
REMARK    4  A    between atoms: C_12  and  C_28 
REMARK    5  A    between atoms: N_15  and  C_18 
REMARK    6  A    between atoms: C_21  and  S_24 
REMARK    7  A    between atoms: S_31  and  O_32 
ROOT
HETATM    1 NA   UNL     3      -9.118   5.891 -17.181  1.00  0.00     0.000 Na
ENDROOT
TORSDOF 7
BEGIN_RES ARG D 557
REMARK  4 active torsions:
REMARK  status: ('A' for Active; 'I' for Inactive)
REMARK    1  A    between atoms: CA   and  CB  
REMARK    2  A    between atoms: CB   and  CG  
REMARK    3  A    between atoms: CG   and  CD  
REMARK    4  A    between atoms: CD   and  NE  
REMARK       I    between atoms: NE   and  CZ  
REMARK       I    between atoms: CZ   and  NH1 
REMARK       I    between atoms: CZ   and  NH2 
ROOT
ATOM      1  CA  ARG D 557     -26.217   2.705 -17.014  1.00 35.49     0.159 C 
ENDROOT
BRANCH   1   2
ATOM      2  CB  ARG D 557     -26.789   1.319 -17.183  1.00 35.49     0.034 C 
BRANCH   2   3
ATOM      3  CG  ARG D 557     -25.836   0.203 -17.154  1.00 35.49     0.027 C 
BRANCH   3   4
ATOM      4  CD  ARG D 557     -24.752   0.411 -16.167  1.00 35.49     0.116 C 
BRANCH   4   5
ATOM      5  NE  ARG D 557     -24.898  -0.437 -15.014  1.00 35.49    -0.212 N 
ATOM      6  CZ  ARG D 557     -24.085  -1.410 -14.668  1.00 35.49     0.666 C 
ATOM      7  NH1 ARG D 557     -23.017  -1.727 -15.377  1.00 35.49    -0.235 N 
ATOM      8  NH2 ARG D 557     -24.360  -2.064 -13.577  1.00 35.49    -0.235 N 
ATOM      9  HH  ARG D 557     -22.816  -1.309 -16.097  1.00 35.49     0.174 HD
ATOM     10  HH  ARG D 557     -22.522  -2.369 -15.101  1.00 35.49     0.174 HD
ATOM     11  HH  ARG D 557     -25.052  -1.831 -13.135  1.00 35.49     0.174 HD
ATOM     12  HH  ARG D 557     -23.856  -2.695 -13.319  1.00 35.49     0.174 HD
ATOM     13  HE  ARG D 557     -25.599  -0.350 -14.540  1.00 35.49     0.178 HD
ENDBRANCH   4   5
ENDBRANCH   3   4
ENDBRANCH   2   3
ENDBRANCH   1   2
END_RES ARG D 557
BEGIN_RES GLU D 570
REMARK  3 active torsions:
REMARK  status: ('A' for Active; 'I' for Inactive)
REMARK    5  A    between atoms: CA   and  CB  
REMARK    6  A    between atoms: CB   and  CG  
REMARK    7  A    between atoms: CG   and  CD  
ROOT
ATOM     14  CA  GLU D 570     -18.033  -6.348 -13.375  1.00 32.92     0.160 C 
ENDROOT
BRANCH  14  15
ATOM     15  CB  GLU D 570     -19.500  -6.345 -13.794  1.00 32.92     0.043 C 
BRANCH  15  16
ATOM     16  CG  GLU D 570     -20.445  -5.547 -12.971  1.00 32.92     0.100 C 
BRANCH  16  17
ATOM     17  CD  GLU D 570     -21.741  -5.245 -13.688  1.00 32.92     0.185 C 
ATOM     18  OE1 GLU D 570     -22.239  -6.114 -14.429  1.00 32.92    -0.647 OA
ATOM     19  OE2 GLU D 570     -22.254  -4.121 -13.520  1.00 32.92    -0.647 OA
ENDBRANCH  16  17
ENDBRANCH  15  16
ENDBRANCH  14  15
END_RES GLU D 570
ENDMDL
MODEL 4
REMARK VINA RESULT:      -1.2      4.472      4.568
REMARK  7 active torsions:
REMARK  status: ('A' for Active; 'I' for Inactive)
REMARK    1  A    between atoms: C_3  and  S_31 
REMARK    2  A    between atoms: C_6  and  N_7 
REMARK    3  A    between atoms: N_9  and  C_11 
REMARK    4  A    between atoms: C_12  and  C_28 
REMARK    5  A    between atoms: N_15  and  C_18 
REMARK    6  A    between atoms: C_21  and  S_24 
REMARK    7  A    between atoms: S_31  and  O_32 
ROOT
HETATM    1 NA   UNL     3     -27.258  -5.746  -9.105  1.00  0.00     0.000 Na
ENDROOT
TORSDOF 7
BEGIN_RES ARG D 557
REMARK  4 active torsions:
REMARK  status: ('A' for Active; 'I' for Inactive)
REMARK    1  A    between atoms: CA   and  CB  
REMARK    2  A    between atoms: CB   and  CG  
REMARK    3  A    between atoms: CG   and  CD  
REMARK    4  A    between atoms: CD   and  NE  
REMARK       I    between atoms: NE   and  CZ  
REMARK       I    between atoms: CZ   and  NH1 
REMARK       I    between atoms: CZ   and  NH2 
ROOT
ATOM      1  CA  ARG D 557     -26.217   2.705 -17.014  1.00 35.49     0.159 C 
ENDROOT
BRANCH   1   2
ATOM      2  CB  ARG D 557     -26.789   1.319 -17.183  1.00 35.49     0.034 C 
BRANCH   2   3
ATOM      3  CG  ARG D 557     -25.834   0.204 -17.170  1.00 35.49     0.027 C 
BRANCH   3   4
ATOM      4  CD  ARG D 557     -24.741   0.409 -16.193  1.00 35.49     0.116 C 
BRANCH   4   5
ATOM      5  NE  ARG D 557     -24.888  -0.429 -15.032  1.00 35.49    -0.212 N 
ATOM      6  CZ  ARG D 557     -24.075  -1.398 -14.676  1.00 35.49     0.666 C 
ATOM      7  NH1 ARG D 557     -23.008  -1.724 -15.382  1.00 35.49    -0.235 N 
ATOM      8  NH2 ARG D 557     -24.352  -2.041 -13.579  1.00 35.49    -0.235 N 
ATOM      9  HH  ARG D 557     -22.806  -1.313 -16.106  1.00 35.49     0.174 HD
ATOM     10  HH  ARG D 557     -22.513  -2.363 -15.099  1.00 35.49     0.174 HD
ATOM     11  HH  ARG D 557     -25.043  -1.804 -13.139  1.00 35.49     0.174 HD
ATOM     12  HH  ARG D 557     -23.848  -2.671 -13.315  1.00 35.49     0.174 HD
ATOM     13  HE  ARG D 557     -25.589  -0.336 -14.559  1.00 35.49     0.178 HD
ENDBRANCH   4   5
ENDBRANCH   3   4
ENDBRANCH   2   3
ENDBRANCH   1   2
END_RES ARG D 557
BEGIN_RES GLU D 570
REMARK  3 active torsions:
REMARK  status: ('A' for Active; 'I' for Inactive)
REMARK    5  A    between atoms: CA   and  CB  
REMARK    6  A    between atoms: CB   and  CG  
REMARK    7  A    between atoms: CG   and  CD  
ROOT
ATOM     14  CA  GLU D 570     -18.033  -6.348 -13.375  1.00 32.92     0.160 C 
ENDROOT
BRANCH  14  15
ATOM     15  CB  GLU D 570     -19.500  -6.345 -13.794  1.00 32.92     0.043 C 
BRANCH  15  16
ATOM     16  CG  GLU D 570     -20.441  -5.529 -12.985  1.00 32.92     0.100 C 
BRANCH  16  17
ATOM     17  CD  GLU D 570     -21.751  -5.266 -13.691  1.00 32.92     0.185 C 
ATOM     18  OE1 GLU D 570     -22.241  -6.160 -14.408  1.00 32.92    -0.647 OA
ATOM     19  OE2 GLU D 570     -22.284  -4.150 -13.539  1.00 32.92    -0.647 OA
ENDBRANCH  16  17
ENDBRANCH  15  16
ENDBRANCH  14  15
END_RES GLU D 570
ENDMDL
MODEL 5
REMARK VINA RESULT:      -1.1      7.160      7.233
REMARK  7 active torsions:
REMARK  status: ('A' for Active; 'I' for Inactive)
REMARK    1  A    between atoms: C_3  and  S_31 
REMARK    2  A    between atoms: C_6  and  N_7 
REMARK    3  A    between atoms: N_9  and  C_11 
REMARK    4  A    between atoms: C_12  and  C_28 
REMARK    5  A    between atoms: N_15  and  C_18 
REMARK    6  A    between atoms: C_21  and  S_24 
REMARK    7  A    between atoms: S_31  and  O_32 
ROOT
HETATM    1 NA   UNL     3     -11.254   1.617   2.473  1.00  0.00     0.000 Na
ENDROOT
TORSDOF 7
BEGIN_RES ARG D 557
REMARK  4 active torsions:
REMARK  status: ('A' for Active; 'I' for Inactive)
REMARK    1  A    between atoms: CA   and  CB  
REMARK    2  A    between atoms: CB   and  CG  
REMARK    3  A    between atoms: CG   and  CD  
REMARK    4  A    between atoms: CD   and  NE  
REMARK       I    between atoms: NE   and  CZ  
REMARK       I    between atoms: CZ   and  NH1 
REMARK       I    between atoms: CZ   and  NH2 
ROOT
ATOM      1  CA  ARG D 557     -26.217   2.705 -17.014  1.00 35.49     0.159 C 
ENDROOT
BRANCH   1   2
ATOM      2  CB  ARG D 557     -26.789   1.319 -17.183  1.00 35.49     0.034 C 
BRANCH   2   3
ATOM      3  CG  ARG D 557     -25.864   0.195 -16.992  1.00 35.49     0.027 C 
BRANCH   3   4
ATOM      4  CD  ARG D 557     -26.290  -0.706 -15.897  1.00 35.49     0.116 C 
BRANCH   4   5
ATOM      5  NE  ARG D 557     -25.242  -0.925 -14.936  1.00 35.49    -0.212 N 
ATOM      6  CZ  ARG D 557     -24.958  -2.070 -14.356  1.00 35.49     0.666 C 
ATOM      7  NH1 ARG D 557     -25.640  -3.174 -14.595  1.00 35.49    -0.235 N 
ATOM      8  NH2 ARG D 557     -23.957  -2.089 -13.524  1.00 35.49    -0.235 N 
ATOM      9  HH  ARG D 557     -26.301  -3.185 -15.140  1.00 35.49     0.174 HD
ATOM     10  HH  ARG D 557     -25.408  -3.892 -14.189  1.00 35.49     0.174 HD
ATOM     11  HH  ARG D 557     -23.530  -1.363 -13.395  1.00 35.49     0.174 HD
ATOM     12  HH  ARG D 557     -23.741  -2.810 -13.134  1.00 35.49     0.174 HD
ATOM     13  HE  ARG D 557     -24.798  -0.251 -14.668  1.00 35.49     0.178 HD
ENDBRANCH   4   5
ENDBRANCH   3   4
ENDBRANCH   2   3
ENDBRANCH   1   2
END_RES ARG D 557
BEGIN_RES GLU D 570
REMARK  3 active torsions:
REMARK  status: ('A' for Active; 'I' for Inactive)
REMARK    5  A    between atoms: CA   and  CB  
REMARK    6  A    between atoms: CB   and  CG  
REMARK    7  A    between atoms: CG   and  CD  
ROOT
ATOM     14  CA  GLU D 570     -18.033  -6.348 -13.375  1.00 32.92     0.160 C 
ENDROOT
BRANCH  14  15
ATOM     15  CB  GLU D 570     -19.500  -6.345 -13.794  1.00 32.92     0.043 C 
BRANCH  15  16
ATOM     16  CG  GLU D 570     -20.450  -5.571 -12.954  1.00 32.92     0.100 C 
BRANCH  16  17
ATOM     17  CD  GLU D 570     -21.679  -5.126 -13.712  1.00 32.92     0.185 C 
ATOM     18  OE1 GLU D 570     -21.622  -5.025 -14.952  1.00 32.92    -0.647 OA
ATOM     19  OE2 GLU D 570     -22.705  -4.858 -13.056  1.00 32.92    -0.647 OA
ENDBRANCH  16  17
ENDBRANCH  15  16
ENDBRANCH  14  15
END_RES GLU D 570
ENDMDL
MODEL 6
REMARK VINA RESULT:      -1.0      4.677      4.677
REMARK  7 active torsions:
REMARK  status: ('A' for Active; 'I' for Inactive)
REMARK    1  A    between atoms: C_3  and  S_31 
REMARK    2  A    between atoms: C_6  and  N_7 
REMARK    3  A    between atoms: N_9  and  C_11 
REMARK    4  A    between atoms: C_12  and  C_28 
REMARK    5  A    between atoms: N_15  and  C_18 
REMARK    6  A    between atoms: C_21  and  S_24 
REMARK    7  A    between atoms: S_31  and  O_32 
ROOT
HETATM    1 NA   UNL     3     -32.966  -9.533 -10.928  1.00  0.00     0.000 Na
ENDROOT
TORSDOF 7
BEGIN_RES ARG D 557
REMARK  4 active torsions:
REMARK  status: ('A' for Active; 'I' for Inactive)
REMARK    1  A    between atoms: CA   and  CB  
REMARK    2  A    between atoms: CB   and  CG  
REMARK    3  A    between atoms: CG   and  CD  
REMARK    4  A    between atoms: CD   and  NE  
REMARK       I    between atoms: NE   and  CZ  
REMARK       I    between atoms: CZ   and  NH1 
REMARK       I    between atoms: CZ   and  NH2 
ROOT
ATOM      1  CA  ARG D 557     -26.217   2.705 -17.014  1.00 35.49     0.159 C 
ENDROOT
BRANCH   1   2
ATOM      2  CB  ARG D 557     -26.789   1.319 -17.183  1.00 35.49     0.034 C 
BRANCH   2   3
ATOM      3  CG  ARG D 557     -25.836   0.203 -17.158  1.00 35.49     0.027 C 
BRANCH   3   4
ATOM      4  CD  ARG D 557     -24.751   0.410 -16.171  1.00 35.49     0.116 C 
BRANCH   4   5
ATOM      5  NE  ARG D 557     -24.899  -0.438 -15.017  1.00 35.49    -0.212 N 
ATOM      6  CZ  ARG D 557     -24.084  -1.409 -14.668  1.00 35.49     0.666 C 
ATOM      7  NH1 ARG D 557     -23.015  -1.726 -15.375  1.00 35.49    -0.235 N 
ATOM      8  NH2 ARG D 557     -24.362  -2.062 -13.577  1.00 35.49    -0.235 N 
ATOM      9  HH  ARG D 557     -22.813  -1.308 -16.095  1.00 35.49     0.174 HD
ATOM     10  HH  ARG D 557     -22.519  -2.367 -15.097  1.00 35.49     0.174 HD
ATOM     11  HH  ARG D 557     -25.055  -1.830 -13.137  1.00 35.49     0.174 HD
ATOM     12  HH  ARG D 557     -23.858  -2.692 -13.318  1.00 35.49     0.174 HD
ATOM     13  HE  ARG D 557     -25.600  -0.351 -14.544  1.00 35.49     0.178 HD
ENDBRANCH   4   5
ENDBRANCH   3   4
ENDBRANCH   2   3
ENDBRANCH   1   2
END_RES ARG D 557
BEGIN_RES GLU D 570
REMARK  3 active torsions:
REMARK  status: ('A' for Active; 'I' for Inactive)
REMARK    5  A    between atoms: CA   and  CB  
REMARK    6  A    between atoms: CB   and  CG  
REMARK    7  A    between atoms: CG   and  CD  
ROOT
ATOM     14  CA  GLU D 570     -18.033  -6.348 -13.375  1.00 32.92     0.160 C 
ENDROOT
BRANCH  14  15
ATOM     15  CB  GLU D 570     -19.500  -6.345 -13.794  1.00 32.92     0.043 C 
BRANCH  15  16
ATOM     16  CG  GLU D 570     -20.442  -5.529 -12.984  1.00 32.92     0.100 C 
BRANCH  16  17
ATOM     17  CD  GLU D 570     -21.737  -5.237 -13.704  1.00 32.92     0.185 C 
ATOM     18  OE1 GLU D 570     -22.300  -4.141 -13.516  1.00 32.92    -0.647 OA
ATOM     19  OE2 GLU D 570     -22.204  -6.120 -14.451  1.00 32.92    -0.647 OA
ENDBRANCH  16  17
ENDBRANCH  15  16
ENDBRANCH  14  15
END_RES GLU D 570
ENDMDL
MODEL 7
REMARK VINA RESULT:      -1.0      2.084      2.283
REMARK  7 active torsions:
REMARK  status: ('A' for Active; 'I' for Inactive)
REMARK    1  A    between atoms: C_3  and  S_31 
REMARK    2  A    between atoms: C_6  and  N_7 
REMARK    3  A    between atoms: N_9  and  C_11 
REMARK    4  A    between atoms: C_12  and  C_28 
REMARK    5  A    between atoms: N_15  and  C_18 
REMARK    6  A    between atoms: C_21  and  S_24 
REMARK    7  A    between atoms: S_31  and  O_32 
ROOT
HETATM    1 NA   UNL     3     -30.843  -3.397   0.175  1.00  0.00     0.000 Na
ENDROOT
TORSDOF 7
BEGIN_RES ARG D 557
REMARK  4 active torsions:
REMARK  status: ('A' for Active; 'I' for Inactive)
REMARK    1  A    between atoms: CA   and  CB  
REMARK    2  A    between atoms: CB   and  CG  
REMARK    3  A    between atoms: CG   and  CD  
REMARK    4  A    between atoms: CD   and  NE  
REMARK       I    between atoms: NE   and  CZ  
REMARK       I    between atoms: CZ   and  NH1 
REMARK       I    between atoms: CZ   and  NH2 
ROOT
ATOM      1  CA  ARG D 557     -26.217   2.705 -17.014  1.00 35.49     0.159 C 
ENDROOT
BRANCH   1   2
ATOM      2  CB  ARG D 557     -26.789   1.319 -17.183  1.00 35.49     0.034 C 
BRANCH   2   3
ATOM      3  CG  ARG D 557     -25.835   0.203 -17.161  1.00 35.49     0.027 C 
BRANCH   3   4
ATOM      4  CD  ARG D 557     -24.754   0.405 -16.169  1.00 35.49     0.116 C 
BRANCH   4   5
ATOM      5  NE  ARG D 557     -24.908  -0.447 -15.019  1.00 35.49    -0.212 N 
ATOM      6  CZ  ARG D 557     -24.096  -1.419 -14.669  1.00 35.49     0.666 C 
ATOM      7  NH1 ARG D 557     -23.024  -1.735 -15.372  1.00 35.49    -0.235 N 
ATOM      8  NH2 ARG D 557     -24.379  -2.076 -13.582  1.00 35.49    -0.235 N 
ATOM      9  HH  ARG D 557     -22.817  -1.315 -16.089  1.00 35.49     0.174 HD
ATOM     10  HH  ARG D 557     -22.530  -2.377 -15.093  1.00 35.49     0.174 HD
ATOM     11  HH  ARG D 557     -25.074  -1.845 -13.144  1.00 35.49     0.174 HD
ATOM     12  HH  ARG D 557     -23.877  -2.707 -13.322  1.00 35.49     0.174 HD
ATOM     13  HE  ARG D 557     -25.612  -0.361 -14.549  1.00 35.49     0.178 HD
ENDBRANCH   4   5
ENDBRANCH   3   4
ENDBRANCH   2   3
ENDBRANCH   1   2
END_RES ARG D 557
BEGIN_RES GLU D 570
REMARK  3 active torsions:
REMARK  status: ('A' for Active; 'I' for Inactive)
REMARK    5  A    between atoms: CA   and  CB  
REMARK    6  A    between atoms: CB   and  CG  
REMARK    7  A    between atoms: CG   and  CD  
ROOT
ATOM     14  CA  GLU D 570     -18.033  -6.348 -13.375  1.00 32.92     0.160 C 
ENDROOT
BRANCH  14  15
ATOM     15  CB  GLU D 570     -19.500  -6.345 -13.794  1.00 32.92     0.043 C 
BRANCH  15  16
ATOM     16  CG  GLU D 570     -20.441  -5.527 -12.986  1.00 32.92     0.100 C 
BRANCH  16  17
ATOM     17  CD  GLU D 570     -21.746  -5.254 -13.698  1.00 32.92     0.185 C 
ATOM     18  OE1 GLU D 570     -22.215  -6.125 -14.455  1.00 32.92    -0.647 OA
ATOM     19  OE2 GLU D 570     -22.295  -4.151 -13.509  1.00 32.92    -0.647 OA
ENDBRANCH  16  17
ENDBRANCH  15  16
ENDBRANCH  14  15
END_RES GLU D 570
ENDMDL
MODEL 8
REMARK VINA RESULT:      -0.9      7.712      7.965
REMARK  7 active torsions:
REMARK  status: ('A' for Active; 'I' for Inactive)
REMARK    1  A    between atoms: C_3  and  S_31 
REMARK    2  A    between atoms: C_6  and  N_7 
REMARK    3  A    between atoms: N_9  and  C_11 
REMARK    4  A    between atoms: C_12  and  C_28 
REMARK    5  A    between atoms: N_15  and  C_18 
REMARK    6  A    between atoms: C_21  and  S_24 
REMARK    7  A    between atoms: S_31  and  O_32 
ROOT
HETATM    1 NA   UNL     3     -11.275   1.618   2.456  1.00  0.00     0.000 Na
ENDROOT
TORSDOF 7
BEGIN_RES ARG D 557
REMARK  4 active torsions:
REMARK  status: ('A' for Active; 'I' for Inactive)
REMARK    1  A    between atoms: CA   and  CB  
REMARK    2  A    between atoms: CB   and  CG  
REMARK    3  A    between atoms: CG   and  CD  
REMARK    4  A    between atoms: CD   and  NE  
REMARK       I    between atoms: NE   and  CZ  
REMARK       I    between atoms: CZ   and  NH1 
REMARK       I    between atoms: CZ   and  NH2 
ROOT
ATOM      1  CA  ARG D 557     -26.217   2.705 -17.014  1.00 35.49     0.159 C 
ENDROOT
BRANCH   1   2
ATOM      2  CB  ARG D 557     -26.789   1.319 -17.183  1.00 35.49     0.034 C 
BRANCH   2   3
ATOM      3  CG  ARG D 557     -28.229   1.227 -17.452  1.00 35.49     0.027 C 
BRANCH   3   4
ATOM      4  CD  ARG D 557     -28.920   0.310 -16.516  1.00 35.49     0.116 C 
BRANCH   4   5
ATOM      5  NE  ARG D 557     -29.303  -0.924 -17.151  1.00 35.49    -0.212 N 
ATOM      6  CZ  ARG D 557     -28.672  -2.072 -17.041  1.00 35.49     0.666 C 
ATOM      7  NH1 ARG D 557     -27.574  -2.212 -16.322  1.00 35.49    -0.235 N 
ATOM      8  NH2 ARG D 557     -29.174  -3.095 -17.670  1.00 35.49    -0.235 N 
ATOM      9  HH  ARG D 557     -27.227  -1.553 -15.898  1.00 35.49     0.174 HD
ATOM     10  HH  ARG D 557     -27.207  -2.986 -16.285  1.00 35.49     0.174 HD
ATOM     11  HH  ARG D 557     -29.888  -2.977 -18.120  1.00 35.49     0.174 HD
ATOM     12  HH  ARG D 557     -28.797  -3.853 -17.619  1.00 35.49     0.174 HD
ATOM     13  HE  ARG D 557     -29.959  -0.909 -17.692  1.00 35.49     0.178 HD
ENDBRANCH   4   5
ENDBRANCH   3   4
ENDBRANCH   2   3
ENDBRANCH   1   2
END_RES ARG D 557
BEGIN_RES GLU D 570
REMARK  3 active torsions:
REMARK  status: ('A' for Active; 'I' for Inactive)
REMARK    5  A    between atoms: CA   and  CB  
REMARK    6  A    between atoms: CB   and  CG  
REMARK    7  A    between atoms: CG   and  CD  
ROOT
ATOM     14  CA  GLU D 570     -18.033  -6.348 -13.375  1.00 32.92     0.160 C 
ENDROOT
BRANCH  14  15
ATOM     15  CB  GLU D 570     -19.500  -6.345 -13.794  1.00 32.92     0.043 C 
BRANCH  15  16
ATOM     16  CG  GLU D 570     -20.438  -5.513 -12.997  1.00 32.92     0.100 C 
BRANCH  16  17
ATOM     17  CD  GLU D 570     -21.711  -5.182 -13.741  1.00 32.92     0.185 C 
ATOM     18  OE1 GLU D 570     -21.652  -4.939 -14.962  1.00 32.92    -0.647 OA
ATOM     19  OE2 GLU D 570     -22.775  -5.149 -13.093  1.00 32.92    -0.647 OA
ENDBRANCH  16  17
ENDBRANCH  15  16
ENDBRANCH  14  15
END_RES GLU D 570
ENDMDL
MODEL 9
REMARK VINA RESULT:      -0.9      8.310      8.310
REMARK  7 active torsions:
REMARK  status: ('A' for Active; 'I' for Inactive)
REMARK    1  A    between atoms: C_3  and  S_31 
REMARK    2  A    between atoms: C_6  and  N_7 
REMARK    3  A    between atoms: N_9  and  C_11 
REMARK    4  A    between atoms: C_12  and  C_28 
REMARK    5  A    between atoms: N_15  and  C_18 
REMARK    6  A    between atoms: C_21  and  S_24 
REMARK    7  A    between atoms: S_31  and  O_32 
ROOT
HETATM    1 NA   UNL     3     -28.319 -13.403 -22.285  1.00  0.00     0.000 Na
ENDROOT
TORSDOF 7
BEGIN_RES ARG D 557
REMARK  4 active torsions:
REMARK  status: ('A' for Active; 'I' for Inactive)
REMARK    1  A    between atoms: CA   and  CB  
REMARK    2  A    between atoms: CB   and  CG  
REMARK    3  A    between atoms: CG   and  CD  
REMARK    4  A    between atoms: CD   and  NE  
REMARK       I    between atoms: NE   and  CZ  
REMARK       I    between atoms: CZ   and  NH1 
REMARK       I    between atoms: CZ   and  NH2 
ROOT
ATOM      1  CA  ARG D 557     -26.217   2.705 -17.014  1.00 35.49     0.159 C 
ENDROOT
BRANCH   1   2
ATOM      2  CB  ARG D 557     -26.789   1.319 -17.183  1.00 35.49     0.034 C 
BRANCH   2   3
ATOM      3  CG  ARG D 557     -25.834   0.204 -17.169  1.00 35.49     0.027 C 
BRANCH   3   4
ATOM      4  CD  ARG D 557     -24.742   0.408 -16.190  1.00 35.49     0.116 C 
BRANCH   4   5
ATOM      5  NE  ARG D 557     -24.886  -0.436 -15.034  1.00 35.49    -0.212 N 
ATOM      6  CZ  ARG D 557     -24.071  -1.407 -14.686  1.00 35.49     0.666 C 
ATOM      7  NH1 ARG D 557     -23.005  -1.728 -15.397  1.00 35.49    -0.235 N 
ATOM      8  NH2 ARG D 557     -24.344  -2.057 -13.592  1.00 35.49    -0.235 N 
ATOM      9  HH  ARG D 557     -22.805  -1.312 -16.119  1.00 35.49     0.174 HD
ATOM     10  HH  ARG D 557     -22.509  -2.369 -15.119  1.00 35.49     0.174 HD
ATOM     11  HH  ARG D 557     -25.035  -1.823 -13.150  1.00 35.49     0.174 HD
ATOM     12  HH  ARG D 557     -23.840  -2.688 -13.333  1.00 35.49     0.174 HD
ATOM     13  HE  ARG D 557     -25.585  -0.347 -14.558  1.00 35.49     0.178 HD
ENDBRANCH   4   5
ENDBRANCH   3   4
ENDBRANCH   2   3
ENDBRANCH   1   2
END_RES ARG D 557
BEGIN_RES GLU D 570
REMARK  3 active torsions:
REMARK  status: ('A' for Active; 'I' for Inactive)
REMARK    5  A    between atoms: CA   and  CB  
REMARK    6  A    between atoms: CB   and  CG  
REMARK    7  A    between atoms: CG   and  CD  
ROOT
ATOM     14  CA  GLU D 570     -18.033  -6.348 -13.375  1.00 32.92     0.160 C 
ENDROOT
BRANCH  14  15
ATOM     15  CB  GLU D 570     -19.500  -6.345 -13.794  1.00 32.92     0.043 C 
BRANCH  15  16
ATOM     16  CG  GLU D 570     -20.440  -5.522 -12.990  1.00 32.92     0.100 C 
BRANCH  16  17
ATOM     17  CD  GLU D 570     -21.741  -5.245 -13.706  1.00 32.92     0.185 C 
ATOM     18  OE1 GLU D 570     -22.299  -4.143 -13.542  1.00 32.92    -0.647 OA
ATOM     19  OE2 GLU D 570     -22.216  -6.146 -14.425  1.00 32.92    -0.647 OA
ENDBRANCH  16  17
ENDBRANCH  15  16
ENDBRANCH  14  15
END_RES GLU D 570
ENDMDL
