MODEL 1
REMARK VINA RESULT:      -8.6      0.000      0.000
REMARK  3 active torsions:
REMARK  status: ('A' for Active; 'I' for Inactive)
REMARK    1  A    between atoms: C_2  and  C_4 
REMARK    2  A    between atoms: C_17  and  C_19 
REMARK    3  A    between atoms: C_19  and  O_21 
ROOT
HETATM    1  C   UNL     1     -20.514  -6.569  -5.691  1.00  0.00    -0.076 C 
HETATM    2  C   UNL     1     -20.193  -7.885  -5.557  1.00  0.00     0.010 C 
HETATM    3  C   UNL     1     -20.652  -8.628  -4.363  1.00  0.00    -0.057 C 
HETATM    4  C   UNL     1     -20.305  -9.884  -3.973  1.00  0.00    -0.019 C 
HETATM    5  C   UNL     1     -20.820 -10.552  -2.652  1.00  0.00     0.034 C 
HETATM    6  C   UNL     1     -21.850  -9.679  -1.850  1.00  0.00     0.016 C 
HETATM    7  C   UNL     1     -21.400  -8.155  -2.000  1.00  0.00    -0.031 C 
HETATM    8  C   UNL     1     -21.707  -7.913  -3.517  1.00  0.00     0.027 C 
HETATM    9  C   UNL     1     -22.100  -6.498  -3.945  1.00  0.00     0.014 C 
HETATM   10  C   UNL     1     -20.888  -5.784  -4.458  1.00  0.00     0.035 C 
HETATM   11  C   UNL     1     -22.176  -7.155  -1.122  1.00  0.00     0.010 C 
HETATM   12  C   UNL     1     -22.411  -7.668   0.277  1.00  0.00     0.002 C 
HETATM   13  C   UNL     1     -23.238  -8.929   0.140  1.00  0.00     0.020 C 
HETATM   14  C   UNL     1     -22.407 -10.119  -0.437  1.00  0.00     0.049 C 
HETATM   15  C   UNL     1     -21.310 -10.539   0.555  1.00  0.00     0.026 C 
HETATM   16  C   UNL     1     -19.890  -7.910  -1.648  1.00  0.00     0.016 C 
ENDROOT
BRANCH  14  17
HETATM   17  C   UNL     1     -23.433 -11.268  -0.399  1.00  0.00     0.267 C 
HETATM   18  O   UNL     1     -24.297 -11.417  -1.261  1.00  0.00    -0.264 OA
BRANCH  17  19
HETATM   19  O   UNL     1     -23.202 -12.194   0.581  1.00  0.00    -0.326 OA
HETATM   20  C   UNL     1     -23.454 -13.558   0.238  1.00  0.00     0.213 C 
ENDBRANCH  17  19
ENDBRANCH  14  17
BRANCH   1  21
HETATM   21  C   UNL     1     -21.044  -5.891  -6.958  1.00  0.00     0.006 C 
HETATM   22  C   UNL     1     -22.162  -4.869  -6.755  1.00  0.00     0.014 C 
HETATM   23  C   UNL     1     -20.006  -5.424  -7.972  1.00  0.00     0.014 C 
ENDBRANCH   1  21
TORSDOF 3
BEGIN_RES ARG D 557
REMARK  4 active torsions:
REMARK  status: ('A' for Active; 'I' for Inactive)
REMARK    1  A    between atoms: CA   and  CB  
REMARK    2  A    between atoms: CB   and  CG  
REMARK    3  A    between atoms: CG   and  CD  
REMARK    4  A    between atoms: CD   and  NE  
REMARK       I    between atoms: NE   and  CZ  
REMARK       I    between atoms: CZ   and  NH1 
REMARK       I    between atoms: CZ   and  NH2 
ROOT
ATOM      1  CA  ARG D 557     -26.217   2.705 -17.014  1.00 35.49     0.159 C 
ENDROOT
BRANCH   1   2
ATOM      2  CB  ARG D 557     -26.789   1.319 -17.183  1.00 35.49     0.034 C 
BRANCH   2   3
ATOM      3  CG  ARG D 557     -25.836   0.203 -17.156  1.00 35.49     0.027 C 
BRANCH   3   4
ATOM      4  CD  ARG D 557     -24.755   0.408 -16.165  1.00 35.49     0.116 C 
BRANCH   4   5
ATOM      5  NE  ARG D 557     -24.909  -0.441 -15.012  1.00 35.49    -0.212 N 
ATOM      6  CZ  ARG D 557     -24.101  -1.417 -14.664  1.00 35.49     0.666 C 
ATOM      7  NH1 ARG D 557     -23.033  -1.740 -15.371  1.00 35.49    -0.235 N 
ATOM      8  NH2 ARG D 557     -24.383  -2.071 -13.575  1.00 35.49    -0.235 N 
ATOM      9  HH  ARG D 557     -22.827  -1.322 -16.090  1.00 35.49     0.174 HD
ATOM     10  HH  ARG D 557     -22.541  -2.385 -15.094  1.00 35.49     0.174 HD
ATOM     11  HH  ARG D 557     -25.074  -1.835 -13.135  1.00 35.49     0.174 HD
ATOM     12  HH  ARG D 557     -23.883  -2.704 -13.316  1.00 35.49     0.174 HD
ATOM     13  HE  ARG D 557     -25.610  -0.350 -14.540  1.00 35.49     0.178 HD
ENDBRANCH   4   5
ENDBRANCH   3   4
ENDBRANCH   2   3
ENDBRANCH   1   2
END_RES ARG D 557
BEGIN_RES GLU D 570
REMARK  3 active torsions:
REMARK  status: ('A' for Active; 'I' for Inactive)
REMARK    5  A    between atoms: CA   and  CB  
REMARK    6  A    between atoms: CB   and  CG  
REMARK    7  A    between atoms: CG   and  CD  
ROOT
ATOM     14  CA  GLU D 570     -18.033  -6.348 -13.375  1.00 32.92     0.160 C 
ENDROOT
BRANCH  14  15
ATOM     15  CB  GLU D 570     -19.500  -6.345 -13.794  1.00 32.92     0.043 C 
BRANCH  15  16
ATOM     16  CG  GLU D 570     -20.441  -5.527 -12.986  1.00 32.92     0.100 C 
BRANCH  16  17
ATOM     17  CD  GLU D 570     -21.735  -5.231 -13.708  1.00 32.92     0.185 C 
ATOM     18  OE1 GLU D 570     -22.163  -6.051 -14.543  1.00 32.92    -0.647 OA
ATOM     19  OE2 GLU D 570     -22.318  -4.160 -13.449  1.00 32.92    -0.647 OA
ENDBRANCH  16  17
ENDBRANCH  15  16
ENDBRANCH  14  15
END_RES GLU D 570
ENDMDL
MODEL 2
REMARK VINA RESULT:      -8.3      1.727      2.114
REMARK  3 active torsions:
REMARK  status: ('A' for Active; 'I' for Inactive)
REMARK    1  A    between atoms: C_2  and  C_4 
REMARK    2  A    between atoms: C_17  and  C_19 
REMARK    3  A    between atoms: C_19  and  O_21 
ROOT
HETATM    1  C   UNL     1     -20.534  -6.567  -5.704  1.00  0.00    -0.076 C 
HETATM    2  C   UNL     1     -20.216  -7.884  -5.574  1.00  0.00     0.010 C 
HETATM    3  C   UNL     1     -20.672  -8.628  -4.379  1.00  0.00    -0.057 C 
HETATM    4  C   UNL     1     -20.327  -9.885  -3.992  1.00  0.00    -0.019 C 
HETATM    5  C   UNL     1     -20.838 -10.554  -2.670  1.00  0.00     0.034 C 
HETATM    6  C   UNL     1     -21.863  -9.679  -1.863  1.00  0.00     0.016 C 
HETATM    7  C   UNL     1     -21.410  -8.157  -2.012  1.00  0.00    -0.031 C 
HETATM    8  C   UNL     1     -21.722  -7.912  -3.528  1.00  0.00     0.027 C 
HETATM    9  C   UNL     1     -22.114  -6.495  -3.952  1.00  0.00     0.014 C 
HETATM   10  C   UNL     1     -20.903  -5.783  -4.469  1.00  0.00     0.035 C 
HETATM   11  C   UNL     1     -22.181  -7.156  -1.130  1.00  0.00     0.010 C 
HETATM   12  C   UNL     1     -22.411  -7.670   0.269  1.00  0.00     0.002 C 
HETATM   13  C   UNL     1     -23.242  -8.929   0.134  1.00  0.00     0.020 C 
HETATM   14  C   UNL     1     -22.416 -10.120  -0.448  1.00  0.00     0.049 C 
HETATM   15  C   UNL     1     -21.316 -10.544   0.539  1.00  0.00     0.026 C 
HETATM   16  C   UNL     1     -19.899  -7.915  -1.665  1.00  0.00     0.016 C 
ENDROOT
BRANCH  14  17
HETATM   17  C   UNL     1     -23.444 -11.267  -0.408  1.00  0.00     0.267 C 
HETATM   18  O   UNL     1     -24.293 -11.431  -1.282  1.00  0.00    -0.264 OA
BRANCH  17  19
HETATM   19  O   UNL     1     -23.232 -12.176   0.592  1.00  0.00    -0.326 OA
HETATM   20  C   UNL     1     -23.440 -13.550   0.257  1.00  0.00     0.213 C 
ENDBRANCH  17  19
ENDBRANCH  14  17
BRANCH   1  21
HETATM   21  C   UNL     1     -21.068  -5.886  -6.968  1.00  0.00     0.006 C 
HETATM   22  C   UNL     1     -22.180  -4.859  -6.759  1.00  0.00     0.014 C 
HETATM   23  C   UNL     1     -20.033  -5.425  -7.988  1.00  0.00     0.014 C 
ENDBRANCH   1  21
TORSDOF 3
BEGIN_RES ARG D 557
REMARK  4 active torsions:
REMARK  status: ('A' for Active; 'I' for Inactive)
REMARK    1  A    between atoms: CA   and  CB  
REMARK    2  A    between atoms: CB   and  CG  
REMARK    3  A    between atoms: CG   and  CD  
REMARK    4  A    between atoms: CD   and  NE  
REMARK       I    between atoms: NE   and  CZ  
REMARK       I    between atoms: CZ   and  NH1 
REMARK       I    between atoms: CZ   and  NH2 
ROOT
ATOM      1  CA  ARG D 557     -26.217   2.705 -17.014  1.00 35.49     0.159 C 
ENDROOT
BRANCH   1   2
ATOM      2  CB  ARG D 557     -26.789   1.319 -17.183  1.00 35.49     0.034 C 
BRANCH   2   3
ATOM      3  CG  ARG D 557     -28.230   1.227 -17.449  1.00 35.49     0.027 C 
BRANCH   3   4
ATOM      4  CD  ARG D 557     -28.918   0.306 -16.515  1.00 35.49     0.116 C 
BRANCH   4   5
ATOM      5  NE  ARG D 557     -29.299  -0.927 -17.152  1.00 35.49    -0.212 N 
ATOM      6  CZ  ARG D 557     -28.670  -2.076 -17.038  1.00 35.49     0.666 C 
ATOM      7  NH1 ARG D 557     -27.576  -2.217 -16.313  1.00 35.49    -0.235 N 
ATOM      8  NH2 ARG D 557     -29.170  -3.098 -17.670  1.00 35.49    -0.235 N 
ATOM      9  HH  ARG D 557     -27.232  -1.559 -15.887  1.00 35.49     0.174 HD
ATOM     10  HH  ARG D 557     -27.211  -2.991 -16.274  1.00 35.49     0.174 HD
ATOM     11  HH  ARG D 557     -29.881  -2.979 -18.125  1.00 35.49     0.174 HD
ATOM     12  HH  ARG D 557     -28.794  -3.857 -17.618  1.00 35.49     0.174 HD
ATOM     13  HE  ARG D 557     -29.951  -0.911 -17.696  1.00 35.49     0.178 HD
ENDBRANCH   4   5
ENDBRANCH   3   4
ENDBRANCH   2   3
ENDBRANCH   1   2
END_RES ARG D 557
BEGIN_RES GLU D 570
REMARK  3 active torsions:
REMARK  status: ('A' for Active; 'I' for Inactive)
REMARK    5  A    between atoms: CA   and  CB  
REMARK    6  A    between atoms: CB   and  CG  
REMARK    7  A    between atoms: CG   and  CD  
ROOT
ATOM     14  CA  GLU D 570     -18.033  -6.348 -13.375  1.00 32.92     0.160 C 
ENDROOT
BRANCH  14  15
ATOM     15  CB  GLU D 570     -19.500  -6.345 -13.794  1.00 32.92     0.043 C 
BRANCH  15  16
ATOM     16  CG  GLU D 570     -20.442  -5.531 -12.983  1.00 32.92     0.100 C 
BRANCH  16  17
ATOM     17  CD  GLU D 570     -21.737  -5.235 -13.704  1.00 32.92     0.185 C 
ATOM     18  OE1 GLU D 570     -22.319  -4.156 -13.483  1.00 32.92    -0.647 OA
ATOM     19  OE2 GLU D 570     -22.182  -6.099 -14.484  1.00 32.92    -0.647 OA
ENDBRANCH  16  17
ENDBRANCH  15  16
ENDBRANCH  14  15
END_RES GLU D 570
ENDMDL
MODEL 3
REMARK VINA RESULT:      -7.9      2.933      6.219
REMARK  3 active torsions:
REMARK  status: ('A' for Active; 'I' for Inactive)
REMARK    1  A    between atoms: C_2  and  C_4 
REMARK    2  A    between atoms: C_17  and  C_19 
REMARK    3  A    between atoms: C_19  and  O_21 
ROOT
HETATM    1  C   UNL     1     -21.677 -10.664   0.174  1.00  0.00    -0.076 C 
HETATM    2  C   UNL     1     -22.127  -9.384   0.282  1.00  0.00     0.010 C 
HETATM    3  C   UNL     1     -22.029  -8.478  -0.884  1.00  0.00    -0.057 C 
HETATM    4  C   UNL     1     -22.270  -7.140  -0.928  1.00  0.00    -0.019 C 
HETATM    5  C   UNL     1     -22.084  -6.270  -2.218  1.00  0.00     0.034 C 
HETATM    6  C   UNL     1     -21.677  -7.092  -3.493  1.00  0.00     0.016 C 
HETATM    7  C   UNL     1     -20.696  -8.257  -3.015  1.00  0.00    -0.031 C 
HETATM    8  C   UNL     1     -21.694  -9.159  -2.212  1.00  0.00     0.027 C 
HETATM    9  C   UNL     1     -21.417 -10.663  -2.172  1.00  0.00     0.014 C 
HETATM   10  C   UNL     1     -20.681 -10.995  -0.911  1.00  0.00     0.035 C 
HETATM   11  C   UNL     1     -20.031  -9.058  -4.150  1.00  0.00     0.010 C 
HETATM   12  C   UNL     1     -19.556  -8.181  -5.281  1.00  0.00     0.002 C 
HETATM   13  C   UNL     1     -20.784  -7.491  -5.836  1.00  0.00     0.020 C 
HETATM   14  C   UNL     1     -21.331  -6.394  -4.870  1.00  0.00     0.049 C 
HETATM   15  C   UNL     1     -20.323  -5.241  -4.741  1.00  0.00     0.026 C 
HETATM   16  C   UNL     1     -19.503  -7.749  -2.131  1.00  0.00     0.016 C 
ENDROOT
BRANCH  14  17
HETATM   17  C   UNL     1     -22.499  -5.807  -5.686  1.00  0.00     0.267 C 
HETATM   18  O   UNL     1     -23.673  -5.905  -5.334  1.00  0.00    -0.264 OA
BRANCH  17  19
HETATM   19  O   UNL     1     -22.110  -5.034  -6.745  1.00  0.00    -0.326 OA
HETATM   20  C   UNL     1     -23.155  -4.408  -7.492  1.00  0.00     0.213 C 
ENDBRANCH  17  19
ENDBRANCH  14  17
BRANCH   1  21
HETATM   21  C   UNL     1     -22.405 -11.923   0.656  1.00  0.00     0.006 C 
HETATM   22  C   UNL     1     -23.797 -12.159   0.073  1.00  0.00     0.014 C 
HETATM   23  C   UNL     1     -21.582 -13.204   0.734  1.00  0.00     0.014 C 
ENDBRANCH   1  21
TORSDOF 3
BEGIN_RES ARG D 557
REMARK  4 active torsions:
REMARK  status: ('A' for Active; 'I' for Inactive)
REMARK    1  A    between atoms: CA   and  CB  
REMARK    2  A    between atoms: CB   and  CG  
REMARK    3  A    between atoms: CG   and  CD  
REMARK    4  A    between atoms: CD   and  NE  
REMARK       I    between atoms: NE   and  CZ  
REMARK       I    between atoms: CZ   and  NH1 
REMARK       I    between atoms: CZ   and  NH2 
ROOT
ATOM      1  CA  ARG D 557     -26.217   2.705 -17.014  1.00 35.49     0.159 C 
ENDROOT
BRANCH   1   2
ATOM      2  CB  ARG D 557     -26.789   1.319 -17.183  1.00 35.49     0.034 C 
BRANCH   2   3
ATOM      3  CG  ARG D 557     -28.151   1.100 -16.680  1.00 35.49     0.027 C 
BRANCH   3   4
ATOM      4  CD  ARG D 557     -28.797  -0.081 -17.297  1.00 35.49     0.116 C 
BRANCH   4   5
ATOM      5  NE  ARG D 557     -28.193  -1.315 -16.869  1.00 35.49    -0.212 N 
ATOM      6  CZ  ARG D 557     -28.689  -2.517 -17.054  1.00 35.49     0.666 C 
ATOM      7  NH1 ARG D 557     -29.844  -2.723 -17.661  1.00 35.49    -0.235 N 
ATOM      8  NH2 ARG D 557     -27.994  -3.527 -16.618  1.00 35.49    -0.235 N 
ATOM      9  HH  ARG D 557     -30.317  -2.073 -17.958  1.00 35.49     0.174 HD
ATOM     10  HH  ARG D 557     -30.116  -3.530 -17.755  1.00 35.49     0.174 HD
ATOM     11  HH  ARG D 557     -27.249  -3.365 -16.236  1.00 35.49     0.174 HD
ATOM     12  HH  ARG D 557     -28.280  -4.319 -16.722  1.00 35.49     0.174 HD
ATOM     13  HE  ARG D 557     -27.482  -1.271 -16.405  1.00 35.49     0.178 HD
ENDBRANCH   4   5
ENDBRANCH   3   4
ENDBRANCH   2   3
ENDBRANCH   1   2
END_RES ARG D 557
BEGIN_RES GLU D 570
REMARK  3 active torsions:
REMARK  status: ('A' for Active; 'I' for Inactive)
REMARK    5  A    between atoms: CA   and  CB  
REMARK    6  A    between atoms: CB   and  CG  
REMARK    7  A    between atoms: CG   and  CD  
ROOT
ATOM     14  CA  GLU D 570     -18.033  -6.348 -13.375  1.00 32.92     0.160 C 
ENDROOT
BRANCH  14  15
ATOM     15  CB  GLU D 570     -19.500  -6.345 -13.794  1.00 32.92     0.043 C 
BRANCH  15  16
ATOM     16  CG  GLU D 570     -19.799  -6.155 -15.237  1.00 32.92     0.100 C 
BRANCH  16  17
ATOM     17  CD  GLU D 570     -21.251  -5.827 -15.499  1.00 32.92     0.185 C 
ATOM     18  OE1 GLU D 570     -21.557  -4.670 -15.847  1.00 32.92    -0.647 OA
ATOM     19  OE2 GLU D 570     -22.093  -6.733 -15.340  1.00 32.92    -0.647 OA
ENDBRANCH  16  17
ENDBRANCH  15  16
ENDBRANCH  14  15
END_RES GLU D 570
ENDMDL
MODEL 4
REMARK VINA RESULT:      -7.2      3.543      5.974
REMARK  3 active torsions:
REMARK  status: ('A' for Active; 'I' for Inactive)
REMARK    1  A    between atoms: C_2  and  C_4 
REMARK    2  A    between atoms: C_17  and  C_19 
REMARK    3  A    between atoms: C_19  and  O_21 
ROOT
HETATM    1  C   UNL     1     -22.628 -10.767  -2.534  1.00  0.00    -0.076 C 
HETATM    2  C   UNL     1     -22.386 -11.089  -3.834  1.00  0.00     0.010 C 
HETATM    3  C   UNL     1     -20.991 -11.125  -4.326  1.00  0.00    -0.057 C 
HETATM    4  C   UNL     1     -20.558 -11.265  -5.608  1.00  0.00    -0.019 C 
HETATM    5  C   UNL     1     -19.046 -11.237  -6.018  1.00  0.00     0.034 C 
HETATM    6  C   UNL     1     -18.054 -11.123  -4.805  1.00  0.00     0.016 C 
HETATM    7  C   UNL     1     -18.735 -10.169  -3.722  1.00  0.00    -0.031 C 
HETATM    8  C   UNL     1     -19.915 -11.080  -3.240  1.00  0.00     0.027 C 
HETATM    9  C   UNL     1     -20.392 -10.919  -1.795  1.00  0.00     0.014 C 
HETATM   10  C   UNL     1     -21.577 -10.004  -1.767  1.00  0.00     0.035 C 
HETATM   11  C   UNL     1     -17.832  -9.776  -2.538  1.00  0.00     0.010 C 
HETATM   12  C   UNL     1     -16.426  -9.437  -2.964  1.00  0.00     0.002 C 
HETATM   13  C   UNL     1     -15.858 -10.685  -3.607  1.00  0.00     0.020 C 
HETATM   14  C   UNL     1     -16.493 -10.968  -5.005  1.00  0.00     0.049 C 
HETATM   15  C   UNL     1     -16.106  -9.866  -6.004  1.00  0.00     0.026 C 
HETATM   16  C   UNL     1     -19.235  -8.804  -4.315  1.00  0.00     0.016 C 
ENDROOT
BRANCH  14  17
HETATM   17  C   UNL     1     -15.705 -12.210  -5.465  1.00  0.00     0.267 C 
HETATM   18  O   UNL     1     -15.982 -13.349  -5.093  1.00  0.00    -0.264 OA
BRANCH  17  19
HETATM   19  O   UNL     1     -14.778 -11.958  -6.439  1.00  0.00    -0.326 OA
HETATM   20  C   UNL     1     -13.550 -12.684  -6.351  1.00  0.00     0.213 C 
ENDBRANCH  17  19
ENDBRANCH  14  17
BRANCH   1  21
HETATM   21  C   UNL     1     -23.583 -11.497  -1.584  1.00  0.00     0.006 C 
HETATM   22  C   UNL     1     -23.387 -13.007  -1.464  1.00  0.00     0.014 C 
HETATM   23  C   UNL     1     -23.847 -10.835  -0.236  1.00  0.00     0.014 C 
ENDBRANCH   1  21
TORSDOF 3
BEGIN_RES ARG D 557
REMARK  4 active torsions:
REMARK  status: ('A' for Active; 'I' for Inactive)
REMARK    1  A    between atoms: CA   and  CB  
REMARK    2  A    between atoms: CB   and  CG  
REMARK    3  A    between atoms: CG   and  CD  
REMARK    4  A    between atoms: CD   and  NE  
REMARK       I    between atoms: NE   and  CZ  
REMARK       I    between atoms: CZ   and  NH1 
REMARK       I    between atoms: CZ   and  NH2 
ROOT
ATOM      1  CA  ARG D 557     -26.217   2.705 -17.014  1.00 35.49     0.159 C 
ENDROOT
BRANCH   1   2
ATOM      2  CB  ARG D 557     -26.789   1.319 -17.183  1.00 35.49     0.034 C 
BRANCH   2   3
ATOM      3  CG  ARG D 557     -25.836   0.203 -17.158  1.00 35.49     0.027 C 
BRANCH   3   4
ATOM      4  CD  ARG D 557     -24.752   0.409 -16.170  1.00 35.49     0.116 C 
BRANCH   4   5
ATOM      5  NE  ARG D 557     -24.902  -0.437 -15.015  1.00 35.49    -0.212 N 
ATOM      6  CZ  ARG D 557     -24.092  -1.412 -14.667  1.00 35.49     0.666 C 
ATOM      7  NH1 ARG D 557     -23.025  -1.734 -15.374  1.00 35.49    -0.235 N 
ATOM      8  NH2 ARG D 557     -24.372  -2.063 -13.575  1.00 35.49    -0.235 N 
ATOM      9  HH  ARG D 557     -22.821  -1.318 -16.095  1.00 35.49     0.174 HD
ATOM     10  HH  ARG D 557     -22.532  -2.378 -15.096  1.00 35.49     0.174 HD
ATOM     11  HH  ARG D 557     -25.063  -1.828 -13.134  1.00 35.49     0.174 HD
ATOM     12  HH  ARG D 557     -23.870  -2.696 -13.316  1.00 35.49     0.174 HD
ATOM     13  HE  ARG D 557     -25.603  -0.347 -14.542  1.00 35.49     0.178 HD
ENDBRANCH   4   5
ENDBRANCH   3   4
ENDBRANCH   2   3
ENDBRANCH   1   2
END_RES ARG D 557
BEGIN_RES GLU D 570
REMARK  3 active torsions:
REMARK  status: ('A' for Active; 'I' for Inactive)
REMARK    5  A    between atoms: CA   and  CB  
REMARK    6  A    between atoms: CB   and  CG  
REMARK    7  A    between atoms: CG   and  CD  
ROOT
ATOM     14  CA  GLU D 570     -18.033  -6.348 -13.375  1.00 32.92     0.160 C 
ENDROOT
BRANCH  14  15
ATOM     15  CB  GLU D 570     -19.500  -6.345 -13.794  1.00 32.92     0.043 C 
BRANCH  15  16
ATOM     16  CG  GLU D 570     -20.442  -5.530 -12.984  1.00 32.92     0.100 C 
BRANCH  16  17
ATOM     17  CD  GLU D 570     -21.738  -5.238 -13.704  1.00 32.92     0.185 C 
ATOM     18  OE1 GLU D 570     -22.317  -4.155 -13.491  1.00 32.92    -0.647 OA
ATOM     19  OE2 GLU D 570     -22.187  -6.108 -14.475  1.00 32.92    -0.647 OA
ENDBRANCH  16  17
ENDBRANCH  15  16
ENDBRANCH  14  15
END_RES GLU D 570
ENDMDL
MODEL 5
REMARK VINA RESULT:      -7.1      2.166      3.469
REMARK  3 active torsions:
REMARK  status: ('A' for Active; 'I' for Inactive)
REMARK    1  A    between atoms: C_2  and  C_4 
REMARK    2  A    between atoms: C_17  and  C_19 
REMARK    3  A    between atoms: C_19  and  O_21 
ROOT
HETATM    1  C   UNL     1     -21.622  -6.439  -4.931  1.00  0.00    -0.076 C 
HETATM    2  C   UNL     1     -21.665  -6.464  -3.570  1.00  0.00     0.010 C 
HETATM    3  C   UNL     1     -21.140  -7.644  -2.848  1.00  0.00    -0.057 C 
HETATM    4  C   UNL     1     -21.238  -7.924  -1.520  1.00  0.00    -0.019 C 
HETATM    5  C   UNL     1     -20.684  -9.239  -0.872  1.00  0.00     0.034 C 
HETATM    6  C   UNL     1     -19.921 -10.177  -1.875  1.00  0.00     0.016 C 
HETATM    7  C   UNL     1     -20.674 -10.085  -3.279  1.00  0.00    -0.031 C 
HETATM    8  C   UNL     1     -20.322  -8.617  -3.697  1.00  0.00     0.027 C 
HETATM    9  C   UNL     1     -20.210  -8.312  -5.192  1.00  0.00     0.014 C 
HETATM   10  C   UNL     1     -21.508  -7.746  -5.677  1.00  0.00     0.035 C 
HETATM   11  C   UNL     1     -20.190 -11.086  -4.346  1.00  0.00     0.010 C 
HETATM   12  C   UNL     1     -19.948 -12.464  -3.785  1.00  0.00     0.002 C 
HETATM   13  C   UNL     1     -18.864 -12.319  -2.737  1.00  0.00     0.020 C 
HETATM   14  C   UNL     1     -19.381 -11.602  -1.450  1.00  0.00     0.049 C 
HETATM   15  C   UNL     1     -20.429 -12.471  -0.736  1.00  0.00     0.026 C 
HETATM   16  C   UNL     1     -22.221 -10.325  -3.177  1.00  0.00     0.016 C 
ENDROOT
BRANCH  14  17
HETATM   17  C   UNL     1     -18.139 -11.653  -0.539  1.00  0.00     0.267 C 
HETATM   18  O   UNL     1     -18.191 -12.009   0.637  1.00  0.00    -0.264 OA
BRANCH  17  19
HETATM   19  O   UNL     1     -16.957 -11.425  -1.189  1.00  0.00    -0.326 OA
HETATM   20  C   UNL     1     -15.773 -11.880  -0.531  1.00  0.00     0.213 C 
ENDBRANCH  17  19
ENDBRANCH  14  17
BRANCH   1  21
HETATM   21  C   UNL     1     -21.163  -5.266  -5.801  1.00  0.00     0.006 C 
HETATM   22  C   UNL     1     -19.861  -4.586  -5.379  1.00  0.00     0.014 C 
HETATM   23  C   UNL     1     -21.258  -5.453  -7.311  1.00  0.00     0.014 C 
ENDBRANCH   1  21
TORSDOF 3
BEGIN_RES ARG D 557
REMARK  4 active torsions:
REMARK  status: ('A' for Active; 'I' for Inactive)
REMARK    1  A    between atoms: CA   and  CB  
REMARK    2  A    between atoms: CB   and  CG  
REMARK    3  A    between atoms: CG   and  CD  
REMARK    4  A    between atoms: CD   and  NE  
REMARK       I    between atoms: NE   and  CZ  
REMARK       I    between atoms: CZ   and  NH1 
REMARK       I    between atoms: CZ   and  NH2 
ROOT
ATOM      1  CA  ARG D 557     -26.217   2.705 -17.014  1.00 35.49     0.159 C 
ENDROOT
BRANCH   1   2
ATOM      2  CB  ARG D 557     -26.789   1.319 -17.183  1.00 35.49     0.034 C 
BRANCH   2   3
ATOM      3  CG  ARG D 557     -25.837   0.202 -17.143  1.00 35.49     0.027 C 
BRANCH   3   4
ATOM      4  CD  ARG D 557     -24.757   0.416 -16.153  1.00 35.49     0.116 C 
BRANCH   4   5
ATOM      5  NE  ARG D 557     -24.899  -0.438 -15.003  1.00 35.49    -0.212 N 
ATOM      6  CZ  ARG D 557     -24.084  -1.410 -14.662  1.00 35.49     0.666 C 
ATOM      7  NH1 ARG D 557     -23.018  -1.724 -15.376  1.00 35.49    -0.235 N 
ATOM      8  NH2 ARG D 557     -24.356  -2.068 -13.573  1.00 35.49    -0.235 N 
ATOM      9  HH  ARG D 557     -22.818  -1.303 -16.095  1.00 35.49     0.174 HD
ATOM     10  HH  ARG D 557     -22.521  -2.366 -15.103  1.00 35.49     0.174 HD
ATOM     11  HH  ARG D 557     -25.047  -1.839 -13.129  1.00 35.49     0.174 HD
ATOM     12  HH  ARG D 557     -23.850  -2.700 -13.319  1.00 35.49     0.174 HD
ATOM     13  HE  ARG D 557     -25.599  -0.353 -14.527  1.00 35.49     0.178 HD
ENDBRANCH   4   5
ENDBRANCH   3   4
ENDBRANCH   2   3
ENDBRANCH   1   2
END_RES ARG D 557
BEGIN_RES GLU D 570
REMARK  3 active torsions:
REMARK  status: ('A' for Active; 'I' for Inactive)
REMARK    5  A    between atoms: CA   and  CB  
REMARK    6  A    between atoms: CB   and  CG  
REMARK    7  A    between atoms: CG   and  CD  
ROOT
ATOM     14  CA  GLU D 570     -18.033  -6.348 -13.375  1.00 32.92     0.160 C 
ENDROOT
BRANCH  14  15
ATOM     15  CB  GLU D 570     -19.500  -6.345 -13.794  1.00 32.92     0.043 C 
BRANCH  15  16
ATOM     16  CG  GLU D 570     -20.443  -5.536 -12.979  1.00 32.92     0.100 C 
BRANCH  16  17
ATOM     17  CD  GLU D 570     -21.725  -5.213 -13.710  1.00 32.92     0.185 C 
ATOM     18  OE1 GLU D 570     -22.301  -4.133 -13.474  1.00 32.92    -0.647 OA
ATOM     19  OE2 GLU D 570     -22.168  -6.056 -14.515  1.00 32.92    -0.647 OA
ENDBRANCH  16  17
ENDBRANCH  15  16
ENDBRANCH  14  15
END_RES GLU D 570
ENDMDL
MODEL 6
REMARK VINA RESULT:      -7.1      3.501      5.925
REMARK  3 active torsions:
REMARK  status: ('A' for Active; 'I' for Inactive)
REMARK    1  A    between atoms: C_2  and  C_4 
REMARK    2  A    between atoms: C_17  and  C_19 
REMARK    3  A    between atoms: C_19  and  O_21 
ROOT
HETATM    1  C   UNL     1     -21.452  -9.350  -0.814  1.00  0.00    -0.076 C 
HETATM    2  C   UNL     1     -20.913 -10.595  -0.703  1.00  0.00     0.010 C 
HETATM    3  C   UNL     1     -19.837 -11.007  -1.630  1.00  0.00    -0.057 C 
HETATM    4  C   UNL     1     -19.291 -12.244  -1.783  1.00  0.00    -0.019 C 
HETATM    5  C   UNL     1     -18.183 -12.575  -2.841  1.00  0.00     0.034 C 
HETATM    6  C   UNL     1     -17.686 -11.331  -3.660  1.00  0.00     0.016 C 
HETATM    7  C   UNL     1     -18.950 -10.390  -3.910  1.00  0.00    -0.031 C 
HETATM    8  C   UNL     1     -19.218  -9.877  -2.454  1.00  0.00     0.027 C 
HETATM    9  C   UNL     1     -19.829  -8.483  -2.293  1.00  0.00     0.014 C 
HETATM   10  C   UNL     1     -21.310  -8.612  -2.123  1.00  0.00     0.035 C 
HETATM   11  C   UNL     1     -18.705  -9.207  -4.866  1.00  0.00     0.010 C 
HETATM   12  C   UNL     1     -17.887  -9.593  -6.073  1.00  0.00     0.002 C 
HETATM   13  C   UNL     1     -16.549 -10.072  -5.550  1.00  0.00     0.020 C 
HETATM   14  C   UNL     1     -16.654 -11.465  -4.852  1.00  0.00     0.049 C 
HETATM   15  C   UNL     1     -17.028 -12.551  -5.873  1.00  0.00     0.026 C 
HETATM   16  C   UNL     1     -20.185 -11.145  -4.516  1.00  0.00     0.016 C 
ENDROOT
BRANCH  14  17
HETATM   17  C   UNL     1     -15.183 -11.751  -4.494  1.00  0.00     0.267 C 
HETATM   18  O   UNL     1     -14.846 -12.280  -3.437  1.00  0.00    -0.264 OA
BRANCH  17  19
HETATM   19  O   UNL     1     -14.301 -11.514  -5.513  1.00  0.00    -0.326 OA
HETATM   20  C   UNL     1     -13.379 -12.564  -5.812  1.00  0.00     0.213 C 
ENDBRANCH  17  19
ENDBRANCH  14  17
BRANCH   1  21
HETATM   21  C   UNL     1     -21.735  -8.380   0.337  1.00  0.00     0.006 C 
HETATM   22  C   UNL     1     -23.203  -8.028   0.573  1.00  0.00     0.014 C 
HETATM   23  C   UNL     1     -20.978  -8.620   1.638  1.00  0.00     0.014 C 
ENDBRANCH   1  21
TORSDOF 3
BEGIN_RES ARG D 557
REMARK  4 active torsions:
REMARK  status: ('A' for Active; 'I' for Inactive)
REMARK    1  A    between atoms: CA   and  CB  
REMARK    2  A    between atoms: CB   and  CG  
REMARK    3  A    between atoms: CG   and  CD  
REMARK    4  A    between atoms: CD   and  NE  
REMARK       I    between atoms: NE   and  CZ  
REMARK       I    between atoms: CZ   and  NH1 
REMARK       I    between atoms: CZ   and  NH2 
ROOT
ATOM      1  CA  ARG D 557     -26.217   2.705 -17.014  1.00 35.49     0.159 C 
ENDROOT
BRANCH   1   2
ATOM      2  CB  ARG D 557     -26.789   1.319 -17.183  1.00 35.49     0.034 C 
BRANCH   2   3
ATOM      3  CG  ARG D 557     -25.834   0.204 -17.171  1.00 35.49     0.027 C 
BRANCH   3   4
ATOM      4  CD  ARG D 557     -24.744   0.405 -16.189  1.00 35.49     0.116 C 
BRANCH   4   5
ATOM      5  NE  ARG D 557     -24.894  -0.438 -15.032  1.00 35.49    -0.212 N 
ATOM      6  CZ  ARG D 557     -24.082  -1.408 -14.678  1.00 35.49     0.666 C 
ATOM      7  NH1 ARG D 557     -23.013  -1.730 -15.382  1.00 35.49    -0.235 N 
ATOM      8  NH2 ARG D 557     -24.362  -2.056 -13.585  1.00 35.49    -0.235 N 
ATOM      9  HH  ARG D 557     -22.809  -1.316 -16.104  1.00 35.49     0.174 HD
ATOM     10  HH  ARG D 557     -22.518  -2.371 -15.101  1.00 35.49     0.174 HD
ATOM     11  HH  ARG D 557     -25.055  -1.821 -13.146  1.00 35.49     0.174 HD
ATOM     12  HH  ARG D 557     -23.859  -2.686 -13.322  1.00 35.49     0.174 HD
ATOM     13  HE  ARG D 557     -25.596  -0.347 -14.561  1.00 35.49     0.178 HD
ENDBRANCH   4   5
ENDBRANCH   3   4
ENDBRANCH   2   3
ENDBRANCH   1   2
END_RES ARG D 557
BEGIN_RES GLU D 570
REMARK  3 active torsions:
REMARK  status: ('A' for Active; 'I' for Inactive)
REMARK    5  A    between atoms: CA   and  CB  
REMARK    6  A    between atoms: CB   and  CG  
REMARK    7  A    between atoms: CG   and  CD  
ROOT
ATOM     14  CA  GLU D 570     -18.033  -6.348 -13.375  1.00 32.92     0.160 C 
ENDROOT
BRANCH  14  15
ATOM     15  CB  GLU D 570     -19.500  -6.345 -13.794  1.00 32.92     0.043 C 
BRANCH  15  16
ATOM     16  CG  GLU D 570     -20.440  -5.521 -12.990  1.00 32.92     0.100 C 
BRANCH  16  17
ATOM     17  CD  GLU D 570     -21.739  -5.240 -13.709  1.00 32.92     0.185 C 
ATOM     18  OE1 GLU D 570     -22.284  -4.129 -13.560  1.00 32.92    -0.647 OA
ATOM     19  OE2 GLU D 570     -22.225  -6.145 -14.414  1.00 32.92    -0.647 OA
ENDBRANCH  16  17
ENDBRANCH  15  16
ENDBRANCH  14  15
END_RES GLU D 570
ENDMDL
MODEL 7
REMARK VINA RESULT:      -6.9      3.939      6.289
REMARK  3 active torsions:
REMARK  status: ('A' for Active; 'I' for Inactive)
REMARK    1  A    between atoms: C_2  and  C_4 
REMARK    2  A    between atoms: C_17  and  C_19 
REMARK    3  A    between atoms: C_19  and  O_21 
ROOT
HETATM    1  C   UNL     1     -22.627 -10.691  -2.518  1.00  0.00    -0.076 C 
HETATM    2  C   UNL     1     -22.384 -11.038  -3.812  1.00  0.00     0.010 C 
HETATM    3  C   UNL     1     -20.989 -11.090  -4.300  1.00  0.00    -0.057 C 
HETATM    4  C   UNL     1     -20.555 -11.254  -5.579  1.00  0.00    -0.019 C 
HETATM    5  C   UNL     1     -19.042 -11.243  -5.987  1.00  0.00     0.034 C 
HETATM    6  C   UNL     1     -18.052 -11.112  -4.774  1.00  0.00     0.016 C 
HETATM    7  C   UNL     1     -18.729 -10.135  -3.710  1.00  0.00    -0.031 C 
HETATM    8  C   UNL     1     -19.915 -11.031  -3.213  1.00  0.00     0.027 C 
HETATM    9  C   UNL     1     -20.393 -10.841  -1.772  1.00  0.00     0.014 C 
HETATM   10  C   UNL     1     -21.573  -9.919  -1.763  1.00  0.00     0.035 C 
HETATM   11  C   UNL     1     -17.826  -9.726  -2.531  1.00  0.00     0.010 C 
HETATM   12  C   UNL     1     -16.417  -9.402  -2.961  1.00  0.00     0.002 C 
HETATM   13  C   UNL     1     -15.855 -10.664  -3.581  1.00  0.00     0.020 C 
HETATM   14  C   UNL     1     -16.489 -10.969  -4.975  1.00  0.00     0.049 C 
HETATM   15  C   UNL     1     -16.094  -9.887  -5.993  1.00  0.00     0.026 C 
HETATM   16  C   UNL     1     -19.221  -8.779  -4.327  1.00  0.00     0.016 C 
ENDROOT
BRANCH  14  17
HETATM   17  C   UNL     1     -15.707 -12.223  -5.410  1.00  0.00     0.267 C 
HETATM   18  O   UNL     1     -15.962 -13.348  -4.984  1.00  0.00    -0.264 OA
BRANCH  17  19
HETATM   19  O   UNL     1     -14.815 -12.004  -6.424  1.00  0.00    -0.326 OA
HETATM   20  C   UNL     1     -13.569 -12.698  -6.335  1.00  0.00     0.213 C 
ENDBRANCH  17  19
ENDBRANCH  14  17
BRANCH   1  21
HETATM   21  C   UNL     1     -23.587 -11.398  -1.556  1.00  0.00     0.006 C 
HETATM   22  C   UNL     1     -23.434 -12.914  -1.448  1.00  0.00     0.014 C 
HETATM   23  C   UNL     1     -23.809 -10.737  -0.200  1.00  0.00     0.014 C 
ENDBRANCH   1  21
TORSDOF 3
BEGIN_RES ARG D 557
REMARK  4 active torsions:
REMARK  status: ('A' for Active; 'I' for Inactive)
REMARK    1  A    between atoms: CA   and  CB  
REMARK    2  A    between atoms: CB   and  CG  
REMARK    3  A    between atoms: CG   and  CD  
REMARK    4  A    between atoms: CD   and  NE  
REMARK       I    between atoms: NE   and  CZ  
REMARK       I    between atoms: CZ   and  NH1 
REMARK       I    between atoms: CZ   and  NH2 
ROOT
ATOM      1  CA  ARG D 557     -26.217   2.705 -17.014  1.00 35.49     0.159 C 
ENDROOT
BRANCH   1   2
ATOM      2  CB  ARG D 557     -26.789   1.319 -17.183  1.00 35.49     0.034 C 
BRANCH   2   3
ATOM      3  CG  ARG D 557     -28.235   1.225 -17.417  1.00 35.49     0.027 C 
BRANCH   3   4
ATOM      4  CD  ARG D 557     -28.899   0.291 -16.479  1.00 35.49     0.116 C 
BRANCH   4   5
ATOM      5  NE  ARG D 557     -29.302  -0.931 -17.124  1.00 35.49    -0.212 N 
ATOM      6  CZ  ARG D 557     -28.680  -2.085 -17.040  1.00 35.49     0.666 C 
ATOM      7  NH1 ARG D 557     -27.573  -2.245 -16.339  1.00 35.49    -0.235 N 
ATOM      8  NH2 ARG D 557     -29.200  -3.095 -17.675  1.00 35.49    -0.235 N 
ATOM      9  HH  ARG D 557     -27.215  -1.595 -15.911  1.00 35.49     0.174 HD
ATOM     10  HH  ARG D 557     -27.213  -3.022 -16.318  1.00 35.49     0.174 HD
ATOM     11  HH  ARG D 557     -29.920  -2.964 -18.114  1.00 35.49     0.174 HD
ATOM     12  HH  ARG D 557     -28.830  -3.857 -17.641  1.00 35.49     0.174 HD
ATOM     13  HE  ARG D 557     -29.965  -0.902 -17.655  1.00 35.49     0.178 HD
ENDBRANCH   4   5
ENDBRANCH   3   4
ENDBRANCH   2   3
ENDBRANCH   1   2
END_RES ARG D 557
BEGIN_RES GLU D 570
REMARK  3 active torsions:
REMARK  status: ('A' for Active; 'I' for Inactive)
REMARK    5  A    between atoms: CA   and  CB  
REMARK    6  A    between atoms: CB   and  CG  
REMARK    7  A    between atoms: CG   and  CD  
ROOT
ATOM     14  CA  GLU D 570     -18.033  -6.348 -13.375  1.00 32.92     0.160 C 
ENDROOT
BRANCH  14  15
ATOM     15  CB  GLU D 570     -19.500  -6.345 -13.794  1.00 32.92     0.043 C 
BRANCH  15  16
ATOM     16  CG  GLU D 570     -20.445  -5.547 -12.971  1.00 32.92     0.100 C 
BRANCH  16  17
ATOM     17  CD  GLU D 570     -21.710  -5.183 -13.713  1.00 32.92     0.185 C 
ATOM     18  OE1 GLU D 570     -22.709  -4.819 -13.064  1.00 32.92    -0.647 OA
ATOM     19  OE2 GLU D 570     -21.707  -5.279 -14.956  1.00 32.92    -0.647 OA
ENDBRANCH  16  17
ENDBRANCH  15  16
ENDBRANCH  14  15
END_RES GLU D 570
ENDMDL
MODEL 8
REMARK VINA RESULT:      -6.7      3.197      5.741
REMARK  3 active torsions:
REMARK  status: ('A' for Active; 'I' for Inactive)
REMARK    1  A    between atoms: C_2  and  C_4 
REMARK    2  A    between atoms: C_17  and  C_19 
REMARK    3  A    between atoms: C_19  and  O_21 
ROOT
HETATM    1  C   UNL     1     -21.223  -9.092  -0.676  1.00  0.00    -0.076 C 
HETATM    2  C   UNL     1     -21.101  -8.436  -1.862  1.00  0.00     0.010 C 
HETATM    3  C   UNL     1     -20.298  -9.040  -2.948  1.00  0.00    -0.057 C 
HETATM    4  C   UNL     1     -19.929  -8.477  -4.130  1.00  0.00    -0.019 C 
HETATM    5  C   UNL     1     -19.029  -9.201  -5.188  1.00  0.00     0.034 C 
HETATM    6  C   UNL     1     -18.656 -10.679  -4.810  1.00  0.00     0.016 C 
HETATM    7  C   UNL     1     -18.443 -10.727  -3.230  1.00  0.00    -0.031 C 
HETATM    8  C   UNL     1     -19.913 -10.505  -2.736  1.00  0.00     0.027 C 
HETATM    9  C   UNL     1     -20.320 -11.146  -1.408  1.00  0.00     0.014 C 
HETATM   10  C   UNL     1     -20.193 -10.133  -0.313  1.00  0.00     0.035 C 
HETATM   11  C   UNL     1     -17.880 -12.053  -2.686  1.00  0.00     0.010 C 
HETATM   12  C   UNL     1     -16.775 -12.614  -3.545  1.00  0.00     0.002 C 
HETATM   13  C   UNL     1     -17.378 -12.872  -4.909  1.00  0.00     0.020 C 
HETATM   14  C   UNL     1     -17.666 -11.549  -5.687  1.00  0.00     0.049 C 
HETATM   15  C   UNL     1     -16.351 -10.830  -6.028  1.00  0.00     0.026 C 
HETATM   16  C   UNL     1     -17.459  -9.626  -2.696  1.00  0.00     0.016 C 
ENDROOT
BRANCH  14  17
HETATM   17  C   UNL     1     -18.186 -12.081  -7.036  1.00  0.00     0.267 C 
HETATM   18  O   UNL     1     -18.983 -11.457  -7.735  1.00  0.00    -0.264 OA
BRANCH  17  19
HETATM   19  O   UNL     1     -17.568 -13.224  -7.464  1.00  0.00    -0.326 OA
HETATM   20  C   UNL     1     -17.614 -13.483  -8.868  1.00  0.00     0.213 C 
ENDBRANCH  17  19
ENDBRANCH  14  17
BRANCH   1  21
HETATM   21  C   UNL     1     -22.518  -9.300   0.115  1.00  0.00     0.006 C 
HETATM   22  C   UNL     1     -23.222  -8.032   0.596  1.00  0.00     0.014 C 
HETATM   23  C   UNL     1     -23.495 -10.336  -0.429  1.00  0.00     0.014 C 
ENDBRANCH   1  21
TORSDOF 3
BEGIN_RES ARG D 557
REMARK  4 active torsions:
REMARK  status: ('A' for Active; 'I' for Inactive)
REMARK    1  A    between atoms: CA   and  CB  
REMARK    2  A    between atoms: CB   and  CG  
REMARK    3  A    between atoms: CG   and  CD  
REMARK    4  A    between atoms: CD   and  NE  
REMARK       I    between atoms: NE   and  CZ  
REMARK       I    between atoms: CZ   and  NH1 
REMARK       I    between atoms: CZ   and  NH2 
ROOT
ATOM      1  CA  ARG D 557     -26.217   2.705 -17.014  1.00 35.49     0.159 C 
ENDROOT
BRANCH   1   2
ATOM      2  CB  ARG D 557     -26.789   1.319 -17.183  1.00 35.49     0.034 C 
BRANCH   2   3
ATOM      3  CG  ARG D 557     -25.835   0.204 -17.165  1.00 35.49     0.027 C 
BRANCH   3   4
ATOM      4  CD  ARG D 557     -24.767   0.391 -16.156  1.00 35.49     0.116 C 
BRANCH   4   5
ATOM      5  NE  ARG D 557     -24.945  -0.463 -15.012  1.00 35.49    -0.212 N 
ATOM      6  CZ  ARG D 557     -24.147  -1.443 -14.653  1.00 35.49     0.666 C 
ATOM      7  NH1 ARG D 557     -23.067  -1.766 -15.341  1.00 35.49    -0.235 N 
ATOM      8  NH2 ARG D 557     -24.452  -2.101 -13.573  1.00 35.49    -0.235 N 
ATOM      9  HH  ARG D 557     -22.846  -1.345 -16.053  1.00 35.49     0.174 HD
ATOM     10  HH  ARG D 557     -22.582  -2.413 -15.057  1.00 35.49     0.174 HD
ATOM     11  HH  ARG D 557     -25.152  -1.866 -13.145  1.00 35.49     0.174 HD
ATOM     12  HH  ARG D 557     -23.959  -2.738 -13.308  1.00 35.49     0.174 HD
ATOM     13  HE  ARG D 557     -25.655  -0.372 -14.553  1.00 35.49     0.178 HD
ENDBRANCH   4   5
ENDBRANCH   3   4
ENDBRANCH   2   3
ENDBRANCH   1   2
END_RES ARG D 557
BEGIN_RES GLU D 570
REMARK  3 active torsions:
REMARK  status: ('A' for Active; 'I' for Inactive)
REMARK    5  A    between atoms: CA   and  CB  
REMARK    6  A    between atoms: CB   and  CG  
REMARK    7  A    between atoms: CG   and  CD  
ROOT
ATOM     14  CA  GLU D 570     -18.033  -6.348 -13.375  1.00 32.92     0.160 C 
ENDROOT
BRANCH  14  15
ATOM     15  CB  GLU D 570     -19.500  -6.345 -13.794  1.00 32.92     0.043 C 
BRANCH  15  16
ATOM     16  CG  GLU D 570     -20.443  -5.537 -12.978  1.00 32.92     0.100 C 
BRANCH  16  17
ATOM     17  CD  GLU D 570     -21.637  -5.052 -13.766  1.00 32.92     0.185 C 
ATOM     18  OE1 GLU D 570     -22.362  -4.162 -13.280  1.00 32.92    -0.647 OA
ATOM     19  OE2 GLU D 570     -21.860  -5.578 -14.874  1.00 32.92    -0.647 OA
ENDBRANCH  16  17
ENDBRANCH  15  16
ENDBRANCH  14  15
END_RES GLU D 570
ENDMDL
MODEL 9
REMARK VINA RESULT:      -6.6     14.322     15.882
REMARK  3 active torsions:
REMARK  status: ('A' for Active; 'I' for Inactive)
REMARK    1  A    between atoms: C_2  and  C_4 
REMARK    2  A    between atoms: C_17  and  C_19 
REMARK    3  A    between atoms: C_19  and  O_21 
ROOT
HETATM    1  C   UNL     1     -24.393   8.157  -1.259  1.00  0.00    -0.076 C 
HETATM    2  C   UNL     1     -23.707   8.526  -0.143  1.00  0.00     0.010 C 
HETATM    3  C   UNL     1     -24.454   8.897   1.080  1.00  0.00    -0.057 C 
HETATM    4  C   UNL     1     -23.965   9.439   2.228  1.00  0.00    -0.019 C 
HETATM    5  C   UNL     1     -24.866   9.839   3.446  1.00  0.00     0.034 C 
HETATM    6  C   UNL     1     -26.384   9.478   3.268  1.00  0.00     0.016 C 
HETATM    7  C   UNL     1     -26.751   9.711   1.732  1.00  0.00    -0.031 C 
HETATM    8  C   UNL     1     -25.943   8.546   1.065  1.00  0.00     0.027 C 
HETATM    9  C   UNL     1     -26.502   7.940  -0.223  1.00  0.00     0.014 C 
HETATM   10  C   UNL     1     -25.834   8.582  -1.399  1.00  0.00     0.035 C 
HETATM   11  C   UNL     1     -28.249   9.596   1.394  1.00  0.00     0.010 C 
HETATM   12  C   UNL     1     -29.131  10.263   2.419  1.00  0.00     0.002 C 
HETATM   13  C   UNL     1     -28.880   9.552   3.732  1.00  0.00     0.020 C 
HETATM   14  C   UNL     1     -27.479   9.896   4.330  1.00  0.00     0.049 C 
HETATM   15  C   UNL     1     -27.416  11.379   4.731  1.00  0.00     0.026 C 
HETATM   16  C   UNL     1     -26.326  11.122   1.192  1.00  0.00     0.016 C 
ENDROOT
BRANCH  14  17
HETATM   17  C   UNL     1     -27.508   9.128   5.666  1.00  0.00     0.267 C 
HETATM   18  O   UNL     1     -27.294   9.669   6.749  1.00  0.00    -0.264 OA
BRANCH  17  19
HETATM   19  O   UNL     1     -27.948   7.837   5.561  1.00  0.00    -0.326 OA
HETATM   20  C   UNL     1     -27.791   7.017   6.721  1.00  0.00     0.213 C 
ENDBRANCH  17  19
ENDBRANCH  14  17
BRANCH   1  21
HETATM   21  C   UNL     1     -24.083   6.954  -2.156  1.00  0.00     0.006 C 
HETATM   22  C   UNL     1     -23.825   5.630  -1.438  1.00  0.00     0.014 C 
HETATM   23  C   UNL     1     -24.950   6.783  -3.398  1.00  0.00     0.014 C 
ENDBRANCH   1  21
TORSDOF 3
BEGIN_RES ARG D 557
REMARK  4 active torsions:
REMARK  status: ('A' for Active; 'I' for Inactive)
REMARK    1  A    between atoms: CA   and  CB  
REMARK    2  A    between atoms: CB   and  CG  
REMARK    3  A    between atoms: CG   and  CD  
REMARK    4  A    between atoms: CD   and  NE  
REMARK       I    between atoms: NE   and  CZ  
REMARK       I    between atoms: CZ   and  NH1 
REMARK       I    between atoms: CZ   and  NH2 
ROOT
ATOM      1  CA  ARG D 557     -26.217   2.705 -17.014  1.00 35.49     0.159 C 
ENDROOT
BRANCH   1   2
ATOM      2  CB  ARG D 557     -26.789   1.319 -17.183  1.00 35.49     0.034 C 
BRANCH   2   3
ATOM      3  CG  ARG D 557     -25.875   0.194 -16.950  1.00 35.49     0.027 C 
BRANCH   3   4
ATOM      4  CD  ARG D 557     -26.331  -0.685 -15.849  1.00 35.49     0.116 C 
BRANCH   4   5
ATOM      5  NE  ARG D 557     -25.283  -0.951 -14.899  1.00 35.49    -0.212 N 
ATOM      6  CZ  ARG D 557     -25.011  -2.120 -14.363  1.00 35.49     0.666 C 
ATOM      7  NH1 ARG D 557     -25.706  -3.207 -14.642  1.00 35.49    -0.235 N 
ATOM      8  NH2 ARG D 557     -24.009  -2.182 -13.535  1.00 35.49    -0.235 N 
ATOM      9  HH  ARG D 557     -26.368  -3.189 -15.186  1.00 35.49     0.174 HD
ATOM     10  HH  ARG D 557     -25.481  -3.942 -14.264  1.00 35.49     0.174 HD
ATOM     11  HH  ARG D 557     -23.573  -1.466 -13.380  1.00 35.49     0.174 HD
ATOM     12  HH  ARG D 557     -23.801  -2.920 -13.172  1.00 35.49     0.174 HD
ATOM     13  HE  ARG D 557     -24.831  -0.292 -14.608  1.00 35.49     0.178 HD
ENDBRANCH   4   5
ENDBRANCH   3   4
ENDBRANCH   2   3
ENDBRANCH   1   2
END_RES ARG D 557
BEGIN_RES GLU D 570
REMARK  3 active torsions:
REMARK  status: ('A' for Active; 'I' for Inactive)
REMARK    5  A    between atoms: CA   and  CB  
REMARK    6  A    between atoms: CB   and  CG  
REMARK    7  A    between atoms: CG   and  CD  
ROOT
ATOM     14  CA  GLU D 570     -18.033  -6.348 -13.375  1.00 32.92     0.160 C 
ENDROOT
BRANCH  14  15
ATOM     15  CB  GLU D 570     -19.500  -6.345 -13.794  1.00 32.92     0.043 C 
BRANCH  15  16
ATOM     16  CG  GLU D 570     -20.448  -5.561 -12.961  1.00 32.92     0.100 C 
BRANCH  16  17
ATOM     17  CD  GLU D 570     -21.702  -5.167 -13.707  1.00 32.92     0.185 C 
ATOM     18  OE1 GLU D 570     -21.646  -5.008 -14.942  1.00 32.92    -0.647 OA
ATOM     19  OE2 GLU D 570     -22.746  -5.000 -13.048  1.00 32.92    -0.647 OA
ENDBRANCH  16  17
ENDBRANCH  15  16
ENDBRANCH  14  15
END_RES GLU D 570
ENDMDL
