MODEL 1
REMARK VINA RESULT:      -7.1      0.000      0.000
REMARK  26 active torsions:
REMARK  status: ('A' for Active; 'I' for Inactive)
REMARK    1  A    between atoms: C_2  and  C_3 
REMARK    2  A    between atoms: C_3  and  C_4 
REMARK    3  A    between atoms: C_4  and  C_5 
REMARK    4  A    between atoms: C_5  and  C_6 
REMARK    5  A    between atoms: C_6  and  C_7 
REMARK    6  A    between atoms: C_7  and  C_8 
REMARK    7  A    between atoms: C_8  and  C_9 
REMARK    8  A    between atoms: C_9  and  C_10 
REMARK    9  A    between atoms: C_10  and  C_11 
REMARK   10  A    between atoms: C_11  and  C_12 
REMARK   11  A    between atoms: C_12  and  C_13 
REMARK   12  A    between atoms: C_13  and  C_14 
REMARK   13  A    between atoms: C_14  and  O_15 
REMARK   14  A    between atoms: O_15  and  C_16 
REMARK   15  A    between atoms: C_16  and  C_18 
REMARK   16  A    between atoms: C_18  and  C_19 
REMARK   17  A    between atoms: C_19  and  C_20 
REMARK   18  A    between atoms: C_20  and  C_21 
REMARK   19  A    between atoms: C_21  and  C_22 
REMARK   20  A    between atoms: C_22  and  C_23 
REMARK   21  A    between atoms: C_23  and  C_24 
REMARK   22  A    between atoms: C_24  and  C_25 
REMARK   23  A    between atoms: C_25  and  C_26 
REMARK   24  A    between atoms: C_26  and  C_27 
REMARK   25  A    between atoms: C_27  and  C_28 
REMARK   26  A    between atoms: C_28  and  C_29 
ROOT
HETATM    1  O   UNL     1     -25.188  -7.078 -15.012  1.00  0.00    -0.321 OA
ENDROOT
BRANCH   1   2
HETATM    2  C   UNL     1     -23.944  -6.371 -15.069  1.00  0.00     0.178 C 
BRANCH   2   3
HETATM    3  C   UNL     1     -23.593  -5.812 -13.697  1.00  0.00     0.027 C 
BRANCH   3   4
HETATM    4  C   UNL     1     -22.507  -4.749 -13.808  1.00  0.00     0.002 C 
BRANCH   4   5
HETATM    5  C   UNL     1     -21.911  -4.445 -12.441  1.00  0.00     0.000 C 
BRANCH   5   6
HETATM    6  C   UNL     1     -22.926  -4.723 -11.343  1.00  0.00     0.000 C 
BRANCH   6   7
HETATM    7  C   UNL     1     -22.322  -4.424  -9.981  1.00  0.00     0.000 C 
BRANCH   7   8
HETATM    8  C   UNL     1     -20.823  -4.217 -10.108  1.00  0.00     0.000 C 
BRANCH   8   9
HETATM    9  C   UNL     1     -20.141  -4.527  -8.787  1.00  0.00     0.000 C 
BRANCH   9  10
HETATM   10  C   UNL     1     -20.827  -3.778  -7.659  1.00  0.00     0.000 C 
BRANCH  10  11
HETATM   11  C   UNL     1     -20.879  -4.645  -6.412  1.00  0.00     0.000 C 
BRANCH  11  12
HETATM   12  C   UNL     1     -21.127  -6.094  -6.793  1.00  0.00     0.000 C 
BRANCH  12  13
HETATM   13  C   UNL     1     -20.616  -7.019  -5.699  1.00  0.00    -0.000 C 
BRANCH  13  14
HETATM   14  C   UNL     1     -21.726  -7.341  -4.708  1.00  0.00    -0.005 C 
HETATM   15  C   UNL     1     -21.566  -8.751  -4.174  1.00  0.00     0.005 C 
ENDBRANCH  13  14
ENDBRANCH  12  13
ENDBRANCH  11  12
ENDBRANCH  10  11
ENDBRANCH   9  10
ENDBRANCH   8   9
ENDBRANCH   7   8
ENDBRANCH   6   7
ENDBRANCH   5   6
ENDBRANCH   4   5
ENDBRANCH   3   4
ENDBRANCH   2   3
ENDBRANCH   1   2
BRANCH   1  16
HETATM   16  C   UNL     1     -26.156  -6.529 -15.808  1.00  0.00     0.258 C 
HETATM   17  O   UNL     1     -25.989  -5.599 -16.573  1.00  0.00    -0.265 OA
BRANCH  16  18
HETATM   18  C   UNL     1     -27.484  -7.222 -15.600  1.00  0.00     0.111 C 
BRANCH  18  19
HETATM   19  C   UNL     1     -28.612  -6.210 -15.428  1.00  0.00     0.010 C 
BRANCH  19  20
HETATM   20  C   UNL     1     -29.494  -6.109 -16.668  1.00  0.00     0.000 C 
BRANCH  20  21
HETATM   21  C   UNL     1     -29.251  -4.784 -17.381  1.00  0.00     0.000 C 
BRANCH  21  22
HETATM   22  C   UNL     1     -28.930  -5.016 -18.849  1.00  0.00     0.000 C 
BRANCH  22  23
HETATM   23  C   UNL     1     -28.241  -6.358 -19.034  1.00  0.00     0.000 C 
BRANCH  23  24
HETATM   24  C   UNL     1     -27.014  -6.197 -19.915  1.00  0.00     0.000 C 
BRANCH  24  25
HETATM   25  C   UNL     1     -26.599  -7.541 -20.486  1.00  0.00     0.000 C 
BRANCH  25  26
HETATM   26  C   UNL     1     -25.084  -7.632 -20.559  1.00  0.00     0.000 C 
BRANCH  26  27
HETATM   27  C   UNL     1     -24.587  -7.039 -21.867  1.00  0.00     0.000 C 
BRANCH  27  28
HETATM   28  C   UNL     1     -23.679  -8.028 -22.580  1.00  0.00    -0.000 C 
BRANCH  28  29
HETATM   29  C   UNL     1     -22.621  -8.565 -21.626  1.00  0.00    -0.005 C 
HETATM   30  C   UNL     1     -21.535  -9.292 -22.395  1.00  0.00     0.005 C 
ENDBRANCH  28  29
ENDBRANCH  27  28
ENDBRANCH  26  27
ENDBRANCH  25  26
ENDBRANCH  24  25
ENDBRANCH  23  24
ENDBRANCH  22  23
ENDBRANCH  21  22
ENDBRANCH  20  21
ENDBRANCH  19  20
ENDBRANCH  18  19
ENDBRANCH  16  18
ENDBRANCH   1  16
TORSDOF 26
BEGIN_RES ARG D 557
REMARK  4 active torsions:
REMARK  status: ('A' for Active; 'I' for Inactive)
REMARK    1  A    between atoms: CA   and  CB  
REMARK    2  A    between atoms: CB   and  CG  
REMARK    3  A    between atoms: CG   and  CD  
REMARK    4  A    between atoms: CD   and  NE  
REMARK       I    between atoms: NE   and  CZ  
REMARK       I    between atoms: CZ   and  NH1 
REMARK       I    between atoms: CZ   and  NH2 
ROOT
ATOM      1  CA  ARG D 557     -26.217   2.705 -17.014  1.00 35.49     0.159 C 
ENDROOT
BRANCH   1   2
ATOM      2  CB  ARG D 557     -26.789   1.319 -17.183  1.00 35.49     0.034 C 
BRANCH   2   3
ATOM      3  CG  ARG D 557     -25.858   0.196 -17.020  1.00 35.49     0.027 C 
BRANCH   3   4
ATOM      4  CD  ARG D 557     -26.337  -0.795 -16.029  1.00 35.49     0.116 C 
BRANCH   4   5
ATOM      5  NE  ARG D 557     -25.403  -0.976 -14.949  1.00 35.49    -0.212 N 
ATOM      6  CZ  ARG D 557     -25.233  -2.081 -14.258  1.00 35.49     0.666 C 
ATOM      7  NH1 ARG D 557     -25.938  -3.174 -14.484  1.00 35.49    -0.235 N 
ATOM      8  NH2 ARG D 557     -24.325  -2.072 -13.326  1.00 35.49    -0.235 N 
ATOM      9  HH  ARG D 557     -26.540  -3.203 -15.093  1.00 35.49     0.174 HD
ATOM     10  HH  ARG D 557     -25.781  -3.866 -14.003  1.00 35.49     0.174 HD
ATOM     11  HH  ARG D 557     -23.879  -1.355 -13.208  1.00 35.49     0.174 HD
ATOM     12  HH  ARG D 557     -24.183  -2.768 -12.862  1.00 35.49     0.174 HD
ATOM     13  HE  ARG D 557     -24.958  -0.300 -14.688  1.00 35.49     0.178 HD
ENDBRANCH   4   5
ENDBRANCH   3   4
ENDBRANCH   2   3
ENDBRANCH   1   2
END_RES ARG D 557
BEGIN_RES GLU D 570
REMARK  3 active torsions:
REMARK  status: ('A' for Active; 'I' for Inactive)
REMARK    5  A    between atoms: CA   and  CB  
REMARK    6  A    between atoms: CB   and  CG  
REMARK    7  A    between atoms: CG   and  CD  
ROOT
ATOM     14  CA  GLU D 570     -18.033  -6.348 -13.375  1.00 32.92     0.160 C 
ENDROOT
BRANCH  14  15
ATOM     15  CB  GLU D 570     -19.500  -6.345 -13.794  1.00 32.92     0.043 C 
BRANCH  15  16
ATOM     16  CG  GLU D 570     -20.093  -7.639 -14.221  1.00 32.92     0.100 C 
BRANCH  16  17
ATOM     17  CD  GLU D 570     -20.530  -7.639 -15.667  1.00 32.92     0.185 C 
ATOM     18  OE1 GLU D 570     -20.785  -8.724 -16.222  1.00 32.92    -0.647 OA
ATOM     19  OE2 GLU D 570     -20.601  -6.542 -16.256  1.00 32.92    -0.647 OA
ENDBRANCH  16  17
ENDBRANCH  15  16
ENDBRANCH  14  15
END_RES GLU D 570
ENDMDL
MODEL 2
REMARK VINA RESULT:      -7.1      2.863     11.687
REMARK  26 active torsions:
REMARK  status: ('A' for Active; 'I' for Inactive)
REMARK    1  A    between atoms: C_2  and  C_3 
REMARK    2  A    between atoms: C_3  and  C_4 
REMARK    3  A    between atoms: C_4  and  C_5 
REMARK    4  A    between atoms: C_5  and  C_6 
REMARK    5  A    between atoms: C_6  and  C_7 
REMARK    6  A    between atoms: C_7  and  C_8 
REMARK    7  A    between atoms: C_8  and  C_9 
REMARK    8  A    between atoms: C_9  and  C_10 
REMARK    9  A    between atoms: C_10  and  C_11 
REMARK   10  A    between atoms: C_11  and  C_12 
REMARK   11  A    between atoms: C_12  and  C_13 
REMARK   12  A    between atoms: C_13  and  C_14 
REMARK   13  A    between atoms: C_14  and  O_15 
REMARK   14  A    between atoms: O_15  and  C_16 
REMARK   15  A    between atoms: C_16  and  C_18 
REMARK   16  A    between atoms: C_18  and  C_19 
REMARK   17  A    between atoms: C_19  and  C_20 
REMARK   18  A    between atoms: C_20  and  C_21 
REMARK   19  A    between atoms: C_21  and  C_22 
REMARK   20  A    between atoms: C_22  and  C_23 
REMARK   21  A    between atoms: C_23  and  C_24 
REMARK   22  A    between atoms: C_24  and  C_25 
REMARK   23  A    between atoms: C_25  and  C_26 
REMARK   24  A    between atoms: C_26  and  C_27 
REMARK   25  A    between atoms: C_27  and  C_28 
REMARK   26  A    between atoms: C_28  and  C_29 
ROOT
HETATM    1  O   UNL     1     -23.152  -2.972 -10.578  1.00  0.00    -0.321 OA
ENDROOT
BRANCH   1   2
HETATM    2  C   UNL     1     -23.507  -2.737 -11.946  1.00  0.00     0.178 C 
BRANCH   2   3
HETATM    3  C   UNL     1     -22.384  -3.191 -12.867  1.00  0.00     0.027 C 
BRANCH   3   4
HETATM    4  C   UNL     1     -22.486  -4.685 -13.148  1.00  0.00     0.002 C 
BRANCH   4   5
HETATM    5  C   UNL     1     -23.244  -4.938 -14.443  1.00  0.00     0.000 C 
BRANCH   5   6
HETATM    6  C   UNL     1     -23.855  -6.331 -14.440  1.00  0.00     0.000 C 
BRANCH   6   7
HETATM    7  C   UNL     1     -24.377  -6.680 -15.824  1.00  0.00     0.000 C 
BRANCH   7   8
HETATM    8  C   UNL     1     -25.825  -7.131 -15.739  1.00  0.00     0.000 C 
BRANCH   8   9
HETATM    9  C   UNL     1     -26.684  -6.305 -16.680  1.00  0.00     0.000 C 
BRANCH   9  10
HETATM   10  C   UNL     1     -28.154  -6.567 -16.407  1.00  0.00     0.000 C 
BRANCH  10  11
HETATM   11  C   UNL     1     -28.934  -6.576 -17.710  1.00  0.00     0.000 C 
BRANCH  11  12
HETATM   12  C   UNL     1     -30.201  -7.399 -17.556  1.00  0.00     0.000 C 
BRANCH  12  13
HETATM   13  C   UNL     1     -31.419  -6.488 -17.536  1.00  0.00    -0.000 C 
BRANCH  13  14
HETATM   14  C   UNL     1     -31.143  -5.243 -16.704  1.00  0.00    -0.005 C 
HETATM   15  C   UNL     1     -31.707  -4.013 -17.388  1.00  0.00     0.005 C 
ENDBRANCH  13  14
ENDBRANCH  12  13
ENDBRANCH  11  12
ENDBRANCH  10  11
ENDBRANCH   9  10
ENDBRANCH   8   9
ENDBRANCH   7   8
ENDBRANCH   6   7
ENDBRANCH   5   6
ENDBRANCH   4   5
ENDBRANCH   3   4
ENDBRANCH   2   3
ENDBRANCH   1   2
BRANCH   1  16
HETATM   16  C   UNL     1     -24.195  -3.438  -9.824  1.00  0.00     0.258 C 
HETATM   17  O   UNL     1     -25.371  -3.317 -10.104  1.00  0.00    -0.265 OA
BRANCH  16  18
HETATM   18  C   UNL     1     -23.692  -4.118  -8.570  1.00  0.00     0.111 C 
BRANCH  18  19
HETATM   19  C   UNL     1     -22.179  -4.306  -8.614  1.00  0.00     0.010 C 
BRANCH  19  20
HETATM   20  C   UNL     1     -21.475  -3.611  -7.453  1.00  0.00     0.000 C 
BRANCH  20  21
HETATM   21  C   UNL     1     -20.083  -4.199  -7.255  1.00  0.00     0.000 C 
BRANCH  21  22
HETATM   22  C   UNL     1     -20.031  -5.037  -5.987  1.00  0.00     0.000 C 
BRANCH  22  23
HETATM   23  C   UNL     1     -20.207  -6.509  -6.318  1.00  0.00     0.000 C 
BRANCH  23  24
HETATM   24  C   UNL     1     -20.637  -7.275  -5.078  1.00  0.00     0.000 C 
BRANCH  24  25
HETATM   25  C   UNL     1     -21.810  -6.578  -4.412  1.00  0.00     0.000 C 
BRANCH  25  26
HETATM   26  C   UNL     1     -21.439  -6.171  -2.996  1.00  0.00     0.000 C 
BRANCH  26  27
HETATM   27  C   UNL     1     -20.775  -7.333  -2.275  1.00  0.00     0.000 C 
BRANCH  27  28
HETATM   28  C   UNL     1     -21.817  -8.147  -1.524  1.00  0.00    -0.000 C 
BRANCH  28  29
HETATM   29  C   UNL     1     -22.515  -7.288  -0.480  1.00  0.00    -0.005 C 
HETATM   30  C   UNL     1     -23.153  -8.160   0.584  1.00  0.00     0.005 C 
ENDBRANCH  28  29
ENDBRANCH  27  28
ENDBRANCH  26  27
ENDBRANCH  25  26
ENDBRANCH  24  25
ENDBRANCH  23  24
ENDBRANCH  22  23
ENDBRANCH  21  22
ENDBRANCH  20  21
ENDBRANCH  19  20
ENDBRANCH  18  19
ENDBRANCH  16  18
ENDBRANCH   1  16
TORSDOF 26
BEGIN_RES ARG D 557
REMARK  4 active torsions:
REMARK  status: ('A' for Active; 'I' for Inactive)
REMARK    1  A    between atoms: CA   and  CB  
REMARK    2  A    between atoms: CB   and  CG  
REMARK    3  A    between atoms: CG   and  CD  
REMARK    4  A    between atoms: CD   and  NE  
REMARK       I    between atoms: NE   and  CZ  
REMARK       I    between atoms: CZ   and  NH1 
REMARK       I    between atoms: CZ   and  NH2 
ROOT
ATOM      1  CA  ARG D 557     -26.217   2.705 -17.014  1.00 35.49     0.159 C 
ENDROOT
BRANCH   1   2
ATOM      2  CB  ARG D 557     -26.789   1.319 -17.183  1.00 35.49     0.034 C 
BRANCH   2   3
ATOM      3  CG  ARG D 557     -28.219   1.155 -16.895  1.00 35.49     0.027 C 
BRANCH   3   4
ATOM      4  CD  ARG D 557     -28.605  -0.267 -16.748  1.00 35.49     0.116 C 
BRANCH   4   5
ATOM      5  NE  ARG D 557     -27.619  -1.025 -16.025  1.00 35.49    -0.212 N 
ATOM      6  CZ  ARG D 557     -27.453  -2.328 -16.087  1.00 35.49     0.666 C 
ATOM      7  NH1 ARG D 557     -28.213  -3.104 -16.838  1.00 35.49    -0.235 N 
ATOM      8  NH2 ARG D 557     -26.492  -2.845 -15.378  1.00 35.49    -0.235 N 
ATOM      9  HH  ARG D 557     -28.849  -2.784 -17.314  1.00 35.49     0.174 HD
ATOM     10  HH  ARG D 557     -28.057  -3.946 -16.841  1.00 35.49     0.174 HD
ATOM     11  HH  ARG D 557     -26.013  -2.319 -14.909  1.00 35.49     0.174 HD
ATOM     12  HH  ARG D 557     -26.352  -3.682 -15.396  1.00 35.49     0.174 HD
ATOM     13  HE  ARG D 557     -27.133  -0.614 -15.461  1.00 35.49     0.178 HD
ENDBRANCH   4   5
ENDBRANCH   3   4
ENDBRANCH   2   3
ENDBRANCH   1   2
END_RES ARG D 557
BEGIN_RES GLU D 570
REMARK  3 active torsions:
REMARK  status: ('A' for Active; 'I' for Inactive)
REMARK    5  A    between atoms: CA   and  CB  
REMARK    6  A    between atoms: CB   and  CG  
REMARK    7  A    between atoms: CG   and  CD  
ROOT
ATOM     14  CA  GLU D 570     -18.033  -6.348 -13.375  1.00 32.92     0.160 C 
ENDROOT
BRANCH  14  15
ATOM     15  CB  GLU D 570     -19.500  -6.345 -13.794  1.00 32.92     0.043 C 
BRANCH  15  16
ATOM     16  CG  GLU D 570     -20.060  -7.610 -14.335  1.00 32.92     0.100 C 
BRANCH  16  17
ATOM     17  CD  GLU D 570     -20.666  -7.446 -15.710  1.00 32.92     0.185 C 
ATOM     18  OE1 GLU D 570     -20.468  -6.387 -16.336  1.00 32.92    -0.647 OA
ATOM     19  OE2 GLU D 570     -21.359  -8.380 -16.158  1.00 32.92    -0.647 OA
ENDBRANCH  16  17
ENDBRANCH  15  16
ENDBRANCH  14  15
END_RES GLU D 570
ENDMDL
MODEL 3
REMARK VINA RESULT:      -7.1      1.568     10.948
REMARK  26 active torsions:
REMARK  status: ('A' for Active; 'I' for Inactive)
REMARK    1  A    between atoms: C_2  and  C_3 
REMARK    2  A    between atoms: C_3  and  C_4 
REMARK    3  A    between atoms: C_4  and  C_5 
REMARK    4  A    between atoms: C_5  and  C_6 
REMARK    5  A    between atoms: C_6  and  C_7 
REMARK    6  A    between atoms: C_7  and  C_8 
REMARK    7  A    between atoms: C_8  and  C_9 
REMARK    8  A    between atoms: C_9  and  C_10 
REMARK    9  A    between atoms: C_10  and  C_11 
REMARK   10  A    between atoms: C_11  and  C_12 
REMARK   11  A    between atoms: C_12  and  C_13 
REMARK   12  A    between atoms: C_13  and  C_14 
REMARK   13  A    between atoms: C_14  and  O_15 
REMARK   14  A    between atoms: O_15  and  C_16 
REMARK   15  A    between atoms: C_16  and  C_18 
REMARK   16  A    between atoms: C_18  and  C_19 
REMARK   17  A    between atoms: C_19  and  C_20 
REMARK   18  A    between atoms: C_20  and  C_21 
REMARK   19  A    between atoms: C_21  and  C_22 
REMARK   20  A    between atoms: C_22  and  C_23 
REMARK   21  A    between atoms: C_23  and  C_24 
REMARK   22  A    between atoms: C_24  and  C_25 
REMARK   23  A    between atoms: C_25  and  C_26 
REMARK   24  A    between atoms: C_26  and  C_27 
REMARK   25  A    between atoms: C_27  and  C_28 
REMARK   26  A    between atoms: C_28  and  C_29 
ROOT
HETATM    1  O   UNL     1     -24.500  -4.923 -15.018  1.00  0.00    -0.321 OA
ENDROOT
BRANCH   1   2
HETATM    2  C   UNL     1     -24.337  -6.345 -15.082  1.00  0.00     0.178 C 
BRANCH   2   3
HETATM    3  C   UNL     1     -25.534  -6.982 -15.773  1.00  0.00     0.027 C 
BRANCH   3   4
HETATM    4  C   UNL     1     -26.555  -5.923 -16.171  1.00  0.00     0.002 C 
BRANCH   4   5
HETATM    5  C   UNL     1     -27.964  -6.373 -15.813  1.00  0.00     0.000 C 
BRANCH   5   6
HETATM    6  C   UNL     1     -28.640  -7.015 -17.015  1.00  0.00     0.000 C 
BRANCH   6   7
HETATM    7  C   UNL     1     -29.251  -5.946 -17.907  1.00  0.00     0.000 C 
BRANCH   7   8
HETATM    8  C   UNL     1     -28.303  -5.613 -19.046  1.00  0.00     0.000 C 
BRANCH   8   9
HETATM    9  C   UNL     1     -27.630  -6.877 -19.551  1.00  0.00     0.000 C 
BRANCH   9  10
HETATM   10  C   UNL     1     -26.362  -6.524 -20.307  1.00  0.00     0.000 C 
BRANCH  10  11
HETATM   11  C   UNL     1     -25.141  -6.898 -19.483  1.00  0.00     0.000 C 
BRANCH  11  12
HETATM   12  C   UNL     1     -24.171  -7.709 -20.324  1.00  0.00     0.000 C 
BRANCH  12  13
HETATM   13  C   UNL     1     -24.526  -7.590 -21.797  1.00  0.00    -0.000 C 
BRANCH  13  14
HETATM   14  C   UNL     1     -23.427  -8.191 -22.663  1.00  0.00    -0.005 C 
HETATM   15  C   UNL     1     -22.290  -8.698 -21.799  1.00  0.00     0.005 C 
ENDBRANCH  13  14
ENDBRANCH  12  13
ENDBRANCH  11  12
ENDBRANCH  10  11
ENDBRANCH   9  10
ENDBRANCH   8   9
ENDBRANCH   7   8
ENDBRANCH   6   7
ENDBRANCH   5   6
ENDBRANCH   4   5
ENDBRANCH   3   4
ENDBRANCH   2   3
ENDBRANCH   1   2
BRANCH   1  16
HETATM   16  C   UNL     1     -23.456  -4.289 -14.401  1.00  0.00     0.258 C 
HETATM   17  O   UNL     1     -22.523  -3.761 -14.971  1.00  0.00    -0.265 OA
BRANCH  16  18
HETATM   18  C   UNL     1     -23.604  -4.346 -12.897  1.00  0.00     0.111 C 
BRANCH  18  19
HETATM   19  C   UNL     1     -23.346  -2.981 -12.266  1.00  0.00     0.010 C 
BRANCH  19  20
HETATM   20  C   UNL     1     -22.005  -2.924 -11.540  1.00  0.00     0.000 C 
BRANCH  20  21
HETATM   21  C   UNL     1     -21.596  -4.318 -11.081  1.00  0.00     0.000 C 
BRANCH  21  22
HETATM   22  C   UNL     1     -22.331  -4.699  -9.805  1.00  0.00     0.000 C 
BRANCH  22  23
HETATM   23  C   UNL     1     -22.272  -3.560  -8.801  1.00  0.00     0.000 C 
BRANCH  23  24
HETATM   24  C   UNL     1     -21.960  -4.101  -7.416  1.00  0.00     0.000 C 
BRANCH  24  25
HETATM   25  C   UNL     1     -20.457  -4.154  -7.201  1.00  0.00     0.000 C 
BRANCH  25  26
HETATM   26  C   UNL     1     -20.147  -4.691  -5.814  1.00  0.00     0.000 C 
BRANCH  26  27
HETATM   27  C   UNL     1     -21.250  -5.634  -5.361  1.00  0.00     0.000 C 
BRANCH  27  28
HETATM   28  C   UNL     1     -20.948  -6.164  -3.968  1.00  0.00    -0.000 C 
BRANCH  28  29
HETATM   29  C   UNL     1     -22.237  -6.474  -3.223  1.00  0.00    -0.005 C 
HETATM   30  C   UNL     1     -22.007  -6.432  -1.725  1.00  0.00     0.005 C 
ENDBRANCH  28  29
ENDBRANCH  27  28
ENDBRANCH  26  27
ENDBRANCH  25  26
ENDBRANCH  24  25
ENDBRANCH  23  24
ENDBRANCH  22  23
ENDBRANCH  21  22
ENDBRANCH  20  21
ENDBRANCH  19  20
ENDBRANCH  18  19
ENDBRANCH  16  18
ENDBRANCH   1  16
TORSDOF 26
BEGIN_RES ARG D 557
REMARK  4 active torsions:
REMARK  status: ('A' for Active; 'I' for Inactive)
REMARK    1  A    between atoms: CA   and  CB  
REMARK    2  A    between atoms: CB   and  CG  
REMARK    3  A    between atoms: CG   and  CD  
REMARK    4  A    between atoms: CD   and  NE  
REMARK       I    between atoms: NE   and  CZ  
REMARK       I    between atoms: CZ   and  NH1 
REMARK       I    between atoms: CZ   and  NH2 
ROOT
ATOM      1  CA  ARG D 557     -26.217   2.705 -17.014  1.00 35.49     0.159 C 
ENDROOT
BRANCH   1   2
ATOM      2  CB  ARG D 557     -26.789   1.319 -17.183  1.00 35.49     0.034 C 
BRANCH   2   3
ATOM      3  CG  ARG D 557     -28.253   1.206 -17.198  1.00 35.49     0.027 C 
BRANCH   3   4
ATOM      4  CD  ARG D 557     -28.727  -0.054 -16.580  1.00 35.49     0.116 C 
BRANCH   4   5
ATOM      5  NE  ARG D 557     -27.664  -0.771 -15.926  1.00 35.49    -0.212 N 
ATOM      6  CZ  ARG D 557     -27.419  -2.057 -16.046  1.00 35.49     0.666 C 
ATOM      7  NH1 ARG D 557     -28.159  -2.853 -16.795  1.00 35.49    -0.235 N 
ATOM      8  NH2 ARG D 557     -26.398  -2.536 -15.396  1.00 35.49    -0.235 N 
ATOM      9  HH  ARG D 557     -28.834  -2.559 -17.233  1.00 35.49     0.174 HD
ATOM     10  HH  ARG D 557     -27.949  -3.683 -16.837  1.00 35.49     0.174 HD
ATOM     11  HH  ARG D 557     -25.934  -1.996 -14.926  1.00 35.49     0.174 HD
ATOM     12  HH  ARG D 557     -26.206  -3.360 -15.451  1.00 35.49     0.174 HD
ATOM     13  HE  ARG D 557     -27.182  -0.349 -15.367  1.00 35.49     0.178 HD
ENDBRANCH   4   5
ENDBRANCH   3   4
ENDBRANCH   2   3
ENDBRANCH   1   2
END_RES ARG D 557
BEGIN_RES GLU D 570
REMARK  3 active torsions:
REMARK  status: ('A' for Active; 'I' for Inactive)
REMARK    5  A    between atoms: CA   and  CB  
REMARK    6  A    between atoms: CB   and  CG  
REMARK    7  A    between atoms: CG   and  CD  
ROOT
ATOM     14  CA  GLU D 570     -18.033  -6.348 -13.375  1.00 32.92     0.160 C 
ENDROOT
BRANCH  14  15
ATOM     15  CB  GLU D 570     -19.500  -6.345 -13.794  1.00 32.92     0.043 C 
BRANCH  15  16
ATOM     16  CG  GLU D 570     -20.114  -7.651 -14.146  1.00 32.92     0.100 C 
BRANCH  16  17
ATOM     17  CD  GLU D 570     -20.622  -7.699 -15.568  1.00 32.92     0.185 C 
ATOM     18  OE1 GLU D 570     -20.603  -8.783 -16.182  1.00 32.92    -0.647 OA
ATOM     19  OE2 GLU D 570     -21.029  -6.637 -16.080  1.00 32.92    -0.647 OA
ENDBRANCH  16  17
ENDBRANCH  15  16
ENDBRANCH  14  15
END_RES GLU D 570
ENDMDL
MODEL 4
REMARK VINA RESULT:      -7.0      5.288      9.609
REMARK  26 active torsions:
REMARK  status: ('A' for Active; 'I' for Inactive)
REMARK    1  A    between atoms: C_2  and  C_3 
REMARK    2  A    between atoms: C_3  and  C_4 
REMARK    3  A    between atoms: C_4  and  C_5 
REMARK    4  A    between atoms: C_5  and  C_6 
REMARK    5  A    between atoms: C_6  and  C_7 
REMARK    6  A    between atoms: C_7  and  C_8 
REMARK    7  A    between atoms: C_8  and  C_9 
REMARK    8  A    between atoms: C_9  and  C_10 
REMARK    9  A    between atoms: C_10  and  C_11 
REMARK   10  A    between atoms: C_11  and  C_12 
REMARK   11  A    between atoms: C_12  and  C_13 
REMARK   12  A    between atoms: C_13  and  C_14 
REMARK   13  A    between atoms: C_14  and  O_15 
REMARK   14  A    between atoms: O_15  and  C_16 
REMARK   15  A    between atoms: C_16  and  C_18 
REMARK   16  A    between atoms: C_18  and  C_19 
REMARK   17  A    between atoms: C_19  and  C_20 
REMARK   18  A    between atoms: C_20  and  C_21 
REMARK   19  A    between atoms: C_21  and  C_22 
REMARK   20  A    between atoms: C_22  and  C_23 
REMARK   21  A    between atoms: C_23  and  C_24 
REMARK   22  A    between atoms: C_24  and  C_25 
REMARK   23  A    between atoms: C_25  and  C_26 
REMARK   24  A    between atoms: C_26  and  C_27 
REMARK   25  A    between atoms: C_27  and  C_28 
REMARK   26  A    between atoms: C_28  and  C_29 
ROOT
HETATM    1  O   UNL     1     -33.605  -2.741 -17.224  1.00  0.00    -0.321 OA
ENDROOT
BRANCH   1   2
HETATM    2  C   UNL     1     -33.039  -4.040 -17.008  1.00  0.00     0.178 C 
BRANCH   2   3
HETATM    3  C   UNL     1     -31.535  -4.002 -17.234  1.00  0.00     0.027 C 
BRANCH   3   4
HETATM    4  C   UNL     1     -30.854  -5.173 -16.536  1.00  0.00     0.002 C 
BRANCH   4   5
HETATM    5  C   UNL     1     -30.172  -6.080 -17.549  1.00  0.00     0.000 C 
BRANCH   5   6
HETATM    6  C   UNL     1     -28.984  -6.789 -16.915  1.00  0.00     0.000 C 
BRANCH   6   7
HETATM    7  C   UNL     1     -27.682  -6.219 -17.454  1.00  0.00     0.000 C 
BRANCH   7   8
HETATM    8  C   UNL     1     -26.643  -6.156 -16.349  1.00  0.00     0.000 C 
BRANCH   8   9
HETATM    9  C   UNL     1     -25.365  -6.844 -16.796  1.00  0.00     0.000 C 
BRANCH   9  10
HETATM   10  C   UNL     1     -24.412  -6.985 -15.623  1.00  0.00     0.000 C 
BRANCH  10  11
HETATM   11  C   UNL     1     -24.403  -5.708 -14.800  1.00  0.00     0.000 C 
BRANCH  11  12
HETATM   12  C   UNL     1     -23.407  -5.828 -13.660  1.00  0.00     0.000 C 
BRANCH  12  13
HETATM   13  C   UNL     1     -22.730  -4.489 -13.412  1.00  0.00    -0.000 C 
BRANCH  13  14
HETATM   14  C   UNL     1     -22.392  -3.807 -14.731  1.00  0.00    -0.005 C 
HETATM   15  C   UNL     1     -22.928  -2.389 -14.747  1.00  0.00     0.005 C 
ENDBRANCH  13  14
ENDBRANCH  12  13
ENDBRANCH  11  12
ENDBRANCH  10  11
ENDBRANCH   9  10
ENDBRANCH   8   9
ENDBRANCH   7   8
ENDBRANCH   6   7
ENDBRANCH   5   6
ENDBRANCH   4   5
ENDBRANCH   3   4
ENDBRANCH   2   3
ENDBRANCH   1   2
BRANCH   1  16
HETATM   16  C   UNL     1     -34.614  -2.442 -16.349  1.00  0.00     0.258 C 
HETATM   17  O   UNL     1     -34.743  -2.920 -15.239  1.00  0.00    -0.265 OA
BRANCH  16  18
HETATM   18  C   UNL     1     -35.573  -1.441 -16.952  1.00  0.00     0.111 C 
BRANCH  18  19
HETATM   19  C   UNL     1     -36.182  -0.545 -15.878  1.00  0.00     0.010 C 
BRANCH  19  20
HETATM   20  C   UNL     1     -35.260   0.607 -15.492  1.00  0.00     0.000 C 
BRANCH  20  21
HETATM   21  C   UNL     1     -35.266   0.802 -13.981  1.00  0.00     0.000 C 
BRANCH  21  22
HETATM   22  C   UNL     1     -36.420   0.040 -13.347  1.00  0.00     0.000 C 
BRANCH  22  23
HETATM   23  C   UNL     1     -36.032  -0.449 -11.961  1.00  0.00     0.000 C 
BRANCH  23  24
HETATM   24  C   UNL     1     -34.621  -1.009 -11.981  1.00  0.00     0.000 C 
BRANCH  24  25
HETATM   25  C   UNL     1     -34.648  -2.506 -11.727  1.00  0.00     0.000 C 
BRANCH  25  26
HETATM   26  C   UNL     1     -33.281  -2.981 -11.261  1.00  0.00     0.000 C 
BRANCH  26  27
HETATM   27  C   UNL     1     -33.152  -4.482 -11.466  1.00  0.00     0.000 C 
BRANCH  27  28
HETATM   28  C   UNL     1     -34.136  -5.219 -10.572  1.00  0.00    -0.000 C 
BRANCH  28  29
HETATM   29  C   UNL     1     -33.843  -6.712 -10.572  1.00  0.00    -0.005 C 
HETATM   30  C   UNL     1     -34.935  -7.467  -9.840  1.00  0.00     0.005 C 
ENDBRANCH  28  29
ENDBRANCH  27  28
ENDBRANCH  26  27
ENDBRANCH  25  26
ENDBRANCH  24  25
ENDBRANCH  23  24
ENDBRANCH  22  23
ENDBRANCH  21  22
ENDBRANCH  20  21
ENDBRANCH  19  20
ENDBRANCH  18  19
ENDBRANCH  16  18
ENDBRANCH   1  16
TORSDOF 26
BEGIN_RES ARG D 557
REMARK  4 active torsions:
REMARK  status: ('A' for Active; 'I' for Inactive)
REMARK    1  A    between atoms: CA   and  CB  
REMARK    2  A    between atoms: CB   and  CG  
REMARK    3  A    between atoms: CG   and  CD  
REMARK    4  A    between atoms: CD   and  NE  
REMARK       I    between atoms: NE   and  CZ  
REMARK       I    between atoms: CZ   and  NH1 
REMARK       I    between atoms: CZ   and  NH2 
ROOT
ATOM      1  CA  ARG D 557     -26.217   2.705 -17.014  1.00 35.49     0.159 C 
ENDROOT
BRANCH   1   2
ATOM      2  CB  ARG D 557     -26.789   1.319 -17.183  1.00 35.49     0.034 C 
BRANCH   2   3
ATOM      3  CG  ARG D 557     -28.251   1.198 -17.141  1.00 35.49     0.027 C 
BRANCH   3   4
ATOM      4  CD  ARG D 557     -28.694  -0.148 -16.710  1.00 35.49     0.116 C 
BRANCH   4   5
ATOM      5  NE  ARG D 557     -27.661  -0.859 -16.005  1.00 35.49    -0.212 N 
ATOM      6  CZ  ARG D 557     -27.423  -2.149 -16.086  1.00 35.49     0.666 C 
ATOM      7  NH1 ARG D 557     -28.145  -2.957 -16.840  1.00 35.49    -0.235 N 
ATOM      8  NH2 ARG D 557     -26.429  -2.621 -15.391  1.00 35.49    -0.235 N 
ATOM      9  HH  ARG D 557     -28.802  -2.667 -17.308  1.00 35.49     0.174 HD
ATOM     10  HH  ARG D 557     -27.942  -3.789 -16.856  1.00 35.49     0.174 HD
ATOM     11  HH  ARG D 557     -25.976  -2.074 -14.918  1.00 35.49     0.174 HD
ATOM     12  HH  ARG D 557     -26.243  -3.448 -15.420  1.00 35.49     0.174 HD
ATOM     13  HE  ARG D 557     -27.194  -0.428 -15.440  1.00 35.49     0.178 HD
ENDBRANCH   4   5
ENDBRANCH   3   4
ENDBRANCH   2   3
ENDBRANCH   1   2
END_RES ARG D 557
BEGIN_RES GLU D 570
REMARK  3 active torsions:
REMARK  status: ('A' for Active; 'I' for Inactive)
REMARK    5  A    between atoms: CA   and  CB  
REMARK    6  A    between atoms: CB   and  CG  
REMARK    7  A    between atoms: CG   and  CD  
ROOT
ATOM     14  CA  GLU D 570     -18.033  -6.348 -13.375  1.00 32.92     0.160 C 
ENDROOT
BRANCH  14  15
ATOM     15  CB  GLU D 570     -19.500  -6.345 -13.794  1.00 32.92     0.043 C 
BRANCH  15  16
ATOM     16  CG  GLU D 570     -20.082  -7.631 -14.256  1.00 32.92     0.100 C 
BRANCH  16  17
ATOM     17  CD  GLU D 570     -20.696  -7.539 -15.634  1.00 32.92     0.185 C 
ATOM     18  OE1 GLU D 570     -21.216  -8.555 -16.134  1.00 32.92    -0.647 OA
ATOM     19  OE2 GLU D 570     -20.640  -6.443 -16.227  1.00 32.92    -0.647 OA
ENDBRANCH  16  17
ENDBRANCH  15  16
ENDBRANCH  14  15
END_RES GLU D 570
ENDMDL
MODEL 5
REMARK VINA RESULT:      -6.9      5.215      9.026
REMARK  26 active torsions:
REMARK  status: ('A' for Active; 'I' for Inactive)
REMARK    1  A    between atoms: C_2  and  C_3 
REMARK    2  A    between atoms: C_3  and  C_4 
REMARK    3  A    between atoms: C_4  and  C_5 
REMARK    4  A    between atoms: C_5  and  C_6 
REMARK    5  A    between atoms: C_6  and  C_7 
REMARK    6  A    between atoms: C_7  and  C_8 
REMARK    7  A    between atoms: C_8  and  C_9 
REMARK    8  A    between atoms: C_9  and  C_10 
REMARK    9  A    between atoms: C_10  and  C_11 
REMARK   10  A    between atoms: C_11  and  C_12 
REMARK   11  A    between atoms: C_12  and  C_13 
REMARK   12  A    between atoms: C_13  and  C_14 
REMARK   13  A    between atoms: C_14  and  O_15 
REMARK   14  A    between atoms: O_15  and  C_16 
REMARK   15  A    between atoms: C_16  and  C_18 
REMARK   16  A    between atoms: C_18  and  C_19 
REMARK   17  A    between atoms: C_19  and  C_20 
REMARK   18  A    between atoms: C_20  and  C_21 
REMARK   19  A    between atoms: C_21  and  C_22 
REMARK   20  A    between atoms: C_22  and  C_23 
REMARK   21  A    between atoms: C_23  and  C_24 
REMARK   22  A    between atoms: C_24  and  C_25 
REMARK   23  A    between atoms: C_25  and  C_26 
REMARK   24  A    between atoms: C_26  and  C_27 
REMARK   25  A    between atoms: C_27  and  C_28 
REMARK   26  A    between atoms: C_28  and  C_29 
ROOT
HETATM    1  O   UNL     1     -33.429  -2.547 -17.376  1.00  0.00    -0.321 OA
ENDROOT
BRANCH   1   2
HETATM    2  C   UNL     1     -34.736  -2.436 -16.800  1.00  0.00     0.178 C 
BRANCH   2   3
HETATM    3  C   UNL     1     -35.051  -0.980 -16.487  1.00  0.00     0.027 C 
BRANCH   3   4
HETATM    4  C   UNL     1     -36.509  -0.818 -16.078  1.00  0.00     0.002 C 
BRANCH   4   5
HETATM    5  C   UNL     1     -36.631   0.108 -14.877  1.00  0.00     0.000 C 
BRANCH   5   6
HETATM    6  C   UNL     1     -35.285   0.739 -14.552  1.00  0.00     0.000 C 
BRANCH   6   7
HETATM    7  C   UNL     1     -34.899   0.441 -13.112  1.00  0.00     0.000 C 
BRANCH   7   8
HETATM    8  C   UNL     1     -35.922  -0.484 -12.477  1.00  0.00     0.000 C 
BRANCH   8   9
HETATM    9  C   UNL     1     -35.232  -1.453 -11.532  1.00  0.00     0.000 C 
BRANCH   9  10
HETATM   10  C   UNL     1     -34.387  -2.436 -12.320  1.00  0.00     0.000 C 
BRANCH  10  11
HETATM   11  C   UNL     1     -33.322  -3.045 -11.424  1.00  0.00     0.000 C 
BRANCH  11  12
HETATM   12  C   UNL     1     -33.937  -4.108 -10.529  1.00  0.00     0.000 C 
BRANCH  12  13
HETATM   13  C   UNL     1     -33.521  -5.494 -10.998  1.00  0.00    -0.000 C 
BRANCH  13  14
HETATM   14  C   UNL     1     -34.730  -6.416 -11.080  1.00  0.00    -0.005 C 
HETATM   15  C   UNL     1     -34.715  -7.411  -9.936  1.00  0.00     0.005 C 
ENDBRANCH  13  14
ENDBRANCH  12  13
ENDBRANCH  11  12
ENDBRANCH  10  11
ENDBRANCH   9  10
ENDBRANCH   8   9
ENDBRANCH   7   8
ENDBRANCH   6   7
ENDBRANCH   5   6
ENDBRANCH   4   5
ENDBRANCH   3   4
ENDBRANCH   2   3
ENDBRANCH   1   2
BRANCH   1  16
HETATM   16  C   UNL     1     -32.739  -3.644 -16.937  1.00  0.00     0.258 C 
HETATM   17  O   UNL     1     -33.127  -4.420 -16.086  1.00  0.00    -0.265 OA
BRANCH  16  18
HETATM   18  C   UNL     1     -31.406  -3.762 -17.641  1.00  0.00     0.111 C 
BRANCH  18  19
HETATM   19  C   UNL     1     -30.472  -4.711 -16.896  1.00  0.00     0.010 C 
BRANCH  19  20
HETATM   20  C   UNL     1     -30.472  -6.113 -17.498  1.00  0.00     0.000 C 
BRANCH  20  21
HETATM   21  C   UNL     1     -29.041  -6.596 -17.705  1.00  0.00     0.000 C 
BRANCH  21  22
HETATM   22  C   UNL     1     -28.280  -6.593 -16.388  1.00  0.00     0.000 C 
BRANCH  22  23
HETATM   23  C   UNL     1     -26.911  -5.956 -16.569  1.00  0.00     0.000 C 
BRANCH  23  24
HETATM   24  C   UNL     1     -25.847  -6.808 -15.900  1.00  0.00     0.000 C 
BRANCH  24  25
HETATM   25  C   UNL     1     -24.739  -7.133 -16.887  1.00  0.00     0.000 C 
BRANCH  25  26
HETATM   26  C   UNL     1     -25.150  -6.713 -18.289  1.00  0.00     0.000 C 
BRANCH  26  27
HETATM   27  C   UNL     1     -24.189  -7.298 -19.312  1.00  0.00     0.000 C 
BRANCH  27  28
HETATM   28  C   UNL     1     -24.849  -7.350 -20.680  1.00  0.00    -0.000 C 
BRANCH  28  29
HETATM   29  C   UNL     1     -26.352  -7.144 -20.557  1.00  0.00    -0.005 C 
HETATM   30  C   UNL     1     -27.097  -8.350 -21.095  1.00  0.00     0.005 C 
ENDBRANCH  28  29
ENDBRANCH  27  28
ENDBRANCH  26  27
ENDBRANCH  25  26
ENDBRANCH  24  25
ENDBRANCH  23  24
ENDBRANCH  22  23
ENDBRANCH  21  22
ENDBRANCH  20  21
ENDBRANCH  19  20
ENDBRANCH  18  19
ENDBRANCH  16  18
ENDBRANCH   1  16
TORSDOF 26
BEGIN_RES ARG D 557
REMARK  4 active torsions:
REMARK  status: ('A' for Active; 'I' for Inactive)
REMARK    1  A    between atoms: CA   and  CB  
REMARK    2  A    between atoms: CB   and  CG  
REMARK    3  A    between atoms: CG   and  CD  
REMARK    4  A    between atoms: CD   and  NE  
REMARK       I    between atoms: NE   and  CZ  
REMARK       I    between atoms: CZ   and  NH1 
REMARK       I    between atoms: CZ   and  NH2 
ROOT
ATOM      1  CA  ARG D 557     -26.217   2.705 -17.014  1.00 35.49     0.159 C 
ENDROOT
BRANCH   1   2
ATOM      2  CB  ARG D 557     -26.789   1.319 -17.183  1.00 35.49     0.034 C 
BRANCH   2   3
ATOM      3  CG  ARG D 557     -25.857   0.196 -17.027  1.00 35.49     0.027 C 
BRANCH   3   4
ATOM      4  CD  ARG D 557     -24.770   0.494 -16.065  1.00 35.49     0.116 C 
BRANCH   4   5
ATOM      5  NE  ARG D 557     -24.834  -0.345 -14.898  1.00 35.49    -0.212 N 
ATOM      6  CZ  ARG D 557     -24.021  -1.341 -14.623  1.00 35.49     0.666 C 
ATOM      7  NH1 ARG D 557     -23.035  -1.695 -15.426  1.00 35.49    -0.235 N 
ATOM      8  NH2 ARG D 557     -24.214  -1.982 -13.506  1.00 35.49    -0.235 N 
ATOM      9  HH  ARG D 557     -22.889  -1.286 -16.165  1.00 35.49     0.174 HD
ATOM     10  HH  ARG D 557     -22.536  -2.351 -15.193  1.00 35.49     0.174 HD
ATOM     11  HH  ARG D 557     -24.853  -1.726 -13.004  1.00 35.49     0.174 HD
ATOM     12  HH  ARG D 557     -23.707  -2.627 -13.293  1.00 35.49     0.174 HD
ATOM     13  HE  ARG D 557     -25.484  -0.234 -14.361  1.00 35.49     0.178 HD
ENDBRANCH   4   5
ENDBRANCH   3   4
ENDBRANCH   2   3
ENDBRANCH   1   2
END_RES ARG D 557
BEGIN_RES GLU D 570
REMARK  3 active torsions:
REMARK  status: ('A' for Active; 'I' for Inactive)
REMARK    5  A    between atoms: CA   and  CB  
REMARK    6  A    between atoms: CB   and  CG  
REMARK    7  A    between atoms: CG   and  CD  
ROOT
ATOM     14  CA  GLU D 570     -18.033  -6.348 -13.375  1.00 32.92     0.160 C 
ENDROOT
BRANCH  14  15
ATOM     15  CB  GLU D 570     -19.500  -6.345 -13.794  1.00 32.92     0.043 C 
BRANCH  15  16
ATOM     16  CG  GLU D 570     -20.448  -5.562 -12.960  1.00 32.92     0.100 C 
BRANCH  16  17
ATOM     17  CD  GLU D 570     -21.743  -5.251 -13.675  1.00 32.92     0.185 C 
ATOM     18  OE1 GLU D 570     -22.216  -4.101 -13.597  1.00 32.92    -0.647 OA
ATOM     19  OE2 GLU D 570     -22.299  -6.172 -14.305  1.00 32.92    -0.647 OA
ENDBRANCH  16  17
ENDBRANCH  15  16
ENDBRANCH  14  15
END_RES GLU D 570
ENDMDL
MODEL 6
REMARK VINA RESULT:      -6.8      3.979     12.601
REMARK  26 active torsions:
REMARK  status: ('A' for Active; 'I' for Inactive)
REMARK    1  A    between atoms: C_2  and  C_3 
REMARK    2  A    between atoms: C_3  and  C_4 
REMARK    3  A    between atoms: C_4  and  C_5 
REMARK    4  A    between atoms: C_5  and  C_6 
REMARK    5  A    between atoms: C_6  and  C_7 
REMARK    6  A    between atoms: C_7  and  C_8 
REMARK    7  A    between atoms: C_8  and  C_9 
REMARK    8  A    between atoms: C_9  and  C_10 
REMARK    9  A    between atoms: C_10  and  C_11 
REMARK   10  A    between atoms: C_11  and  C_12 
REMARK   11  A    between atoms: C_12  and  C_13 
REMARK   12  A    between atoms: C_13  and  C_14 
REMARK   13  A    between atoms: C_14  and  O_15 
REMARK   14  A    between atoms: O_15  and  C_16 
REMARK   15  A    between atoms: C_16  and  C_18 
REMARK   16  A    between atoms: C_18  and  C_19 
REMARK   17  A    between atoms: C_19  and  C_20 
REMARK   18  A    between atoms: C_20  and  C_21 
REMARK   19  A    between atoms: C_21  and  C_22 
REMARK   20  A    between atoms: C_22  and  C_23 
REMARK   21  A    between atoms: C_23  and  C_24 
REMARK   22  A    between atoms: C_24  and  C_25 
REMARK   23  A    between atoms: C_25  and  C_26 
REMARK   24  A    between atoms: C_26  and  C_27 
REMARK   25  A    between atoms: C_27  and  C_28 
REMARK   26  A    between atoms: C_28  and  C_29 
ROOT
HETATM    1  O   UNL     1     -20.200  -9.019  -5.439  1.00  0.00    -0.321 OA
ENDROOT
BRANCH   1   2
HETATM    2  C   UNL     1     -20.679  -7.948  -4.616  1.00  0.00     0.178 C 
BRANCH   2   3
HETATM    3  C   UNL     1     -21.289  -6.853  -5.479  1.00  0.00     0.027 C 
BRANCH   3   4
HETATM    4  C   UNL     1     -20.363  -5.646  -5.556  1.00  0.00     0.002 C 
BRANCH   4   5
HETATM    5  C   UNL     1     -19.862  -5.443  -6.979  1.00  0.00     0.000 C 
BRANCH   5   6
HETATM    6  C   UNL     1     -20.142  -4.022  -7.445  1.00  0.00     0.000 C 
BRANCH   6   7
HETATM    7  C   UNL     1     -21.609  -3.682  -7.242  1.00  0.00     0.000 C 
BRANCH   7   8
HETATM    8  C   UNL     1     -22.472  -4.513  -8.175  1.00  0.00     0.000 C 
BRANCH   8   9
HETATM    9  C   UNL     1     -23.385  -3.609  -8.985  1.00  0.00     0.000 C 
BRANCH   9  10
HETATM   10  C   UNL     1     -24.255  -4.441  -9.908  1.00  0.00     0.000 C 
BRANCH  10  11
HETATM   11  C   UNL     1     -24.070  -3.991 -11.347  1.00  0.00     0.000 C 
BRANCH  11  12
HETATM   12  C   UNL     1     -22.989  -2.927 -11.428  1.00  0.00     0.000 C 
BRANCH  12  13
HETATM   13  C   UNL     1     -21.753  -3.485 -12.115  1.00  0.00    -0.000 C 
BRANCH  13  14
HETATM   14  C   UNL     1     -20.537  -3.368 -11.206  1.00  0.00    -0.005 C 
HETATM   15  C   UNL     1     -20.023  -4.744 -10.829  1.00  0.00     0.005 C 
ENDBRANCH  13  14
ENDBRANCH  12  13
ENDBRANCH  11  12
ENDBRANCH  10  11
ENDBRANCH   9  10
ENDBRANCH   8   9
ENDBRANCH   7   8
ENDBRANCH   6   7
ENDBRANCH   5   6
ENDBRANCH   4   5
ENDBRANCH   3   4
ENDBRANCH   2   3
ENDBRANCH   1   2
BRANCH   1  16
HETATM   16  C   UNL     1     -20.954 -10.156  -5.333  1.00  0.00     0.258 C 
HETATM   17  O   UNL     1     -21.192 -10.925  -6.243  1.00  0.00    -0.265 OA
BRANCH  16  18
HETATM   18  C   UNL     1     -21.477 -10.328  -3.925  1.00  0.00     0.111 C 
BRANCH  18  19
HETATM   19  C   UNL     1     -20.426 -10.967  -3.022  1.00  0.00     0.010 C 
BRANCH  19  20
HETATM   20  C   UNL     1     -20.856 -12.339  -2.513  1.00  0.00     0.000 C 
BRANCH  20  21
HETATM   21  C   UNL     1     -20.364 -12.549  -1.086  1.00  0.00     0.000 C 
BRANCH  21  22
HETATM   22  C   UNL     1     -21.386 -13.333  -0.277  1.00  0.00     0.000 C 
BRANCH  22  23
HETATM   23  C   UNL     1     -22.795 -12.994  -0.734  1.00  0.00     0.000 C 
BRANCH  23  24
HETATM   24  C   UNL     1     -23.389 -11.919   0.160  1.00  0.00     0.000 C 
BRANCH  24  25
HETATM   25  C   UNL     1     -23.719 -10.682  -0.656  1.00  0.00     0.000 C 
BRANCH  25  26
HETATM   26  C   UNL     1     -23.298  -9.432   0.100  1.00  0.00     0.000 C 
BRANCH  26  27
HETATM   27  C   UNL     1     -21.781  -9.346   0.162  1.00  0.00     0.000 C 
BRANCH  27  28
HETATM   28  C   UNL     1     -21.288  -8.169  -0.664  1.00  0.00    -0.000 C 
BRANCH  28  29
HETATM   29  C   UNL     1     -22.287  -7.022  -0.609  1.00  0.00    -0.005 C 
HETATM   30  C   UNL     1     -22.259  -6.232  -1.903  1.00  0.00     0.005 C 
ENDBRANCH  28  29
ENDBRANCH  27  28
ENDBRANCH  26  27
ENDBRANCH  25  26
ENDBRANCH  24  25
ENDBRANCH  23  24
ENDBRANCH  22  23
ENDBRANCH  21  22
ENDBRANCH  20  21
ENDBRANCH  19  20
ENDBRANCH  18  19
ENDBRANCH  16  18
ENDBRANCH   1  16
TORSDOF 26
BEGIN_RES ARG D 557
REMARK  4 active torsions:
REMARK  status: ('A' for Active; 'I' for Inactive)
REMARK    1  A    between atoms: CA   and  CB  
REMARK    2  A    between atoms: CB   and  CG  
REMARK    3  A    between atoms: CG   and  CD  
REMARK    4  A    between atoms: CD   and  NE  
REMARK       I    between atoms: NE   and  CZ  
REMARK       I    between atoms: CZ   and  NH1 
REMARK       I    between atoms: CZ   and  NH2 
ROOT
ATOM      1  CA  ARG D 557     -26.217   2.705 -17.014  1.00 35.49     0.159 C 
ENDROOT
BRANCH   1   2
ATOM      2  CB  ARG D 557     -26.789   1.319 -17.183  1.00 35.49     0.034 C 
BRANCH   2   3
ATOM      3  CG  ARG D 557     -28.237   1.225 -17.408  1.00 35.49     0.027 C 
BRANCH   3   4
ATOM      4  CD  ARG D 557     -28.895   0.292 -16.465  1.00 35.49     0.116 C 
BRANCH   4   5
ATOM      5  NE  ARG D 557     -29.312  -0.926 -17.109  1.00 35.49    -0.212 N 
ATOM      6  CZ  ARG D 557     -28.695  -2.084 -17.036  1.00 35.49     0.666 C 
ATOM      7  NH1 ARG D 557     -27.580  -2.251 -16.350  1.00 35.49    -0.235 N 
ATOM      8  NH2 ARG D 557     -29.229  -3.089 -17.668  1.00 35.49    -0.235 N 
ATOM      9  HH  ARG D 557     -27.212  -1.604 -15.925  1.00 35.49     0.174 HD
ATOM     10  HH  ARG D 557     -27.223  -3.030 -16.336  1.00 35.49     0.174 HD
ATOM     11  HH  ARG D 557     -29.953  -2.953 -18.096  1.00 35.49     0.174 HD
ATOM     12  HH  ARG D 557     -28.861  -3.853 -17.641  1.00 35.49     0.174 HD
ATOM     13  HE  ARG D 557     -29.983  -0.892 -17.631  1.00 35.49     0.178 HD
ENDBRANCH   4   5
ENDBRANCH   3   4
ENDBRANCH   2   3
ENDBRANCH   1   2
END_RES ARG D 557
BEGIN_RES GLU D 570
REMARK  3 active torsions:
REMARK  status: ('A' for Active; 'I' for Inactive)
REMARK    5  A    between atoms: CA   and  CB  
REMARK    6  A    between atoms: CB   and  CG  
REMARK    7  A    between atoms: CG   and  CD  
ROOT
ATOM     14  CA  GLU D 570     -18.033  -6.348 -13.375  1.00 32.92     0.160 C 
ENDROOT
BRANCH  14  15
ATOM     15  CB  GLU D 570     -19.500  -6.345 -13.794  1.00 32.92     0.043 C 
BRANCH  15  16
ATOM     16  CG  GLU D 570     -19.823  -5.832 -15.150  1.00 32.92     0.100 C 
BRANCH  16  17
ATOM     17  CD  GLU D 570     -21.309  -5.692 -15.389  1.00 32.92     0.185 C 
ATOM     18  OE1 GLU D 570     -22.102  -6.096 -14.517  1.00 32.92    -0.647 OA
ATOM     19  OE2 GLU D 570     -21.683  -5.188 -16.466  1.00 32.92    -0.647 OA
ENDBRANCH  16  17
ENDBRANCH  15  16
ENDBRANCH  14  15
END_RES GLU D 570
ENDMDL
MODEL 7
REMARK VINA RESULT:      -6.8      4.603     12.856
REMARK  26 active torsions:
REMARK  status: ('A' for Active; 'I' for Inactive)
REMARK    1  A    between atoms: C_2  and  C_3 
REMARK    2  A    between atoms: C_3  and  C_4 
REMARK    3  A    between atoms: C_4  and  C_5 
REMARK    4  A    between atoms: C_5  and  C_6 
REMARK    5  A    between atoms: C_6  and  C_7 
REMARK    6  A    between atoms: C_7  and  C_8 
REMARK    7  A    between atoms: C_8  and  C_9 
REMARK    8  A    between atoms: C_9  and  C_10 
REMARK    9  A    between atoms: C_10  and  C_11 
REMARK   10  A    between atoms: C_11  and  C_12 
REMARK   11  A    between atoms: C_12  and  C_13 
REMARK   12  A    between atoms: C_13  and  C_14 
REMARK   13  A    between atoms: C_14  and  O_15 
REMARK   14  A    between atoms: O_15  and  C_16 
REMARK   15  A    between atoms: C_16  and  C_18 
REMARK   16  A    between atoms: C_18  and  C_19 
REMARK   17  A    between atoms: C_19  and  C_20 
REMARK   18  A    between atoms: C_20  and  C_21 
REMARK   19  A    between atoms: C_21  and  C_22 
REMARK   20  A    between atoms: C_22  and  C_23 
REMARK   21  A    between atoms: C_23  and  C_24 
REMARK   22  A    between atoms: C_24  and  C_25 
REMARK   23  A    between atoms: C_25  and  C_26 
REMARK   24  A    between atoms: C_26  and  C_27 
REMARK   25  A    between atoms: C_27  and  C_28 
REMARK   26  A    between atoms: C_28  and  C_29 
ROOT
HETATM    1  O   UNL     1     -22.354  -6.911  -1.202  1.00  0.00    -0.321 OA
ENDROOT
BRANCH   1   2
HETATM    2  C   UNL     1     -21.231  -7.009  -2.086  1.00  0.00     0.178 C 
BRANCH   2   3
HETATM    3  C   UNL     1     -21.384  -6.031  -3.242  1.00  0.00     0.027 C 
BRANCH   3   4
HETATM    4  C   UNL     1     -22.107  -6.687  -4.413  1.00  0.00     0.002 C 
BRANCH   4   5
HETATM    5  C   UNL     1     -21.751  -5.994  -5.720  1.00  0.00     0.000 C 
BRANCH   5   6
HETATM    6  C   UNL     1     -20.531  -5.103  -5.536  1.00  0.00     0.000 C 
BRANCH   6   7
HETATM    7  C   UNL     1     -19.638  -5.174  -6.763  1.00  0.00     0.000 C 
BRANCH   7   8
HETATM    8  C   UNL     1     -20.483  -5.228  -8.023  1.00  0.00     0.000 C 
BRANCH   8   9
HETATM    9  C   UNL     1     -20.100  -4.092  -8.956  1.00  0.00     0.000 C 
BRANCH   9  10
HETATM   10  C   UNL     1     -20.193  -4.552 -10.400  1.00  0.00     0.000 C 
BRANCH  10  11
HETATM   11  C   UNL     1     -21.029  -3.573 -11.206  1.00  0.00     0.000 C 
BRANCH  11  12
HETATM   12  C   UNL     1     -22.078  -4.321 -12.011  1.00  0.00     0.000 C 
BRANCH  12  13
HETATM   13  C   UNL     1     -23.217  -4.764 -11.106  1.00  0.00    -0.000 C 
BRANCH  13  14
HETATM   14  C   UNL     1     -23.755  -3.586 -10.306  1.00  0.00    -0.005 C 
HETATM   15  C   UNL     1     -23.844  -3.940  -8.835  1.00  0.00     0.005 C 
ENDBRANCH  13  14
ENDBRANCH  12  13
ENDBRANCH  11  12
ENDBRANCH  10  11
ENDBRANCH   9  10
ENDBRANCH   8   9
ENDBRANCH   7   8
ENDBRANCH   6   7
ENDBRANCH   5   6
ENDBRANCH   4   5
ENDBRANCH   3   4
ENDBRANCH   2   3
ENDBRANCH   1   2
BRANCH   1  16
HETATM   16  C   UNL     1     -22.402  -7.919  -0.278  1.00  0.00     0.258 C 
HETATM   17  O   UNL     1     -22.331  -7.771   0.925  1.00  0.00    -0.265 OA
BRANCH  16  18
HETATM   18  C   UNL     1     -22.537  -9.265  -0.955  1.00  0.00     0.111 C 
BRANCH  18  19
HETATM   19  C   UNL     1     -23.445 -10.194  -0.157  1.00  0.00     0.010 C 
BRANCH  19  20
HETATM   20  C   UNL     1     -24.057 -11.291  -1.024  1.00  0.00     0.000 C 
BRANCH  20  21
HETATM   21  C   UNL     1     -23.862 -12.651  -0.365  1.00  0.00     0.000 C 
BRANCH  21  22
HETATM   22  C   UNL     1     -22.750 -12.590   0.671  1.00  0.00     0.000 C 
BRANCH  22  23
HETATM   23  C   UNL     1     -21.863 -13.820   0.568  1.00  0.00     0.000 C 
BRANCH  23  24
HETATM   24  C   UNL     1     -20.428 -13.406   0.290  1.00  0.00     0.000 C 
BRANCH  24  25
HETATM   25  C   UNL     1     -20.280 -11.901   0.430  1.00  0.00     0.000 C 
BRANCH  25  26
HETATM   26  C   UNL     1     -19.540 -11.336  -0.771  1.00  0.00     0.000 C 
BRANCH  26  27
HETATM   27  C   UNL     1     -20.123 -11.901  -2.056  1.00  0.00     0.000 C 
BRANCH  27  28
HETATM   28  C   UNL     1     -19.441 -11.273  -3.262  1.00  0.00    -0.000 C 
BRANCH  28  29
HETATM   29  C   UNL     1     -20.211 -10.048  -3.733  1.00  0.00    -0.005 C 
HETATM   30  C   UNL     1     -19.314  -9.140  -4.551  1.00  0.00     0.005 C 
ENDBRANCH  28  29
ENDBRANCH  27  28
ENDBRANCH  26  27
ENDBRANCH  25  26
ENDBRANCH  24  25
ENDBRANCH  23  24
ENDBRANCH  22  23
ENDBRANCH  21  22
ENDBRANCH  20  21
ENDBRANCH  19  20
ENDBRANCH  18  19
ENDBRANCH  16  18
ENDBRANCH   1  16
TORSDOF 26
BEGIN_RES ARG D 557
REMARK  4 active torsions:
REMARK  status: ('A' for Active; 'I' for Inactive)
REMARK    1  A    between atoms: CA   and  CB  
REMARK    2  A    between atoms: CB   and  CG  
REMARK    3  A    between atoms: CG   and  CD  
REMARK    4  A    between atoms: CD   and  NE  
REMARK       I    between atoms: NE   and  CZ  
REMARK       I    between atoms: CZ   and  NH1 
REMARK       I    between atoms: CZ   and  NH2 
ROOT
ATOM      1  CA  ARG D 557     -26.217   2.705 -17.014  1.00 35.49     0.159 C 
ENDROOT
BRANCH   1   2
ATOM      2  CB  ARG D 557     -26.789   1.319 -17.183  1.00 35.49     0.034 C 
BRANCH   2   3
ATOM      3  CG  ARG D 557     -25.835   0.203 -17.158  1.00 35.49     0.027 C 
BRANCH   3   4
ATOM      4  CD  ARG D 557     -24.733   0.425 -16.195  1.00 35.49     0.116 C 
BRANCH   4   5
ATOM      5  NE  ARG D 557     -24.841  -0.429 -15.041  1.00 35.49    -0.212 N 
ATOM      6  CZ  ARG D 557     -23.999  -1.381 -14.708  1.00 35.49     0.666 C 
ATOM      7  NH1 ARG D 557     -22.934  -1.672 -15.433  1.00 35.49    -0.235 N 
ATOM      8  NH2 ARG D 557     -24.242  -2.043 -13.614  1.00 35.49    -0.235 N 
ATOM      9  HH  ARG D 557     -22.753  -1.248 -16.156  1.00 35.49     0.174 HD
ATOM     10  HH  ARG D 557     -22.419  -2.301 -15.165  1.00 35.49     0.174 HD
ATOM     11  HH  ARG D 557     -24.933  -1.828 -13.162  1.00 35.49     0.174 HD
ATOM     12  HH  ARG D 557     -23.719  -2.662 -13.365  1.00 35.49     0.174 HD
ATOM     13  HE  ARG D 557     -25.537  -0.359 -14.557  1.00 35.49     0.178 HD
ENDBRANCH   4   5
ENDBRANCH   3   4
ENDBRANCH   2   3
ENDBRANCH   1   2
END_RES ARG D 557
BEGIN_RES GLU D 570
REMARK  3 active torsions:
REMARK  status: ('A' for Active; 'I' for Inactive)
REMARK    5  A    between atoms: CA   and  CB  
REMARK    6  A    between atoms: CB   and  CG  
REMARK    7  A    between atoms: CG   and  CD  
ROOT
ATOM     14  CA  GLU D 570     -18.033  -6.348 -13.375  1.00 32.92     0.160 C 
ENDROOT
BRANCH  14  15
ATOM     15  CB  GLU D 570     -19.500  -6.345 -13.794  1.00 32.92     0.043 C 
BRANCH  15  16
ATOM     16  CG  GLU D 570     -19.814  -5.926 -15.185  1.00 32.92     0.100 C 
BRANCH  16  17
ATOM     17  CD  GLU D 570     -21.290  -5.702 -15.414  1.00 32.92     0.185 C 
ATOM     18  OE1 GLU D 570     -21.680  -4.585 -15.804  1.00 32.92    -0.647 OA
ATOM     19  OE2 GLU D 570     -22.068  -6.650 -15.184  1.00 32.92    -0.647 OA
ENDBRANCH  16  17
ENDBRANCH  15  16
ENDBRANCH  14  15
END_RES GLU D 570
ENDMDL
MODEL 8
REMARK VINA RESULT:      -6.8      3.521      8.954
REMARK  26 active torsions:
REMARK  status: ('A' for Active; 'I' for Inactive)
REMARK    1  A    between atoms: C_2  and  C_3 
REMARK    2  A    between atoms: C_3  and  C_4 
REMARK    3  A    between atoms: C_4  and  C_5 
REMARK    4  A    between atoms: C_5  and  C_6 
REMARK    5  A    between atoms: C_6  and  C_7 
REMARK    6  A    between atoms: C_7  and  C_8 
REMARK    7  A    between atoms: C_8  and  C_9 
REMARK    8  A    between atoms: C_9  and  C_10 
REMARK    9  A    between atoms: C_10  and  C_11 
REMARK   10  A    between atoms: C_11  and  C_12 
REMARK   11  A    between atoms: C_12  and  C_13 
REMARK   12  A    between atoms: C_13  and  C_14 
REMARK   13  A    between atoms: C_14  and  O_15 
REMARK   14  A    between atoms: O_15  and  C_16 
REMARK   15  A    between atoms: C_16  and  C_18 
REMARK   16  A    between atoms: C_18  and  C_19 
REMARK   17  A    between atoms: C_19  and  C_20 
REMARK   18  A    between atoms: C_20  and  C_21 
REMARK   19  A    between atoms: C_21  and  C_22 
REMARK   20  A    between atoms: C_22  and  C_23 
REMARK   21  A    between atoms: C_23  and  C_24 
REMARK   22  A    between atoms: C_24  and  C_25 
REMARK   23  A    between atoms: C_25  and  C_26 
REMARK   24  A    between atoms: C_26  and  C_27 
REMARK   25  A    between atoms: C_27  and  C_28 
REMARK   26  A    between atoms: C_28  and  C_29 
ROOT
HETATM    1  O   UNL     1     -21.226  -5.751  -4.434  1.00  0.00    -0.321 OA
ENDROOT
BRANCH   1   2
HETATM    2  C   UNL     1     -21.334  -7.064  -3.871  1.00  0.00     0.178 C 
BRANCH   2   3
HETATM    3  C   UNL     1     -21.073  -7.017  -2.372  1.00  0.00     0.027 C 
BRANCH   3   4
HETATM    4  C   UNL     1     -22.324  -6.584  -1.618  1.00  0.00     0.002 C 
BRANCH   4   5
HETATM    5  C   UNL     1     -22.313  -7.134  -0.199  1.00  0.00     0.000 C 
BRANCH   5   6
HETATM    6  C   UNL     1     -22.738  -8.595  -0.190  1.00  0.00     0.000 C 
BRANCH   6   7
HETATM    7  C   UNL     1     -21.750  -9.424   0.614  1.00  0.00     0.000 C 
BRANCH   7   8
HETATM    8  C   UNL     1     -20.925 -10.299  -0.314  1.00  0.00     0.000 C 
BRANCH   8   9
HETATM    9  C   UNL     1     -21.668 -10.518  -1.621  1.00  0.00     0.000 C 
BRANCH   9  10
HETATM   10  C   UNL     1     -20.678 -10.689  -2.758  1.00  0.00     0.000 C 
BRANCH  10  11
HETATM   11  C   UNL     1     -19.257 -10.653  -2.225  1.00  0.00     0.000 C 
BRANCH  11  12
HETATM   12  C   UNL     1     -18.510  -9.464  -2.804  1.00  0.00     0.000 C 
BRANCH  12  13
HETATM   13  C   UNL     1     -17.545  -9.926  -3.885  1.00  0.00    -0.000 C 
BRANCH  13  14
HETATM   14  C   UNL     1     -16.111  -9.584  -3.504  1.00  0.00    -0.005 C 
HETATM   15  C   UNL     1     -15.647 -10.454  -2.352  1.00  0.00     0.005 C 
ENDBRANCH  13  14
ENDBRANCH  12  13
ENDBRANCH  11  12
ENDBRANCH  10  11
ENDBRANCH   9  10
ENDBRANCH   8   9
ENDBRANCH   7   8
ENDBRANCH   6   7
ENDBRANCH   5   6
ENDBRANCH   4   5
ENDBRANCH   3   4
ENDBRANCH   2   3
ENDBRANCH   1   2
BRANCH   1  16
HETATM   16  C   UNL     1     -21.672  -5.682  -5.726  1.00  0.00     0.258 C 
HETATM   17  O   UNL     1     -22.810  -5.417  -6.061  1.00  0.00    -0.265 OA
BRANCH  16  18
HETATM   18  C   UNL     1     -20.559  -6.000  -6.699  1.00  0.00     0.111 C 
BRANCH  18  19
HETATM   19  C   UNL     1     -19.603  -4.820  -6.846  1.00  0.00     0.010 C 
BRANCH  19  20
HETATM   20  C   UNL     1     -19.941  -3.948  -8.052  1.00  0.00     0.000 C 
BRANCH  20  21
HETATM   21  C   UNL     1     -19.854  -4.767  -9.334  1.00  0.00     0.000 C 
BRANCH  21  22
HETATM   22  C   UNL     1     -20.831  -4.241 -10.373  1.00  0.00     0.000 C 
BRANCH  22  23
HETATM   23  C   UNL     1     -22.246  -4.243  -9.818  1.00  0.00     0.000 C 
BRANCH  23  24
HETATM   24  C   UNL     1     -23.225  -3.780 -10.883  1.00  0.00     0.000 C 
BRANCH  24  25
HETATM   25  C   UNL     1     -22.620  -2.646 -11.693  1.00  0.00     0.000 C 
BRANCH  25  26
HETATM   26  C   UNL     1     -22.981  -2.804 -13.161  1.00  0.00     0.000 C 
BRANCH  26  27
HETATM   27  C   UNL     1     -22.606  -4.195 -13.644  1.00  0.00     0.000 C 
BRANCH  27  28
HETATM   28  C   UNL     1     -23.754  -4.803 -14.434  1.00  0.00    -0.000 C 
BRANCH  28  29
HETATM   29  C   UNL     1     -23.705  -6.322 -14.366  1.00  0.00    -0.005 C 
HETATM   30  C   UNL     1     -24.220  -6.928 -15.656  1.00  0.00     0.005 C 
ENDBRANCH  28  29
ENDBRANCH  27  28
ENDBRANCH  26  27
ENDBRANCH  25  26
ENDBRANCH  24  25
ENDBRANCH  23  24
ENDBRANCH  22  23
ENDBRANCH  21  22
ENDBRANCH  20  21
ENDBRANCH  19  20
ENDBRANCH  18  19
ENDBRANCH  16  18
ENDBRANCH   1  16
TORSDOF 26
BEGIN_RES ARG D 557
REMARK  4 active torsions:
REMARK  status: ('A' for Active; 'I' for Inactive)
REMARK    1  A    between atoms: CA   and  CB  
REMARK    2  A    between atoms: CB   and  CG  
REMARK    3  A    between atoms: CG   and  CD  
REMARK    4  A    between atoms: CD   and  NE  
REMARK       I    between atoms: NE   and  CZ  
REMARK       I    between atoms: CZ   and  NH1 
REMARK       I    between atoms: CZ   and  NH2 
ROOT
ATOM      1  CA  ARG D 557     -26.217   2.705 -17.014  1.00 35.49     0.159 C 
ENDROOT
BRANCH   1   2
ATOM      2  CB  ARG D 557     -26.789   1.319 -17.183  1.00 35.49     0.034 C 
BRANCH   2   3
ATOM      3  CG  ARG D 557     -28.234   1.171 -16.973  1.00 35.49     0.027 C 
BRANCH   3   4
ATOM      4  CD  ARG D 557     -28.631  -0.239 -16.757  1.00 35.49     0.116 C 
BRANCH   4   5
ATOM      5  NE  ARG D 557     -27.618  -0.987 -16.059  1.00 35.49    -0.212 N 
ATOM      6  CZ  ARG D 557     -27.457  -2.290 -16.106  1.00 35.49     0.666 C 
ATOM      7  NH1 ARG D 557     -28.246  -3.078 -16.813  1.00 35.49    -0.235 N 
ATOM      8  NH2 ARG D 557     -26.470  -2.798 -15.426  1.00 35.49    -0.235 N 
ATOM      9  HH  ARG D 557     -28.900  -2.765 -17.270  1.00 35.49     0.174 HD
ATOM     10  HH  ARG D 557     -28.091  -3.921 -16.808  1.00 35.49     0.174 HD
ATOM     11  HH  ARG D 557     -25.972  -2.264 -14.984  1.00 35.49     0.174 HD
ATOM     12  HH  ARG D 557     -26.332  -3.634 -15.434  1.00 35.49     0.174 HD
ATOM     13  HE  ARG D 557     -27.110  -0.567 -15.522  1.00 35.49     0.178 HD
ENDBRANCH   4   5
ENDBRANCH   3   4
ENDBRANCH   2   3
ENDBRANCH   1   2
END_RES ARG D 557
BEGIN_RES GLU D 570
REMARK  3 active torsions:
REMARK  status: ('A' for Active; 'I' for Inactive)
REMARK    5  A    between atoms: CA   and  CB  
REMARK    6  A    between atoms: CB   and  CG  
REMARK    7  A    between atoms: CG   and  CD  
ROOT
ATOM     14  CA  GLU D 570     -18.033  -6.348 -13.375  1.00 32.92     0.160 C 
ENDROOT
BRANCH  14  15
ATOM     15  CB  GLU D 570     -19.500  -6.345 -13.794  1.00 32.92     0.043 C 
BRANCH  15  16
ATOM     16  CG  GLU D 570     -20.080  -7.629 -14.265  1.00 32.92     0.100 C 
BRANCH  16  17
ATOM     17  CD  GLU D 570     -20.552  -7.572 -15.699  1.00 32.92     0.185 C 
ATOM     18  OE1 GLU D 570     -20.871  -8.630 -16.275  1.00 32.92    -0.647 OA
ATOM     19  OE2 GLU D 570     -20.588  -6.458 -16.259  1.00 32.92    -0.647 OA
ENDBRANCH  16  17
ENDBRANCH  15  16
ENDBRANCH  14  15
END_RES GLU D 570
ENDMDL
MODEL 9
REMARK VINA RESULT:      -6.8      5.486      9.380
REMARK  26 active torsions:
REMARK  status: ('A' for Active; 'I' for Inactive)
REMARK    1  A    between atoms: C_2  and  C_3 
REMARK    2  A    between atoms: C_3  and  C_4 
REMARK    3  A    between atoms: C_4  and  C_5 
REMARK    4  A    between atoms: C_5  and  C_6 
REMARK    5  A    between atoms: C_6  and  C_7 
REMARK    6  A    between atoms: C_7  and  C_8 
REMARK    7  A    between atoms: C_8  and  C_9 
REMARK    8  A    between atoms: C_9  and  C_10 
REMARK    9  A    between atoms: C_10  and  C_11 
REMARK   10  A    between atoms: C_11  and  C_12 
REMARK   11  A    between atoms: C_12  and  C_13 
REMARK   12  A    between atoms: C_13  and  C_14 
REMARK   13  A    between atoms: C_14  and  O_15 
REMARK   14  A    between atoms: O_15  and  C_16 
REMARK   15  A    between atoms: C_16  and  C_18 
REMARK   16  A    between atoms: C_18  and  C_19 
REMARK   17  A    between atoms: C_19  and  C_20 
REMARK   18  A    between atoms: C_20  and  C_21 
REMARK   19  A    between atoms: C_21  and  C_22 
REMARK   20  A    between atoms: C_22  and  C_23 
REMARK   21  A    between atoms: C_23  and  C_24 
REMARK   22  A    between atoms: C_24  and  C_25 
REMARK   23  A    between atoms: C_25  and  C_26 
REMARK   24  A    between atoms: C_26  and  C_27 
REMARK   25  A    between atoms: C_27  and  C_28 
REMARK   26  A    between atoms: C_28  and  C_29 
ROOT
HETATM    1  O   UNL     1     -35.132  -2.542 -15.987  1.00  0.00    -0.321 OA
ENDROOT
BRANCH   1   2
HETATM    2  C   UNL     1     -35.469  -1.251 -16.511  1.00  0.00     0.178 C 
BRANCH   2   3
HETATM    3  C   UNL     1     -36.092  -0.388 -15.423  1.00  0.00     0.027 C 
BRANCH   3   4
HETATM    4  C   UNL     1     -35.124   0.700 -14.974  1.00  0.00     0.002 C 
BRANCH   4   5
HETATM    5  C   UNL     1     -34.968   0.689 -13.461  1.00  0.00     0.000 C 
BRANCH   5   6
HETATM    6  C   UNL     1     -36.087  -0.114 -12.815  1.00  0.00     0.000 C 
BRANCH   6   7
HETATM    7  C   UNL     1     -35.736  -0.440 -11.373  1.00  0.00     0.000 C 
BRANCH   7   8
HETATM    8  C   UNL     1     -35.565  -1.938 -11.202  1.00  0.00     0.000 C 
BRANCH   8   9
HETATM    9  C   UNL     1     -34.120  -2.330 -11.458  1.00  0.00     0.000 C 
BRANCH   9  10
HETATM   10  C   UNL     1     -34.063  -3.664 -12.181  1.00  0.00     0.000 C 
BRANCH  10  11
HETATM   11  C   UNL     1     -32.863  -4.464 -11.707  1.00  0.00     0.000 C 
BRANCH  11  12
HETATM   12  C   UNL     1     -33.311  -5.811 -11.166  1.00  0.00     0.000 C 
BRANCH  12  13
HETATM   13  C   UNL     1     -34.690  -5.690 -10.536  1.00  0.00    -0.000 C 
BRANCH  13  14
HETATM   14  C   UNL     1     -34.985  -6.899  -9.659  1.00  0.00    -0.005 C 
HETATM   15  C   UNL     1     -34.286  -8.131 -10.201  1.00  0.00     0.005 C 
ENDBRANCH  13  14
ENDBRANCH  12  13
ENDBRANCH  11  12
ENDBRANCH  10  11
ENDBRANCH   9  10
ENDBRANCH   8   9
ENDBRANCH   7   8
ENDBRANCH   6   7
ENDBRANCH   5   6
ENDBRANCH   4   5
ENDBRANCH   3   4
ENDBRANCH   2   3
ENDBRANCH   1   2
BRANCH   1  16
HETATM   16  C   UNL     1     -34.044  -3.103 -16.598  1.00  0.00     0.258 C 
HETATM   17  O   UNL     1     -33.491  -2.662 -17.585  1.00  0.00    -0.265 OA
BRANCH  16  18
HETATM   18  C   UNL     1     -33.622  -4.371 -15.890  1.00  0.00     0.111 C 
BRANCH  18  19
HETATM   19  C   UNL     1     -32.688  -5.203 -16.762  1.00  0.00     0.010 C 
BRANCH  19  20
HETATM   20  C   UNL     1     -31.235  -4.749 -16.653  1.00  0.00     0.000 C 
BRANCH  20  21
HETATM   21  C   UNL     1     -30.370  -5.511 -17.650  1.00  0.00     0.000 C 
BRANCH  21  22
HETATM   22  C   UNL     1     -30.604  -7.009 -17.527  1.00  0.00     0.000 C 
BRANCH  22  23
HETATM   23  C   UNL     1     -29.358  -7.697 -16.996  1.00  0.00     0.000 C 
BRANCH  23  24
HETATM   24  C   UNL     1     -28.698  -6.835 -15.933  1.00  0.00     0.000 C 
BRANCH  24  25
HETATM   25  C   UNL     1     -27.250  -7.251 -15.746  1.00  0.00     0.000 C 
BRANCH  25  26
HETATM   26  C   UNL     1     -26.326  -6.094 -16.090  1.00  0.00     0.000 C 
BRANCH  26  27
HETATM   27  C   UNL     1     -27.139  -4.833 -16.337  1.00  0.00     0.000 C 
BRANCH  27  28
HETATM   28  C   UNL     1     -26.683  -3.724 -15.403  1.00  0.00    -0.000 C 
BRANCH  28  29
HETATM   29  C   UNL     1     -27.324  -2.400 -15.793  1.00  0.00    -0.005 C 
HETATM   30  C   UNL     1     -28.314  -2.603 -16.923  1.00  0.00     0.005 C 
ENDBRANCH  28  29
ENDBRANCH  27  28
ENDBRANCH  26  27
ENDBRANCH  25  26
ENDBRANCH  24  25
ENDBRANCH  23  24
ENDBRANCH  22  23
ENDBRANCH  21  22
ENDBRANCH  20  21
ENDBRANCH  19  20
ENDBRANCH  18  19
ENDBRANCH  16  18
ENDBRANCH   1  16
TORSDOF 26
BEGIN_RES ARG D 557
REMARK  4 active torsions:
REMARK  status: ('A' for Active; 'I' for Inactive)
REMARK    1  A    between atoms: CA   and  CB  
REMARK    2  A    between atoms: CB   and  CG  
REMARK    3  A    between atoms: CG   and  CD  
REMARK    4  A    between atoms: CD   and  NE  
REMARK       I    between atoms: NE   and  CZ  
REMARK       I    between atoms: CZ   and  NH1 
REMARK       I    between atoms: CZ   and  NH2 
ROOT
ATOM      1  CA  ARG D 557     -26.217   2.705 -17.014  1.00 35.49     0.159 C 
ENDROOT
BRANCH   1   2
ATOM      2  CB  ARG D 557     -26.789   1.319 -17.183  1.00 35.49     0.034 C 
BRANCH   2   3
ATOM      3  CG  ARG D 557     -25.835   0.203 -17.162  1.00 35.49     0.027 C 
BRANCH   3   4
ATOM      4  CD  ARG D 557     -24.687   0.459 -16.262  1.00 35.49     0.116 C 
BRANCH   4   5
ATOM      5  NE  ARG D 557     -24.749  -0.337 -15.065  1.00 35.49    -0.212 N 
ATOM      6  CZ  ARG D 557     -23.921  -1.306 -14.743  1.00 35.49     0.666 C 
ATOM      7  NH1 ARG D 557     -22.920  -1.671 -15.522  1.00 35.49    -0.235 N 
ATOM      8  NH2 ARG D 557     -24.115  -1.908 -13.606  1.00 35.49    -0.235 N 
ATOM      9  HH  ARG D 557     -22.772  -1.287 -16.274  1.00 35.49     0.174 HD
ATOM     10  HH  ARG D 557     -22.411  -2.308 -15.259  1.00 35.49     0.174 HD
ATOM     11  HH  ARG D 557     -24.765  -1.646 -13.120  1.00 35.49     0.174 HD
ATOM     12  HH  ARG D 557     -23.599  -2.535 -13.362  1.00 35.49     0.174 HD
ATOM     13  HE  ARG D 557     -25.407  -0.218 -14.539  1.00 35.49     0.178 HD
ENDBRANCH   4   5
ENDBRANCH   3   4
ENDBRANCH   2   3
ENDBRANCH   1   2
END_RES ARG D 557
BEGIN_RES GLU D 570
REMARK  3 active torsions:
REMARK  status: ('A' for Active; 'I' for Inactive)
REMARK    5  A    between atoms: CA   and  CB  
REMARK    6  A    between atoms: CB   and  CG  
REMARK    7  A    between atoms: CG   and  CD  
ROOT
ATOM     14  CA  GLU D 570     -18.033  -6.348 -13.375  1.00 32.92     0.160 C 
ENDROOT
BRANCH  14  15
ATOM     15  CB  GLU D 570     -19.500  -6.345 -13.794  1.00 32.92     0.043 C 
BRANCH  15  16
ATOM     16  CG  GLU D 570     -19.819  -5.876 -15.167  1.00 32.92     0.100 C 
BRANCH  16  17
ATOM     17  CD  GLU D 570     -21.244  -5.394 -15.309  1.00 32.92     0.185 C 
ATOM     18  OE1 GLU D 570     -21.942  -5.837 -16.241  1.00 32.92    -0.647 OA
ATOM     19  OE2 GLU D 570     -21.660  -4.551 -14.491  1.00 32.92    -0.647 OA
ENDBRANCH  16  17
ENDBRANCH  15  16
ENDBRANCH  14  15
END_RES GLU D 570
ENDMDL
