MODEL 1
REMARK VINA RESULT:      -8.5      0.000      0.000
REMARK  5 active torsions:
REMARK  status: ('A' for Active; 'I' for Inactive)
REMARK    1  A    between atoms: C_4  and  S_26 
REMARK    2  A    between atoms: C_5  and  N_8 
REMARK    3  A    between atoms: N_8  and  C_9 
REMARK    4  A    between atoms: C_12  and  O_15 
REMARK    5  A    between atoms: S_26  and  O_29 
ROOT
HETATM    1  C   UNL     1     -20.557  -8.673  -4.139  1.00  0.00     0.048 C 
HETATM    2  C   UNL     1     -20.955  -8.874  -2.807  1.00  0.00     0.059 C 
HETATM    3  C   UNL     1     -21.610  -7.866  -2.103  1.00  0.00     0.064 C 
HETATM    4  C   UNL     1     -21.650  -6.571  -2.622  1.00  0.00     0.081 C 
HETATM    5  C   UNL     1     -21.131  -6.316  -3.885  1.00  0.00     0.040 C 
HETATM    6  C   UNL     1     -20.645  -7.372  -4.661  1.00  0.00     0.033 C 
HETATM    7  C   UNL     1     -22.411  -8.239  -0.920  1.00  0.00     0.197 C 
HETATM    8  O   UNL     1     -22.974  -7.373  -0.257  1.00  0.00    -0.286 OA
HETATM    9  C   UNL     1     -22.579  -9.674  -0.616  1.00  0.00     0.029 C 
HETATM   10  C   UNL     1     -23.690 -10.135   0.090  1.00  0.00     0.016 C 
HETATM   11  C   UNL     1     -23.793 -11.496   0.393  1.00  0.00     0.001 C 
HETATM   12  C   UNL     1     -22.755 -12.373   0.063  1.00  0.00     0.001 C 
HETATM   13  C   UNL     1     -21.659 -11.914  -0.665  1.00  0.00     0.016 C 
HETATM   14  C   UNL     1     -21.623 -10.578  -1.067  1.00  0.00     0.029 C 
HETATM   15  C   UNL     1     -20.680 -10.149  -2.109  1.00  0.00     0.196 C 
HETATM   16  O   UNL     1     -19.722 -10.844  -2.424  1.00  0.00    -0.286 OA
ENDROOT
BRANCH   1  17
HETATM   17  N   UNL     1     -20.343  -9.778  -5.005  1.00  0.00    -0.354 N 
HETATM   18  H   UNL     1     -20.831 -10.612  -4.652  1.00  0.00     0.166 HD
BRANCH  17  19
HETATM   19  C   UNL     1     -19.105 -10.202  -5.544  1.00  0.00     0.056 A 
HETATM   20  C   UNL     1     -18.914 -11.438  -6.177  1.00  0.00     0.115 A 
HETATM   21  C   UNL     1     -17.613 -11.936  -6.383  1.00  0.00     0.035 A 
HETATM   22  C   UNL     1     -16.490 -11.176  -6.038  1.00  0.00    -0.060 A 
HETATM   23  C   UNL     1     -15.101 -11.686  -6.266  1.00  0.00     0.048 C 
HETATM   24  C   UNL     1     -16.682  -9.913  -5.475  1.00  0.00     0.009 A 
HETATM   25  C   UNL     1     -17.968  -9.450  -5.209  1.00  0.00     0.031 A 
BRANCH  20  26
HETATM   26  S   UNL     1     -20.232 -12.412  -6.886  1.00  0.00     0.327 S 
HETATM   27  O   UNL     1     -21.380 -11.522  -7.027  1.00  0.00    -0.191 OA
HETATM   28  O   UNL     1     -19.708 -12.916  -8.158  1.00  0.00    -0.191 OA
BRANCH  26  29
HETATM   29  O   UNL     1     -20.594 -13.502  -5.966  1.00  0.00    -0.086 OA
HETATM   30 NA   UNL     2     -20.347 -12.590  -4.114  1.00  0.00     0.000 Na
ENDBRANCH  26  29
ENDBRANCH  20  26
ENDBRANCH  17  19
ENDBRANCH   1  17
BRANCH   4  31
HETATM   31  O   UNL     1     -22.221  -5.520  -1.960  1.00  0.00    -0.360 OA
HETATM   32  H   UNL     1     -21.514  -4.869  -1.746  1.00  0.00     0.217 HD
ENDBRANCH   4  31
TORSDOF 5
BEGIN_RES ARG D 557
REMARK  4 active torsions:
REMARK  status: ('A' for Active; 'I' for Inactive)
REMARK    1  A    between atoms: CA   and  CB  
REMARK    2  A    between atoms: CB   and  CG  
REMARK    3  A    between atoms: CG   and  CD  
REMARK    4  A    between atoms: CD   and  NE  
REMARK       I    between atoms: NE   and  CZ  
REMARK       I    between atoms: CZ   and  NH1 
REMARK       I    between atoms: CZ   and  NH2 
ROOT
ATOM      1  CA  ARG D 557     -26.217   2.705 -17.014  1.00 35.49     0.159 C 
ENDROOT
BRANCH   1   2
ATOM      2  CB  ARG D 557     -26.789   1.319 -17.183  1.00 35.49     0.034 C 
BRANCH   2   3
ATOM      3  CG  ARG D 557     -25.836   0.203 -17.157  1.00 35.49     0.027 C 
BRANCH   3   4
ATOM      4  CD  ARG D 557     -24.742   0.418 -16.182  1.00 35.49     0.116 C 
BRANCH   4   5
ATOM      5  NE  ARG D 557     -24.878  -0.420 -15.020  1.00 35.49    -0.212 N 
ATOM      6  CZ  ARG D 557     -24.063  -1.392 -14.674  1.00 35.49     0.666 C 
ATOM      7  NH1 ARG D 557     -23.004  -1.718 -15.391  1.00 35.49    -0.235 N 
ATOM      8  NH2 ARG D 557     -24.329  -2.036 -13.575  1.00 35.49    -0.235 N 
ATOM      9  HH  ARG D 557     -22.809  -1.306 -16.117  1.00 35.49     0.174 HD
ATOM     10  HH  ARG D 557     -22.507  -2.359 -15.115  1.00 35.49     0.174 HD
ATOM     11  HH  ARG D 557     -25.016  -1.798 -13.128  1.00 35.49     0.174 HD
ATOM     12  HH  ARG D 557     -23.824  -2.666 -13.317  1.00 35.49     0.174 HD
ATOM     13  HE  ARG D 557     -25.574  -0.327 -14.540  1.00 35.49     0.178 HD
ENDBRANCH   4   5
ENDBRANCH   3   4
ENDBRANCH   2   3
ENDBRANCH   1   2
END_RES ARG D 557
BEGIN_RES GLU D 570
REMARK  3 active torsions:
REMARK  status: ('A' for Active; 'I' for Inactive)
REMARK    5  A    between atoms: CA   and  CB  
REMARK    6  A    between atoms: CB   and  CG  
REMARK    7  A    between atoms: CG   and  CD  
ROOT
ATOM     14  CA  GLU D 570     -18.033  -6.348 -13.375  1.00 32.92     0.160 C 
ENDROOT
BRANCH  14  15
ATOM     15  CB  GLU D 570     -19.500  -6.345 -13.794  1.00 32.92     0.043 C 
BRANCH  15  16
ATOM     16  CG  GLU D 570     -20.443  -5.534 -12.980  1.00 32.92     0.100 C 
BRANCH  16  17
ATOM     17  CD  GLU D 570     -21.723  -5.207 -13.713  1.00 32.92     0.185 C 
ATOM     18  OE1 GLU D 570     -22.304  -4.133 -13.466  1.00 32.92    -0.647 OA
ATOM     19  OE2 GLU D 570     -22.158  -6.041 -14.531  1.00 32.92    -0.647 OA
ENDBRANCH  16  17
ENDBRANCH  15  16
ENDBRANCH  14  15
END_RES GLU D 570
ENDMDL
MODEL 2
REMARK VINA RESULT:      -8.3      2.667      4.322
REMARK  5 active torsions:
REMARK  status: ('A' for Active; 'I' for Inactive)
REMARK    1  A    between atoms: C_4  and  S_26 
REMARK    2  A    between atoms: C_5  and  N_8 
REMARK    3  A    between atoms: N_8  and  C_9 
REMARK    4  A    between atoms: C_12  and  O_15 
REMARK    5  A    between atoms: S_26  and  O_29 
ROOT
HETATM    1  C   UNL     1     -20.553 -10.715  -1.119  1.00  0.00     0.048 C 
HETATM    2  C   UNL     1     -21.201  -9.638  -1.744  1.00  0.00     0.059 C 
HETATM    3  C   UNL     1     -21.660  -8.555  -0.995  1.00  0.00     0.064 C 
HETATM    4  C   UNL     1     -21.707  -8.646   0.397  1.00  0.00     0.081 C 
HETATM    5  C   UNL     1     -21.200  -9.771   1.035  1.00  0.00     0.040 C 
HETATM    6  C   UNL     1     -20.572 -10.769   0.285  1.00  0.00     0.033 C 
HETATM    7  C   UNL     1     -21.899  -7.272  -1.685  1.00  0.00     0.197 C 
HETATM    8  O   UNL     1     -22.333  -6.308  -1.064  1.00  0.00    -0.286 OA
HETATM    9  C   UNL     1     -21.523  -7.166  -3.109  1.00  0.00     0.029 C 
HETATM   10  C   UNL     1     -21.200  -5.934  -3.679  1.00  0.00     0.016 C 
HETATM   11  C   UNL     1     -20.888  -5.869  -5.040  1.00  0.00     0.001 C 
HETATM   12  C   UNL     1     -20.976  -7.012  -5.840  1.00  0.00     0.001 C 
HETATM   13  C   UNL     1     -21.272  -8.246  -5.263  1.00  0.00     0.016 C 
HETATM   14  C   UNL     1     -21.464  -8.321  -3.882  1.00  0.00     0.029 C 
HETATM   15  C   UNL     1     -21.432  -9.624  -3.205  1.00  0.00     0.196 C 
HETATM   16  O   UNL     1     -21.543 -10.669  -3.833  1.00  0.00    -0.286 OA
ENDROOT
BRANCH   1  17
HETATM   17  N   UNL     1     -19.679 -11.559  -1.854  1.00  0.00    -0.354 N 
HETATM   18  H   UNL     1     -20.146 -12.446  -2.087  1.00  0.00     0.166 HD
BRANCH  17  19
HETATM   19  C   UNL     1     -18.330 -11.855  -1.544  1.00  0.00     0.056 A 
HETATM   20  C   UNL     1     -17.240 -11.412  -2.307  1.00  0.00     0.115 A 
HETATM   21  C   UNL     1     -15.974 -12.007  -2.148  1.00  0.00     0.035 A 
HETATM   22  C   UNL     1     -15.759 -12.990  -1.175  1.00  0.00    -0.060 A 
HETATM   23  C   UNL     1     -14.415 -13.621  -0.985  1.00  0.00     0.048 C 
HETATM   24  C   UNL     1     -16.829 -13.378  -0.366  1.00  0.00     0.009 A 
HETATM   25  C   UNL     1     -18.096 -12.837  -0.568  1.00  0.00     0.031 A 
BRANCH  20  26
HETATM   26  S   UNL     1     -17.299 -10.013  -3.414  1.00  0.00     0.327 S 
HETATM   27  O   UNL     1     -18.066 -10.436  -4.582  1.00  0.00    -0.191 OA
HETATM   28  O   UNL     1     -17.926  -8.932  -2.649  1.00  0.00    -0.191 OA
BRANCH  26  29
HETATM   29  O   UNL     1     -15.937  -9.665  -3.849  1.00  0.00    -0.086 OA
HETATM   30 NA   UNL     2     -15.310  -8.416  -2.310  1.00  0.00     0.000 Na
ENDBRANCH  26  29
ENDBRANCH  20  26
ENDBRANCH  17  19
ENDBRANCH   1  17
BRANCH   4  31
HETATM   31  O   UNL     1     -22.200  -7.649   1.191  1.00  0.00    -0.360 OA
HETATM   32  H   UNL     1     -22.564  -6.943   0.611  1.00  0.00     0.217 HD
ENDBRANCH   4  31
TORSDOF 5
BEGIN_RES ARG D 557
REMARK  4 active torsions:
REMARK  status: ('A' for Active; 'I' for Inactive)
REMARK    1  A    between atoms: CA   and  CB  
REMARK    2  A    between atoms: CB   and  CG  
REMARK    3  A    between atoms: CG   and  CD  
REMARK    4  A    between atoms: CD   and  NE  
REMARK       I    between atoms: NE   and  CZ  
REMARK       I    between atoms: CZ   and  NH1 
REMARK       I    between atoms: CZ   and  NH2 
ROOT
ATOM      1  CA  ARG D 557     -26.217   2.705 -17.014  1.00 35.49     0.159 C 
ENDROOT
BRANCH   1   2
ATOM      2  CB  ARG D 557     -26.789   1.319 -17.183  1.00 35.49     0.034 C 
BRANCH   2   3
ATOM      3  CG  ARG D 557     -25.838   0.202 -17.135  1.00 35.49     0.027 C 
BRANCH   3   4
ATOM      4  CD  ARG D 557     -24.764   0.417 -16.139  1.00 35.49     0.116 C 
BRANCH   4   5
ATOM      5  NE  ARG D 557     -24.913  -0.435 -14.988  1.00 35.49    -0.212 N 
ATOM      6  CZ  ARG D 557     -24.120  -1.432 -14.664  1.00 35.49     0.666 C 
ATOM      7  NH1 ARG D 557     -23.076  -1.775 -15.395  1.00 35.49    -0.235 N 
ATOM      8  NH2 ARG D 557     -24.394  -2.086 -13.572  1.00 35.49    -0.235 N 
ATOM      9  HH  ARG D 557     -22.876  -1.358 -16.116  1.00 35.49     0.174 HD
ATOM     10  HH  ARG D 557     -22.594  -2.433 -15.132  1.00 35.49     0.174 HD
ATOM     11  HH  ARG D 557     -25.071  -1.837 -13.116  1.00 35.49     0.174 HD
ATOM     12  HH  ARG D 557     -23.904  -2.733 -13.328  1.00 35.49     0.174 HD
ATOM     13  HE  ARG D 557     -25.602  -0.331 -14.501  1.00 35.49     0.178 HD
ENDBRANCH   4   5
ENDBRANCH   3   4
ENDBRANCH   2   3
ENDBRANCH   1   2
END_RES ARG D 557
BEGIN_RES GLU D 570
REMARK  3 active torsions:
REMARK  status: ('A' for Active; 'I' for Inactive)
REMARK    5  A    between atoms: CA   and  CB  
REMARK    6  A    between atoms: CB   and  CG  
REMARK    7  A    between atoms: CG   and  CD  
ROOT
ATOM     14  CA  GLU D 570     -18.033  -6.348 -13.375  1.00 32.92     0.160 C 
ENDROOT
BRANCH  14  15
ATOM     15  CB  GLU D 570     -19.500  -6.345 -13.794  1.00 32.92     0.043 C 
BRANCH  15  16
ATOM     16  CG  GLU D 570     -20.447  -5.555 -12.965  1.00 32.92     0.100 C 
BRANCH  16  17
ATOM     17  CD  GLU D 570     -21.694  -5.153 -13.717  1.00 32.92     0.185 C 
ATOM     18  OE1 GLU D 570     -22.338  -4.157 -13.333  1.00 32.92    -0.647 OA
ATOM     19  OE2 GLU D 570     -22.040  -5.850 -14.691  1.00 32.92    -0.647 OA
ENDBRANCH  16  17
ENDBRANCH  15  16
ENDBRANCH  14  15
END_RES GLU D 570
ENDMDL
MODEL 3
REMARK VINA RESULT:      -8.2      1.699      2.056
REMARK  5 active torsions:
REMARK  status: ('A' for Active; 'I' for Inactive)
REMARK    1  A    between atoms: C_4  and  S_26 
REMARK    2  A    between atoms: C_5  and  N_8 
REMARK    3  A    between atoms: N_8  and  C_9 
REMARK    4  A    between atoms: C_12  and  O_15 
REMARK    5  A    between atoms: S_26  and  O_29 
ROOT
HETATM    1  C   UNL     1     -20.264  -8.768  -3.787  1.00  0.00     0.048 C 
HETATM    2  C   UNL     1     -20.791  -8.947  -2.498  1.00  0.00     0.059 C 
HETATM    3  C   UNL     1     -21.600  -7.970  -1.920  1.00  0.00     0.064 C 
HETATM    4  C   UNL     1     -21.685  -6.706  -2.506  1.00  0.00     0.081 C 
HETATM    5  C   UNL     1     -21.049  -6.460  -3.717  1.00  0.00     0.040 C 
HETATM    6  C   UNL     1     -20.396  -7.502  -4.380  1.00  0.00     0.033 C 
HETATM    7  C   UNL     1     -22.496  -8.360  -0.814  1.00  0.00     0.197 C 
HETATM    8  O   UNL     1     -23.198  -7.519  -0.261  1.00  0.00    -0.286 OA
HETATM    9  C   UNL     1     -22.582  -9.790  -0.457  1.00  0.00     0.029 C 
HETATM   10  C   UNL     1     -23.725 -10.315   0.146  1.00  0.00     0.016 C 
HETATM   11  C   UNL     1     -23.751 -11.666   0.505  1.00  0.00     0.001 C 
HETATM   12  C   UNL     1     -22.616 -12.464   0.335  1.00  0.00     0.001 C 
HETATM   13  C   UNL     1     -21.485 -11.944  -0.293  1.00  0.00     0.016 C 
HETATM   14  C   UNL     1     -21.511 -10.628  -0.756  1.00  0.00     0.029 C 
HETATM   15  C   UNL     1     -20.495 -10.163  -1.709  1.00  0.00     0.196 C 
HETATM   16  O   UNL     1     -19.455 -10.787  -1.883  1.00  0.00    -0.286 OA
ENDROOT
BRANCH   1  17
HETATM   17  N   UNL     1     -19.866  -9.886  -4.568  1.00  0.00    -0.354 N 
HETATM   18  H   UNL     1     -20.299 -10.747  -4.210  1.00  0.00     0.166 HD
BRANCH  17  19
HETATM   19  C   UNL     1     -18.549 -10.206  -4.974  1.00  0.00     0.056 A 
HETATM   20  C   UNL     1     -18.232 -11.291  -5.805  1.00  0.00     0.115 A 
HETATM   21  C   UNL     1     -16.905 -11.752  -5.896  1.00  0.00     0.035 A 
HETATM   22  C   UNL     1     -15.868 -11.091  -5.228  1.00  0.00    -0.060 A 
HETATM   23  C   UNL     1     -14.450 -11.560  -5.328  1.00  0.00     0.048 C 
HETATM   24  C   UNL     1     -16.174  -9.966  -4.460  1.00  0.00     0.009 A 
HETATM   25  C   UNL     1     -17.496  -9.551  -4.317  1.00  0.00     0.031 A 
BRANCH  20  26
HETATM   26  S   UNL     1     -19.399 -12.085  -6.898  1.00  0.00     0.327 S 
HETATM   27  O   UNL     1     -18.870 -11.943  -8.251  1.00  0.00    -0.191 OA
HETATM   28  O   UNL     1     -19.490 -13.473  -6.436  1.00  0.00    -0.191 OA
BRANCH  26  29
HETATM   29  O   UNL     1     -20.696 -11.393  -6.827  1.00  0.00    -0.086 OA
HETATM   30 NA   UNL     2     -21.538 -12.249  -5.130  1.00  0.00     0.000 Na
ENDBRANCH  26  29
ENDBRANCH  20  26
ENDBRANCH  17  19
ENDBRANCH   1  17
BRANCH   4  31
HETATM   31  O   UNL     1     -22.409  -5.681  -1.964  1.00  0.00    -0.360 OA
HETATM   32  H   UNL     1     -22.912  -5.242  -2.688  1.00  0.00     0.217 HD
ENDBRANCH   4  31
TORSDOF 5
BEGIN_RES ARG D 557
REMARK  4 active torsions:
REMARK  status: ('A' for Active; 'I' for Inactive)
REMARK    1  A    between atoms: CA   and  CB  
REMARK    2  A    between atoms: CB   and  CG  
REMARK    3  A    between atoms: CG   and  CD  
REMARK    4  A    between atoms: CD   and  NE  
REMARK       I    between atoms: NE   and  CZ  
REMARK       I    between atoms: CZ   and  NH1 
REMARK       I    between atoms: CZ   and  NH2 
ROOT
ATOM      1  CA  ARG D 557     -26.217   2.705 -17.014  1.00 35.49     0.159 C 
ENDROOT
BRANCH   1   2
ATOM      2  CB  ARG D 557     -26.789   1.319 -17.183  1.00 35.49     0.034 C 
BRANCH   2   3
ATOM      3  CG  ARG D 557     -28.229   1.227 -17.454  1.00 35.49     0.027 C 
BRANCH   3   4
ATOM      4  CD  ARG D 557     -28.923   0.318 -16.513  1.00 35.49     0.116 C 
BRANCH   4   5
ATOM      5  NE  ARG D 557     -29.319  -0.914 -17.142  1.00 35.49    -0.212 N 
ATOM      6  CZ  ARG D 557     -28.693  -2.065 -17.040  1.00 35.49     0.666 C 
ATOM      7  NH1 ARG D 557     -27.586  -2.210 -16.335  1.00 35.49    -0.235 N 
ATOM      8  NH2 ARG D 557     -29.207  -3.086 -17.662  1.00 35.49    -0.235 N 
ATOM      9  HH  ARG D 557     -27.231  -1.552 -15.915  1.00 35.49     0.174 HD
ATOM     10  HH  ARG D 557     -27.223  -2.985 -16.302  1.00 35.49     0.174 HD
ATOM     11  HH  ARG D 557     -29.927  -2.964 -18.104  1.00 35.49     0.174 HD
ATOM     12  HH  ARG D 557     -28.834  -3.845 -17.616  1.00 35.49     0.174 HD
ATOM     13  HE  ARG D 557     -29.982  -0.895 -17.674  1.00 35.49     0.178 HD
ENDBRANCH   4   5
ENDBRANCH   3   4
ENDBRANCH   2   3
ENDBRANCH   1   2
END_RES ARG D 557
BEGIN_RES GLU D 570
REMARK  3 active torsions:
REMARK  status: ('A' for Active; 'I' for Inactive)
REMARK    5  A    between atoms: CA   and  CB  
REMARK    6  A    between atoms: CB   and  CG  
REMARK    7  A    between atoms: CG   and  CD  
ROOT
ATOM     14  CA  GLU D 570     -18.033  -6.348 -13.375  1.00 32.92     0.160 C 
ENDROOT
BRANCH  14  15
ATOM     15  CB  GLU D 570     -19.500  -6.345 -13.794  1.00 32.92     0.043 C 
BRANCH  15  16
ATOM     16  CG  GLU D 570     -20.436  -5.506 -13.002  1.00 32.92     0.100 C 
BRANCH  16  17
ATOM     17  CD  GLU D 570     -21.752  -5.267 -13.705  1.00 32.92     0.185 C 
ATOM     18  OE1 GLU D 570     -22.362  -4.200 -13.501  1.00 32.92    -0.647 OA
ATOM     19  OE2 GLU D 570     -22.185  -6.163 -14.456  1.00 32.92    -0.647 OA
ENDBRANCH  16  17
ENDBRANCH  15  16
ENDBRANCH  14  15
END_RES GLU D 570
ENDMDL
MODEL 4
REMARK VINA RESULT:      -8.0      2.033      2.709
REMARK  5 active torsions:
REMARK  status: ('A' for Active; 'I' for Inactive)
REMARK    1  A    between atoms: C_4  and  S_26 
REMARK    2  A    between atoms: C_5  and  N_8 
REMARK    3  A    between atoms: N_8  and  C_9 
REMARK    4  A    between atoms: C_12  and  O_15 
REMARK    5  A    between atoms: S_26  and  O_29 
ROOT
HETATM    1  C   UNL     1     -19.960  -8.118  -4.442  1.00  0.00     0.048 C 
HETATM    2  C   UNL     1     -20.202  -8.373  -3.083  1.00  0.00     0.059 C 
HETATM    3  C   UNL     1     -21.197  -7.678  -2.397  1.00  0.00     0.064 C 
HETATM    4  C   UNL     1     -21.784  -6.554  -2.979  1.00  0.00     0.081 C 
HETATM    5  C   UNL     1     -21.452  -6.195  -4.279  1.00  0.00     0.040 C 
HETATM    6  C   UNL     1     -20.593  -7.007  -5.025  1.00  0.00     0.033 C 
HETATM    7  C   UNL     1     -21.738  -8.266  -1.155  1.00  0.00     0.197 C 
HETATM    8  O   UNL     1     -22.591  -7.666  -0.509  1.00  0.00    -0.286 OA
HETATM    9  C   UNL     1     -21.288  -9.618  -0.769  1.00  0.00     0.029 C 
HETATM   10  C   UNL     1     -22.088 -10.447   0.017  1.00  0.00     0.016 C 
HETATM   11  C   UNL     1     -21.608 -11.704   0.394  1.00  0.00     0.001 C 
HETATM   12  C   UNL     1     -20.310 -12.096   0.055  1.00  0.00     0.001 C 
HETATM   13  C   UNL     1     -19.524 -11.278  -0.753  1.00  0.00     0.016 C 
HETATM   14  C   UNL     1     -20.055 -10.077  -1.225  1.00  0.00     0.029 C 
HETATM   15  C   UNL     1     -19.404  -9.370  -2.336  1.00  0.00     0.196 C 
HETATM   16  O   UNL     1     -18.254  -9.629  -2.666  1.00  0.00    -0.286 OA
ENDROOT
BRANCH   1  17
HETATM   17  N   UNL     1     -19.331  -9.093  -5.261  1.00  0.00    -0.354 N 
HETATM   18  H   UNL     1     -19.071  -8.686  -6.169  1.00  0.00     0.166 HD
BRANCH  17  19
HETATM   19  C   UNL     1     -19.779 -10.414  -5.497  1.00  0.00     0.056 A 
HETATM   20  C   UNL     1     -18.963 -11.434  -6.007  1.00  0.00     0.115 A 
HETATM   21  C   UNL     1     -19.537 -12.609  -6.529  1.00  0.00     0.035 A 
HETATM   22  C   UNL     1     -20.920 -12.818  -6.476  1.00  0.00    -0.060 A 
HETATM   23  C   UNL     1     -21.543 -14.068  -7.012  1.00  0.00     0.048 C 
HETATM   24  C   UNL     1     -21.725 -11.833  -5.900  1.00  0.00     0.009 A 
HETATM   25  C   UNL     1     -21.163 -10.642  -5.445  1.00  0.00     0.031 A 
BRANCH  20  26
HETATM   26  S   UNL     1     -17.179 -11.419  -5.927  1.00  0.00     0.327 S 
HETATM   27  O   UNL     1     -16.816 -11.870  -4.587  1.00  0.00    -0.191 OA
HETATM   28  O   UNL     1     -16.730 -12.311  -6.999  1.00  0.00    -0.191 OA
BRANCH  26  29
HETATM   29  O   UNL     1     -16.686 -10.044  -6.109  1.00  0.00    -0.086 OA
HETATM   30 NA   UNL     2     -16.548  -9.384  -4.142  1.00  0.00     0.000 Na
ENDBRANCH  26  29
ENDBRANCH  20  26
ENDBRANCH  17  19
ENDBRANCH   1  17
BRANCH   4  31
HETATM   31  O   UNL     1     -22.720  -5.789  -2.342  1.00  0.00    -0.360 OA
HETATM   32  H   UNL     1     -23.601  -6.208  -2.471  1.00  0.00     0.217 HD
ENDBRANCH   4  31
TORSDOF 5
BEGIN_RES ARG D 557
REMARK  4 active torsions:
REMARK  status: ('A' for Active; 'I' for Inactive)
REMARK    1  A    between atoms: CA   and  CB  
REMARK    2  A    between atoms: CB   and  CG  
REMARK    3  A    between atoms: CG   and  CD  
REMARK    4  A    between atoms: CD   and  NE  
REMARK       I    between atoms: NE   and  CZ  
REMARK       I    between atoms: CZ   and  NH1 
REMARK       I    between atoms: CZ   and  NH2 
ROOT
ATOM      1  CA  ARG D 557     -26.217   2.705 -17.014  1.00 35.49     0.159 C 
ENDROOT
BRANCH   1   2
ATOM      2  CB  ARG D 557     -26.789   1.319 -17.183  1.00 35.49     0.034 C 
BRANCH   2   3
ATOM      3  CG  ARG D 557     -25.927   0.197 -16.793  1.00 35.49     0.027 C 
BRANCH   3   4
ATOM      4  CD  ARG D 557     -26.676  -0.872 -16.092  1.00 35.49     0.116 C 
BRANCH   4   5
ATOM      5  NE  ARG D 557     -25.878  -1.523 -15.086  1.00 35.49    -0.212 N 
ATOM      6  CZ  ARG D 557     -25.925  -2.798 -14.774  1.00 35.49     0.666 C 
ATOM      7  NH1 ARG D 557     -26.750  -3.643 -15.366  1.00 35.49    -0.235 N 
ATOM      8  NH2 ARG D 557     -25.113  -3.221 -13.850  1.00 35.49    -0.235 N 
ATOM      9  HH  ARG D 557     -27.292  -3.387 -15.978  1.00 35.49     0.174 HD
ATOM     10  HH  ARG D 557     -26.735  -4.464 -15.123  1.00 35.49     0.174 HD
ATOM     11  HH  ARG D 557     -24.586  -2.655 -13.491  1.00 35.49     0.174 HD
ATOM     12  HH  ARG D 557     -25.112  -4.039 -13.624  1.00 35.49     0.174 HD
ATOM     13  HE  ARG D 557     -25.370  -1.039 -14.605  1.00 35.49     0.178 HD
ENDBRANCH   4   5
ENDBRANCH   3   4
ENDBRANCH   2   3
ENDBRANCH   1   2
END_RES ARG D 557
BEGIN_RES GLU D 570
REMARK  3 active torsions:
REMARK  status: ('A' for Active; 'I' for Inactive)
REMARK    5  A    between atoms: CA   and  CB  
REMARK    6  A    between atoms: CB   and  CG  
REMARK    7  A    between atoms: CG   and  CD  
ROOT
ATOM     14  CA  GLU D 570     -18.033  -6.348 -13.375  1.00 32.92     0.160 C 
ENDROOT
BRANCH  14  15
ATOM     15  CB  GLU D 570     -19.500  -6.345 -13.794  1.00 32.92     0.043 C 
BRANCH  15  16
ATOM     16  CG  GLU D 570     -20.441  -5.526 -12.987  1.00 32.92     0.100 C 
BRANCH  16  17
ATOM     17  CD  GLU D 570     -21.746  -5.255 -13.698  1.00 32.92     0.185 C 
ATOM     18  OE1 GLU D 570     -22.223  -6.133 -14.443  1.00 32.92    -0.647 OA
ATOM     19  OE2 GLU D 570     -22.290  -4.147 -13.521  1.00 32.92    -0.647 OA
ENDBRANCH  16  17
ENDBRANCH  15  16
ENDBRANCH  14  15
END_RES GLU D 570
ENDMDL
MODEL 5
REMARK VINA RESULT:      -8.0      2.343      2.863
REMARK  5 active torsions:
REMARK  status: ('A' for Active; 'I' for Inactive)
REMARK    1  A    between atoms: C_4  and  S_26 
REMARK    2  A    between atoms: C_5  and  N_8 
REMARK    3  A    between atoms: N_8  and  C_9 
REMARK    4  A    between atoms: C_12  and  O_15 
REMARK    5  A    between atoms: S_26  and  O_29 
ROOT
HETATM    1  C   UNL     1     -20.468  -9.359  -4.673  1.00  0.00     0.048 C 
HETATM    2  C   UNL     1     -20.625  -8.560  -3.529  1.00  0.00     0.059 C 
HETATM    3  C   UNL     1     -21.307  -7.346  -3.599  1.00  0.00     0.064 C 
HETATM    4  C   UNL     1     -21.617  -6.797  -4.845  1.00  0.00     0.081 C 
HETATM    5  C   UNL     1     -21.339  -7.510  -6.004  1.00  0.00     0.040 C 
HETATM    6  C   UNL     1     -20.826  -8.807  -5.914  1.00  0.00     0.033 C 
HETATM    7  C   UNL     1     -21.855  -6.772  -2.354  1.00  0.00     0.197 C 
HETATM    8  O   UNL     1     -22.433  -5.690  -2.375  1.00  0.00    -0.286 OA
HETATM    9  C   UNL     1     -21.761  -7.573  -1.117  1.00  0.00     0.029 C 
HETATM   10  C   UNL     1     -22.671  -7.398  -0.075  1.00  0.00     0.016 C 
HETATM   11  C   UNL     1     -22.524  -8.147   1.096  1.00  0.00     0.001 C 
HETATM   12  C   UNL     1     -21.430  -9.003   1.254  1.00  0.00     0.001 C 
HETATM   13  C   UNL     1     -20.538  -9.196   0.201  1.00  0.00     0.016 C 
HETATM   14  C   UNL     1     -20.761  -8.534  -1.007  1.00  0.00     0.029 C 
HETATM   15  C   UNL     1     -20.061  -8.969  -2.224  1.00  0.00     0.196 C 
HETATM   16  O   UNL     1     -19.071  -9.686  -2.165  1.00  0.00    -0.286 OA
ENDROOT
BRANCH   1  17
HETATM   17  N   UNL     1     -20.227 -10.754  -4.554  1.00  0.00    -0.354 N 
HETATM   18  H   UNL     1     -19.652 -10.950  -3.724  1.00  0.00     0.166 HD
BRANCH  17  19
HETATM   19  C   UNL     1     -19.807 -11.629  -5.583  1.00  0.00     0.056 A 
HETATM   20  C   UNL     1     -18.496 -11.675  -6.080  1.00  0.00     0.115 A 
HETATM   21  C   UNL     1     -18.224 -12.309  -7.308  1.00  0.00     0.035 A 
HETATM   22  C   UNL     1     -19.234 -12.974  -8.012  1.00  0.00    -0.060 A 
HETATM   23  C   UNL     1     -18.957 -13.666  -9.309  1.00  0.00     0.048 C 
HETATM   24  C   UNL     1     -20.525 -12.991  -7.478  1.00  0.00     0.009 A 
HETATM   25  C   UNL     1     -20.807 -12.307  -6.298  1.00  0.00     0.031 A 
BRANCH  20  26
HETATM   26  S   UNL     1     -17.068 -11.083  -5.187  1.00  0.00     0.327 S 
HETATM   27  O   UNL     1     -17.147 -11.653  -3.846  1.00  0.00    -0.191 OA
HETATM   28  O   UNL     1     -15.907 -11.531  -5.959  1.00  0.00    -0.191 OA
BRANCH  26  29
HETATM   29  O   UNL     1     -17.125  -9.616  -5.075  1.00  0.00    -0.086 OA
HETATM   30 NA   UNL     2     -17.982  -9.089  -6.895  1.00  0.00     0.000 Na
ENDBRANCH  26  29
ENDBRANCH  20  26
ENDBRANCH  17  19
ENDBRANCH   1  17
BRANCH   4  31
HETATM   31  O   UNL     1     -22.229  -5.584  -4.992  1.00  0.00    -0.360 OA
HETATM   32  H   UNL     1     -22.667  -5.564  -5.873  1.00  0.00     0.217 HD
ENDBRANCH   4  31
TORSDOF 5
BEGIN_RES ARG D 557
REMARK  4 active torsions:
REMARK  status: ('A' for Active; 'I' for Inactive)
REMARK    1  A    between atoms: CA   and  CB  
REMARK    2  A    between atoms: CB   and  CG  
REMARK    3  A    between atoms: CG   and  CD  
REMARK    4  A    between atoms: CD   and  NE  
REMARK       I    between atoms: NE   and  CZ  
REMARK       I    between atoms: CZ   and  NH1 
REMARK       I    between atoms: CZ   and  NH2 
ROOT
ATOM      1  CA  ARG D 557     -26.217   2.705 -17.014  1.00 35.49     0.159 C 
ENDROOT
BRANCH   1   2
ATOM      2  CB  ARG D 557     -26.789   1.319 -17.183  1.00 35.49     0.034 C 
BRANCH   2   3
ATOM      3  CG  ARG D 557     -25.874   0.194 -16.954  1.00 35.49     0.027 C 
BRANCH   3   4
ATOM      4  CD  ARG D 557     -26.377  -0.742 -15.923  1.00 35.49     0.116 C 
BRANCH   4   5
ATOM      5  NE  ARG D 557     -25.415  -0.961 -14.875  1.00 35.49    -0.212 N 
ATOM      6  CZ  ARG D 557     -25.143  -2.118 -14.312  1.00 35.49     0.666 C 
ATOM      7  NH1 ARG D 557     -25.757  -3.235 -14.655  1.00 35.49    -0.235 N 
ATOM      8  NH2 ARG D 557     -24.224  -2.135 -13.391  1.00 35.49    -0.235 N 
ATOM      9  HH  ARG D 557     -26.363  -3.247 -15.260  1.00 35.49     0.174 HD
ATOM     10  HH  ARG D 557     -25.536  -3.960 -14.255  1.00 35.49     0.174 HD
ATOM     11  HH  ARG D 557     -23.839  -1.400 -13.195  1.00 35.49     0.174 HD
ATOM     12  HH  ARG D 557     -24.018  -2.863 -13.008  1.00 35.49     0.174 HD
ATOM     13  HE  ARG D 557     -25.024  -0.283 -14.543  1.00 35.49     0.178 HD
ENDBRANCH   4   5
ENDBRANCH   3   4
ENDBRANCH   2   3
ENDBRANCH   1   2
END_RES ARG D 557
BEGIN_RES GLU D 570
REMARK  3 active torsions:
REMARK  status: ('A' for Active; 'I' for Inactive)
REMARK    5  A    between atoms: CA   and  CB  
REMARK    6  A    between atoms: CB   and  CG  
REMARK    7  A    between atoms: CG   and  CD  
ROOT
ATOM     14  CA  GLU D 570     -18.033  -6.348 -13.375  1.00 32.92     0.160 C 
ENDROOT
BRANCH  14  15
ATOM     15  CB  GLU D 570     -19.500  -6.345 -13.794  1.00 32.92     0.043 C 
BRANCH  15  16
ATOM     16  CG  GLU D 570     -20.445  -5.548 -12.971  1.00 32.92     0.100 C 
BRANCH  16  17
ATOM     17  CD  GLU D 570     -21.734  -5.231 -13.694  1.00 32.92     0.185 C 
ATOM     18  OE1 GLU D 570     -22.221  -4.089 -13.590  1.00 32.92    -0.647 OA
ATOM     19  OE2 GLU D 570     -22.271  -6.140 -14.356  1.00 32.92    -0.647 OA
ENDBRANCH  16  17
ENDBRANCH  15  16
ENDBRANCH  14  15
END_RES GLU D 570
ENDMDL
MODEL 6
REMARK VINA RESULT:      -8.0      2.620      6.181
REMARK  5 active torsions:
REMARK  status: ('A' for Active; 'I' for Inactive)
REMARK    1  A    between atoms: C_4  and  S_26 
REMARK    2  A    between atoms: C_5  and  N_8 
REMARK    3  A    between atoms: N_8  and  C_9 
REMARK    4  A    between atoms: C_12  and  O_15 
REMARK    5  A    between atoms: S_26  and  O_29 
ROOT
HETATM    1  C   UNL     1     -17.670  -9.648  -4.044  1.00  0.00     0.048 C 
HETATM    2  C   UNL     1     -17.325 -10.729  -4.871  1.00  0.00     0.059 C 
HETATM    3  C   UNL     1     -16.501 -11.748  -4.397  1.00  0.00     0.064 C 
HETATM    4  C   UNL     1     -15.810 -11.579  -3.196  1.00  0.00     0.081 C 
HETATM    5  C   UNL     1     -16.028 -10.444  -2.427  1.00  0.00     0.040 C 
HETATM    6  C   UNL     1     -16.997  -9.516  -2.819  1.00  0.00     0.033 C 
HETATM    7  C   UNL     1     -16.533 -13.056  -5.082  1.00  0.00     0.197 C 
HETATM    8  O   UNL     1     -15.797 -13.965  -4.712  1.00  0.00    -0.286 OA
HETATM    9  C   UNL     1     -17.527 -13.257  -6.155  1.00  0.00     0.029 C 
HETATM   10  C   UNL     1     -18.001 -14.531  -6.470  1.00  0.00     0.016 C 
HETATM   11  C   UNL     1     -18.911 -14.683  -7.519  1.00  0.00     0.001 C 
HETATM   12  C   UNL     1     -19.283 -13.583  -8.297  1.00  0.00     0.001 C 
HETATM   13  C   UNL     1     -18.830 -12.308  -7.964  1.00  0.00     0.016 C 
HETATM   14  C   UNL     1     -18.016 -12.149  -6.841  1.00  0.00     0.029 C 
HETATM   15  C   UNL     1     -17.809 -10.813  -6.266  1.00  0.00     0.196 C 
HETATM   16  O   UNL     1     -18.073  -9.801  -6.902  1.00  0.00    -0.286 OA
ENDROOT
BRANCH   1  17
HETATM   17  N   UNL     1     -18.839  -8.884  -4.302  1.00  0.00    -0.354 N 
HETATM   18  H   UNL     1     -18.592  -7.982  -4.732  1.00  0.00     0.166 HD
BRANCH  17  19
HETATM   19  C   UNL     1     -19.912  -8.651  -3.409  1.00  0.00     0.056 A 
HETATM   20  C   UNL     1     -20.877  -7.651  -3.593  1.00  0.00     0.115 A 
HETATM   21  C   UNL     1     -21.702  -7.254  -2.523  1.00  0.00     0.035 A 
HETATM   22  C   UNL     1     -21.633  -7.902  -1.285  1.00  0.00    -0.060 A 
HETATM   23  C   UNL     1     -22.514  -7.502  -0.143  1.00  0.00     0.048 C 
HETATM   24  C   UNL     1     -20.722  -8.948  -1.125  1.00  0.00     0.009 A 
HETATM   25  C   UNL     1     -19.860  -9.295  -2.162  1.00  0.00     0.031 A 
BRANCH  20  26
HETATM   26  S   UNL     1     -21.247  -6.899  -5.170  1.00  0.00     0.327 S 
HETATM   27  O   UNL     1     -21.436  -7.991  -6.120  1.00  0.00    -0.191 OA
HETATM   28  O   UNL     1     -22.447  -6.088  -4.948  1.00  0.00    -0.191 OA
BRANCH  26  29
HETATM   29  O   UNL     1     -20.104  -6.086  -5.613  1.00  0.00    -0.086 OA
HETATM   30 NA   UNL     2     -19.092  -7.419  -6.847  1.00  0.00     0.000 Na
ENDBRANCH  26  29
ENDBRANCH  20  26
ENDBRANCH  17  19
ENDBRANCH   1  17
BRANCH   4  31
HETATM   31  O   UNL     1     -14.938 -12.509  -2.701  1.00  0.00    -0.360 OA
HETATM   32  H   UNL     1     -14.870 -12.380  -1.728  1.00  0.00     0.217 HD
ENDBRANCH   4  31
TORSDOF 5
BEGIN_RES ARG D 557
REMARK  4 active torsions:
REMARK  status: ('A' for Active; 'I' for Inactive)
REMARK    1  A    between atoms: CA   and  CB  
REMARK    2  A    between atoms: CB   and  CG  
REMARK    3  A    between atoms: CG   and  CD  
REMARK    4  A    between atoms: CD   and  NE  
REMARK       I    between atoms: NE   and  CZ  
REMARK       I    between atoms: CZ   and  NH1 
REMARK       I    between atoms: CZ   and  NH2 
ROOT
ATOM      1  CA  ARG D 557     -26.217   2.705 -17.014  1.00 35.49     0.159 C 
ENDROOT
BRANCH   1   2
ATOM      2  CB  ARG D 557     -26.789   1.319 -17.183  1.00 35.49     0.034 C 
BRANCH   2   3
ATOM      3  CG  ARG D 557     -25.866   0.195 -16.987  1.00 35.49     0.027 C 
BRANCH   3   4
ATOM      4  CD  ARG D 557     -26.291  -0.699 -15.886  1.00 35.49     0.116 C 
BRANCH   4   5
ATOM      5  NE  ARG D 557     -25.237  -0.923 -14.931  1.00 35.49    -0.212 N 
ATOM      6  CZ  ARG D 557     -24.949  -2.071 -14.360  1.00 35.49     0.666 C 
ATOM      7  NH1 ARG D 557     -25.631  -3.174 -14.602  1.00 35.49    -0.235 N 
ATOM      8  NH2 ARG D 557     -23.944  -2.094 -13.533  1.00 35.49    -0.235 N 
ATOM      9  HH  ARG D 557     -26.295  -3.182 -15.144  1.00 35.49     0.174 HD
ATOM     10  HH  ARG D 557     -25.396  -3.895 -14.202  1.00 35.49     0.174 HD
ATOM     11  HH  ARG D 557     -23.517  -1.368 -13.402  1.00 35.49     0.174 HD
ATOM     12  HH  ARG D 557     -23.725  -2.817 -13.148  1.00 35.49     0.174 HD
ATOM     13  HE  ARG D 557     -24.792  -0.249 -14.662  1.00 35.49     0.178 HD
ENDBRANCH   4   5
ENDBRANCH   3   4
ENDBRANCH   2   3
ENDBRANCH   1   2
END_RES ARG D 557
BEGIN_RES GLU D 570
REMARK  3 active torsions:
REMARK  status: ('A' for Active; 'I' for Inactive)
REMARK    5  A    between atoms: CA   and  CB  
REMARK    6  A    between atoms: CB   and  CG  
REMARK    7  A    between atoms: CG   and  CD  
ROOT
ATOM     14  CA  GLU D 570     -18.033  -6.348 -13.375  1.00 32.92     0.160 C 
ENDROOT
BRANCH  14  15
ATOM     15  CB  GLU D 570     -19.500  -6.345 -13.794  1.00 32.92     0.043 C 
BRANCH  15  16
ATOM     16  CG  GLU D 570     -20.447  -5.556 -12.965  1.00 32.92     0.100 C 
BRANCH  16  17
ATOM     17  CD  GLU D 570     -21.681  -5.128 -13.725  1.00 32.92     0.185 C 
ATOM     18  OE1 GLU D 570     -22.734  -4.908 -13.096  1.00 32.92    -0.647 OA
ATOM     19  OE2 GLU D 570     -21.597  -5.027 -14.965  1.00 32.92    -0.647 OA
ENDBRANCH  16  17
ENDBRANCH  15  16
ENDBRANCH  14  15
END_RES GLU D 570
ENDMDL
MODEL 7
REMARK VINA RESULT:      -7.7      3.258      4.848
REMARK  5 active torsions:
REMARK  status: ('A' for Active; 'I' for Inactive)
REMARK    1  A    between atoms: C_4  and  S_26 
REMARK    2  A    between atoms: C_5  and  N_8 
REMARK    3  A    between atoms: N_8  and  C_9 
REMARK    4  A    between atoms: C_12  and  O_15 
REMARK    5  A    between atoms: S_26  and  O_29 
ROOT
HETATM    1  C   UNL     1     -20.433 -10.568  -0.853  1.00  0.00     0.048 C 
HETATM    2  C   UNL     1     -21.120  -9.569  -1.562  1.00  0.00     0.059 C 
HETATM    3  C   UNL     1     -21.663  -8.472  -0.895  1.00  0.00     0.064 C 
HETATM    4  C   UNL     1     -21.752  -8.483   0.498  1.00  0.00     0.081 C 
HETATM    5  C   UNL     1     -21.203  -9.537   1.218  1.00  0.00     0.040 C 
HETATM    6  C   UNL     1     -20.496 -10.539   0.550  1.00  0.00     0.033 C 
HETATM    7  C   UNL     1     -21.952  -7.249  -1.668  1.00  0.00     0.197 C 
HETATM    8  O   UNL     1     -22.461  -6.276  -1.120  1.00  0.00    -0.286 OA
HETATM    9  C   UNL     1     -21.535  -7.205  -3.084  1.00  0.00     0.029 C 
HETATM   10  C   UNL     1     -21.264  -5.992  -3.718  1.00  0.00     0.016 C 
HETATM   11  C   UNL     1     -20.912  -5.990  -5.071  1.00  0.00     0.001 C 
HETATM   12  C   UNL     1     -20.908  -7.181  -5.802  1.00  0.00     0.001 C 
HETATM   13  C   UNL     1     -21.152  -8.394  -5.159  1.00  0.00     0.016 C 
HETATM   14  C   UNL     1     -21.386  -8.398  -3.783  1.00  0.00     0.029 C 
HETATM   15  C   UNL     1     -21.302  -9.655  -3.027  1.00  0.00     0.196 C 
HETATM   16  O   UNL     1     -21.334 -10.740  -3.593  1.00  0.00    -0.286 OA
ENDROOT
BRANCH   1  17
HETATM   17  N   UNL     1     -19.488 -11.401  -1.509  1.00  0.00    -0.354 N 
HETATM   18  H   UNL     1     -19.927 -12.288  -1.792  1.00  0.00     0.166 HD
BRANCH  17  19
HETATM   19  C   UNL     1     -18.173 -11.692  -1.076  1.00  0.00     0.056 A 
HETATM   20  C   UNL     1     -17.035 -11.537  -1.882  1.00  0.00     0.115 A 
HETATM   21  C   UNL     1     -15.821 -12.151  -1.520  1.00  0.00     0.035 A 
HETATM   22  C   UNL     1     -15.702 -12.855  -0.316  1.00  0.00    -0.060 A 
HETATM   23  C   UNL     1     -14.414 -13.500   0.089  1.00  0.00     0.048 C 
HETATM   24  C   UNL     1     -16.817 -12.946   0.521  1.00  0.00     0.009 A 
HETATM   25  C   UNL     1     -18.035 -12.396   0.131  1.00  0.00     0.031 A 
BRANCH  20  26
HETATM   26  S   UNL     1     -16.965 -10.478  -3.317  1.00  0.00     0.327 S 
HETATM   27  O   UNL     1     -17.546 -11.233  -4.423  1.00  0.00    -0.191 OA
HETATM   28  O   UNL     1     -17.718  -9.275  -2.956  1.00  0.00    -0.191 OA
BRANCH  26  29
HETATM   29  O   UNL     1     -15.562 -10.176  -3.643  1.00  0.00    -0.086 OA
HETATM   30 NA   UNL     2     -15.759  -9.145  -5.438  1.00  0.00     0.000 Na
ENDBRANCH  26  29
ENDBRANCH  20  26
ENDBRANCH  17  19
ENDBRANCH   1  17
BRANCH   4  31
HETATM   31  O   UNL     1     -22.327  -7.472   1.216  1.00  0.00    -0.360 OA
HETATM   32  H   UNL     1     -22.563  -6.747   0.593  1.00  0.00     0.217 HD
ENDBRANCH   4  31
TORSDOF 5
BEGIN_RES ARG D 557
REMARK  4 active torsions:
REMARK  status: ('A' for Active; 'I' for Inactive)
REMARK    1  A    between atoms: CA   and  CB  
REMARK    2  A    between atoms: CB   and  CG  
REMARK    3  A    between atoms: CG   and  CD  
REMARK    4  A    between atoms: CD   and  NE  
REMARK       I    between atoms: NE   and  CZ  
REMARK       I    between atoms: CZ   and  NH1 
REMARK       I    between atoms: CZ   and  NH2 
ROOT
ATOM      1  CA  ARG D 557     -26.217   2.705 -17.014  1.00 35.49     0.159 C 
ENDROOT
BRANCH   1   2
ATOM      2  CB  ARG D 557     -26.789   1.319 -17.183  1.00 35.49     0.034 C 
BRANCH   2   3
ATOM      3  CG  ARG D 557     -28.235   1.225 -17.420  1.00 35.49     0.027 C 
BRANCH   3   4
ATOM      4  CD  ARG D 557     -28.901   0.294 -16.482  1.00 35.49     0.116 C 
BRANCH   4   5
ATOM      5  NE  ARG D 557     -29.301  -0.930 -17.126  1.00 35.49    -0.212 N 
ATOM      6  CZ  ARG D 557     -28.676  -2.083 -17.039  1.00 35.49     0.666 C 
ATOM      7  NH1 ARG D 557     -27.568  -2.238 -16.339  1.00 35.49    -0.235 N 
ATOM      8  NH2 ARG D 557     -29.194  -3.095 -17.673  1.00 35.49    -0.235 N 
ATOM      9  HH  ARG D 557     -27.211  -1.587 -15.912  1.00 35.49     0.174 HD
ATOM     10  HH  ARG D 557     -27.206  -3.015 -16.317  1.00 35.49     0.174 HD
ATOM     11  HH  ARG D 557     -29.914  -2.967 -18.111  1.00 35.49     0.174 HD
ATOM     12  HH  ARG D 557     -28.821  -3.856 -17.638  1.00 35.49     0.174 HD
ATOM     13  HE  ARG D 557     -29.965  -0.904 -17.656  1.00 35.49     0.178 HD
ENDBRANCH   4   5
ENDBRANCH   3   4
ENDBRANCH   2   3
ENDBRANCH   1   2
END_RES ARG D 557
BEGIN_RES GLU D 570
REMARK  3 active torsions:
REMARK  status: ('A' for Active; 'I' for Inactive)
REMARK    5  A    between atoms: CA   and  CB  
REMARK    6  A    between atoms: CB   and  CG  
REMARK    7  A    between atoms: CG   and  CD  
ROOT
ATOM     14  CA  GLU D 570     -18.033  -6.348 -13.375  1.00 32.92     0.160 C 
ENDROOT
BRANCH  14  15
ATOM     15  CB  GLU D 570     -19.500  -6.345 -13.794  1.00 32.92     0.043 C 
BRANCH  15  16
ATOM     16  CG  GLU D 570     -19.797  -6.218 -15.244  1.00 32.92     0.100 C 
BRANCH  16  17
ATOM     17  CD  GLU D 570     -21.060  -5.435 -15.521  1.00 32.92     0.185 C 
ATOM     18  OE1 GLU D 570     -21.345  -5.144 -16.698  1.00 32.92    -0.647 OA
ATOM     19  OE2 GLU D 570     -21.762  -5.095 -14.548  1.00 32.92    -0.647 OA
ENDBRANCH  16  17
ENDBRANCH  15  16
ENDBRANCH  14  15
END_RES GLU D 570
ENDMDL
MODEL 8
REMARK VINA RESULT:      -7.5      2.696      3.617
REMARK  5 active torsions:
REMARK  status: ('A' for Active; 'I' for Inactive)
REMARK    1  A    between atoms: C_4  and  S_26 
REMARK    2  A    between atoms: C_5  and  N_8 
REMARK    3  A    between atoms: N_8  and  C_9 
REMARK    4  A    between atoms: C_12  and  O_15 
REMARK    5  A    between atoms: S_26  and  O_29 
ROOT
HETATM    1  C   UNL     1     -20.315  -9.249  -4.616  1.00  0.00     0.048 C 
HETATM    2  C   UNL     1     -20.568  -8.449  -3.490  1.00  0.00     0.059 C 
HETATM    3  C   UNL     1     -21.381  -7.321  -3.590  1.00  0.00     0.064 C 
HETATM    4  C   UNL     1     -21.739  -6.835  -4.849  1.00  0.00     0.081 C 
HETATM    5  C   UNL     1     -21.374  -7.536  -5.991  1.00  0.00     0.040 C 
HETATM    6  C   UNL     1     -20.721  -8.766  -5.870  1.00  0.00     0.033 C 
HETATM    7  C   UNL     1     -21.999  -6.786  -2.361  1.00  0.00     0.197 C 
HETATM    8  O   UNL     1     -22.693  -5.776  -2.408  1.00  0.00    -0.286 OA
HETATM    9  C   UNL     1     -21.827  -7.545  -1.107  1.00  0.00     0.029 C 
HETATM   10  C   UNL     1     -22.760  -7.452  -0.074  1.00  0.00     0.016 C 
HETATM   11  C   UNL     1     -22.540  -8.156   1.114  1.00  0.00     0.001 C 
HETATM   12  C   UNL     1     -21.360  -8.881   1.297  1.00  0.00     0.001 C 
HETATM   13  C   UNL     1     -20.442  -8.995   0.253  1.00  0.00     0.016 C 
HETATM   14  C   UNL     1     -20.728  -8.388  -0.970  1.00  0.00     0.029 C 
HETATM   15  C   UNL     1     -19.974  -8.766  -2.173  1.00  0.00     0.196 C 
HETATM   16  O   UNL     1     -18.910  -9.368  -2.093  1.00  0.00    -0.286 OA
ENDROOT
BRANCH   1  17
HETATM   17  N   UNL     1     -19.921 -10.606  -4.466  1.00  0.00    -0.354 N 
HETATM   18  H   UNL     1     -18.968 -10.746  -4.826  1.00  0.00     0.166 HD
BRANCH  17  19
HETATM   19  C   UNL     1     -20.681 -11.749  -4.809  1.00  0.00     0.056 A 
HETATM   20  C   UNL     1     -20.425 -12.545  -5.935  1.00  0.00     0.115 A 
HETATM   21  C   UNL     1     -21.400 -13.447  -6.403  1.00  0.00     0.035 A 
HETATM   22  C   UNL     1     -22.603 -13.627  -5.711  1.00  0.00    -0.060 A 
HETATM   23  C   UNL     1     -23.642 -14.594  -6.187  1.00  0.00     0.048 C 
HETATM   24  C   UNL     1     -22.825 -12.887  -4.547  1.00  0.00     0.009 A 
HETATM   25  C   UNL     1     -21.890 -11.946  -4.123  1.00  0.00     0.031 A 
BRANCH  20  26
HETATM   26  S   UNL     1     -18.854 -12.603  -6.781  1.00  0.00     0.327 S 
HETATM   27  O   UNL     1     -17.851 -12.129  -5.833  1.00  0.00    -0.191 OA
HETATM   28  O   UNL     1     -18.678 -13.999  -7.189  1.00  0.00    -0.191 OA
BRANCH  26  29
HETATM   29  O   UNL     1     -18.877 -11.688  -7.934  1.00  0.00    -0.086 OA
HETATM   30 NA   UNL     2     -18.253  -9.904  -7.069  1.00  0.00     0.000 Na
ENDBRANCH  26  29
ENDBRANCH  20  26
ENDBRANCH  17  19
ENDBRANCH   1  17
BRANCH   4  31
HETATM   31  O   UNL     1     -22.481  -5.701  -5.026  1.00  0.00    -0.360 OA
HETATM   32  H   UNL     1     -22.370  -5.132  -4.230  1.00  0.00     0.217 HD
ENDBRANCH   4  31
TORSDOF 5
BEGIN_RES ARG D 557
REMARK  4 active torsions:
REMARK  status: ('A' for Active; 'I' for Inactive)
REMARK    1  A    between atoms: CA   and  CB  
REMARK    2  A    between atoms: CB   and  CG  
REMARK    3  A    between atoms: CG   and  CD  
REMARK    4  A    between atoms: CD   and  NE  
REMARK       I    between atoms: NE   and  CZ  
REMARK       I    between atoms: CZ   and  NH1 
REMARK       I    between atoms: CZ   and  NH2 
ROOT
ATOM      1  CA  ARG D 557     -26.217   2.705 -17.014  1.00 35.49     0.159 C 
ENDROOT
BRANCH   1   2
ATOM      2  CB  ARG D 557     -26.789   1.319 -17.183  1.00 35.49     0.034 C 
BRANCH   2   3
ATOM      3  CG  ARG D 557     -28.232   1.226 -17.438  1.00 35.49     0.027 C 
BRANCH   3   4
ATOM      4  CD  ARG D 557     -28.913   0.307 -16.497  1.00 35.49     0.116 C 
BRANCH   4   5
ATOM      5  NE  ARG D 557     -29.295  -0.929 -17.127  1.00 35.49    -0.212 N 
ATOM      6  CZ  ARG D 557     -28.655  -2.073 -17.026  1.00 35.49     0.666 C 
ATOM      7  NH1 ARG D 557     -27.547  -2.205 -16.320  1.00 35.49    -0.235 N 
ATOM      8  NH2 ARG D 557     -29.157  -3.099 -17.649  1.00 35.49    -0.235 N 
ATOM      9  HH  ARG D 557     -27.200  -1.544 -15.900  1.00 35.49     0.174 HD
ATOM     10  HH  ARG D 557     -27.175  -2.977 -16.288  1.00 35.49     0.174 HD
ATOM     11  HH  ARG D 557     -29.878  -2.985 -18.092  1.00 35.49     0.174 HD
ATOM     12  HH  ARG D 557     -28.775  -3.854 -17.604  1.00 35.49     0.174 HD
ATOM     13  HE  ARG D 557     -29.957  -0.917 -17.661  1.00 35.49     0.178 HD
ENDBRANCH   4   5
ENDBRANCH   3   4
ENDBRANCH   2   3
ENDBRANCH   1   2
END_RES ARG D 557
BEGIN_RES GLU D 570
REMARK  3 active torsions:
REMARK  status: ('A' for Active; 'I' for Inactive)
REMARK    5  A    between atoms: CA   and  CB  
REMARK    6  A    between atoms: CB   and  CG  
REMARK    7  A    between atoms: CG   and  CD  
ROOT
ATOM     14  CA  GLU D 570     -18.033  -6.348 -13.375  1.00 32.92     0.160 C 
ENDROOT
BRANCH  14  15
ATOM     15  CB  GLU D 570     -19.500  -6.345 -13.794  1.00 32.92     0.043 C 
BRANCH  15  16
ATOM     16  CG  GLU D 570     -20.443  -5.536 -12.979  1.00 32.92     0.100 C 
BRANCH  16  17
ATOM     17  CD  GLU D 570     -21.746  -5.255 -13.691  1.00 32.92     0.185 C 
ATOM     18  OE1 GLU D 570     -22.246  -6.142 -14.409  1.00 32.92    -0.647 OA
ATOM     19  OE2 GLU D 570     -22.263  -4.131 -13.542  1.00 32.92    -0.647 OA
ENDBRANCH  16  17
ENDBRANCH  15  16
ENDBRANCH  14  15
END_RES GLU D 570
ENDMDL
MODEL 9
REMARK VINA RESULT:      -7.4      2.473      4.029
REMARK  5 active torsions:
REMARK  status: ('A' for Active; 'I' for Inactive)
REMARK    1  A    between atoms: C_4  and  S_26 
REMARK    2  A    between atoms: C_5  and  N_8 
REMARK    3  A    between atoms: N_8  and  C_9 
REMARK    4  A    between atoms: C_12  and  O_15 
REMARK    5  A    between atoms: S_26  and  O_29 
ROOT
HETATM    1  C   UNL     1     -20.785 -10.924  -1.714  1.00  0.00     0.048 C 
HETATM    2  C   UNL     1     -21.356  -9.721  -2.160  1.00  0.00     0.059 C 
HETATM    3  C   UNL     1     -21.643  -8.696  -1.261  1.00  0.00     0.064 C 
HETATM    4  C   UNL     1     -21.604  -8.947   0.112  1.00  0.00     0.081 C 
HETATM    5  C   UNL     1     -21.178 -10.185   0.577  1.00  0.00     0.040 C 
HETATM    6  C   UNL     1     -20.714 -11.143  -0.328  1.00  0.00     0.033 C 
HETATM    7  C   UNL     1     -21.791  -7.322  -1.782  1.00  0.00     0.197 C 
HETATM    8  O   UNL     1     -22.075  -6.401  -1.023  1.00  0.00    -0.286 OA
HETATM    9  C   UNL     1     -21.504  -7.084  -3.210  1.00  0.00     0.029 C 
HETATM   10  C   UNL     1     -21.092  -5.831  -3.663  1.00  0.00     0.016 C 
HETATM   11  C   UNL     1     -20.869  -5.635  -5.029  1.00  0.00     0.001 C 
HETATM   12  C   UNL     1     -21.134  -6.660  -5.942  1.00  0.00     0.001 C 
HETATM   13  C   UNL     1     -21.519  -7.919  -5.484  1.00  0.00     0.016 C 
HETATM   14  C   UNL     1     -21.623  -8.139  -4.110  1.00  0.00     0.029 C 
HETATM   15  C   UNL     1     -21.684  -9.510  -3.587  1.00  0.00     0.196 C 
HETATM   16  O   UNL     1     -21.950 -10.457  -4.317  1.00  0.00    -0.286 OA
ENDROOT
BRANCH   1  17
HETATM   17  N   UNL     1     -20.059 -11.756  -2.607  1.00  0.00    -0.354 N 
HETATM   18  H   UNL     1     -20.240 -12.748  -2.403  1.00  0.00     0.166 HD
BRANCH  17  19
HETATM   19  C   UNL     1     -18.694 -11.633  -2.955  1.00  0.00     0.056 A 
HETATM   20  C   UNL     1     -18.162 -12.046  -4.186  1.00  0.00     0.115 A 
HETATM   21  C   UNL     1     -16.772 -12.210  -4.340  1.00  0.00     0.035 A 
HETATM   22  C   UNL     1     -15.891 -11.886  -3.302  1.00  0.00    -0.060 A 
HETATM   23  C   UNL     1     -14.411 -12.039  -3.458  1.00  0.00     0.048 C 
HETATM   24  C   UNL     1     -16.417 -11.404  -2.102  1.00  0.00     0.009 A 
HETATM   25  C   UNL     1     -17.795 -11.307  -1.927  1.00  0.00     0.031 A 
BRANCH  20  26
HETATM   26  S   UNL     1     -19.133 -12.267  -5.668  1.00  0.00     0.327 S 
HETATM   27  O   UNL     1     -20.321 -13.022  -5.281  1.00  0.00    -0.191 OA
HETATM   28  O   UNL     1     -19.417 -10.916  -6.158  1.00  0.00    -0.191 OA
BRANCH  26  29
HETATM   29  O   UNL     1     -18.372 -13.062  -6.646  1.00  0.00    -0.086 OA
HETATM   30 NA   UNL     2     -19.723 -13.196  -8.221  1.00  0.00     0.000 Na
ENDBRANCH  26  29
ENDBRANCH  20  26
ENDBRANCH  17  19
ENDBRANCH   1  17
BRANCH   4  31
HETATM   31  O   UNL     1     -21.932  -8.009   1.050  1.00  0.00    -0.360 OA
HETATM   32  H   UNL     1     -21.254  -8.036   1.764  1.00  0.00     0.217 HD
ENDBRANCH   4  31
TORSDOF 5
BEGIN_RES ARG D 557
REMARK  4 active torsions:
REMARK  status: ('A' for Active; 'I' for Inactive)
REMARK    1  A    between atoms: CA   and  CB  
REMARK    2  A    between atoms: CB   and  CG  
REMARK    3  A    between atoms: CG   and  CD  
REMARK    4  A    between atoms: CD   and  NE  
REMARK       I    between atoms: NE   and  CZ  
REMARK       I    between atoms: CZ   and  NH1 
REMARK       I    between atoms: CZ   and  NH2 
ROOT
ATOM      1  CA  ARG D 557     -26.217   2.705 -17.014  1.00 35.49     0.159 C 
ENDROOT
BRANCH   1   2
ATOM      2  CB  ARG D 557     -26.789   1.319 -17.183  1.00 35.49     0.034 C 
BRANCH   2   3
ATOM      3  CG  ARG D 557     -28.231   1.226 -17.440  1.00 35.49     0.027 C 
BRANCH   3   4
ATOM      4  CD  ARG D 557     -28.913   0.306 -16.501  1.00 35.49     0.116 C 
BRANCH   4   5
ATOM      5  NE  ARG D 557     -29.297  -0.928 -17.135  1.00 35.49    -0.212 N 
ATOM      6  CZ  ARG D 557     -28.661  -2.074 -17.032  1.00 35.49     0.666 C 
ATOM      7  NH1 ARG D 557     -27.557  -2.211 -16.321  1.00 35.49    -0.235 N 
ATOM      8  NH2 ARG D 557     -29.164  -3.098 -17.658  1.00 35.49    -0.235 N 
ATOM      9  HH  ARG D 557     -27.210  -1.552 -15.898  1.00 35.49     0.174 HD
ATOM     10  HH  ARG D 557     -27.188  -2.984 -16.288  1.00 35.49     0.174 HD
ATOM     11  HH  ARG D 557     -29.882  -2.981 -18.104  1.00 35.49     0.174 HD
ATOM     12  HH  ARG D 557     -28.784  -3.855 -17.612  1.00 35.49     0.174 HD
ATOM     13  HE  ARG D 557     -29.957  -0.914 -17.671  1.00 35.49     0.178 HD
ENDBRANCH   4   5
ENDBRANCH   3   4
ENDBRANCH   2   3
ENDBRANCH   1   2
END_RES ARG D 557
BEGIN_RES GLU D 570
REMARK  3 active torsions:
REMARK  status: ('A' for Active; 'I' for Inactive)
REMARK    5  A    between atoms: CA   and  CB  
REMARK    6  A    between atoms: CB   and  CG  
REMARK    7  A    between atoms: CG   and  CD  
ROOT
ATOM     14  CA  GLU D 570     -18.033  -6.348 -13.375  1.00 32.92     0.160 C 
ENDROOT
BRANCH  14  15
ATOM     15  CB  GLU D 570     -19.500  -6.345 -13.794  1.00 32.92     0.043 C 
BRANCH  15  16
ATOM     16  CG  GLU D 570     -19.797  -6.220 -15.244  1.00 32.92     0.100 C 
BRANCH  16  17
ATOM     17  CD  GLU D 570     -21.047  -5.418 -15.523  1.00 32.92     0.185 C 
ATOM     18  OE1 GLU D 570     -21.722  -4.996 -14.564  1.00 32.92    -0.647 OA
ATOM     19  OE2 GLU D 570     -21.364  -5.223 -16.713  1.00 32.92    -0.647 OA
ENDBRANCH  16  17
ENDBRANCH  15  16
ENDBRANCH  14  15
END_RES GLU D 570
ENDMDL
