MODEL 1
REMARK VINA RESULT:      -5.1      0.000      0.000
REMARK  5 active torsions:
REMARK  status: ('A' for Active; 'I' for Inactive)
REMARK       I    between atoms: C_2  and  N_4 
REMARK    1  A    between atoms: N_4  and  CA_5 
REMARK    2  A    between atoms: CA_5  and  CB_6 
REMARK    3  A    between atoms: CA_5  and  C_8 
REMARK    4  A    between atoms: CB_6  and  SG_7 
REMARK    5  A    between atoms: C_8  and  OXT_10 
ROOT
ATOM      1  CA  CYS A   1     -23.488  -3.805 -10.724  1.00  0.00     0.191 C 
ENDROOT
BRANCH   1   2
ATOM      2  N   CYS A   1     -23.737  -2.889 -11.842  1.00  0.00    -0.346 N 
HETATM    3  C   UNK A   0     -23.976  -3.321 -13.121  1.00  0.00     0.214 C 
HETATM    4  C   UNK A   0     -24.201  -2.213 -14.111  1.00  0.00     0.117 C 
HETATM    5  O   UNK A   0     -24.024  -4.508 -13.426  1.00  0.00    -0.274 OA
ATOM      6  H   CYS A   1     -23.915  -1.914 -11.607  1.00  0.00     0.163 HD
ENDBRANCH   1   2
BRANCH   1   7
ATOM      7  CB  CYS A   1     -22.113  -3.602 -10.071  1.00  0.00     0.106 C 
BRANCH   7   8
ATOM      8  SG  CYS A   1     -20.662  -3.970 -11.119  1.00  0.00    -0.180 SA
ATOM      9  HG  CYS A   1     -20.157  -2.721 -11.158  1.00  0.00     0.101 HD
ENDBRANCH   7   8
ENDBRANCH   1   7
BRANCH   1  10
ATOM     10  C   CYS A   1     -24.571  -3.533  -9.674  1.00  0.00     0.164 C 
ATOM     11  O   CYS A   1     -25.706  -3.150  -9.961  1.00  0.00    -0.648 OA
BRANCH  10  12
ATOM     12  OXT CYS A   1     -24.197  -3.743  -8.395  1.00  0.00    -0.775 OA
ATOM     13  HXT CYS A   1     -24.173  -4.673  -8.100  1.00  0.00     0.167 HD
ENDBRANCH  10  12
ENDBRANCH   1  10
TORSDOF 5
BEGIN_RES ARG D 557
REMARK  4 active torsions:
REMARK  status: ('A' for Active; 'I' for Inactive)
REMARK    1  A    between atoms: CA   and  CB  
REMARK    2  A    between atoms: CB   and  CG  
REMARK    3  A    between atoms: CG   and  CD  
REMARK    4  A    between atoms: CD   and  NE  
REMARK       I    between atoms: NE   and  CZ  
REMARK       I    between atoms: CZ   and  NH1 
REMARK       I    between atoms: CZ   and  NH2 
ROOT
ATOM      1  CA  ARG D 557     -26.217   2.705 -17.014  1.00 35.49     0.159 C 
ENDROOT
BRANCH   1   2
ATOM      2  CB  ARG D 557     -26.789   1.319 -17.183  1.00 35.49     0.034 C 
BRANCH   2   3
ATOM      3  CG  ARG D 557     -28.231   1.226 -17.441  1.00 35.49     0.027 C 
BRANCH   3   4
ATOM      4  CD  ARG D 557     -28.914   0.306 -16.503  1.00 35.49     0.116 C 
BRANCH   4   5
ATOM      5  NE  ARG D 557     -29.284  -0.934 -17.133  1.00 35.49    -0.212 N 
ATOM      6  CZ  ARG D 557     -28.639  -2.074 -17.021  1.00 35.49     0.666 C 
ATOM      7  NH1 ARG D 557     -27.538  -2.199 -16.304  1.00 35.49    -0.235 N 
ATOM      8  NH2 ARG D 557     -29.130  -3.105 -17.646  1.00 35.49    -0.235 N 
ATOM      9  HH  ARG D 557     -27.198  -1.534 -15.883  1.00 35.49     0.174 HD
ATOM     10  HH  ARG D 557     -27.162  -2.968 -16.266  1.00 35.49     0.174 HD
ATOM     11  HH  ARG D 557     -29.846  -2.996 -18.096  1.00 35.49     0.174 HD
ATOM     12  HH  ARG D 557     -28.744  -3.858 -17.595  1.00 35.49     0.174 HD
ATOM     13  HE  ARG D 557     -29.941  -0.928 -17.673  1.00 35.49     0.178 HD
ENDBRANCH   4   5
ENDBRANCH   3   4
ENDBRANCH   2   3
ENDBRANCH   1   2
END_RES ARG D 557
BEGIN_RES GLU D 570
REMARK  3 active torsions:
REMARK  status: ('A' for Active; 'I' for Inactive)
REMARK    5  A    between atoms: CA   and  CB  
REMARK    6  A    between atoms: CB   and  CG  
REMARK    7  A    between atoms: CG   and  CD  
ROOT
ATOM     14  CA  GLU D 570     -18.033  -6.348 -13.375  1.00 32.92     0.160 C 
ENDROOT
BRANCH  14  15
ATOM     15  CB  GLU D 570     -19.500  -6.345 -13.794  1.00 32.92     0.043 C 
BRANCH  15  16
ATOM     16  CG  GLU D 570     -19.817  -5.890 -15.172  1.00 32.92     0.100 C 
BRANCH  16  17
ATOM     17  CD  GLU D 570     -21.297  -5.689 -15.401  1.00 32.92     0.185 C 
ATOM     18  OE1 GLU D 570     -21.696  -4.606 -15.870  1.00 32.92    -0.647 OA
ATOM     19  OE2 GLU D 570     -22.068  -6.619 -15.091  1.00 32.92    -0.647 OA
ENDBRANCH  16  17
ENDBRANCH  15  16
ENDBRANCH  14  15
END_RES GLU D 570
ENDMDL
MODEL 2
REMARK VINA RESULT:      -5.0      2.241      3.680
REMARK  5 active torsions:
REMARK  status: ('A' for Active; 'I' for Inactive)
REMARK       I    between atoms: C_2  and  N_4 
REMARK    1  A    between atoms: N_4  and  CA_5 
REMARK    2  A    between atoms: CA_5  and  CB_6 
REMARK    3  A    between atoms: CA_5  and  C_8 
REMARK    4  A    between atoms: CB_6  and  SG_7 
REMARK    5  A    between atoms: C_8  and  OXT_10 
ROOT
ATOM      1  CA  CYS A   1     -23.086  -3.465 -13.367  1.00  0.00     0.191 C 
ENDROOT
BRANCH   1   2
ATOM      2  N   CYS A   1     -21.891  -3.355 -12.525  1.00  0.00    -0.346 N 
HETATM    3  C   UNK A   0     -21.764  -4.001 -11.322  1.00  0.00     0.214 C 
HETATM    4  C   UNK A   0     -20.459  -3.744 -10.622  1.00  0.00     0.117 C 
HETATM    5  O   UNK A   0     -22.631  -4.740 -10.868  1.00  0.00    -0.274 OA
ATOM      6  H   CYS A   1     -21.068  -2.927 -12.947  1.00  0.00     0.163 HD
ENDBRANCH   1   2
BRANCH   1   7
ATOM      7  CB  CYS A   1     -23.462  -2.147 -14.062  1.00  0.00     0.106 C 
BRANCH   7   8
ATOM      8  SG  CYS A   1     -25.192  -2.002 -14.630  1.00  0.00    -0.180 SA
ATOM      9  HG  CYS A   1     -25.766  -2.654 -13.600  1.00  0.00     0.101 HD
ENDBRANCH   7   8
ENDBRANCH   1   7
BRANCH   1  10
ATOM     10  C   CYS A   1     -22.778  -4.512 -14.444  1.00  0.00     0.164 C 
ATOM     11  O   CYS A   1     -23.267  -5.642 -14.443  1.00  0.00    -0.648 OA
BRANCH  10  12
ATOM     12  OXT CYS A   1     -21.924  -4.111 -15.408  1.00  0.00    -0.775 OA
ATOM     13  HXT CYS A   1     -22.114  -3.246 -15.821  1.00  0.00     0.167 HD
ENDBRANCH  10  12
ENDBRANCH   1  10
TORSDOF 5
BEGIN_RES ARG D 557
REMARK  4 active torsions:
REMARK  status: ('A' for Active; 'I' for Inactive)
REMARK    1  A    between atoms: CA   and  CB  
REMARK    2  A    between atoms: CB   and  CG  
REMARK    3  A    between atoms: CG   and  CD  
REMARK    4  A    between atoms: CD   and  NE  
REMARK       I    between atoms: NE   and  CZ  
REMARK       I    between atoms: CZ   and  NH1 
REMARK       I    between atoms: CZ   and  NH2 
ROOT
ATOM      1  CA  ARG D 557     -26.217   2.705 -17.014  1.00 35.49     0.159 C 
ENDROOT
BRANCH   1   2
ATOM      2  CB  ARG D 557     -26.789   1.319 -17.183  1.00 35.49     0.034 C 
BRANCH   2   3
ATOM      3  CG  ARG D 557     -28.141   1.094 -16.658  1.00 35.49     0.027 C 
BRANCH   3   4
ATOM      4  CD  ARG D 557     -28.797  -0.082 -17.275  1.00 35.49     0.116 C 
BRANCH   4   5
ATOM      5  NE  ARG D 557     -28.191  -1.320 -16.862  1.00 35.49    -0.212 N 
ATOM      6  CZ  ARG D 557     -28.693  -2.520 -17.048  1.00 35.49     0.666 C 
ATOM      7  NH1 ARG D 557     -29.854  -2.719 -17.644  1.00 35.49    -0.235 N 
ATOM      8  NH2 ARG D 557     -27.995  -3.534 -16.626  1.00 35.49    -0.235 N 
ATOM      9  HH  ARG D 557     -30.329  -2.067 -17.932  1.00 35.49     0.174 HD
ATOM     10  HH  ARG D 557     -30.129  -3.525 -17.740  1.00 35.49     0.174 HD
ATOM     11  HH  ARG D 557     -27.245  -3.376 -16.251  1.00 35.49     0.174 HD
ATOM     12  HH  ARG D 557     -28.284  -4.325 -16.732  1.00 35.49     0.174 HD
ATOM     13  HE  ARG D 557     -27.475  -1.281 -16.405  1.00 35.49     0.178 HD
ENDBRANCH   4   5
ENDBRANCH   3   4
ENDBRANCH   2   3
ENDBRANCH   1   2
END_RES ARG D 557
BEGIN_RES GLU D 570
REMARK  3 active torsions:
REMARK  status: ('A' for Active; 'I' for Inactive)
REMARK    5  A    between atoms: CA   and  CB  
REMARK    6  A    between atoms: CB   and  CG  
REMARK    7  A    between atoms: CG   and  CD  
ROOT
ATOM     14  CA  GLU D 570     -18.033  -6.348 -13.375  1.00 32.92     0.160 C 
ENDROOT
BRANCH  14  15
ATOM     15  CB  GLU D 570     -19.500  -6.345 -13.794  1.00 32.92     0.043 C 
BRANCH  15  16
ATOM     16  CG  GLU D 570     -20.101  -7.644 -14.193  1.00 32.92     0.100 C 
BRANCH  16  17
ATOM     17  CD  GLU D 570     -20.522  -7.678 -15.643  1.00 32.92     0.185 C 
ATOM     18  OE1 GLU D 570     -20.736  -8.779 -16.186  1.00 32.92    -0.647 OA
ATOM     19  OE2 GLU D 570     -20.622  -6.593 -16.249  1.00 32.92    -0.647 OA
ENDBRANCH  16  17
ENDBRANCH  15  16
ENDBRANCH  14  15
END_RES GLU D 570
ENDMDL
MODEL 3
REMARK VINA RESULT:      -4.9      7.118      9.029
REMARK  5 active torsions:
REMARK  status: ('A' for Active; 'I' for Inactive)
REMARK       I    between atoms: C_2  and  N_4 
REMARK    1  A    between atoms: N_4  and  CA_5 
REMARK    2  A    between atoms: CA_5  and  CB_6 
REMARK    3  A    between atoms: CA_5  and  C_8 
REMARK    4  A    between atoms: CB_6  and  SG_7 
REMARK    5  A    between atoms: C_8  and  OXT_10 
ROOT
ATOM      1  CA  CYS A   1     -35.417  -0.804 -12.016  1.00  0.00     0.191 C 
ENDROOT
BRANCH   1   2
ATOM      2  N   CYS A   1     -34.748  -2.108 -12.047  1.00  0.00    -0.346 N 
HETATM    3  C   UNK A   0     -33.694  -2.425 -11.229  1.00  0.00     0.214 C 
HETATM    4  C   UNK A   0     -33.157  -3.814 -11.431  1.00  0.00     0.117 C 
HETATM    5  O   UNK A   0     -33.244  -1.650 -10.391  1.00  0.00    -0.274 OA
ATOM      6  H   CYS A   1     -35.210  -2.851 -12.569  1.00  0.00     0.163 HD
ENDBRANCH   1   2
BRANCH   1   7
ATOM      7  CB  CYS A   1     -36.074  -0.429 -13.354  1.00  0.00     0.106 C 
BRANCH   7   8
ATOM      8  SG  CYS A   1     -35.158   0.761 -14.395  1.00  0.00    -0.180 SA
ATOM      9  HG  CYS A   1     -34.097   0.920 -13.579  1.00  0.00     0.101 HD
ENDBRANCH   7   8
ENDBRANCH   1   7
BRANCH   1  10
ATOM     10  C   CYS A   1     -36.508  -0.887 -10.944  1.00  0.00     0.164 C 
ATOM     11  O   CYS A   1     -37.668  -1.220 -11.187  1.00  0.00    -0.648 OA
BRANCH  10  12
ATOM     12  OXT CYS A   1     -36.112  -0.565  -9.694  1.00  0.00    -0.775 OA
ATOM     13  HXT CYS A   1     -36.553   0.205  -9.287  1.00  0.00     0.167 HD
ENDBRANCH  10  12
ENDBRANCH   1  10
TORSDOF 5
BEGIN_RES ARG D 557
REMARK  4 active torsions:
REMARK  status: ('A' for Active; 'I' for Inactive)
REMARK    1  A    between atoms: CA   and  CB  
REMARK    2  A    between atoms: CB   and  CG  
REMARK    3  A    between atoms: CG   and  CD  
REMARK    4  A    between atoms: CD   and  NE  
REMARK       I    between atoms: NE   and  CZ  
REMARK       I    between atoms: CZ   and  NH1 
REMARK       I    between atoms: CZ   and  NH2 
ROOT
ATOM      1  CA  ARG D 557     -26.217   2.705 -17.014  1.00 35.49     0.159 C 
ENDROOT
BRANCH   1   2
ATOM      2  CB  ARG D 557     -26.789   1.319 -17.183  1.00 35.49     0.034 C 
BRANCH   2   3
ATOM      3  CG  ARG D 557     -25.835   0.203 -17.161  1.00 35.49     0.027 C 
BRANCH   3   4
ATOM      4  CD  ARG D 557     -24.749   0.409 -16.176  1.00 35.49     0.116 C 
BRANCH   4   5
ATOM      5  NE  ARG D 557     -24.897  -0.437 -15.021  1.00 35.49    -0.212 N 
ATOM      6  CZ  ARG D 557     -24.083  -1.407 -14.671  1.00 35.49     0.666 C 
ATOM      7  NH1 ARG D 557     -23.014  -1.727 -15.377  1.00 35.49    -0.235 N 
ATOM      8  NH2 ARG D 557     -24.361  -2.059 -13.578  1.00 35.49    -0.235 N 
ATOM      9  HH  ARG D 557     -22.811  -1.310 -16.097  1.00 35.49     0.174 HD
ATOM     10  HH  ARG D 557     -22.518  -2.367 -15.098  1.00 35.49     0.174 HD
ATOM     11  HH  ARG D 557     -25.053  -1.826 -13.139  1.00 35.49     0.174 HD
ATOM     12  HH  ARG D 557     -23.857  -2.689 -13.318  1.00 35.49     0.174 HD
ATOM     13  HE  ARG D 557     -25.598  -0.348 -14.549  1.00 35.49     0.178 HD
ENDBRANCH   4   5
ENDBRANCH   3   4
ENDBRANCH   2   3
ENDBRANCH   1   2
END_RES ARG D 557
BEGIN_RES GLU D 570
REMARK  3 active torsions:
REMARK  status: ('A' for Active; 'I' for Inactive)
REMARK    5  A    between atoms: CA   and  CB  
REMARK    6  A    between atoms: CB   and  CG  
REMARK    7  A    between atoms: CG   and  CD  
ROOT
ATOM     14  CA  GLU D 570     -18.033  -6.348 -13.375  1.00 32.92     0.160 C 
ENDROOT
BRANCH  14  15
ATOM     15  CB  GLU D 570     -19.500  -6.345 -13.794  1.00 32.92     0.043 C 
BRANCH  15  16
ATOM     16  CG  GLU D 570     -20.443  -5.537 -12.978  1.00 32.92     0.100 C 
BRANCH  16  17
ATOM     17  CD  GLU D 570     -21.741  -5.245 -13.695  1.00 32.92     0.185 C 
ATOM     18  OE1 GLU D 570     -22.285  -4.135 -13.533  1.00 32.92    -0.647 OA
ATOM     19  OE2 GLU D 570     -22.227  -6.140 -14.413  1.00 32.92    -0.647 OA
ENDBRANCH  16  17
ENDBRANCH  15  16
ENDBRANCH  14  15
END_RES GLU D 570
ENDMDL
MODEL 4
REMARK VINA RESULT:      -4.6      6.963      8.717
REMARK  5 active torsions:
REMARK  status: ('A' for Active; 'I' for Inactive)
REMARK       I    between atoms: C_2  and  N_4 
REMARK    1  A    between atoms: N_4  and  CA_5 
REMARK    2  A    between atoms: CA_5  and  CB_6 
REMARK    3  A    between atoms: CA_5  and  C_8 
REMARK    4  A    between atoms: CB_6  and  SG_7 
REMARK    5  A    between atoms: C_8  and  OXT_10 
ROOT
ATOM      1  CA  CYS A   1     -35.424  -0.732 -11.970  1.00  0.00     0.191 C 
ENDROOT
BRANCH   1   2
ATOM      2  N   CYS A   1     -34.734  -2.022 -12.066  1.00  0.00    -0.346 N 
HETATM    3  C   UNK A   0     -33.697  -2.377 -11.242  1.00  0.00     0.214 C 
HETATM    4  C   UNK A   0     -33.133  -3.743 -11.518  1.00  0.00     0.117 C 
HETATM    5  O   UNK A   0     -33.282  -1.653 -10.344  1.00  0.00    -0.274 OA
ATOM      6  H   CYS A   1     -35.170  -2.736 -12.648  1.00  0.00     0.163 HD
ENDBRANCH   1   2
BRANCH   1   7
ATOM      7  CB  CYS A   1     -36.102  -0.309 -13.282  1.00  0.00     0.106 C 
BRANCH   7   8
ATOM      8  SG  CYS A   1     -35.120   0.770 -14.383  1.00  0.00    -0.180 SA
ATOM      9  HG  CYS A   1     -34.386   1.371 -13.424  1.00  0.00     0.101 HD
ENDBRANCH   7   8
ENDBRANCH   1   7
BRANCH   1  10
ATOM     10  C   CYS A   1     -36.502  -0.882 -10.891  1.00  0.00     0.164 C 
ATOM     11  O   CYS A   1     -37.651  -1.251 -11.134  1.00  0.00    -0.648 OA
BRANCH  10  12
ATOM     12  OXT CYS A   1     -36.106  -0.579  -9.637  1.00  0.00    -0.775 OA
ATOM     13  HXT CYS A   1     -36.783  -0.179  -9.056  1.00  0.00     0.167 HD
ENDBRANCH  10  12
ENDBRANCH   1  10
TORSDOF 5
BEGIN_RES ARG D 557
REMARK  4 active torsions:
REMARK  status: ('A' for Active; 'I' for Inactive)
REMARK    1  A    between atoms: CA   and  CB  
REMARK    2  A    between atoms: CB   and  CG  
REMARK    3  A    between atoms: CG   and  CD  
REMARK    4  A    between atoms: CD   and  NE  
REMARK       I    between atoms: NE   and  CZ  
REMARK       I    between atoms: CZ   and  NH1 
REMARK       I    between atoms: CZ   and  NH2 
ROOT
ATOM      1  CA  ARG D 557     -26.217   2.705 -17.014  1.00 35.49     0.159 C 
ENDROOT
BRANCH   1   2
ATOM      2  CB  ARG D 557     -26.789   1.319 -17.183  1.00 35.49     0.034 C 
BRANCH   2   3
ATOM      3  CG  ARG D 557     -28.229   1.165 -16.944  1.00 35.49     0.027 C 
BRANCH   3   4
ATOM      4  CD  ARG D 557     -28.615  -0.246 -16.712  1.00 35.49     0.116 C 
BRANCH   4   5
ATOM      5  NE  ARG D 557     -27.603  -0.974 -15.993  1.00 35.49    -0.212 N 
ATOM      6  CZ  ARG D 557     -27.399  -2.271 -16.055  1.00 35.49     0.666 C 
ATOM      7  NH1 ARG D 557     -28.140  -3.070 -16.801  1.00 35.49    -0.235 N 
ATOM      8  NH2 ARG D 557     -26.421  -2.760 -15.350  1.00 35.49    -0.235 N 
ATOM      9  HH  ARG D 557     -28.788  -2.770 -17.275  1.00 35.49     0.174 HD
ATOM     10  HH  ARG D 557     -27.959  -3.908 -16.804  1.00 35.49     0.174 HD
ATOM     11  HH  ARG D 557     -25.955  -2.219 -14.884  1.00 35.49     0.174 HD
ATOM     12  HH  ARG D 557     -26.256  -3.591 -15.368  1.00 35.49     0.174 HD
ATOM     13  HE  ARG D 557     -27.126  -0.548 -15.433  1.00 35.49     0.178 HD
ENDBRANCH   4   5
ENDBRANCH   3   4
ENDBRANCH   2   3
ENDBRANCH   1   2
END_RES ARG D 557
BEGIN_RES GLU D 570
REMARK  3 active torsions:
REMARK  status: ('A' for Active; 'I' for Inactive)
REMARK    5  A    between atoms: CA   and  CB  
REMARK    6  A    between atoms: CB   and  CG  
REMARK    7  A    between atoms: CG   and  CD  
ROOT
ATOM     14  CA  GLU D 570     -18.033  -6.348 -13.375  1.00 32.92     0.160 C 
ENDROOT
BRANCH  14  15
ATOM     15  CB  GLU D 570     -19.500  -6.345 -13.794  1.00 32.92     0.043 C 
BRANCH  15  16
ATOM     16  CG  GLU D 570     -20.441  -5.526 -12.987  1.00 32.92     0.100 C 
BRANCH  16  17
ATOM     17  CD  GLU D 570     -21.738  -5.237 -13.706  1.00 32.92     0.185 C 
ATOM     18  OE1 GLU D 570     -22.128  -6.025 -14.589  1.00 32.92    -0.647 OA
ATOM     19  OE2 GLU D 570     -22.361  -4.203 -13.396  1.00 32.92    -0.647 OA
ENDBRANCH  16  17
ENDBRANCH  15  16
ENDBRANCH  14  15
END_RES GLU D 570
ENDMDL
MODEL 5
REMARK VINA RESULT:      -4.6      7.043      8.954
REMARK  5 active torsions:
REMARK  status: ('A' for Active; 'I' for Inactive)
REMARK       I    between atoms: C_2  and  N_4 
REMARK    1  A    between atoms: N_4  and  CA_5 
REMARK    2  A    between atoms: CA_5  and  CB_6 
REMARK    3  A    between atoms: CA_5  and  C_8 
REMARK    4  A    between atoms: CB_6  and  SG_7 
REMARK    5  A    between atoms: C_8  and  OXT_10 
ROOT
ATOM      1  CA  CYS A   1     -35.224  -1.652 -11.420  1.00  0.00     0.191 C 
ENDROOT
BRANCH   1   2
ATOM      2  N   CYS A   1     -34.784  -0.522 -12.245  1.00  0.00    -0.346 N 
HETATM    3  C   UNK A   0     -35.374  -0.196 -13.439  1.00  0.00     0.214 C 
HETATM    4  C   UNK A   0     -34.761   0.995 -14.121  1.00  0.00     0.117 C 
HETATM    5  O   UNK A   0     -36.332  -0.808 -13.898  1.00  0.00    -0.274 OA
ATOM      6  H   CYS A   1     -34.137   0.137 -11.815  1.00  0.00     0.163 HD
ENDBRANCH   1   2
BRANCH   1   7
ATOM      7  CB  CYS A   1     -34.103  -2.239 -10.549  1.00  0.00     0.106 C 
BRANCH   7   8
ATOM      8  SG  CYS A   1     -33.693  -3.995 -10.843  1.00  0.00    -0.180 SA
ATOM      9  HG  CYS A   1     -34.955  -4.444 -10.991  1.00  0.00     0.101 HD
ENDBRANCH   7   8
ENDBRANCH   1   7
BRANCH   1  10
ATOM     10  C   CYS A   1     -36.332  -1.127 -10.501  1.00  0.00     0.164 C 
ATOM     11  O   CYS A   1     -36.109  -0.595  -9.413  1.00  0.00    -0.648 OA
BRANCH  10  12
ATOM     12  OXT CYS A   1     -37.589  -1.288 -10.965  1.00  0.00    -0.775 OA
ATOM     13  HXT CYS A   1     -38.283  -1.423 -10.291  1.00  0.00     0.167 HD
ENDBRANCH  10  12
ENDBRANCH   1  10
TORSDOF 5
BEGIN_RES ARG D 557
REMARK  4 active torsions:
REMARK  status: ('A' for Active; 'I' for Inactive)
REMARK    1  A    between atoms: CA   and  CB  
REMARK    2  A    between atoms: CB   and  CG  
REMARK    3  A    between atoms: CG   and  CD  
REMARK    4  A    between atoms: CD   and  NE  
REMARK       I    between atoms: NE   and  CZ  
REMARK       I    between atoms: CZ   and  NH1 
REMARK       I    between atoms: CZ   and  NH2 
ROOT
ATOM      1  CA  ARG D 557     -26.217   2.705 -17.014  1.00 35.49     0.159 C 
ENDROOT
BRANCH   1   2
ATOM      2  CB  ARG D 557     -26.789   1.319 -17.183  1.00 35.49     0.034 C 
BRANCH   2   3
ATOM      3  CG  ARG D 557     -25.838   0.202 -17.135  1.00 35.49     0.027 C 
BRANCH   3   4
ATOM      4  CD  ARG D 557     -24.752   0.426 -16.154  1.00 35.49     0.116 C 
BRANCH   4   5
ATOM      5  NE  ARG D 557     -24.868  -0.438 -15.009  1.00 35.49    -0.212 N 
ATOM      6  CZ  ARG D 557     -24.039  -1.406 -14.691  1.00 35.49     0.666 C 
ATOM      7  NH1 ARG D 557     -22.983  -1.706 -15.425  1.00 35.49    -0.235 N 
ATOM      8  NH2 ARG D 557     -24.287  -2.076 -13.603  1.00 35.49    -0.235 N 
ATOM      9  HH  ARG D 557     -22.799  -1.277 -16.143  1.00 35.49     0.174 HD
ATOM     10  HH  ARG D 557     -22.476  -2.346 -15.166  1.00 35.49     0.174 HD
ATOM     11  HH  ARG D 557     -24.972  -1.855 -13.145  1.00 35.49     0.174 HD
ATOM     12  HH  ARG D 557     -23.772  -2.705 -13.363  1.00 35.49     0.174 HD
ATOM     13  HE  ARG D 557     -25.560  -0.362 -14.521  1.00 35.49     0.178 HD
ENDBRANCH   4   5
ENDBRANCH   3   4
ENDBRANCH   2   3
ENDBRANCH   1   2
END_RES ARG D 557
BEGIN_RES GLU D 570
REMARK  3 active torsions:
REMARK  status: ('A' for Active; 'I' for Inactive)
REMARK    5  A    between atoms: CA   and  CB  
REMARK    6  A    between atoms: CB   and  CG  
REMARK    7  A    between atoms: CG   and  CD  
ROOT
ATOM     14  CA  GLU D 570     -18.033  -6.348 -13.375  1.00 32.92     0.160 C 
ENDROOT
BRANCH  14  15
ATOM     15  CB  GLU D 570     -19.500  -6.345 -13.794  1.00 32.92     0.043 C 
BRANCH  15  16
ATOM     16  CG  GLU D 570     -19.816  -5.902 -15.176  1.00 32.92     0.100 C 
BRANCH  16  17
ATOM     17  CD  GLU D 570     -21.291  -5.654 -15.393  1.00 32.92     0.185 C 
ATOM     18  OE1 GLU D 570     -21.668  -4.522 -15.754  1.00 32.92    -0.647 OA
ATOM     19  OE2 GLU D 570     -22.079  -6.597 -15.184  1.00 32.92    -0.647 OA
ENDBRANCH  16  17
ENDBRANCH  15  16
ENDBRANCH  14  15
END_RES GLU D 570
ENDMDL
MODEL 6
REMARK VINA RESULT:      -4.4      2.279      3.321
REMARK  5 active torsions:
REMARK  status: ('A' for Active; 'I' for Inactive)
REMARK       I    between atoms: C_2  and  N_4 
REMARK    1  A    between atoms: N_4  and  CA_5 
REMARK    2  A    between atoms: CA_5  and  CB_6 
REMARK    3  A    between atoms: CA_5  and  C_8 
REMARK    4  A    between atoms: CB_6  and  SG_7 
REMARK    5  A    between atoms: C_8  and  OXT_10 
ROOT
ATOM      1  CA  CYS A   1     -22.277  -4.438 -11.120  1.00  0.00     0.191 C 
ENDROOT
BRANCH   1   2
ATOM      2  N   CYS A   1     -22.485  -4.286  -9.677  1.00  0.00    -0.346 N 
HETATM    3  C   UNK A   0     -21.472  -4.408  -8.761  1.00  0.00     0.214 C 
HETATM    4  C   UNK A   0     -21.909  -4.219  -7.334  1.00  0.00     0.117 C 
HETATM    5  O   UNK A   0     -20.309  -4.629  -9.078  1.00  0.00    -0.274 OA
ATOM      6  H   CYS A   1     -23.379  -3.900  -9.378  1.00  0.00     0.163 HD
ENDBRANCH   1   2
BRANCH   1   7
ATOM      7  CB  CYS A   1     -23.542  -4.883 -11.871  1.00  0.00     0.106 C 
BRANCH   7   8
ATOM      8  SG  CYS A   1     -23.305  -5.404 -13.606  1.00  0.00    -0.180 SA
ATOM      9  HG  CYS A   1     -23.037  -4.186 -14.116  1.00  0.00     0.101 HD
ENDBRANCH   7   8
ENDBRANCH   1   7
BRANCH   1  10
ATOM     10  C   CYS A   1     -21.849  -3.068 -11.656  1.00  0.00     0.164 C 
ATOM     11  O   CYS A   1     -22.647  -2.230 -12.077  1.00  0.00    -0.648 OA
BRANCH  10  12
ATOM     12  OXT CYS A   1     -20.520  -2.833 -11.637  1.00  0.00    -0.775 OA
ATOM     13  HXT CYS A   1     -19.980  -3.359 -12.258  1.00  0.00     0.167 HD
ENDBRANCH  10  12
ENDBRANCH   1  10
TORSDOF 5
BEGIN_RES ARG D 557
REMARK  4 active torsions:
REMARK  status: ('A' for Active; 'I' for Inactive)
REMARK    1  A    between atoms: CA   and  CB  
REMARK    2  A    between atoms: CB   and  CG  
REMARK    3  A    between atoms: CG   and  CD  
REMARK    4  A    between atoms: CD   and  NE  
REMARK       I    between atoms: NE   and  CZ  
REMARK       I    between atoms: CZ   and  NH1 
REMARK       I    between atoms: CZ   and  NH2 
ROOT
ATOM      1  CA  ARG D 557     -26.217   2.705 -17.014  1.00 35.49     0.159 C 
ENDROOT
BRANCH   1   2
ATOM      2  CB  ARG D 557     -26.789   1.319 -17.183  1.00 35.49     0.034 C 
BRANCH   2   3
ATOM      3  CG  ARG D 557     -28.233   1.226 -17.431  1.00 35.49     0.027 C 
BRANCH   3   4
ATOM      4  CD  ARG D 557     -28.908   0.298 -16.495  1.00 35.49     0.116 C 
BRANCH   4   5
ATOM      5  NE  ARG D 557     -29.294  -0.932 -17.135  1.00 35.49    -0.212 N 
ATOM      6  CZ  ARG D 557     -28.667  -2.083 -17.028  1.00 35.49     0.666 C 
ATOM      7  NH1 ARG D 557     -27.571  -2.229 -16.308  1.00 35.49    -0.235 N 
ATOM      8  NH2 ARG D 557     -29.172  -3.101 -17.662  1.00 35.49    -0.235 N 
ATOM      9  HH  ARG D 557     -27.223  -1.573 -15.881  1.00 35.49     0.174 HD
ATOM     10  HH  ARG D 557     -27.207  -3.004 -16.273  1.00 35.49     0.174 HD
ATOM     11  HH  ARG D 557     -29.885  -2.979 -18.114  1.00 35.49     0.174 HD
ATOM     12  HH  ARG D 557     -28.798  -3.861 -17.614  1.00 35.49     0.174 HD
ATOM     13  HE  ARG D 557     -29.949  -0.912 -17.677  1.00 35.49     0.178 HD
ENDBRANCH   4   5
ENDBRANCH   3   4
ENDBRANCH   2   3
ENDBRANCH   1   2
END_RES ARG D 557
BEGIN_RES GLU D 570
REMARK  3 active torsions:
REMARK  status: ('A' for Active; 'I' for Inactive)
REMARK    5  A    between atoms: CA   and  CB  
REMARK    6  A    between atoms: CB   and  CG  
REMARK    7  A    between atoms: CG   and  CD  
ROOT
ATOM     14  CA  GLU D 570     -18.033  -6.348 -13.375  1.00 32.92     0.160 C 
ENDROOT
BRANCH  14  15
ATOM     15  CB  GLU D 570     -19.500  -6.345 -13.794  1.00 32.92     0.043 C 
BRANCH  15  16
ATOM     16  CG  GLU D 570     -19.798  -6.215 -15.244  1.00 32.92     0.100 C 
BRANCH  16  17
ATOM     17  CD  GLU D 570     -20.695  -7.314 -15.762  1.00 32.92     0.185 C 
ATOM     18  OE1 GLU D 570     -20.616  -8.450 -15.256  1.00 32.92    -0.647 OA
ATOM     19  OE2 GLU D 570     -21.475  -7.041 -16.696  1.00 32.92    -0.647 OA
ENDBRANCH  16  17
ENDBRANCH  15  16
ENDBRANCH  14  15
END_RES GLU D 570
ENDMDL
MODEL 7
REMARK VINA RESULT:      -4.3      6.922      8.657
REMARK  5 active torsions:
REMARK  status: ('A' for Active; 'I' for Inactive)
REMARK       I    between atoms: C_2  and  N_4 
REMARK    1  A    between atoms: N_4  and  CA_5 
REMARK    2  A    between atoms: CA_5  and  CB_6 
REMARK    3  A    between atoms: CA_5  and  C_8 
REMARK    4  A    between atoms: CB_6  and  SG_7 
REMARK    5  A    between atoms: C_8  and  OXT_10 
ROOT
ATOM      1  CA  CYS A   1     -35.220  -1.655 -11.441  1.00  0.00     0.191 C 
ENDROOT
BRANCH   1   2
ATOM      2  N   CYS A   1     -34.779  -0.520 -12.259  1.00  0.00    -0.346 N 
HETATM    3  C   UNK A   0     -35.364  -0.191 -13.454  1.00  0.00     0.214 C 
HETATM    4  C   UNK A   0     -34.752   1.005 -14.128  1.00  0.00     0.117 C 
HETATM    5  O   UNK A   0     -36.317  -0.806 -13.922  1.00  0.00    -0.274 OA
ATOM      6  H   CYS A   1     -34.138   0.140 -11.822  1.00  0.00     0.163 HD
ENDBRANCH   1   2
BRANCH   1   7
ATOM      7  CB  CYS A   1     -34.099  -2.248 -10.574  1.00  0.00     0.106 C 
BRANCH   7   8
ATOM      8  SG  CYS A   1     -33.780  -4.035 -10.784  1.00  0.00    -0.180 SA
ATOM      9  HG  CYS A   1     -35.066  -4.430 -10.869  1.00  0.00     0.101 HD
ENDBRANCH   7   8
ENDBRANCH   1   7
BRANCH   1  10
ATOM     10  C   CYS A   1     -36.327  -1.136 -10.517  1.00  0.00     0.164 C 
ATOM     11  O   CYS A   1     -36.103  -0.603  -9.430  1.00  0.00    -0.648 OA
BRANCH  10  12
ATOM     12  OXT CYS A   1     -37.585  -1.302 -10.977  1.00  0.00    -0.775 OA
ATOM     13  HXT CYS A   1     -38.304  -1.089 -10.352  1.00  0.00     0.167 HD
ENDBRANCH  10  12
ENDBRANCH   1  10
TORSDOF 5
BEGIN_RES ARG D 557
REMARK  4 active torsions:
REMARK  status: ('A' for Active; 'I' for Inactive)
REMARK    1  A    between atoms: CA   and  CB  
REMARK    2  A    between atoms: CB   and  CG  
REMARK    3  A    between atoms: CG   and  CD  
REMARK    4  A    between atoms: CD   and  NE  
REMARK       I    between atoms: NE   and  CZ  
REMARK       I    between atoms: CZ   and  NH1 
REMARK       I    between atoms: CZ   and  NH2 
ROOT
ATOM      1  CA  ARG D 557     -26.217   2.705 -17.014  1.00 35.49     0.159 C 
ENDROOT
BRANCH   1   2
ATOM      2  CB  ARG D 557     -26.789   1.319 -17.183  1.00 35.49     0.034 C 
BRANCH   2   3
ATOM      3  CG  ARG D 557     -28.224   1.228 -17.478  1.00 35.49     0.027 C 
BRANCH   3   4
ATOM      4  CD  ARG D 557     -28.908   0.213 -16.644  1.00 35.49     0.116 C 
BRANCH   4   5
ATOM      5  NE  ARG D 557     -28.014  -0.832 -16.219  1.00 35.49    -0.212 N 
ATOM      6  CZ  ARG D 557     -28.086  -2.095 -16.573  1.00 35.49     0.666 C 
ATOM      7  NH1 ARG D 557     -29.030  -2.555 -17.373  1.00 35.49    -0.235 N 
ATOM      8  NH2 ARG D 557     -27.176  -2.901 -16.107  1.00 35.49    -0.235 N 
ATOM      9  HH  ARG D 557     -29.637  -2.042 -17.693  1.00 35.49     0.174 HD
ATOM     10  HH  ARG D 557     -29.025  -3.389 -17.572  1.00 35.49     0.174 HD
ATOM     11  HH  ARG D 557     -26.575  -2.575 -15.598  1.00 35.49     0.174 HD
ATOM     12  HH  ARG D 557     -27.188  -3.723 -16.316  1.00 35.49     0.174 HD
ATOM     13  HE  ARG D 557     -27.419  -0.638 -15.644  1.00 35.49     0.178 HD
ENDBRANCH   4   5
ENDBRANCH   3   4
ENDBRANCH   2   3
ENDBRANCH   1   2
END_RES ARG D 557
BEGIN_RES GLU D 570
REMARK  3 active torsions:
REMARK  status: ('A' for Active; 'I' for Inactive)
REMARK    5  A    between atoms: CA   and  CB  
REMARK    6  A    between atoms: CB   and  CG  
REMARK    7  A    between atoms: CG   and  CD  
ROOT
ATOM     14  CA  GLU D 570     -18.033  -6.348 -13.375  1.00 32.92     0.160 C 
ENDROOT
BRANCH  14  15
ATOM     15  CB  GLU D 570     -19.500  -6.345 -13.794  1.00 32.92     0.043 C 
BRANCH  15  16
ATOM     16  CG  GLU D 570     -20.446  -5.548 -12.970  1.00 32.92     0.100 C 
BRANCH  16  17
ATOM     17  CD  GLU D 570     -21.713  -5.189 -13.710  1.00 32.92     0.185 C 
ATOM     18  OE1 GLU D 570     -21.936  -5.712 -14.818  1.00 32.92    -0.647 OA
ATOM     19  OE2 GLU D 570     -22.484  -4.364 -13.182  1.00 32.92    -0.647 OA
ENDBRANCH  16  17
ENDBRANCH  15  16
ENDBRANCH  14  15
END_RES GLU D 570
ENDMDL
MODEL 8
REMARK VINA RESULT:      -4.1      6.742      8.227
REMARK  5 active torsions:
REMARK  status: ('A' for Active; 'I' for Inactive)
REMARK       I    between atoms: C_2  and  N_4 
REMARK    1  A    between atoms: N_4  and  CA_5 
REMARK    2  A    between atoms: CA_5  and  CB_6 
REMARK    3  A    between atoms: CA_5  and  C_8 
REMARK    4  A    between atoms: CB_6  and  SG_7 
REMARK    5  A    between atoms: C_8  and  OXT_10 
ROOT
ATOM      1  CA  CYS A   1     -21.076  -7.641  -2.390  1.00  0.00     0.191 C 
ENDROOT
BRANCH   1   2
ATOM      2  N   CYS A   1     -21.987  -8.629  -1.804  1.00  0.00    -0.346 N 
HETATM    3  C   UNK A   0     -22.234  -8.709  -0.457  1.00  0.00     0.214 C 
HETATM    4  C   UNK A   0     -23.196  -9.799  -0.073  1.00  0.00     0.117 C 
HETATM    5  O   UNK A   0     -21.730  -7.945   0.359  1.00  0.00    -0.274 OA
ATOM      6  H   CYS A   1     -22.585  -9.145  -2.448  1.00  0.00     0.163 HD
ENDBRANCH   1   2
BRANCH   1   7
ATOM      7  CB  CYS A   1     -20.351  -8.155  -3.644  1.00  0.00     0.106 C 
BRANCH   7   8
ATOM      8  SG  CYS A   1     -21.096  -9.607  -4.465  1.00  0.00    -0.180 SA
ATOM      9  HG  CYS A   1     -20.201 -10.521  -4.043  1.00  0.00     0.101 HD
ENDBRANCH   7   8
ENDBRANCH   1   7
BRANCH   1  10
ATOM     10  C   CYS A   1     -21.927  -6.428  -2.782  1.00  0.00     0.164 C 
ATOM     11  O   CYS A   1     -22.159  -6.117  -3.950  1.00  0.00    -0.648 OA
BRANCH  10  12
ATOM     12  OXT CYS A   1     -22.413  -5.709  -1.749  1.00  0.00    -0.775 OA
ATOM     13  HXT CYS A   1     -22.561  -6.197  -0.916  1.00  0.00     0.167 HD
ENDBRANCH  10  12
ENDBRANCH   1  10
TORSDOF 5
BEGIN_RES ARG D 557
REMARK  4 active torsions:
REMARK  status: ('A' for Active; 'I' for Inactive)
REMARK    1  A    between atoms: CA   and  CB  
REMARK    2  A    between atoms: CB   and  CG  
REMARK    3  A    between atoms: CG   and  CD  
REMARK    4  A    between atoms: CD   and  NE  
REMARK       I    between atoms: NE   and  CZ  
REMARK       I    between atoms: CZ   and  NH1 
REMARK       I    between atoms: CZ   and  NH2 
ROOT
ATOM      1  CA  ARG D 557     -26.217   2.705 -17.014  1.00 35.49     0.159 C 
ENDROOT
BRANCH   1   2
ATOM      2  CB  ARG D 557     -26.789   1.319 -17.183  1.00 35.49     0.034 C 
BRANCH   2   3
ATOM      3  CG  ARG D 557     -25.836   0.203 -17.158  1.00 35.49     0.027 C 
BRANCH   3   4
ATOM      4  CD  ARG D 557     -24.749   0.412 -16.173  1.00 35.49     0.116 C 
BRANCH   4   5
ATOM      5  NE  ARG D 557     -24.895  -0.434 -15.018  1.00 35.49    -0.212 N 
ATOM      6  CZ  ARG D 557     -24.082  -1.407 -14.671  1.00 35.49     0.666 C 
ATOM      7  NH1 ARG D 557     -23.016  -1.728 -15.381  1.00 35.49    -0.235 N 
ATOM      8  NH2 ARG D 557     -24.357  -2.058 -13.578  1.00 35.49    -0.235 N 
ATOM      9  HH  ARG D 557     -22.815  -1.312 -16.102  1.00 35.49     0.174 HD
ATOM     10  HH  ARG D 557     -22.521  -2.370 -15.104  1.00 35.49     0.174 HD
ATOM     11  HH  ARG D 557     -25.047  -1.823 -13.135  1.00 35.49     0.174 HD
ATOM     12  HH  ARG D 557     -23.853  -2.689 -13.319  1.00 35.49     0.174 HD
ATOM     13  HE  ARG D 557     -25.594  -0.344 -14.543  1.00 35.49     0.178 HD
ENDBRANCH   4   5
ENDBRANCH   3   4
ENDBRANCH   2   3
ENDBRANCH   1   2
END_RES ARG D 557
BEGIN_RES GLU D 570
REMARK  3 active torsions:
REMARK  status: ('A' for Active; 'I' for Inactive)
REMARK    5  A    between atoms: CA   and  CB  
REMARK    6  A    between atoms: CB   and  CG  
REMARK    7  A    between atoms: CG   and  CD  
ROOT
ATOM     14  CA  GLU D 570     -18.033  -6.348 -13.375  1.00 32.92     0.160 C 
ENDROOT
BRANCH  14  15
ATOM     15  CB  GLU D 570     -19.500  -6.345 -13.794  1.00 32.92     0.043 C 
BRANCH  15  16
ATOM     16  CG  GLU D 570     -20.437  -5.510 -12.999  1.00 32.92     0.100 C 
BRANCH  16  17
ATOM     17  CD  GLU D 570     -21.743  -5.248 -13.713  1.00 32.92     0.185 C 
ATOM     18  OE1 GLU D 570     -22.212  -6.128 -14.459  1.00 32.92    -0.647 OA
ATOM     19  OE2 GLU D 570     -22.294  -4.143 -13.537  1.00 32.92    -0.647 OA
ENDBRANCH  16  17
ENDBRANCH  15  16
ENDBRANCH  14  15
END_RES GLU D 570
ENDMDL
MODEL 9
REMARK VINA RESULT:      -3.9      2.756      4.310
REMARK  5 active torsions:
REMARK  status: ('A' for Active; 'I' for Inactive)
REMARK       I    between atoms: C_2  and  N_4 
REMARK    1  A    between atoms: N_4  and  CA_5 
REMARK    2  A    between atoms: CA_5  and  CB_6 
REMARK    3  A    between atoms: CA_5  and  C_8 
REMARK    4  A    between atoms: CB_6  and  SG_7 
REMARK    5  A    between atoms: C_8  and  OXT_10 
ROOT
ATOM      1  CA  CYS A   1     -21.757  -4.387 -10.079  1.00  0.00     0.191 C 
ENDROOT
BRANCH   1   2
ATOM      2  N   CYS A   1     -20.561  -4.264  -9.239  1.00  0.00    -0.346 N 
HETATM    3  C   UNK A   0     -20.405  -4.947  -8.061  1.00  0.00     0.214 C 
HETATM    4  C   UNK A   0     -19.105  -4.668  -7.358  1.00  0.00     0.117 C 
HETATM    5  O   UNK A   0     -21.241  -5.733  -7.629  1.00  0.00    -0.274 OA
ATOM      6  H   CYS A   1     -19.757  -3.792  -9.649  1.00  0.00     0.163 HD
ENDBRANCH   1   2
BRANCH   1   7
ATOM      7  CB  CYS A   1     -22.854  -3.371  -9.724  1.00  0.00     0.106 C 
BRANCH   7   8
ATOM      8  SG  CYS A   1     -24.576  -3.960  -9.883  1.00  0.00    -0.180 SA
ATOM      9  HG  CYS A   1     -24.580  -4.771  -8.806  1.00  0.00     0.101 HD
ENDBRANCH   7   8
ENDBRANCH   1   7
BRANCH   1  10
ATOM     10  C   CYS A   1     -21.313  -4.139 -11.525  1.00  0.00     0.164 C 
ATOM     11  O   CYS A   1     -22.058  -4.290 -12.493  1.00  0.00    -0.648 OA
BRANCH  10  12
ATOM     12  OXT CYS A   1     -20.033  -3.738 -11.673  1.00  0.00    -0.775 OA
ATOM     13  HXT CYS A   1     -19.654  -3.827 -12.569  1.00  0.00     0.167 HD
ENDBRANCH  10  12
ENDBRANCH   1  10
TORSDOF 5
BEGIN_RES ARG D 557
REMARK  4 active torsions:
REMARK  status: ('A' for Active; 'I' for Inactive)
REMARK    1  A    between atoms: CA   and  CB  
REMARK    2  A    between atoms: CB   and  CG  
REMARK    3  A    between atoms: CG   and  CD  
REMARK    4  A    between atoms: CD   and  NE  
REMARK       I    between atoms: NE   and  CZ  
REMARK       I    between atoms: CZ   and  NH1 
REMARK       I    between atoms: CZ   and  NH2 
ROOT
ATOM      1  CA  ARG D 557     -26.217   2.705 -17.014  1.00 35.49     0.159 C 
ENDROOT
BRANCH   1   2
ATOM      2  CB  ARG D 557     -26.789   1.319 -17.183  1.00 35.49     0.034 C 
BRANCH   2   3
ATOM      3  CG  ARG D 557     -25.933   0.197 -16.779  1.00 35.49     0.027 C 
BRANCH   3   4
ATOM      4  CD  ARG D 557     -26.692  -0.873 -16.092  1.00 35.49     0.116 C 
BRANCH   4   5
ATOM      5  NE  ARG D 557     -25.967  -1.422 -14.977  1.00 35.49    -0.212 N 
ATOM      6  CZ  ARG D 557     -25.937  -2.690 -14.630  1.00 35.49     0.666 C 
ATOM      7  NH1 ARG D 557     -26.605  -3.621 -15.285  1.00 35.49    -0.235 N 
ATOM      8  NH2 ARG D 557     -25.208  -3.013 -13.601  1.00 35.49    -0.235 N 
ATOM      9  HH  ARG D 557     -27.089  -3.431 -15.966  1.00 35.49     0.174 HD
ATOM     10  HH  ARG D 557     -26.545  -4.431 -15.014  1.00 35.49     0.174 HD
ATOM     11  HH  ARG D 557     -24.781  -2.392 -13.202  1.00 35.49     0.174 HD
ATOM     12  HH  ARG D 557     -25.160  -3.821 -13.349  1.00 35.49     0.174 HD
ATOM     13  HE  ARG D 557     -25.567  -0.883 -14.456  1.00 35.49     0.178 HD
ENDBRANCH   4   5
ENDBRANCH   3   4
ENDBRANCH   2   3
ENDBRANCH   1   2
END_RES ARG D 557
BEGIN_RES GLU D 570
REMARK  3 active torsions:
REMARK  status: ('A' for Active; 'I' for Inactive)
REMARK    5  A    between atoms: CA   and  CB  
REMARK    6  A    between atoms: CB   and  CG  
REMARK    7  A    between atoms: CG   and  CD  
ROOT
ATOM     14  CA  GLU D 570     -18.033  -6.348 -13.375  1.00 32.92     0.160 C 
ENDROOT
BRANCH  14  15
ATOM     15  CB  GLU D 570     -19.500  -6.345 -13.794  1.00 32.92     0.043 C 
BRANCH  15  16
ATOM     16  CG  GLU D 570     -20.093  -7.639 -14.218  1.00 32.92     0.100 C 
BRANCH  16  17
ATOM     17  CD  GLU D 570     -20.650  -7.600 -15.623  1.00 32.92     0.185 C 
ATOM     18  OE1 GLU D 570     -21.054  -8.658 -16.143  1.00 32.92    -0.647 OA
ATOM     19  OE2 GLU D 570     -20.667  -6.503 -16.214  1.00 32.92    -0.647 OA
ENDBRANCH  16  17
ENDBRANCH  15  16
ENDBRANCH  14  15
END_RES GLU D 570
ENDMDL
