MODEL 1
REMARK VINA RESULT:      -9.6      0.000      0.000
REMARK  19 active torsions:
REMARK  status: ('A' for Active; 'I' for Inactive)
REMARK    1  A    between atoms: C_4  and  C_6 
REMARK    2  A    between atoms: C_6  and  C_7 
REMARK    3  A    between atoms: C_7  and  C_8 
REMARK    4  A    between atoms: C_8  and  C_9 
REMARK    5  A    between atoms: C_9  and  C_10 
REMARK       I    between atoms: C_10  and  N_12 
REMARK    6  A    between atoms: N_12  and  C_13 
REMARK    7  A    between atoms: C_13  and  C_14 
REMARK       I    between atoms: C_14  and  N_23 
REMARK    8  A    between atoms: N_23  and  CA_24 
REMARK    9  A    between atoms: CA_24  and  CB_25 
REMARK   10  A    between atoms: CA_24  and  C_32 
REMARK   11  A    between atoms: CB_25  and  CG_26 
REMARK       I    between atoms: C_32  and  N_36 
REMARK   12  A    between atoms: N_36  and  CA_37 
REMARK   13  A    between atoms: CA_37  and  CB_38 
REMARK   14  A    between atoms: CA_37  and  C_43 
REMARK   15  A    between atoms: CB_38  and  CG_39 
REMARK   16  A    between atoms: CG_39  and  CD_40 
REMARK   17  A    between atoms: CD_40  and  CE_41 
REMARK   18  A    between atoms: CE_41  and  NZ_42 
REMARK   19  A    between atoms: C_43  and  OXT_45 
ROOT
ATOM      1  CA  HIS A   1     -23.300  -4.249 -13.653  1.00  0.00     0.182 C 
ENDROOT
BRANCH   1   2
ATOM      2  N   HIS A   1     -22.310  -4.604 -12.605  1.00  0.00    -0.346 N 
HETATM    3  C   UNK A   0     -21.904  -3.749 -11.600  1.00  0.00     0.236 C 
HETATM    4  O   UNK A   0     -22.316  -2.594 -11.492  1.00  0.00    -0.272 OA
ATOM      5  H   HIS A   1     -21.964  -5.560 -12.635  1.00  0.00     0.163 HD
BRANCH   3   6
HETATM    6  C   UNK A   0     -20.868  -4.314 -10.615  1.00  0.00     0.225 C 
BRANCH   6   7
HETATM    7  N   UNK A   0     -21.340  -4.168  -9.238  1.00  0.00    -0.352 N 
HETATM    8  C   UNK A   0     -20.455  -4.123  -8.188  1.00  0.00     0.217 C 
HETATM    9  O   UNK A   0     -19.242  -4.101  -8.347  1.00  0.00    -0.274 OA
HETATM   10  H   UNK A   0     -22.320  -4.357  -9.068  1.00  0.00     0.162 HD
BRANCH   8  11
HETATM   11  C   UNK A   0     -21.086  -4.058  -6.804  1.00  0.00     0.103 C 
BRANCH  11  12
HETATM   12  C   UNK A   0     -20.448  -5.037  -5.818  1.00  0.00     0.009 C 
BRANCH  12  13
HETATM   13  C   UNK A   0     -20.772  -6.489  -6.175  1.00  0.00     0.002 C 
BRANCH  13  14
HETATM   14  C   UNK A   0     -20.253  -7.461  -5.101  1.00  0.00     0.017 C 
BRANCH  14  15
HETATM   15  C   UNK A   0     -21.382  -8.068  -4.253  1.00  0.00     0.072 C 
HETATM   16  C   UNK A   0     -21.060  -9.480  -3.729  1.00  0.00     0.123 C 
HETATM   17  C   UNK A   0     -20.244  -9.396  -2.412  1.00  0.00     0.119 C 
HETATM   18  N   UNK A   0     -22.266 -10.190  -3.321  1.00  0.00    -0.335 N 
HETATM   19  C   UNK A   0     -20.284  -7.957  -1.865  1.00  0.00     0.101 C 
HETATM   20  N   UNK A   0     -20.944 -10.308  -1.525  1.00  0.00    -0.336 N 
HETATM   21  S   UNK A   0     -21.630  -7.108  -2.724  1.00  0.00    -0.160 SA
HETATM   22  C   UNK A   0     -22.249 -10.427  -1.962  1.00  0.00     0.316 C 
HETATM   23  H   UNK A   0     -20.823 -10.290  -0.521  1.00  0.00     0.164 HD
HETATM   24  O   UNK A   0     -23.223 -10.589  -1.247  1.00  0.00    -0.247 OA
HETATM   25  H   UNK A   0     -23.166 -10.107  -3.776  1.00  0.00     0.164 HD
ENDBRANCH  14  15
ENDBRANCH  13  14
ENDBRANCH  12  13
ENDBRANCH  11  12
ENDBRANCH   8  11
ENDBRANCH   6   7
ENDBRANCH   3   6
ENDBRANCH   1   2
BRANCH   1  26
ATOM     26  CB  HIS A   1     -22.687  -3.397 -14.785  1.00  0.00     0.093 C 
BRANCH  26  27
ATOM     27  CG  HIS A   1     -23.361  -2.076 -14.920  1.00  0.00     0.028 A 
ATOM     28  CD2 HIS A   1     -24.531  -1.584 -14.387  1.00  0.00     0.114 A 
ATOM     29  NE2 HIS A   1     -24.802  -0.337 -14.878  1.00  0.00    -0.360 N 
ATOM     30  CE1 HIS A   1     -23.804  -0.055 -15.682  1.00  0.00     0.180 A 
ATOM     31  HE2 HIS A   1     -25.609   0.250 -14.664  1.00  0.00     0.166 HD
ATOM     32  ND1 HIS A   1     -22.885  -1.062 -15.714  1.00  0.00    -0.354 N 
ATOM     33  HD1 HIS A   1     -22.033  -1.075 -16.258  1.00  0.00     0.166 HD
ENDBRANCH  26  27
ENDBRANCH   1  26
BRANCH   1  34
ATOM     34  C   HIS A   1     -23.976  -5.554 -14.211  1.00  0.00     0.241 C 
ATOM     35  O   HIS A   1     -23.602  -6.671 -13.848  1.00  0.00    -0.271 OA
ATOM     36  N   LYS A   2     -25.035  -5.389 -15.086  1.00  0.00    -0.345 N 
ATOM     37  H   LYS A   2     -25.327  -4.458 -15.364  1.00  0.00     0.163 HD
BRANCH  36  38
ATOM     38  CA  LYS A   2     -25.761  -6.504 -15.751  1.00  0.00     0.182 C 
BRANCH  38  39
ATOM     39  CB  LYS A   2     -27.062  -5.993 -16.388  1.00  0.00     0.036 C 
BRANCH  39  40
ATOM     40  CG  LYS A   2     -28.252  -6.916 -16.095  1.00  0.00     0.004 C 
BRANCH  40  41
ATOM     41  CD  LYS A   2     -29.585  -6.324 -16.548  1.00  0.00     0.030 C 
BRANCH  41  42
ATOM     42  CE  LYS A   2     -30.009  -6.960 -17.872  1.00  0.00     0.267 C 
BRANCH  42  43
ATOM     43  NZ  LYS A   2     -29.489  -8.315 -17.983  1.00  0.00     0.078 N 
ATOM     44  HZ1 LYS A   2     -29.691  -8.832 -17.129  1.00  0.00     0.312 HD
ATOM     45  HZ2 LYS A   2     -28.472  -8.278 -18.057  1.00  0.00     0.312 HD
ENDBRANCH  42  43
ENDBRANCH  41  42
ENDBRANCH  40  41
ENDBRANCH  39  40
ENDBRANCH  38  39
BRANCH  38  46
ATOM     46  C   LYS A   2     -24.850  -7.160 -16.820  1.00  0.00     0.163 C 
ATOM     47  O   LYS A   2     -24.754  -6.699 -17.955  1.00  0.00    -0.648 OA
BRANCH  46  48
ATOM     48  OXT LYS A   2     -24.184  -8.289 -16.467  1.00  0.00    -0.775 OA
ATOM     49  HXT LYS A   2     -24.015  -8.985 -17.075  1.00  0.00     0.167 HD
ENDBRANCH  46  48
ENDBRANCH  38  46
ENDBRANCH  36  38
ENDBRANCH   1  34
TORSDOF 19
BEGIN_RES ARG D 557
REMARK  4 active torsions:
REMARK  status: ('A' for Active; 'I' for Inactive)
REMARK    1  A    between atoms: CA   and  CB  
REMARK    2  A    between atoms: CB   and  CG  
REMARK    3  A    between atoms: CG   and  CD  
REMARK    4  A    between atoms: CD   and  NE  
REMARK       I    between atoms: NE   and  CZ  
REMARK       I    between atoms: CZ   and  NH1 
REMARK       I    between atoms: CZ   and  NH2 
ROOT
ATOM      1  CA  ARG D 557     -26.217   2.705 -17.014  1.00 35.49     0.159 C 
ENDROOT
BRANCH   1   2
ATOM      2  CB  ARG D 557     -26.789   1.319 -17.183  1.00 35.49     0.034 C 
BRANCH   2   3
ATOM      3  CG  ARG D 557     -28.234   1.226 -17.425  1.00 35.49     0.027 C 
BRANCH   3   4
ATOM      4  CD  ARG D 557     -28.904   0.296 -16.488  1.00 35.49     0.116 C 
BRANCH   4   5
ATOM      5  NE  ARG D 557     -29.302  -0.929 -17.130  1.00 35.49    -0.212 N 
ATOM      6  CZ  ARG D 557     -28.672  -2.080 -17.045  1.00 35.49     0.666 C 
ATOM      7  NH1 ARG D 557     -27.561  -2.231 -16.348  1.00 35.49    -0.235 N 
ATOM      8  NH2 ARG D 557     -29.188  -3.094 -17.677  1.00 35.49    -0.235 N 
ATOM      9  HH  ARG D 557     -27.206  -1.578 -15.923  1.00 35.49     0.174 HD
ATOM     10  HH  ARG D 557     -27.196  -3.006 -16.327  1.00 35.49     0.174 HD
ATOM     11  HH  ARG D 557     -29.910  -2.968 -18.113  1.00 35.49     0.174 HD
ATOM     12  HH  ARG D 557     -28.812  -3.853 -17.643  1.00 35.49     0.174 HD
ATOM     13  HE  ARG D 557     -29.967  -0.905 -17.658  1.00 35.49     0.178 HD
ENDBRANCH   4   5
ENDBRANCH   3   4
ENDBRANCH   2   3
ENDBRANCH   1   2
END_RES ARG D 557
BEGIN_RES GLU D 570
REMARK  3 active torsions:
REMARK  status: ('A' for Active; 'I' for Inactive)
REMARK    5  A    between atoms: CA   and  CB  
REMARK    6  A    between atoms: CB   and  CG  
REMARK    7  A    between atoms: CG   and  CD  
ROOT
ATOM     14  CA  GLU D 570     -18.033  -6.348 -13.375  1.00 32.92     0.160 C 
ENDROOT
BRANCH  14  15
ATOM     15  CB  GLU D 570     -19.500  -6.345 -13.794  1.00 32.92     0.043 C 
BRANCH  15  16
ATOM     16  CG  GLU D 570     -19.806  -6.029 -15.213  1.00 32.92     0.100 C 
BRANCH  16  17
ATOM     17  CD  GLU D 570     -20.779  -7.002 -15.837  1.00 32.92     0.185 C 
ATOM     18  OE1 GLU D 570     -20.777  -8.188 -15.456  1.00 32.92    -0.647 OA
ATOM     19  OE2 GLU D 570     -21.541  -6.577 -16.728  1.00 32.92    -0.647 OA
ENDBRANCH  16  17
ENDBRANCH  15  16
ENDBRANCH  14  15
END_RES GLU D 570
ENDMDL
MODEL 2
REMARK VINA RESULT:      -9.1      2.830      4.437
REMARK  19 active torsions:
REMARK  status: ('A' for Active; 'I' for Inactive)
REMARK    1  A    between atoms: C_4  and  C_6 
REMARK    2  A    between atoms: C_6  and  C_7 
REMARK    3  A    between atoms: C_7  and  C_8 
REMARK    4  A    between atoms: C_8  and  C_9 
REMARK    5  A    between atoms: C_9  and  C_10 
REMARK       I    between atoms: C_10  and  N_12 
REMARK    6  A    between atoms: N_12  and  C_13 
REMARK    7  A    between atoms: C_13  and  C_14 
REMARK       I    between atoms: C_14  and  N_23 
REMARK    8  A    between atoms: N_23  and  CA_24 
REMARK    9  A    between atoms: CA_24  and  CB_25 
REMARK   10  A    between atoms: CA_24  and  C_32 
REMARK   11  A    between atoms: CB_25  and  CG_26 
REMARK       I    between atoms: C_32  and  N_36 
REMARK   12  A    between atoms: N_36  and  CA_37 
REMARK   13  A    between atoms: CA_37  and  CB_38 
REMARK   14  A    between atoms: CA_37  and  C_43 
REMARK   15  A    between atoms: CB_38  and  CG_39 
REMARK   16  A    between atoms: CG_39  and  CD_40 
REMARK   17  A    between atoms: CD_40  and  CE_41 
REMARK   18  A    between atoms: CE_41  and  NZ_42 
REMARK   19  A    between atoms: C_43  and  OXT_45 
ROOT
ATOM      1  CA  HIS A   1     -25.369  -5.485 -15.697  1.00  0.00     0.182 C 
ENDROOT
BRANCH   1   2
ATOM      2  N   HIS A   1     -25.444  -4.726 -14.422  1.00  0.00    -0.346 N 
HETATM    3  C   UNK A   0     -24.990  -3.432 -14.262  1.00  0.00     0.236 C 
HETATM    4  O   UNK A   0     -24.456  -2.790 -15.167  1.00  0.00    -0.272 OA
ATOM      5  H   HIS A   1     -25.904  -5.206 -13.654  1.00  0.00     0.163 HD
BRANCH   3   6
HETATM    6  C   UNK A   0     -25.162  -2.829 -12.859  1.00  0.00     0.225 C 
BRANCH   6   7
HETATM    7  N   UNK A   0     -24.273  -3.493 -11.906  1.00  0.00    -0.352 N 
HETATM    8  C   UNK A   0     -24.576  -3.535 -10.566  1.00  0.00     0.217 C 
HETATM    9  O   UNK A   0     -25.635  -3.117 -10.116  1.00  0.00    -0.274 OA
HETATM   10  H   UNK A   0     -23.330  -3.688 -12.218  1.00  0.00     0.162 HD
BRANCH   8  11
HETATM   11  C   UNK A   0     -23.522  -4.180  -9.677  1.00  0.00     0.103 C 
BRANCH  11  12
HETATM   12  C   UNK A   0     -22.106  -3.701  -9.998  1.00  0.00     0.009 C 
BRANCH  12  13
HETATM   13  C   UNK A   0     -21.098  -4.176  -8.952  1.00  0.00     0.002 C 
BRANCH  13  14
HETATM   14  C   UNK A   0     -21.626  -5.396  -8.175  1.00  0.00     0.017 C 
BRANCH  14  15
HETATM   15  C   UNK A   0     -21.657  -5.164  -6.655  1.00  0.00     0.072 C 
HETATM   16  C   UNK A   0     -22.140  -6.392  -5.861  1.00  0.00     0.123 C 
HETATM   17  C   UNK A   0     -20.959  -7.363  -5.595  1.00  0.00     0.119 C 
HETATM   18  N   UNK A   0     -22.573  -6.028  -4.518  1.00  0.00    -0.335 N 
HETATM   19  C   UNK A   0     -19.626  -6.662  -5.913  1.00  0.00     0.101 C 
HETATM   20  N   UNK A   0     -21.071  -7.644  -4.174  1.00  0.00    -0.336 N 
HETATM   21  S   UNK A   0     -19.977  -4.889  -6.008  1.00  0.00    -0.160 SA
HETATM   22  C   UNK A   0     -21.745  -6.598  -3.573  1.00  0.00     0.316 C 
HETATM   23  H   UNK A   0     -20.308  -8.034  -3.635  1.00  0.00     0.164 HD
HETATM   24  O   UNK A   0     -21.547  -6.183  -2.445  1.00  0.00    -0.247 OA
HETATM   25  H   UNK A   0     -23.041  -5.163  -4.278  1.00  0.00     0.164 HD
ENDBRANCH  14  15
ENDBRANCH  13  14
ENDBRANCH  12  13
ENDBRANCH  11  12
ENDBRANCH   8  11
ENDBRANCH   6   7
ENDBRANCH   3   6
ENDBRANCH   1   2
BRANCH   1  26
ATOM     26  CB  HIS A   1     -24.793  -6.905 -15.510  1.00  0.00     0.093 C 
BRANCH  26  27
ATOM     27  CG  HIS A   1     -23.540  -7.108 -16.288  1.00  0.00     0.028 A 
ATOM     28  CD2 HIS A   1     -23.262  -6.983 -17.631  1.00  0.00     0.114 A 
ATOM     29  NE2 HIS A   1     -21.981  -7.377 -17.901  1.00  0.00    -0.360 N 
ATOM     30  CE1 HIS A   1     -21.469  -7.717 -16.742  1.00  0.00     0.180 A 
ATOM     31  HE2 HIS A   1     -21.521  -7.401 -18.811  1.00  0.00     0.166 HD
ATOM     32  ND1 HIS A   1     -22.363  -7.538 -15.726  1.00  0.00    -0.354 N 
ATOM     33  HD1 HIS A   1     -22.199  -7.729 -14.747  1.00  0.00     0.166 HD
ENDBRANCH  26  27
ENDBRANCH   1  26
BRANCH   1  34
ATOM     34  C   HIS A   1     -26.784  -5.518 -16.381  1.00  0.00     0.241 C 
ATOM     35  O   HIS A   1     -27.766  -5.007 -15.839  1.00  0.00    -0.271 OA
ATOM     36  N   LYS A   2     -26.864  -6.104 -17.632  1.00  0.00    -0.345 N 
ATOM     37  H   LYS A   2     -26.039  -6.513 -18.058  1.00  0.00     0.163 HD
BRANCH  36  38
ATOM     38  CA  LYS A   2     -28.123  -6.270 -18.406  1.00  0.00     0.182 C 
BRANCH  38  39
ATOM     39  CB  LYS A   2     -27.818  -6.412 -19.904  1.00  0.00     0.036 C 
BRANCH  39  40
ATOM     40  CG  LYS A   2     -26.322  -6.618 -20.175  1.00  0.00     0.004 C 
BRANCH  40  41
ATOM     41  CD  LYS A   2     -26.031  -7.907 -20.940  1.00  0.00     0.030 C 
BRANCH  41  42
ATOM     42  CE  LYS A   2     -24.664  -7.807 -21.618  1.00  0.00     0.267 C 
BRANCH  42  43
ATOM     43  NZ  LYS A   2     -23.679  -8.616 -20.915  1.00  0.00     0.078 N 
ATOM     44  HZ1 LYS A   2     -23.625  -8.324 -19.941  1.00  0.00     0.312 HD
ATOM     45  HZ2 LYS A   2     -22.756  -8.440 -21.314  1.00  0.00     0.312 HD
ENDBRANCH  42  43
ENDBRANCH  41  42
ENDBRANCH  40  41
ENDBRANCH  39  40
ENDBRANCH  38  39
BRANCH  38  46
ATOM     46  C   LYS A   2     -28.898  -7.509 -17.886  1.00  0.00     0.163 C 
ATOM     47  O   LYS A   2     -29.693  -8.117 -18.599  1.00  0.00    -0.648 OA
BRANCH  46  48
ATOM     48  OXT LYS A   2     -28.694  -7.879 -16.596  1.00  0.00    -0.775 OA
ATOM     49  HXT LYS A   2     -29.348  -7.768 -15.931  1.00  0.00     0.167 HD
ENDBRANCH  46  48
ENDBRANCH  38  46
ENDBRANCH  36  38
ENDBRANCH   1  34
TORSDOF 19
BEGIN_RES ARG D 557
REMARK  4 active torsions:
REMARK  status: ('A' for Active; 'I' for Inactive)
REMARK    1  A    between atoms: CA   and  CB  
REMARK    2  A    between atoms: CB   and  CG  
REMARK    3  A    between atoms: CG   and  CD  
REMARK    4  A    between atoms: CD   and  NE  
REMARK       I    between atoms: NE   and  CZ  
REMARK       I    between atoms: CZ   and  NH1 
REMARK       I    between atoms: CZ   and  NH2 
ROOT
ATOM      1  CA  ARG D 557     -26.217   2.705 -17.014  1.00 35.49     0.159 C 
ENDROOT
BRANCH   1   2
ATOM      2  CB  ARG D 557     -26.789   1.319 -17.183  1.00 35.49     0.034 C 
BRANCH   2   3
ATOM      3  CG  ARG D 557     -28.214   1.229 -17.525  1.00 35.49     0.027 C 
BRANCH   3   4
ATOM      4  CD  ARG D 557     -28.973   0.395 -16.567  1.00 35.49     0.116 C 
BRANCH   4   5
ATOM      5  NE  ARG D 557     -29.333  -0.882 -17.125  1.00 35.49    -0.212 N 
ATOM      6  CZ  ARG D 557     -28.651  -1.997 -16.994  1.00 35.49     0.666 C 
ATOM      7  NH1 ARG D 557     -27.516  -2.060 -16.323  1.00 35.49    -0.235 N 
ATOM      8  NH2 ARG D 557     -29.138  -3.068 -17.551  1.00 35.49    -0.235 N 
ATOM      9  HH  ARG D 557     -27.178  -1.368 -15.946  1.00 35.49     0.174 HD
ATOM     10  HH  ARG D 557     -27.116  -2.816 -16.268  1.00 35.49     0.174 HD
ATOM     11  HH  ARG D 557     -29.877  -2.999 -17.972  1.00 35.49     0.174 HD
ATOM     12  HH  ARG D 557     -28.729  -3.807 -17.485  1.00 35.49     0.174 HD
ATOM     13  HE  ARG D 557     -30.013  -0.917 -17.634  1.00 35.49     0.178 HD
ENDBRANCH   4   5
ENDBRANCH   3   4
ENDBRANCH   2   3
ENDBRANCH   1   2
END_RES ARG D 557
BEGIN_RES GLU D 570
REMARK  3 active torsions:
REMARK  status: ('A' for Active; 'I' for Inactive)
REMARK    5  A    between atoms: CA   and  CB  
REMARK    6  A    between atoms: CB   and  CG  
REMARK    7  A    between atoms: CG   and  CD  
ROOT
ATOM     14  CA  GLU D 570     -18.033  -6.348 -13.375  1.00 32.92     0.160 C 
ENDROOT
BRANCH  14  15
ATOM     15  CB  GLU D 570     -19.500  -6.345 -13.794  1.00 32.92     0.043 C 
BRANCH  15  16
ATOM     16  CG  GLU D 570     -20.446  -5.549 -12.969  1.00 32.92     0.100 C 
BRANCH  16  17
ATOM     17  CD  GLU D 570     -21.734  -5.232 -13.692  1.00 32.92     0.185 C 
ATOM     18  OE1 GLU D 570     -22.817  -5.564 -13.172  1.00 32.92    -0.647 OA
ATOM     19  OE2 GLU D 570     -21.659  -4.660 -14.797  1.00 32.92    -0.647 OA
ENDBRANCH  16  17
ENDBRANCH  15  16
ENDBRANCH  14  15
END_RES GLU D 570
ENDMDL
MODEL 3
REMARK VINA RESULT:      -8.4      3.253     11.854
REMARK  19 active torsions:
REMARK  status: ('A' for Active; 'I' for Inactive)
REMARK    1  A    between atoms: C_4  and  C_6 
REMARK    2  A    between atoms: C_6  and  C_7 
REMARK    3  A    between atoms: C_7  and  C_8 
REMARK    4  A    between atoms: C_8  and  C_9 
REMARK    5  A    between atoms: C_9  and  C_10 
REMARK       I    between atoms: C_10  and  N_12 
REMARK    6  A    between atoms: N_12  and  C_13 
REMARK    7  A    between atoms: C_13  and  C_14 
REMARK       I    between atoms: C_14  and  N_23 
REMARK    8  A    between atoms: N_23  and  CA_24 
REMARK    9  A    between atoms: CA_24  and  CB_25 
REMARK   10  A    between atoms: CA_24  and  C_32 
REMARK   11  A    between atoms: CB_25  and  CG_26 
REMARK       I    between atoms: C_32  and  N_36 
REMARK   12  A    between atoms: N_36  and  CA_37 
REMARK   13  A    between atoms: CA_37  and  CB_38 
REMARK   14  A    between atoms: CA_37  and  C_43 
REMARK   15  A    between atoms: CB_38  and  CG_39 
REMARK   16  A    between atoms: CG_39  and  CD_40 
REMARK   17  A    between atoms: CD_40  and  CE_41 
REMARK   18  A    between atoms: CE_41  and  NZ_42 
REMARK   19  A    between atoms: C_43  and  OXT_45 
ROOT
ATOM      1  CA  HIS A   1     -18.458 -10.303  -3.212  1.00  0.00     0.182 C 
ENDROOT
BRANCH   1   2
ATOM      2  N   HIS A   1     -19.492  -9.354  -3.698  1.00  0.00    -0.346 N 
HETATM    3  C   UNK A   0     -20.047  -9.392  -4.962  1.00  0.00     0.236 C 
HETATM    4  O   UNK A   0     -19.717 -10.214  -5.817  1.00  0.00    -0.272 OA
ATOM      5  H   HIS A   1     -19.818  -8.675  -3.016  1.00  0.00     0.163 HD
BRANCH   3   6
HETATM    6  C   UNK A   0     -21.102  -8.317  -5.265  1.00  0.00     0.225 C 
BRANCH   6   7
HETATM    7  N   UNK A   0     -20.457  -7.033  -5.542  1.00  0.00    -0.352 N 
HETATM    8  C   UNK A   0     -21.183  -5.867  -5.565  1.00  0.00     0.217 C 
HETATM    9  O   UNK A   0     -22.368  -5.820  -5.261  1.00  0.00    -0.274 OA
HETATM   10  H   UNK A   0     -19.536  -7.065  -5.959  1.00  0.00     0.162 HD
BRANCH   8  11
HETATM   11  C   UNK A   0     -20.403  -4.618  -5.953  1.00  0.00     0.103 C 
BRANCH  11  12
HETATM   12  C   UNK A   0     -19.498  -4.841  -7.165  1.00  0.00     0.009 C 
BRANCH  12  13
HETATM   13  C   UNK A   0     -19.857  -3.904  -8.318  1.00  0.00     0.002 C 
BRANCH  13  14
HETATM   14  C   UNK A   0     -20.712  -4.620  -9.380  1.00  0.00     0.017 C 
BRANCH  14  15
HETATM   15  C   UNK A   0     -21.497  -3.642 -10.269  1.00  0.00     0.072 C 
HETATM   16  C   UNK A   0     -21.684  -4.146 -11.712  1.00  0.00     0.123 C 
HETATM   17  C   UNK A   0     -22.922  -5.078 -11.804  1.00  0.00     0.119 C 
HETATM   18  N   UNK A   0     -22.026  -3.059 -12.621  1.00  0.00    -0.335 N 
HETATM   19  C   UNK A   0     -23.762  -4.957 -10.520  1.00  0.00     0.101 C 
HETATM   20  N   UNK A   0     -23.648  -4.557 -12.949  1.00  0.00    -0.336 N 
HETATM   21  S   UNK A   0     -23.209  -3.458  -9.671  1.00  0.00    -0.160 SA
HETATM   22  C   UNK A   0     -23.299  -3.232 -13.123  1.00  0.00     0.316 C 
HETATM   23  H   UNK A   0     -24.621  -4.775 -13.121  1.00  0.00     0.164 HD
HETATM   24  O   UNK A   0     -24.036  -2.354 -13.536  1.00  0.00    -0.247 OA
HETATM   25  H   UNK A   0     -21.669  -2.115 -12.549  1.00  0.00     0.164 HD
ENDBRANCH  14  15
ENDBRANCH  13  14
ENDBRANCH  12  13
ENDBRANCH  11  12
ENDBRANCH   8  11
ENDBRANCH   6   7
ENDBRANCH   3   6
ENDBRANCH   1   2
BRANCH   1  26
ATOM     26  CB  HIS A   1     -17.033  -9.714  -3.277  1.00  0.00     0.093 C 
BRANCH  26  27
ATOM     27  CG  HIS A   1     -16.182 -10.415  -4.277  1.00  0.00     0.028 A 
ATOM     28  CD2 HIS A   1     -16.105 -10.315  -5.649  1.00  0.00     0.114 A 
ATOM     29  NE2 HIS A   1     -15.237 -11.242  -6.156  1.00  0.00    -0.360 N 
ATOM     30  CE1 HIS A   1     -14.769 -11.887  -5.114  1.00  0.00     0.180 A 
ATOM     31  HE2 HIS A   1     -15.004 -11.398  -7.137  1.00  0.00     0.166 HD
ATOM     32  ND1 HIS A   1     -15.283 -11.400  -3.948  1.00  0.00    -0.354 N 
ATOM     33  HD1 HIS A   1     -15.071 -11.733  -3.018  1.00  0.00     0.166 HD
ENDBRANCH  26  27
ENDBRANCH   1  26
BRANCH   1  34
ATOM     34  C   HIS A   1     -18.820 -10.787  -1.761  1.00  0.00     0.241 C 
ATOM     35  O   HIS A   1     -18.041 -11.485  -1.108  1.00  0.00    -0.271 OA
ATOM     36  N   LYS A   2     -20.026 -10.357  -1.238  1.00  0.00    -0.345 N 
ATOM     37  H   LYS A   2     -20.647  -9.778  -1.794  1.00  0.00     0.163 HD
BRANCH  36  38
ATOM     38  CA  LYS A   2     -20.557 -10.753   0.094  1.00  0.00     0.182 C 
BRANCH  38  39
ATOM     39  CB  LYS A   2     -21.357  -9.600   0.718  1.00  0.00     0.036 C 
BRANCH  39  40
ATOM     40  CG  LYS A   2     -22.381  -9.009  -0.260  1.00  0.00     0.004 C 
BRANCH  40  41
ATOM     41  CD  LYS A   2     -22.290  -7.487  -0.362  1.00  0.00     0.030 C 
BRANCH  41  42
ATOM     42  CE  LYS A   2     -21.781  -7.094  -1.749  1.00  0.00     0.267 C 
BRANCH  42  43
ATOM     43  NZ  LYS A   2     -22.408  -5.860  -2.198  1.00  0.00     0.078 N 
ATOM     44  HZ1 LYS A   2     -21.898  -5.485  -2.997  1.00  0.00     0.312 HD
ATOM     45  HZ2 LYS A   2     -22.333  -5.159  -1.461  1.00  0.00     0.312 HD
ENDBRANCH  42  43
ENDBRANCH  41  42
ENDBRANCH  40  41
ENDBRANCH  39  40
ENDBRANCH  38  39
BRANCH  38  46
ATOM     46  C   LYS A   2     -21.441 -12.018  -0.048  1.00  0.00     0.163 C 
ATOM     47  O   LYS A   2     -21.526 -12.628  -1.112  1.00  0.00    -0.648 OA
BRANCH  46  48
ATOM     48  OXT LYS A   2     -22.151 -12.411   1.040  1.00  0.00    -0.775 OA
ATOM     49  HXT LYS A   2     -22.751 -11.840   1.483  1.00  0.00     0.167 HD
ENDBRANCH  46  48
ENDBRANCH  38  46
ENDBRANCH  36  38
ENDBRANCH   1  34
TORSDOF 19
BEGIN_RES ARG D 557
REMARK  4 active torsions:
REMARK  status: ('A' for Active; 'I' for Inactive)
REMARK    1  A    between atoms: CA   and  CB  
REMARK    2  A    between atoms: CB   and  CG  
REMARK    3  A    between atoms: CG   and  CD  
REMARK    4  A    between atoms: CD   and  NE  
REMARK       I    between atoms: NE   and  CZ  
REMARK       I    between atoms: CZ   and  NH1 
REMARK       I    between atoms: CZ   and  NH2 
ROOT
ATOM      1  CA  ARG D 557     -26.217   2.705 -17.014  1.00 35.49     0.159 C 
ENDROOT
BRANCH   1   2
ATOM      2  CB  ARG D 557     -26.789   1.319 -17.183  1.00 35.49     0.034 C 
BRANCH   2   3
ATOM      3  CG  ARG D 557     -26.182   0.251 -16.379  1.00 35.49     0.027 C 
BRANCH   3   4
ATOM      4  CD  ARG D 557     -27.106  -0.885 -16.161  1.00 35.49     0.116 C 
BRANCH   4   5
ATOM      5  NE  ARG D 557     -26.442  -2.018 -15.572  1.00 35.49    -0.212 N 
ATOM      6  CZ  ARG D 557     -26.805  -3.275 -15.703  1.00 35.49     0.666 C 
ATOM      7  NH1 ARG D 557     -27.864  -3.638 -16.403  1.00 35.49    -0.235 N 
ATOM      8  NH2 ARG D 557     -26.072  -4.176 -15.116  1.00 35.49    -0.235 N 
ATOM      9  HH  ARG D 557     -28.360  -3.062 -16.799  1.00 35.49     0.174 HD
ATOM     10  HH  ARG D 557     -28.051  -4.472 -16.455  1.00 35.49     0.174 HD
ATOM     11  HH  ARG D 557     -25.390  -3.913 -14.677  1.00 35.49     0.174 HD
ATOM     12  HH  ARG D 557     -26.273  -4.997 -15.181  1.00 35.49     0.174 HD
ATOM     13  HE  ARG D 557     -25.792  -1.871 -15.045  1.00 35.49     0.178 HD
ENDBRANCH   4   5
ENDBRANCH   3   4
ENDBRANCH   2   3
ENDBRANCH   1   2
END_RES ARG D 557
BEGIN_RES GLU D 570
REMARK  3 active torsions:
REMARK  status: ('A' for Active; 'I' for Inactive)
REMARK    5  A    between atoms: CA   and  CB  
REMARK    6  A    between atoms: CB   and  CG  
REMARK    7  A    between atoms: CG   and  CD  
ROOT
ATOM     14  CA  GLU D 570     -18.033  -6.348 -13.375  1.00 32.92     0.160 C 
ENDROOT
BRANCH  14  15
ATOM     15  CB  GLU D 570     -19.500  -6.345 -13.794  1.00 32.92     0.043 C 
BRANCH  15  16
ATOM     16  CG  GLU D 570     -19.811  -5.961 -15.195  1.00 32.92     0.100 C 
BRANCH  16  17
ATOM     17  CD  GLU D 570     -21.276  -5.660 -15.413  1.00 32.92     0.185 C 
ATOM     18  OE1 GLU D 570     -22.130  -6.421 -14.919  1.00 32.92    -0.647 OA
ATOM     19  OE2 GLU D 570     -21.572  -4.661 -16.098  1.00 32.92    -0.647 OA
ENDBRANCH  16  17
ENDBRANCH  15  16
ENDBRANCH  14  15
END_RES GLU D 570
ENDMDL
MODEL 4
REMARK VINA RESULT:      -8.3      2.631      4.413
REMARK  19 active torsions:
REMARK  status: ('A' for Active; 'I' for Inactive)
REMARK    1  A    between atoms: C_4  and  C_6 
REMARK    2  A    between atoms: C_6  and  C_7 
REMARK    3  A    between atoms: C_7  and  C_8 
REMARK    4  A    between atoms: C_8  and  C_9 
REMARK    5  A    between atoms: C_9  and  C_10 
REMARK       I    between atoms: C_10  and  N_12 
REMARK    6  A    between atoms: N_12  and  C_13 
REMARK    7  A    between atoms: C_13  and  C_14 
REMARK       I    between atoms: C_14  and  N_23 
REMARK    8  A    between atoms: N_23  and  CA_24 
REMARK    9  A    between atoms: CA_24  and  CB_25 
REMARK   10  A    between atoms: CA_24  and  C_32 
REMARK   11  A    between atoms: CB_25  and  CG_26 
REMARK       I    between atoms: C_32  and  N_36 
REMARK   12  A    between atoms: N_36  and  CA_37 
REMARK   13  A    between atoms: CA_37  and  CB_38 
REMARK   14  A    between atoms: CA_37  and  C_43 
REMARK   15  A    between atoms: CB_38  and  CG_39 
REMARK   16  A    between atoms: CG_39  and  CD_40 
REMARK   17  A    between atoms: CD_40  and  CE_41 
REMARK   18  A    between atoms: CE_41  and  NZ_42 
REMARK   19  A    between atoms: C_43  and  OXT_45 
ROOT
ATOM      1  CA  HIS A   1     -24.984  -6.444 -16.410  1.00  0.00     0.182 C 
ENDROOT
BRANCH   1   2
ATOM      2  N   HIS A   1     -24.158  -6.227 -15.195  1.00  0.00    -0.346 N 
HETATM    3  C   UNK A   0     -24.094  -5.035 -14.503  1.00  0.00     0.236 C 
HETATM    4  O   UNK A   0     -24.708  -4.024 -14.846  1.00  0.00    -0.272 OA
ATOM      5  H   HIS A   1     -23.655  -7.044 -14.857  1.00  0.00     0.163 HD
BRANCH   3   6
HETATM    6  C   UNK A   0     -23.176  -5.022 -13.270  1.00  0.00     0.225 C 
BRANCH   6   7
HETATM    7  N   UNK A   0     -23.943  -4.706 -12.065  1.00  0.00    -0.352 N 
HETATM    8  C   UNK A   0     -23.783  -3.504 -11.420  1.00  0.00     0.217 C 
HETATM    9  O   UNK A   0     -23.080  -2.605 -11.862  1.00  0.00    -0.274 OA
HETATM   10  H   UNK A   0     -24.390  -5.480 -11.592  1.00  0.00     0.162 HD
BRANCH   8  11
HETATM   11  C   UNK A   0     -24.578  -3.343 -10.131  1.00  0.00     0.103 C 
BRANCH  11  12
HETATM   12  C   UNK A   0     -23.892  -3.994  -8.930  1.00  0.00     0.009 C 
BRANCH  12  13
HETATM   13  C   UNK A   0     -22.370  -3.893  -9.025  1.00  0.00     0.002 C 
BRANCH  13  14
HETATM   14  C   UNK A   0     -21.682  -5.070  -8.313  1.00  0.00     0.017 C 
BRANCH  14  15
HETATM   15  C   UNK A   0     -21.743  -4.956  -6.780  1.00  0.00     0.072 C 
HETATM   16  C   UNK A   0     -22.209  -6.251  -6.090  1.00  0.00     0.123 C 
HETATM   17  C   UNK A   0     -21.009  -7.212  -5.877  1.00  0.00     0.119 C 
HETATM   18  N   UNK A   0     -22.672  -6.000  -4.731  1.00  0.00    -0.335 N 
HETATM   19  C   UNK A   0     -19.688  -6.459  -6.117  1.00  0.00     0.101 C 
HETATM   20  N   UNK A   0     -21.136  -7.603  -4.484  1.00  0.00    -0.336 N 
HETATM   21  S   UNK A   0     -20.080  -4.693  -6.084  1.00  0.00    -0.160 SA
HETATM   22  C   UNK A   0     -21.845  -6.621  -3.818  1.00  0.00     0.316 C 
HETATM   23  H   UNK A   0     -20.374  -8.016  -3.963  1.00  0.00     0.164 HD
HETATM   24  O   UNK A   0     -21.676  -6.289  -2.658  1.00  0.00    -0.247 OA
HETATM   25  H   UNK A   0     -23.164  -5.167  -4.435  1.00  0.00     0.164 HD
ENDBRANCH  14  15
ENDBRANCH  13  14
ENDBRANCH  12  13
ENDBRANCH  11  12
ENDBRANCH   8  11
ENDBRANCH   6   7
ENDBRANCH   3   6
ENDBRANCH   1   2
BRANCH   1  26
ATOM     26  CB  HIS A   1     -24.359  -7.470 -17.379  1.00  0.00     0.093 C 
BRANCH  26  27
ATOM     27  CG  HIS A   1     -24.740  -7.209 -18.794  1.00  0.00     0.028 A 
ATOM     28  CD2 HIS A   1     -24.068  -7.415 -19.979  1.00  0.00     0.114 A 
ATOM     29  NE2 HIS A   1     -24.783  -6.922 -21.035  1.00  0.00    -0.360 N 
ATOM     30  CE1 HIS A   1     -25.887  -6.441 -20.514  1.00  0.00     0.180 A 
ATOM     31  HE2 HIS A   1     -24.514  -6.926 -22.019  1.00  0.00     0.166 HD
ATOM     32  ND1 HIS A   1     -25.926  -6.623 -19.163  1.00  0.00    -0.354 N 
ATOM     33  HD1 HIS A   1     -26.673  -6.339 -18.544  1.00  0.00     0.166 HD
ENDBRANCH  26  27
ENDBRANCH   1  26
BRANCH   1  34
ATOM     34  C   HIS A   1     -26.444  -6.852 -15.996  1.00  0.00     0.241 C 
ATOM     35  O   HIS A   1     -26.648  -7.631 -15.062  1.00  0.00    -0.271 OA
ATOM     36  N   LYS A   2     -27.484  -6.262 -16.692  1.00  0.00    -0.345 N 
ATOM     37  H   LYS A   2     -27.289  -5.620 -17.453  1.00  0.00     0.163 HD
BRANCH  36  38
ATOM     38  CA  LYS A   2     -28.924  -6.564 -16.474  1.00  0.00     0.182 C 
BRANCH  38  39
ATOM     39  CB  LYS A   2     -29.718  -5.267 -16.258  1.00  0.00     0.036 C 
BRANCH  39  40
ATOM     40  CG  LYS A   2     -29.841  -4.441 -17.545  1.00  0.00     0.004 C 
BRANCH  40  41
ATOM     41  CD  LYS A   2     -31.163  -3.681 -17.635  1.00  0.00     0.030 C 
BRANCH  41  42
ATOM     42  CE  LYS A   2     -32.243  -4.431 -16.856  1.00  0.00     0.267 C 
BRANCH  42  43
ATOM     43  NZ  LYS A   2     -33.484  -3.670 -16.830  1.00  0.00     0.078 N 
ATOM     44  HZ1 LYS A   2     -34.160  -4.091 -17.466  1.00  0.00     0.312 HD
ATOM     45  HZ2 LYS A   2     -33.307  -2.731 -17.187  1.00  0.00     0.312 HD
ENDBRANCH  42  43
ENDBRANCH  41  42
ENDBRANCH  40  41
ENDBRANCH  39  40
ENDBRANCH  38  39
BRANCH  38  46
ATOM     46  C   LYS A   2     -29.484  -7.353 -17.685  1.00  0.00     0.163 C 
ATOM     47  O   LYS A   2     -30.620  -7.823 -17.678  1.00  0.00    -0.648 OA
BRANCH  46  48
ATOM     48  OXT LYS A   2     -28.659  -7.538 -18.747  1.00  0.00    -0.775 OA
ATOM     49  HXT LYS A   2     -27.850  -7.073 -18.843  1.00  0.00     0.167 HD
ENDBRANCH  46  48
ENDBRANCH  38  46
ENDBRANCH  36  38
ENDBRANCH   1  34
TORSDOF 19
BEGIN_RES ARG D 557
REMARK  4 active torsions:
REMARK  status: ('A' for Active; 'I' for Inactive)
REMARK    1  A    between atoms: CA   and  CB  
REMARK    2  A    between atoms: CB   and  CG  
REMARK    3  A    between atoms: CG   and  CD  
REMARK    4  A    between atoms: CD   and  NE  
REMARK       I    between atoms: NE   and  CZ  
REMARK       I    between atoms: CZ   and  NH1 
REMARK       I    between atoms: CZ   and  NH2 
ROOT
ATOM      1  CA  ARG D 557     -26.217   2.705 -17.014  1.00 35.49     0.159 C 
ENDROOT
BRANCH   1   2
ATOM      2  CB  ARG D 557     -26.789   1.319 -17.183  1.00 35.49     0.034 C 
BRANCH   2   3
ATOM      3  CG  ARG D 557     -28.248   1.190 -17.087  1.00 35.49     0.027 C 
BRANCH   3   4
ATOM      4  CD  ARG D 557     -28.661   0.203 -16.064  1.00 35.49     0.116 C 
BRANCH   4   5
ATOM      5  NE  ARG D 557     -28.316  -1.143 -16.438  1.00 35.49    -0.212 N 
ATOM      6  CZ  ARG D 557     -27.292  -1.829 -15.982  1.00 35.49     0.666 C 
ATOM      7  NH1 ARG D 557     -26.435  -1.328 -15.111  1.00 35.49    -0.235 N 
ATOM      8  NH2 ARG D 557     -27.144  -3.047 -16.416  1.00 35.49    -0.235 N 
ATOM      9  HH  ARG D 557     -26.515  -0.530 -14.810  1.00 35.49     0.174 HD
ATOM     10  HH  ARG D 557     -25.788  -1.823 -14.846  1.00 35.49     0.174 HD
ATOM     11  HH  ARG D 557     -27.717  -3.346 -16.972  1.00 35.49     0.174 HD
ATOM     12  HH  ARG D 557     -26.497  -3.521 -16.141  1.00 35.49     0.174 HD
ATOM     13  HE  ARG D 557     -28.773  -1.517 -17.050  1.00 35.49     0.178 HD
ENDBRANCH   4   5
ENDBRANCH   3   4
ENDBRANCH   2   3
ENDBRANCH   1   2
END_RES ARG D 557
BEGIN_RES GLU D 570
REMARK  3 active torsions:
REMARK  status: ('A' for Active; 'I' for Inactive)
REMARK    5  A    between atoms: CA   and  CB  
REMARK    6  A    between atoms: CB   and  CG  
REMARK    7  A    between atoms: CG   and  CD  
ROOT
ATOM     14  CA  GLU D 570     -18.033  -6.348 -13.375  1.00 32.92     0.160 C 
ENDROOT
BRANCH  14  15
ATOM     15  CB  GLU D 570     -19.500  -6.345 -13.794  1.00 32.92     0.043 C 
BRANCH  15  16
ATOM     16  CG  GLU D 570     -20.091  -7.638 -14.227  1.00 32.92     0.100 C 
BRANCH  16  17
ATOM     17  CD  GLU D 570     -20.874  -7.525 -15.514  1.00 32.92     0.185 C 
ATOM     18  OE1 GLU D 570     -21.189  -8.566 -16.124  1.00 32.92    -0.647 OA
ATOM     19  OE2 GLU D 570     -21.162  -6.384 -15.926  1.00 32.92    -0.647 OA
ENDBRANCH  16  17
ENDBRANCH  15  16
ENDBRANCH  14  15
END_RES GLU D 570
ENDMDL
MODEL 5
REMARK VINA RESULT:      -7.8      3.162     11.750
REMARK  19 active torsions:
REMARK  status: ('A' for Active; 'I' for Inactive)
REMARK    1  A    between atoms: C_4  and  C_6 
REMARK    2  A    between atoms: C_6  and  C_7 
REMARK    3  A    between atoms: C_7  and  C_8 
REMARK    4  A    between atoms: C_8  and  C_9 
REMARK    5  A    between atoms: C_9  and  C_10 
REMARK       I    between atoms: C_10  and  N_12 
REMARK    6  A    between atoms: N_12  and  C_13 
REMARK    7  A    between atoms: C_13  and  C_14 
REMARK       I    between atoms: C_14  and  N_23 
REMARK    8  A    between atoms: N_23  and  CA_24 
REMARK    9  A    between atoms: CA_24  and  CB_25 
REMARK   10  A    between atoms: CA_24  and  C_32 
REMARK   11  A    between atoms: CB_25  and  CG_26 
REMARK       I    between atoms: C_32  and  N_36 
REMARK   12  A    between atoms: N_36  and  CA_37 
REMARK   13  A    between atoms: CA_37  and  CB_38 
REMARK   14  A    between atoms: CA_37  and  C_43 
REMARK   15  A    between atoms: CB_38  and  CG_39 
REMARK   16  A    between atoms: CG_39  and  CD_40 
REMARK   17  A    between atoms: CD_40  and  CE_41 
REMARK   18  A    between atoms: CE_41  and  NZ_42 
REMARK   19  A    between atoms: C_43  and  OXT_45 
ROOT
ATOM      1  CA  HIS A   1     -19.406  -9.542  -3.851  1.00  0.00     0.182 C 
ENDROOT
BRANCH   1   2
ATOM      2  N   HIS A   1     -20.167  -8.272  -3.969  1.00  0.00    -0.346 N 
HETATM    3  C   UNK A   0     -21.019  -7.972  -5.013  1.00  0.00     0.236 C 
HETATM    4  O   UNK A   0     -21.212  -8.731  -5.963  1.00  0.00    -0.272 OA
ATOM      5  H   HIS A   1     -20.063  -7.626  -3.191  1.00  0.00     0.163 HD
BRANCH   3   6
HETATM    6  C   UNK A   0     -21.710  -6.601  -4.943  1.00  0.00     0.225 C 
BRANCH   6   7
HETATM    7  N   UNK A   0     -21.572  -5.895  -6.217  1.00  0.00    -0.352 N 
HETATM    8  C   UNK A   0     -20.702  -4.840  -6.350  1.00  0.00     0.217 C 
HETATM    9  O   UNK A   0     -19.934  -4.501  -5.460  1.00  0.00    -0.274 OA
HETATM   10  H   UNK A   0     -22.304  -6.038  -6.900  1.00  0.00     0.162 HD
BRANCH   8  11
HETATM   11  C   UNK A   0     -20.724  -4.141  -7.703  1.00  0.00     0.103 C 
BRANCH  11  12
HETATM   12  C   UNK A   0     -21.714  -4.777  -8.679  1.00  0.00     0.009 C 
BRANCH  12  13
HETATM   13  C   UNK A   0     -22.069  -3.826  -9.823  1.00  0.00     0.002 C 
BRANCH  13  14
HETATM   14  C   UNK A   0     -22.014  -4.539 -11.185  1.00  0.00     0.017 C 
BRANCH  14  15
HETATM   15  C   UNK A   0     -23.345  -4.462 -11.951  1.00  0.00     0.072 C 
HETATM   16  C   UNK A   0     -23.704  -3.036 -12.409  1.00  0.00     0.123 C 
HETATM   17  C   UNK A   0     -23.015  -2.713 -13.762  1.00  0.00     0.119 C 
HETATM   18  N   UNK A   0     -25.121  -2.913 -12.727  1.00  0.00    -0.335 N 
HETATM   19  C   UNK A   0     -22.458  -4.006 -14.385  1.00  0.00     0.101 C 
HETATM   20  N   UNK A   0     -24.096  -2.173 -14.567  1.00  0.00    -0.336 N 
HETATM   21  S   UNK A   0     -23.245  -5.386 -13.518  1.00  0.00    -0.160 SA
HETATM   22  C   UNK A   0     -25.293  -2.652 -14.070  1.00  0.00     0.316 C 
HETATM   23  H   UNK A   0     -24.041  -2.105 -15.575  1.00  0.00     0.164 HD
HETATM   24  O   UNK A   0     -26.283  -2.909 -14.733  1.00  0.00    -0.247 OA
HETATM   25  H   UNK A   0     -25.864  -3.397 -12.238  1.00  0.00     0.164 HD
ENDBRANCH  14  15
ENDBRANCH  13  14
ENDBRANCH  12  13
ENDBRANCH  11  12
ENDBRANCH   8  11
ENDBRANCH   6   7
ENDBRANCH   3   6
ENDBRANCH   1   2
BRANCH   1  26
ATOM     26  CB  HIS A   1     -17.881  -9.316  -3.777  1.00  0.00     0.093 C 
BRANCH  26  27
ATOM     27  CG  HIS A   1     -17.137 -10.194  -4.721  1.00  0.00     0.028 A 
ATOM     28  CD2 HIS A   1     -15.795 -10.304  -5.009  1.00  0.00     0.114 A 
ATOM     29  NE2 HIS A   1     -15.589 -11.187  -6.033  1.00  0.00    -0.360 N 
ATOM     30  CE1 HIS A   1     -16.780 -11.632  -6.355  1.00  0.00     0.180 A 
ATOM     31  HE2 HIS A   1     -14.697 -11.445  -6.456  1.00  0.00     0.166 HD
ATOM     32  ND1 HIS A   1     -17.750 -11.087  -5.565  1.00  0.00    -0.354 N 
ATOM     33  HD1 HIS A   1     -18.741 -11.276  -5.622  1.00  0.00     0.166 HD
ENDBRANCH  26  27
ENDBRANCH   1  26
BRANCH   1  34
ATOM     34  C   HIS A   1     -19.931 -10.365  -2.619  1.00  0.00     0.241 C 
ATOM     35  O   HIS A   1     -19.152 -10.838  -1.789  1.00  0.00    -0.271 OA
ATOM     36  N   LYS A   2     -21.302 -10.493  -2.486  1.00  0.00    -0.345 N 
ATOM     37  H   LYS A   2     -21.922 -10.089  -3.181  1.00  0.00     0.163 HD
BRANCH  36  38
ATOM     38  CA  LYS A   2     -21.977 -11.275  -1.416  1.00  0.00     0.182 C 
BRANCH  38  39
ATOM     39  CB  LYS A   2     -23.386 -10.723  -1.154  1.00  0.00     0.036 C 
BRANCH  39  40
ATOM     40  CG  LYS A   2     -23.424  -9.784   0.059  1.00  0.00     0.004 C 
BRANCH  40  41
ATOM     41  CD  LYS A   2     -22.031  -9.390   0.546  1.00  0.00     0.030 C 
BRANCH  41  42
ATOM     42  CE  LYS A   2     -21.867  -7.872   0.467  1.00  0.00     0.267 C 
BRANCH  42  43
ATOM     43  NZ  LYS A   2     -22.571  -7.336  -0.689  1.00  0.00     0.078 N 
ATOM     44  HZ1 LYS A   2     -22.638  -6.323  -0.612  1.00  0.00     0.312 HD
ATOM     45  HZ2 LYS A   2     -23.530  -7.684  -0.688  1.00  0.00     0.312 HD
ENDBRANCH  42  43
ENDBRANCH  41  42
ENDBRANCH  40  41
ENDBRANCH  39  40
ENDBRANCH  38  39
BRANCH  38  46
ATOM     46  C   LYS A   2     -22.042 -12.770  -1.821  1.00  0.00     0.163 C 
ATOM     47  O   LYS A   2     -23.073 -13.273  -2.263  1.00  0.00    -0.648 OA
BRANCH  46  48
ATOM     48  OXT LYS A   2     -20.924 -13.518  -1.636  1.00  0.00    -0.775 OA
ATOM     49  HXT LYS A   2     -20.252 -13.276  -1.027  1.00  0.00     0.167 HD
ENDBRANCH  46  48
ENDBRANCH  38  46
ENDBRANCH  36  38
ENDBRANCH   1  34
TORSDOF 19
BEGIN_RES ARG D 557
REMARK  4 active torsions:
REMARK  status: ('A' for Active; 'I' for Inactive)
REMARK    1  A    between atoms: CA   and  CB  
REMARK    2  A    between atoms: CB   and  CG  
REMARK    3  A    between atoms: CG   and  CD  
REMARK    4  A    between atoms: CD   and  NE  
REMARK       I    between atoms: NE   and  CZ  
REMARK       I    between atoms: CZ   and  NH1 
REMARK       I    between atoms: CZ   and  NH2 
ROOT
ATOM      1  CA  ARG D 557     -26.217   2.705 -17.014  1.00 35.49     0.159 C 
ENDROOT
BRANCH   1   2
ATOM      2  CB  ARG D 557     -26.789   1.319 -17.183  1.00 35.49     0.034 C 
BRANCH   2   3
ATOM      3  CG  ARG D 557     -28.235   1.225 -17.420  1.00 35.49     0.027 C 
BRANCH   3   4
ATOM      4  CD  ARG D 557     -28.892   0.251 -16.520  1.00 35.49     0.116 C 
BRANCH   4   5
ATOM      5  NE  ARG D 557     -28.235  -1.030 -16.534  1.00 35.49    -0.212 N 
ATOM      6  CZ  ARG D 557     -28.761  -2.158 -16.956  1.00 35.49     0.666 C 
ATOM      7  NH1 ARG D 557     -29.997  -2.237 -17.413  1.00 35.49    -0.235 N 
ATOM      8  NH2 ARG D 557     -28.011  -3.221 -16.917  1.00 35.49    -0.235 N 
ATOM      9  HH  ARG D 557     -30.507  -1.550 -17.451  1.00 35.49     0.174 HD
ATOM     10  HH  ARG D 557     -30.285  -3.000 -17.677  1.00 35.49     0.174 HD
ATOM     11  HH  ARG D 557     -27.215  -3.139 -16.623  1.00 35.49     0.174 HD
ATOM     12  HH  ARG D 557     -28.314  -3.967 -17.184  1.00 35.49     0.174 HD
ATOM     13  HE  ARG D 557     -27.460  -1.085 -16.189  1.00 35.49     0.178 HD
ENDBRANCH   4   5
ENDBRANCH   3   4
ENDBRANCH   2   3
ENDBRANCH   1   2
END_RES ARG D 557
BEGIN_RES GLU D 570
REMARK  3 active torsions:
REMARK  status: ('A' for Active; 'I' for Inactive)
REMARK    5  A    between atoms: CA   and  CB  
REMARK    6  A    between atoms: CB   and  CG  
REMARK    7  A    between atoms: CG   and  CD  
ROOT
ATOM     14  CA  GLU D 570     -18.033  -6.348 -13.375  1.00 32.92     0.160 C 
ENDROOT
BRANCH  14  15
ATOM     15  CB  GLU D 570     -19.500  -6.345 -13.794  1.00 32.92     0.043 C 
BRANCH  15  16
ATOM     16  CG  GLU D 570     -20.063  -7.614 -14.323  1.00 32.92     0.100 C 
BRANCH  16  17
ATOM     17  CD  GLU D 570     -20.749  -7.443 -15.659  1.00 32.92     0.185 C 
ATOM     18  OE1 GLU D 570     -20.625  -6.363 -16.268  1.00 32.92    -0.647 OA
ATOM     19  OE2 GLU D 570     -21.430  -8.393 -16.092  1.00 32.92    -0.647 OA
ENDBRANCH  16  17
ENDBRANCH  15  16
ENDBRANCH  14  15
END_RES GLU D 570
ENDMDL
MODEL 6
REMARK VINA RESULT:      -7.7      3.787     12.722
REMARK  19 active torsions:
REMARK  status: ('A' for Active; 'I' for Inactive)
REMARK    1  A    between atoms: C_4  and  C_6 
REMARK    2  A    between atoms: C_6  and  C_7 
REMARK    3  A    between atoms: C_7  and  C_8 
REMARK    4  A    between atoms: C_8  and  C_9 
REMARK    5  A    between atoms: C_9  and  C_10 
REMARK       I    between atoms: C_10  and  N_12 
REMARK    6  A    between atoms: N_12  and  C_13 
REMARK    7  A    between atoms: C_13  and  C_14 
REMARK       I    between atoms: C_14  and  N_23 
REMARK    8  A    between atoms: N_23  and  CA_24 
REMARK    9  A    between atoms: CA_24  and  CB_25 
REMARK   10  A    between atoms: CA_24  and  C_32 
REMARK   11  A    between atoms: CB_25  and  CG_26 
REMARK       I    between atoms: C_32  and  N_36 
REMARK   12  A    between atoms: N_36  and  CA_37 
REMARK   13  A    between atoms: CA_37  and  CB_38 
REMARK   14  A    between atoms: CA_37  and  C_43 
REMARK   15  A    between atoms: CB_38  and  CG_39 
REMARK   16  A    between atoms: CG_39  and  CD_40 
REMARK   17  A    between atoms: CD_40  and  CE_41 
REMARK   18  A    between atoms: CE_41  and  NZ_42 
REMARK   19  A    between atoms: C_43  and  OXT_45 
ROOT
ATOM      1  CA  HIS A   1     -19.973 -10.186  -1.931  1.00  0.00     0.182 C 
ENDROOT
BRANCH   1   2
ATOM      2  N   HIS A   1     -20.574  -9.755  -3.219  1.00  0.00    -0.346 N 
HETATM    3  C   UNK A   0     -20.897  -8.448  -3.526  1.00  0.00     0.236 C 
HETATM    4  O   UNK A   0     -20.733  -7.513  -2.742  1.00  0.00    -0.272 OA
ATOM      5  H   HIS A   1     -20.701 -10.489  -3.910  1.00  0.00     0.163 HD
BRANCH   3   6
HETATM    6  C   UNK A   0     -21.511  -8.216  -4.915  1.00  0.00     0.225 C 
BRANCH   6   7
HETATM    7  N   UNK A   0     -20.659  -7.331  -5.710  1.00  0.00    -0.352 N 
HETATM    8  C   UNK A   0     -21.071  -6.063  -6.041  1.00  0.00     0.217 C 
HETATM    9  O   UNK A   0     -22.108  -5.573  -5.615  1.00  0.00    -0.274 OA
HETATM   10  H   UNK A   0     -19.892  -7.762  -6.209  1.00  0.00     0.162 HD
BRANCH   8  11
HETATM   11  C   UNK A   0     -20.125  -5.283  -6.943  1.00  0.00     0.103 C 
BRANCH  11  12
HETATM   12  C   UNK A   0     -20.842  -4.213  -7.767  1.00  0.00     0.009 C 
BRANCH  12  13
HETATM   13  C   UNK A   0     -21.396  -4.784  -9.073  1.00  0.00     0.002 C 
BRANCH  13  14
HETATM   14  C   UNK A   0     -21.208  -3.800 -10.242  1.00  0.00     0.017 C 
BRANCH  14  15
HETATM   15  C   UNK A   0     -22.542  -3.327 -10.842  1.00  0.00     0.072 C 
HETATM   16  C   UNK A   0     -22.431  -2.903 -12.318  1.00  0.00     0.123 C 
HETATM   17  C   UNK A   0     -22.558  -4.139 -13.247  1.00  0.00     0.119 C 
HETATM   18  N   UNK A   0     -23.556  -2.071 -12.725  1.00  0.00    -0.335 N 
HETATM   19  C   UNK A   0     -23.075  -5.346 -12.443  1.00  0.00     0.101 C 
HETATM   20  N   UNK A   0     -23.536  -3.717 -14.234  1.00  0.00    -0.336 N 
HETATM   21  S   UNK A   0     -23.747  -4.693 -10.895  1.00  0.00    -0.160 SA
HETATM   22  C   UNK A   0     -24.313  -2.718 -13.680  1.00  0.00     0.316 C 
HETATM   23  H   UNK A   0     -24.031  -4.373 -14.825  1.00  0.00     0.164 HD
HETATM   24  O   UNK A   0     -25.495  -2.528 -13.911  1.00  0.00    -0.247 OA
HETATM   25  H   UNK A   0     -24.019  -1.398 -12.128  1.00  0.00     0.164 HD
ENDBRANCH  14  15
ENDBRANCH  13  14
ENDBRANCH  12  13
ENDBRANCH  11  12
ENDBRANCH   8  11
ENDBRANCH   6   7
ENDBRANCH   3   6
ENDBRANCH   1   2
BRANCH   1  26
ATOM     26  CB  HIS A   1     -21.020 -10.745  -0.944  1.00  0.00     0.093 C 
BRANCH  26  27
ATOM     27  CG  HIS A   1     -21.808  -9.665  -0.291  1.00  0.00     0.028 A 
ATOM     28  CD2 HIS A   1     -23.162  -9.502  -0.101  1.00  0.00     0.114 A 
ATOM     29  NE2 HIS A   1     -23.431  -8.288   0.468  1.00  0.00    -0.360 N 
ATOM     30  CE1 HIS A   1     -22.261  -7.721   0.647  1.00  0.00     0.180 A 
ATOM     31  HE2 HIS A   1     -24.347  -7.904   0.702  1.00  0.00     0.166 HD
ATOM     32  ND1 HIS A   1     -21.242  -8.530   0.237  1.00  0.00    -0.354 N 
ATOM     33  HD1 HIS A   1     -20.256  -8.313   0.276  1.00  0.00     0.166 HD
ENDBRANCH  26  27
ENDBRANCH   1  26
BRANCH   1  34
ATOM     34  C   HIS A   1     -18.820 -11.219  -2.201  1.00  0.00     0.241 C 
ATOM     35  O   HIS A   1     -18.867 -11.991  -3.161  1.00  0.00    -0.271 OA
ATOM     36  N   LYS A   2     -17.735 -11.189  -1.343  1.00  0.00    -0.345 N 
ATOM     37  H   LYS A   2     -17.718 -10.539  -0.564  1.00  0.00     0.163 HD
BRANCH  36  38
ATOM     38  CA  LYS A   2     -16.578 -12.121  -1.413  1.00  0.00     0.182 C 
BRANCH  38  39
ATOM     39  CB  LYS A   2     -15.497 -11.567  -2.352  1.00  0.00     0.036 C 
BRANCH  39  40
ATOM     40  CG  LYS A   2     -14.966 -12.634  -3.318  1.00  0.00     0.004 C 
BRANCH  40  41
ATOM     41  CD  LYS A   2     -13.980 -12.069  -4.339  1.00  0.00     0.030 C 
BRANCH  41  42
ATOM     42  CE  LYS A   2     -14.382 -12.514  -5.745  1.00  0.00     0.267 C 
BRANCH  42  43
ATOM     43  NZ  LYS A   2     -13.440 -13.492  -6.268  1.00  0.00     0.078 N 
ATOM     44  HZ1 LYS A   2     -12.954 -13.948  -5.497  1.00  0.00     0.312 HD
ATOM     45  HZ2 LYS A   2     -12.721 -13.008  -6.807  1.00  0.00     0.312 HD
ENDBRANCH  42  43
ENDBRANCH  41  42
ENDBRANCH  40  41
ENDBRANCH  39  40
ENDBRANCH  38  39
BRANCH  38  46
ATOM     46  C   LYS A   2     -16.003 -12.350   0.008  1.00  0.00     0.163 C 
ATOM     47  O   LYS A   2     -15.136 -13.195   0.224  1.00  0.00    -0.648 OA
BRANCH  46  48
ATOM     48  OXT LYS A   2     -16.518 -11.606   1.020  1.00  0.00    -0.775 OA
ATOM     49  HXT LYS A   2     -17.414 -11.678   1.292  1.00  0.00     0.167 HD
ENDBRANCH  46  48
ENDBRANCH  38  46
ENDBRANCH  36  38
ENDBRANCH   1  34
TORSDOF 19
BEGIN_RES ARG D 557
REMARK  4 active torsions:
REMARK  status: ('A' for Active; 'I' for Inactive)
REMARK    1  A    between atoms: CA   and  CB  
REMARK    2  A    between atoms: CB   and  CG  
REMARK    3  A    between atoms: CG   and  CD  
REMARK    4  A    between atoms: CD   and  NE  
REMARK       I    between atoms: NE   and  CZ  
REMARK       I    between atoms: CZ   and  NH1 
REMARK       I    between atoms: CZ   and  NH2 
ROOT
ATOM      1  CA  ARG D 557     -26.217   2.705 -17.014  1.00 35.49     0.159 C 
ENDROOT
BRANCH   1   2
ATOM      2  CB  ARG D 557     -26.789   1.319 -17.183  1.00 35.49     0.034 C 
BRANCH   2   3
ATOM      3  CG  ARG D 557     -28.235   1.225 -17.416  1.00 35.49     0.027 C 
BRANCH   3   4
ATOM      4  CD  ARG D 557     -28.895   0.271 -16.495  1.00 35.49     0.116 C 
BRANCH   4   5
ATOM      5  NE  ARG D 557     -29.242  -0.963 -17.149  1.00 35.49    -0.212 N 
ATOM      6  CZ  ARG D 557     -28.605  -2.105 -17.023  1.00 35.49     0.666 C 
ATOM      7  NH1 ARG D 557     -27.532  -2.238 -16.265  1.00 35.49    -0.235 N 
ATOM      8  NH2 ARG D 557     -29.073  -3.129 -17.675  1.00 35.49    -0.235 N 
ATOM      9  HH  ARG D 557     -27.208  -1.578 -15.825  1.00 35.49     0.174 HD
ATOM     10  HH  ARG D 557     -27.160  -3.009 -16.219  1.00 35.49     0.174 HD
ATOM     11  HH  ARG D 557     -29.772  -3.015 -18.151  1.00 35.49     0.174 HD
ATOM     12  HH  ARG D 557     -28.691  -3.884 -17.615  1.00 35.49     0.174 HD
ATOM     13  HE  ARG D 557     -29.878  -0.950 -17.714  1.00 35.49     0.178 HD
ENDBRANCH   4   5
ENDBRANCH   3   4
ENDBRANCH   2   3
ENDBRANCH   1   2
END_RES ARG D 557
BEGIN_RES GLU D 570
REMARK  3 active torsions:
REMARK  status: ('A' for Active; 'I' for Inactive)
REMARK    5  A    between atoms: CA   and  CB  
REMARK    6  A    between atoms: CB   and  CG  
REMARK    7  A    between atoms: CG   and  CD  
ROOT
ATOM     14  CA  GLU D 570     -18.033  -6.348 -13.375  1.00 32.92     0.160 C 
ENDROOT
BRANCH  14  15
ATOM     15  CB  GLU D 570     -19.500  -6.345 -13.794  1.00 32.92     0.043 C 
BRANCH  15  16
ATOM     16  CG  GLU D 570     -19.814  -5.924 -15.184  1.00 32.92     0.100 C 
BRANCH  16  17
ATOM     17  CD  GLU D 570     -21.154  -6.431 -15.665  1.00 32.92     0.185 C 
ATOM     18  OE1 GLU D 570     -21.925  -5.644 -16.247  1.00 32.92    -0.647 OA
ATOM     19  OE2 GLU D 570     -21.442  -7.623 -15.442  1.00 32.92    -0.647 OA
ENDBRANCH  16  17
ENDBRANCH  15  16
ENDBRANCH  14  15
END_RES GLU D 570
ENDMDL
MODEL 7
REMARK VINA RESULT:      -7.4      3.059      8.668
REMARK  19 active torsions:
REMARK  status: ('A' for Active; 'I' for Inactive)
REMARK    1  A    between atoms: C_4  and  C_6 
REMARK    2  A    between atoms: C_6  and  C_7 
REMARK    3  A    between atoms: C_7  and  C_8 
REMARK    4  A    between atoms: C_8  and  C_9 
REMARK    5  A    between atoms: C_9  and  C_10 
REMARK       I    between atoms: C_10  and  N_12 
REMARK    6  A    between atoms: N_12  and  C_13 
REMARK    7  A    between atoms: C_13  and  C_14 
REMARK       I    between atoms: C_14  and  N_23 
REMARK    8  A    between atoms: N_23  and  CA_24 
REMARK    9  A    between atoms: CA_24  and  CB_25 
REMARK   10  A    between atoms: CA_24  and  C_32 
REMARK   11  A    between atoms: CB_25  and  CG_26 
REMARK       I    between atoms: C_32  and  N_36 
REMARK   12  A    between atoms: N_36  and  CA_37 
REMARK   13  A    between atoms: CA_37  and  CB_38 
REMARK   14  A    between atoms: CA_37  and  C_43 
REMARK   15  A    between atoms: CB_38  and  CG_39 
REMARK   16  A    between atoms: CG_39  and  CD_40 
REMARK   17  A    between atoms: CD_40  and  CE_41 
REMARK   18  A    between atoms: CE_41  and  NZ_42 
REMARK   19  A    between atoms: C_43  and  OXT_45 
ROOT
ATOM      1  CA  HIS A   1     -20.769  -7.086  -4.527  1.00  0.00     0.182 C 
ENDROOT
BRANCH   1   2
ATOM      2  N   HIS A   1     -21.508  -6.851  -3.260  1.00  0.00    -0.346 N 
HETATM    3  C   UNK A   0     -21.115  -7.340  -2.031  1.00  0.00     0.236 C 
HETATM    4  O   UNK A   0     -20.114  -8.041  -1.874  1.00  0.00    -0.272 OA
ATOM      5  H   HIS A   1     -22.326  -6.253  -3.335  1.00  0.00     0.163 HD
BRANCH   3   6
HETATM    6  C   UNK A   0     -22.023  -6.983  -0.844  1.00  0.00     0.225 C 
BRANCH   6   7
HETATM    7  N   UNK A   0     -23.020  -8.031  -0.629  1.00  0.00    -0.352 N 
HETATM    8  C   UNK A   0     -22.731  -9.137   0.133  1.00  0.00     0.217 C 
HETATM    9  O   UNK A   0     -21.680  -9.259   0.748  1.00  0.00    -0.274 OA
HETATM   10  H   UNK A   0     -23.816  -8.040  -1.253  1.00  0.00     0.162 HD
BRANCH   8  11
HETATM   11  C   UNK A   0     -23.829 -10.190   0.201  1.00  0.00     0.103 C 
BRANCH  11  12
HETATM   12  C   UNK A   0     -23.839 -11.111  -1.020  1.00  0.00     0.009 C 
BRANCH  12  13
HETATM   13  C   UNK A   0     -23.616 -12.571  -0.627  1.00  0.00     0.002 C 
BRANCH  13  14
HETATM   14  C   UNK A   0     -22.276 -12.759   0.107  1.00  0.00     0.017 C 
BRANCH  14  15
HETATM   15  C   UNK A   0     -21.148 -13.228  -0.827  1.00  0.00     0.072 C 
HETATM   16  C   UNK A   0     -20.562 -12.097  -1.692  1.00  0.00     0.123 C 
HETATM   17  C   UNK A   0     -19.465 -11.328  -0.907  1.00  0.00     0.119 C 
HETATM   18  N   UNK A   0     -19.834 -12.620  -2.841  1.00  0.00    -0.335 N 
HETATM   19  C   UNK A   0     -19.074 -12.121   0.353  1.00  0.00     0.101 C 
HETATM   20  N   UNK A   0     -18.360 -11.270  -1.847  1.00  0.00    -0.336 N 
HETATM   21  S   UNK A   0     -19.709 -13.800   0.134  1.00  0.00    -0.160 SA
HETATM   22  C   UNK A   0     -18.493 -12.312  -2.744  1.00  0.00     0.316 C 
HETATM   23  H   UNK A   0     -17.412 -11.064  -1.559  1.00  0.00     0.164 HD
HETATM   24  O   UNK A   0     -17.575 -12.925  -3.260  1.00  0.00    -0.247 OA
HETATM   25  H   UNK A   0     -20.094 -13.451  -3.357  1.00  0.00     0.164 HD
ENDBRANCH  14  15
ENDBRANCH  13  14
ENDBRANCH  12  13
ENDBRANCH  11  12
ENDBRANCH   8  11
ENDBRANCH   6   7
ENDBRANCH   3   6
ENDBRANCH   1   2
BRANCH   1  26
ATOM     26  CB  HIS A   1     -21.291  -8.315  -5.301  1.00  0.00     0.093 C 
BRANCH  26  27
ATOM     27  CG  HIS A   1     -20.253  -9.372  -5.440  1.00  0.00     0.028 A 
ATOM     28  CD2 HIS A   1     -18.927  -9.411  -5.072  1.00  0.00     0.114 A 
ATOM     29  NE2 HIS A   1     -18.337 -10.567  -5.500  1.00  0.00    -0.360 N 
ATOM     30  CE1 HIS A   1     -19.288 -11.242  -6.102  1.00  0.00     0.180 A 
ATOM     31  HE2 HIS A   1     -17.363 -10.847  -5.378  1.00  0.00     0.166 HD
ATOM     32  ND1 HIS A   1     -20.478 -10.576  -6.062  1.00  0.00    -0.354 N 
ATOM     33  HD1 HIS A   1     -21.353 -10.895  -6.455  1.00  0.00     0.166 HD
ENDBRANCH  26  27
ENDBRANCH   1  26
BRANCH   1  34
ATOM     34  C   HIS A   1     -20.803  -5.787  -5.411  1.00  0.00     0.241 C 
ATOM     35  O   HIS A   1     -20.244  -4.751  -5.044  1.00  0.00    -0.271 OA
ATOM     36  N   LYS A   2     -21.444  -5.875  -6.634  1.00  0.00    -0.345 N 
ATOM     37  H   LYS A   2     -21.891  -6.741  -6.915  1.00  0.00     0.163 HD
BRANCH  36  38
ATOM     38  CA  LYS A   2     -21.618  -4.739  -7.578  1.00  0.00     0.182 C 
BRANCH  38  39
ATOM     39  CB  LYS A   2     -20.966  -5.060  -8.931  1.00  0.00     0.036 C 
BRANCH  39  40
ATOM     40  CG  LYS A   2     -20.494  -3.796  -9.662  1.00  0.00     0.004 C 
BRANCH  40  41
ATOM     41  CD  LYS A   2     -20.659  -3.892 -11.177  1.00  0.00     0.030 C 
BRANCH  41  42
ATOM     42  CE  LYS A   2     -21.779  -2.957 -11.634  1.00  0.00     0.267 C 
BRANCH  42  43
ATOM     43  NZ  LYS A   2     -22.138  -3.220 -13.019  1.00  0.00     0.078 N 
ATOM     44  HZ1 LYS A   2     -21.300  -3.229 -13.597  1.00  0.00     0.312 HD
ATOM     45  HZ2 LYS A   2     -22.713  -2.452 -13.367  1.00  0.00     0.312 HD
ENDBRANCH  42  43
ENDBRANCH  41  42
ENDBRANCH  40  41
ENDBRANCH  39  40
ENDBRANCH  38  39
BRANCH  38  46
ATOM     46  C   LYS A   2     -23.128  -4.433  -7.758  1.00  0.00     0.163 C 
ATOM     47  O   LYS A   2     -23.607  -4.176  -8.860  1.00  0.00    -0.648 OA
BRANCH  46  48
ATOM     48  OXT LYS A   2     -23.901  -4.422  -6.642  1.00  0.00    -0.775 OA
ATOM     49  HXT LYS A   2     -23.676  -4.905  -5.868  1.00  0.00     0.167 HD
ENDBRANCH  46  48
ENDBRANCH  38  46
ENDBRANCH  36  38
ENDBRANCH   1  34
TORSDOF 19
BEGIN_RES ARG D 557
REMARK  4 active torsions:
REMARK  status: ('A' for Active; 'I' for Inactive)
REMARK    1  A    between atoms: CA   and  CB  
REMARK    2  A    between atoms: CB   and  CG  
REMARK    3  A    between atoms: CG   and  CD  
REMARK    4  A    between atoms: CD   and  NE  
REMARK       I    between atoms: NE   and  CZ  
REMARK       I    between atoms: CZ   and  NH1 
REMARK       I    between atoms: CZ   and  NH2 
ROOT
ATOM      1  CA  ARG D 557     -26.217   2.705 -17.014  1.00 35.49     0.159 C 
ENDROOT
BRANCH   1   2
ATOM      2  CB  ARG D 557     -26.789   1.319 -17.183  1.00 35.49     0.034 C 
BRANCH   2   3
ATOM      3  CG  ARG D 557     -28.231   1.226 -17.441  1.00 35.49     0.027 C 
BRANCH   3   4
ATOM      4  CD  ARG D 557     -28.913   0.303 -16.506  1.00 35.49     0.116 C 
BRANCH   4   5
ATOM      5  NE  ARG D 557     -28.134  -0.879 -16.245  1.00 35.49    -0.212 N 
ATOM      6  CZ  ARG D 557     -28.376  -2.080 -16.721  1.00 35.49     0.666 C 
ATOM      7  NH1 ARG D 557     -29.407  -2.337 -17.505  1.00 35.49    -0.235 N 
ATOM      8  NH2 ARG D 557     -27.550  -3.032 -16.398  1.00 35.49    -0.235 N 
ATOM      9  HH  ARG D 557     -29.962  -1.725 -17.732  1.00 35.49     0.174 HD
ATOM     10  HH  ARG D 557     -29.514  -3.139 -17.788  1.00 35.49     0.174 HD
ATOM     11  HH  ARG D 557     -26.889  -2.835 -15.896  1.00 35.49     0.174 HD
ATOM     12  HH  ARG D 557     -27.672  -3.819 -16.689  1.00 35.49     0.174 HD
ATOM     13  HE  ARG D 557     -27.491  -0.819 -15.691  1.00 35.49     0.178 HD
ENDBRANCH   4   5
ENDBRANCH   3   4
ENDBRANCH   2   3
ENDBRANCH   1   2
END_RES ARG D 557
BEGIN_RES GLU D 570
REMARK  3 active torsions:
REMARK  status: ('A' for Active; 'I' for Inactive)
REMARK    5  A    between atoms: CA   and  CB  
REMARK    6  A    between atoms: CB   and  CG  
REMARK    7  A    between atoms: CG   and  CD  
ROOT
ATOM     14  CA  GLU D 570     -18.033  -6.348 -13.375  1.00 32.92     0.160 C 
ENDROOT
BRANCH  14  15
ATOM     15  CB  GLU D 570     -19.500  -6.345 -13.794  1.00 32.92     0.043 C 
BRANCH  15  16
ATOM     16  CG  GLU D 570     -19.807  -6.018 -15.210  1.00 32.92     0.100 C 
BRANCH  16  17
ATOM     17  CD  GLU D 570     -21.275  -5.757 -15.450  1.00 32.92     0.185 C 
ATOM     18  OE1 GLU D 570     -21.648  -4.599 -15.721  1.00 32.92    -0.647 OA
ATOM     19  OE2 GLU D 570     -22.064  -6.718 -15.350  1.00 32.92    -0.647 OA
ENDBRANCH  16  17
ENDBRANCH  15  16
ENDBRANCH  14  15
END_RES GLU D 570
ENDMDL
MODEL 8
REMARK VINA RESULT:      -7.4      3.756      9.271
REMARK  19 active torsions:
REMARK  status: ('A' for Active; 'I' for Inactive)
REMARK    1  A    between atoms: C_4  and  C_6 
REMARK    2  A    between atoms: C_6  and  C_7 
REMARK    3  A    between atoms: C_7  and  C_8 
REMARK    4  A    between atoms: C_8  and  C_9 
REMARK    5  A    between atoms: C_9  and  C_10 
REMARK       I    between atoms: C_10  and  N_12 
REMARK    6  A    between atoms: N_12  and  C_13 
REMARK    7  A    between atoms: C_13  and  C_14 
REMARK       I    between atoms: C_14  and  N_23 
REMARK    8  A    between atoms: N_23  and  CA_24 
REMARK    9  A    between atoms: CA_24  and  CB_25 
REMARK   10  A    between atoms: CA_24  and  C_32 
REMARK   11  A    between atoms: CB_25  and  CG_26 
REMARK       I    between atoms: C_32  and  N_36 
REMARK   12  A    between atoms: N_36  and  CA_37 
REMARK   13  A    between atoms: CA_37  and  CB_38 
REMARK   14  A    between atoms: CA_37  and  C_43 
REMARK   15  A    between atoms: CB_38  and  CG_39 
REMARK   16  A    between atoms: CG_39  and  CD_40 
REMARK   17  A    between atoms: CD_40  and  CE_41 
REMARK   18  A    between atoms: CE_41  and  NZ_42 
REMARK   19  A    between atoms: C_43  and  OXT_45 
ROOT
ATOM      1  CA  HIS A   1     -21.526  -8.282  -4.126  1.00  0.00     0.182 C 
ENDROOT
BRANCH   1   2
ATOM      2  N   HIS A   1     -20.911  -9.353  -4.952  1.00  0.00    -0.346 N 
HETATM    3  C   UNK A   0     -21.123 -10.703  -4.754  1.00  0.00     0.236 C 
HETATM    4  O   UNK A   0     -21.834 -11.147  -3.853  1.00  0.00    -0.272 OA
ATOM      5  H   HIS A   1     -20.338  -9.033  -5.728  1.00  0.00     0.163 HD
BRANCH   3   6
HETATM    6  C   UNK A   0     -20.389 -11.646  -5.721  1.00  0.00     0.225 C 
BRANCH   6   7
HETATM    7  N   UNK A   0     -19.110 -11.065  -6.129  1.00  0.00    -0.352 N 
HETATM    8  C   UNK A   0     -17.991 -11.849  -6.274  1.00  0.00     0.217 C 
HETATM    9  O   UNK A   0     -18.021 -13.068  -6.171  1.00  0.00    -0.274 OA
HETATM   10  H   UNK A   0     -19.020 -10.061  -6.052  1.00  0.00     0.162 HD
BRANCH   8  11
HETATM   11  C   UNK A   0     -16.710 -11.102  -6.618  1.00  0.00     0.103 C 
BRANCH  11  12
HETATM   12  C   UNK A   0     -15.468 -11.747  -6.003  1.00  0.00     0.009 C 
BRANCH  12  13
HETATM   13  C   UNK A   0     -15.134 -11.143  -4.639  1.00  0.00     0.002 C 
BRANCH  13  14
HETATM   14  C   UNK A   0     -15.326 -12.168  -3.507  1.00  0.00     0.017 C 
BRANCH  14  15
HETATM   15  C   UNK A   0     -16.239 -11.649  -2.385  1.00  0.00     0.072 C 
HETATM   16  C   UNK A   0     -17.713 -11.511  -2.812  1.00  0.00     0.123 C 
HETATM   17  C   UNK A   0     -18.450 -12.868  -2.657  1.00  0.00     0.119 C 
HETATM   18  N   UNK A   0     -18.453 -10.633  -1.914  1.00  0.00    -0.335 N 
HETATM   19  C   UNK A   0     -17.587 -13.839  -1.830  1.00  0.00     0.101 C 
HETATM   20  N   UNK A   0     -19.661 -12.511  -1.939  1.00  0.00    -0.336 N 
HETATM   21  S   UNK A   0     -16.318 -12.843  -1.011  1.00  0.00    -0.160 SA
HETATM   22  C   UNK A   0     -19.427 -11.341  -1.242  1.00  0.00     0.316 C 
HETATM   23  H   UNK A   0     -20.230 -13.196  -1.458  1.00  0.00     0.164 HD
HETATM   24  O   UNK A   0     -19.911 -11.052  -0.161  1.00  0.00    -0.247 OA
HETATM   25  H   UNK A   0     -18.068  -9.812  -1.465  1.00  0.00     0.164 HD
ENDBRANCH  14  15
ENDBRANCH  13  14
ENDBRANCH  12  13
ENDBRANCH  11  12
ENDBRANCH   8  11
ENDBRANCH   6   7
ENDBRANCH   3   6
ENDBRANCH   1   2
BRANCH   1  26
ATOM     26  CB  HIS A   1     -20.817  -8.098  -2.767  1.00  0.00     0.093 C 
BRANCH  26  27
ATOM     27  CG  HIS A   1     -21.756  -8.242  -1.621  1.00  0.00     0.028 A 
ATOM     28  CD2 HIS A   1     -22.257  -7.325  -0.724  1.00  0.00     0.114 A 
ATOM     29  NE2 HIS A   1     -23.016  -7.944   0.230  1.00  0.00    -0.360 N 
ATOM     30  CE1 HIS A   1     -23.003  -9.218  -0.086  1.00  0.00     0.180 A 
ATOM     31  HE2 HIS A   1     -23.492  -7.508   1.020  1.00  0.00     0.166 HD
ATOM     32  ND1 HIS A   1     -22.282  -9.446  -1.222  1.00  0.00    -0.354 N 
ATOM     33  HD1 HIS A   1     -22.130 -10.343  -1.661  1.00  0.00     0.166 HD
ENDBRANCH  26  27
ENDBRANCH   1  26
BRANCH   1  34
ATOM     34  C   HIS A   1     -21.571  -6.940  -4.943  1.00  0.00     0.241 C 
ATOM     35  O   HIS A   1     -22.046  -5.913  -4.456  1.00  0.00    -0.271 OA
ATOM     36  N   LYS A   2     -21.014  -6.956  -6.209  1.00  0.00    -0.345 N 
ATOM     37  H   LYS A   2     -20.624  -7.814  -6.585  1.00  0.00     0.163 HD
BRANCH  36  38
ATOM     38  CA  LYS A   2     -21.010  -5.799  -7.144  1.00  0.00     0.182 C 
BRANCH  38  39
ATOM     39  CB  LYS A   2     -22.355  -5.059  -7.088  1.00  0.00     0.036 C 
BRANCH  39  40
ATOM     40  CG  LYS A   2     -22.437  -3.928  -8.122  1.00  0.00     0.004 C 
BRANCH  40  41
ATOM     41  CD  LYS A   2     -22.496  -4.443  -9.559  1.00  0.00     0.030 C 
BRANCH  41  42
ATOM     42  CE  LYS A   2     -23.938  -4.801  -9.919  1.00  0.00     0.267 C 
BRANCH  42  43
ATOM     43  NZ  LYS A   2     -24.576  -3.710 -10.640  1.00  0.00     0.078 N 
ATOM     44  HZ1 LYS A   2     -23.889  -3.231 -11.220  1.00  0.00     0.312 HD
ATOM     45  HZ2 LYS A   2     -24.911  -3.017  -9.969  1.00  0.00     0.312 HD
ENDBRANCH  42  43
ENDBRANCH  41  42
ENDBRANCH  40  41
ENDBRANCH  39  40
ENDBRANCH  38  39
BRANCH  38  46
ATOM     46  C   LYS A   2     -19.844  -4.841  -6.788  1.00  0.00     0.163 C 
ATOM     47  O   LYS A   2     -19.021  -4.487  -7.629  1.00  0.00    -0.648 OA
BRANCH  46  48
ATOM     48  OXT LYS A   2     -19.741  -4.432  -5.497  1.00  0.00    -0.775 OA
ATOM     49  HXT LYS A   2     -19.860  -3.536  -5.242  1.00  0.00     0.167 HD
ENDBRANCH  46  48
ENDBRANCH  38  46
ENDBRANCH  36  38
ENDBRANCH   1  34
TORSDOF 19
BEGIN_RES ARG D 557
REMARK  4 active torsions:
REMARK  status: ('A' for Active; 'I' for Inactive)
REMARK    1  A    between atoms: CA   and  CB  
REMARK    2  A    between atoms: CB   and  CG  
REMARK    3  A    between atoms: CG   and  CD  
REMARK    4  A    between atoms: CD   and  NE  
REMARK       I    between atoms: NE   and  CZ  
REMARK       I    between atoms: CZ   and  NH1 
REMARK       I    between atoms: CZ   and  NH2 
ROOT
ATOM      1  CA  ARG D 557     -26.217   2.705 -17.014  1.00 35.49     0.159 C 
ENDROOT
BRANCH   1   2
ATOM      2  CB  ARG D 557     -26.789   1.319 -17.183  1.00 35.49     0.034 C 
BRANCH   2   3
ATOM      3  CG  ARG D 557     -25.839   0.201 -17.130  1.00 35.49     0.027 C 
BRANCH   3   4
ATOM      4  CD  ARG D 557     -24.739   0.441 -16.168  1.00 35.49     0.116 C 
BRANCH   4   5
ATOM      5  NE  ARG D 557     -24.816  -0.433 -15.027  1.00 35.49    -0.212 N 
ATOM      6  CZ  ARG D 557     -23.958  -1.382 -14.727  1.00 35.49     0.666 C 
ATOM      7  NH1 ARG D 557     -22.905  -1.650 -15.478  1.00 35.49    -0.235 N 
ATOM      8  NH2 ARG D 557     -24.173  -2.064 -13.640  1.00 35.49    -0.235 N 
ATOM      9  HH  ARG D 557     -22.743  -1.212 -16.196  1.00 35.49     0.174 HD
ATOM     10  HH  ARG D 557     -22.378  -2.278 -15.231  1.00 35.49     0.174 HD
ATOM     11  HH  ARG D 557     -24.857  -1.865 -13.171  1.00 35.49     0.174 HD
ATOM     12  HH  ARG D 557     -23.639  -2.682 -13.412  1.00 35.49     0.174 HD
ATOM     13  HE  ARG D 557     -25.502  -0.378 -14.528  1.00 35.49     0.178 HD
ENDBRANCH   4   5
ENDBRANCH   3   4
ENDBRANCH   2   3
ENDBRANCH   1   2
END_RES ARG D 557
BEGIN_RES GLU D 570
REMARK  3 active torsions:
REMARK  status: ('A' for Active; 'I' for Inactive)
REMARK    5  A    between atoms: CA   and  CB  
REMARK    6  A    between atoms: CB   and  CG  
REMARK    7  A    between atoms: CG   and  CD  
ROOT
ATOM     14  CA  GLU D 570     -18.033  -6.348 -13.375  1.00 32.92     0.160 C 
ENDROOT
BRANCH  14  15
ATOM     15  CB  GLU D 570     -19.500  -6.345 -13.794  1.00 32.92     0.043 C 
BRANCH  15  16
ATOM     16  CG  GLU D 570     -20.447  -5.556 -12.965  1.00 32.92     0.100 C 
BRANCH  16  17
ATOM     17  CD  GLU D 570     -21.646  -5.067 -13.743  1.00 32.92     0.185 C 
ATOM     18  OE1 GLU D 570     -22.643  -4.651 -13.122  1.00 32.92    -0.647 OA
ATOM     19  OE2 GLU D 570     -21.595  -5.116 -14.988  1.00 32.92    -0.647 OA
ENDBRANCH  16  17
ENDBRANCH  15  16
ENDBRANCH  14  15
END_RES GLU D 570
ENDMDL
MODEL 9
REMARK VINA RESULT:      -7.2      2.330      4.774
REMARK  19 active torsions:
REMARK  status: ('A' for Active; 'I' for Inactive)
REMARK    1  A    between atoms: C_4  and  C_6 
REMARK    2  A    between atoms: C_6  and  C_7 
REMARK    3  A    between atoms: C_7  and  C_8 
REMARK    4  A    between atoms: C_8  and  C_9 
REMARK    5  A    between atoms: C_9  and  C_10 
REMARK       I    between atoms: C_10  and  N_12 
REMARK    6  A    between atoms: N_12  and  C_13 
REMARK    7  A    between atoms: C_13  and  C_14 
REMARK       I    between atoms: C_14  and  N_23 
REMARK    8  A    between atoms: N_23  and  CA_24 
REMARK    9  A    between atoms: CA_24  and  CB_25 
REMARK   10  A    between atoms: CA_24  and  C_32 
REMARK   11  A    between atoms: CB_25  and  CG_26 
REMARK       I    between atoms: C_32  and  N_36 
REMARK   12  A    between atoms: N_36  and  CA_37 
REMARK   13  A    between atoms: CA_37  and  CB_38 
REMARK   14  A    between atoms: CA_37  and  C_43 
REMARK   15  A    between atoms: CB_38  and  CG_39 
REMARK   16  A    between atoms: CG_39  and  CD_40 
REMARK   17  A    between atoms: CD_40  and  CE_41 
REMARK   18  A    between atoms: CE_41  and  NZ_42 
REMARK   19  A    between atoms: C_43  and  OXT_45 
ROOT
ATOM      1  CA  HIS A   1     -22.016  -3.975  -9.856  1.00  0.00     0.182 C 
ENDROOT
BRANCH   1   2
ATOM      2  N   HIS A   1     -22.712  -4.755  -8.801  1.00  0.00    -0.346 N 
HETATM    3  C   UNK A   0     -22.657  -4.458  -7.454  1.00  0.00     0.236 C 
HETATM    4  O   UNK A   0     -22.002  -3.520  -6.998  1.00  0.00    -0.272 OA
ATOM      5  H   HIS A   1     -23.290  -5.522  -9.133  1.00  0.00     0.163 HD
BRANCH   3   6
HETATM    6  C   UNK A   0     -23.450  -5.393  -6.527  1.00  0.00     0.225 C 
BRANCH   6   7
HETATM    7  N   UNK A   0     -22.673  -5.700  -5.326  1.00  0.00    -0.352 N 
HETATM    8  C   UNK A   0     -21.852  -6.801  -5.277  1.00  0.00     0.217 C 
HETATM    9  O   UNK A   0     -21.649  -7.517  -6.248  1.00  0.00    -0.274 OA
HETATM   10  H   UNK A   0     -22.951  -5.236  -4.471  1.00  0.00     0.162 HD
BRANCH   8  11
HETATM   11  C   UNK A   0     -21.172  -7.050  -3.938  1.00  0.00     0.103 C 
BRANCH  11  12
HETATM   12  C   UNK A   0     -21.721  -6.159  -2.823  1.00  0.00     0.009 C 
BRANCH  12  13
HETATM   13  C   UNK A   0     -21.920  -6.940  -1.523  1.00  0.00     0.002 C 
BRANCH  13  14
HETATM   14  C   UNK A   0     -20.820  -7.998  -1.328  1.00  0.00     0.017 C 
BRANCH  14  15
HETATM   15  C   UNK A   0     -21.307  -9.223  -0.536  1.00  0.00     0.072 C 
HETATM   16  C   UNK A   0     -22.701  -9.714  -0.969  1.00  0.00     0.123 C 
HETATM   17  C   UNK A   0     -22.584 -10.666  -2.190  1.00  0.00     0.119 C 
HETATM   18  N   UNK A   0     -23.313 -10.560   0.047  1.00  0.00    -0.335 N 
HETATM   19  C   UNK A   0     -21.115 -11.081  -2.388  1.00  0.00     0.101 C 
HETATM   20  N   UNK A   0     -23.398 -11.805  -1.804  1.00  0.00    -0.336 N 
HETATM   21  S   UNK A   0     -20.243 -10.666  -0.858  1.00  0.00    -0.160 SA
HETATM   22  C   UNK A   0     -23.467 -11.847  -0.425  1.00  0.00     0.316 C 
HETATM   23  H   UNK A   0     -23.326 -12.705  -2.262  1.00  0.00     0.164 HD
HETATM   24  O   UNK A   0     -23.529 -12.859   0.251  1.00  0.00    -0.247 OA
HETATM   25  H   UNK A   0     -23.205 -10.431   1.045  1.00  0.00     0.164 HD
ENDBRANCH  14  15
ENDBRANCH  13  14
ENDBRANCH  12  13
ENDBRANCH  11  12
ENDBRANCH   8  11
ENDBRANCH   6   7
ENDBRANCH   3   6
ENDBRANCH   1   2
BRANCH   1  26
ATOM     26  CB  HIS A   1     -20.564  -4.447 -10.084  1.00  0.00     0.093 C 
BRANCH  26  27
ATOM     27  CG  HIS A   1     -19.827  -4.629  -8.804  1.00  0.00     0.028 A 
ATOM     28  CD2 HIS A   1     -18.979  -3.798  -8.105  1.00  0.00     0.114 A 
ATOM     29  NE2 HIS A   1     -18.453  -4.442  -7.020  1.00  0.00    -0.360 N 
ATOM     30  CE1 HIS A   1     -18.984  -5.641  -7.034  1.00  0.00     0.180 A 
ATOM     31  HE2 HIS A   1     -17.788  -4.068  -6.342  1.00  0.00     0.166 HD
ATOM     32  ND1 HIS A   1     -19.853  -5.794  -8.076  1.00  0.00    -0.354 N 
ATOM     33  HD1 HIS A   1     -20.383  -6.626  -8.293  1.00  0.00     0.166 HD
ENDBRANCH  26  27
ENDBRANCH   1  26
BRANCH   1  34
ATOM     34  C   HIS A   1     -22.853  -4.014 -11.186  1.00  0.00     0.241 C 
ATOM     35  O   HIS A   1     -24.080  -3.893 -11.171  1.00  0.00    -0.271 OA
ATOM     36  N   LYS A   2     -22.148  -4.141 -12.369  1.00  0.00    -0.345 N 
ATOM     37  H   LYS A   2     -21.138  -4.233 -12.355  1.00  0.00     0.163 HD
BRANCH  36  38
ATOM     38  CA  LYS A   2     -22.772  -4.246 -13.716  1.00  0.00     0.182 C 
BRANCH  38  39
ATOM     39  CB  LYS A   2     -23.995  -5.174 -13.671  1.00  0.00     0.036 C 
BRANCH  39  40
ATOM     40  CG  LYS A   2     -24.005  -6.176 -14.833  1.00  0.00     0.004 C 
BRANCH  40  41
ATOM     41  CD  LYS A   2     -25.362  -6.257 -15.531  1.00  0.00     0.030 C 
BRANCH  41  42
ATOM     42  CE  LYS A   2     -25.211  -6.988 -16.865  1.00  0.00     0.267 C 
BRANCH  42  43
ATOM     43  NZ  LYS A   2     -24.023  -7.829 -16.862  1.00  0.00     0.078 N 
ATOM     44  HZ1 LYS A   2     -23.822  -8.145 -17.809  1.00  0.00     0.312 HD
ATOM     45  HZ2 LYS A   2     -24.210  -8.671 -16.317  1.00  0.00     0.312 HD
ENDBRANCH  42  43
ENDBRANCH  41  42
ENDBRANCH  40  41
ENDBRANCH  39  40
ENDBRANCH  38  39
BRANCH  38  46
ATOM     46  C   LYS A   2     -23.174  -2.836 -14.219  1.00  0.00     0.163 C 
ATOM     47  O   LYS A   2     -22.686  -2.352 -15.238  1.00  0.00    -0.648 OA
BRANCH  46  48
ATOM     48  OXT LYS A   2     -24.062  -2.134 -13.470  1.00  0.00    -0.775 OA
ATOM     49  HXT LYS A   2     -24.925  -2.453 -13.282  1.00  0.00     0.167 HD
ENDBRANCH  46  48
ENDBRANCH  38  46
ENDBRANCH  36  38
ENDBRANCH   1  34
TORSDOF 19
BEGIN_RES ARG D 557
REMARK  4 active torsions:
REMARK  status: ('A' for Active; 'I' for Inactive)
REMARK    1  A    between atoms: CA   and  CB  
REMARK    2  A    between atoms: CB   and  CG  
REMARK    3  A    between atoms: CG   and  CD  
REMARK    4  A    between atoms: CD   and  NE  
REMARK       I    between atoms: NE   and  CZ  
REMARK       I    between atoms: CZ   and  NH1 
REMARK       I    between atoms: CZ   and  NH2 
ROOT
ATOM      1  CA  ARG D 557     -26.217   2.705 -17.014  1.00 35.49     0.159 C 
ENDROOT
BRANCH   1   2
ATOM      2  CB  ARG D 557     -26.789   1.319 -17.183  1.00 35.49     0.034 C 
BRANCH   2   3
ATOM      3  CG  ARG D 557     -28.223   1.158 -16.912  1.00 35.49     0.027 C 
BRANCH   3   4
ATOM      4  CD  ARG D 557     -28.605  -0.259 -16.717  1.00 35.49     0.116 C 
BRANCH   4   5
ATOM      5  NE  ARG D 557     -27.587  -1.005 -16.025  1.00 35.49    -0.212 N 
ATOM      6  CZ  ARG D 557     -27.405  -2.304 -16.096  1.00 35.49     0.666 C 
ATOM      7  NH1 ARG D 557     -28.175  -3.090 -16.827  1.00 35.49    -0.235 N 
ATOM      8  NH2 ARG D 557     -26.417  -2.810 -15.416  1.00 35.49    -0.235 N 
ATOM      9  HH  ARG D 557     -28.830  -2.778 -17.284  1.00 35.49     0.174 HD
ATOM     10  HH  ARG D 557     -28.007  -3.930 -16.837  1.00 35.49     0.174 HD
ATOM     11  HH  ARG D 557     -25.932  -2.278 -14.959  1.00 35.49     0.174 HD
ATOM     12  HH  ARG D 557     -26.266  -3.644 -15.440  1.00 35.49     0.174 HD
ATOM     13  HE  ARG D 557     -27.091  -0.588 -15.474  1.00 35.49     0.178 HD
ENDBRANCH   4   5
ENDBRANCH   3   4
ENDBRANCH   2   3
ENDBRANCH   1   2
END_RES ARG D 557
BEGIN_RES GLU D 570
REMARK  3 active torsions:
REMARK  status: ('A' for Active; 'I' for Inactive)
REMARK    5  A    between atoms: CA   and  CB  
REMARK    6  A    between atoms: CB   and  CG  
REMARK    7  A    between atoms: CG   and  CD  
ROOT
ATOM     14  CA  GLU D 570     -18.033  -6.348 -13.375  1.00 32.92     0.160 C 
ENDROOT
BRANCH  14  15
ATOM     15  CB  GLU D 570     -19.500  -6.345 -13.794  1.00 32.92     0.043 C 
BRANCH  15  16
ATOM     16  CG  GLU D 570     -19.805  -6.044 -15.217  1.00 32.92     0.100 C 
BRANCH  16  17
ATOM     17  CD  GLU D 570     -20.635  -7.117 -15.881  1.00 32.92     0.185 C 
ATOM     18  OE1 GLU D 570     -20.710  -8.241 -15.349  1.00 32.92    -0.647 OA
ATOM     19  OE2 GLU D 570     -21.204  -6.836 -16.955  1.00 32.92    -0.647 OA
ENDBRANCH  16  17
ENDBRANCH  15  16
ENDBRANCH  14  15
END_RES GLU D 570
ENDMDL
