MODEL 1
REMARK VINA RESULT:      -8.6      0.000      0.000
REMARK  25 active torsions:
REMARK  status: ('A' for Active; 'I' for Inactive)
REMARK    1  A    between atoms: C_2  and  C_3 
REMARK    2  A    between atoms: C_3  and  C_4 
REMARK    3  A    between atoms: C_4  and  C_5 
REMARK    4  A    between atoms: C_5  and  C_6 
REMARK    5  A    between atoms: C_6  and  C_7 
REMARK    6  A    between atoms: C_7  and  C_8 
REMARK    7  A    between atoms: C_8  and  C_9 
REMARK    8  A    between atoms: C_9  and  C_10 
REMARK    9  A    between atoms: C_10  and  C_11 
REMARK   10  A    between atoms: C_11  and  C_12 
REMARK   11  A    between atoms: C_12  and  C_13 
REMARK   12  A    between atoms: C_13  and  C_14 
REMARK   13  A    between atoms: C_15  and  C_16 
REMARK   14  A    between atoms: C_16  and  C_17 
REMARK   15  A    between atoms: C_16  and  O_33 
REMARK   16  A    between atoms: C_17  and  C_18 
REMARK   17  A    between atoms: C_17  and  N_30 
REMARK   18  A    between atoms: C_18  and  O_19 
REMARK   19  A    between atoms: O_19  and  P_20 
REMARK   20  A    between atoms: P_20  and  O_22 
REMARK   21  A    between atoms: P_20  and  O_23 
REMARK   22  A    between atoms: O_23  and  C_24 
REMARK   23  A    between atoms: C_24  and  C_25 
REMARK   24  A    between atoms: C_25  and  N_26 
REMARK   25  A    between atoms: N_30  and  C_31 
ROOT
HETATM    1  C   UNL     1     -22.885  -4.402 -12.192  1.00  0.00     0.165 C 
ENDROOT
BRANCH   1   2
HETATM    2  C   UNL     1     -21.722  -4.444 -11.242  1.00  0.00     0.003 C 
HETATM    3  C   UNL     1     -21.819  -4.194  -9.929  1.00  0.00    -0.028 C 
BRANCH   3   4
HETATM    4  C   UNL     1     -20.675  -4.085  -8.995  1.00  0.00     0.027 C 
BRANCH   4   5
HETATM    5  C   UNL     1     -21.184  -3.771  -7.595  1.00  0.00     0.004 C 
BRANCH   5   6
HETATM    6  C   UNL     1     -20.445  -4.648  -6.602  1.00  0.00     0.000 C 
BRANCH   6   7
HETATM    7  C   UNL     1     -21.191  -5.950  -6.390  1.00  0.00     0.000 C 
BRANCH   7   8
HETATM    8  C   UNL     1     -20.284  -6.945  -5.690  1.00  0.00     0.000 C 
BRANCH   8   9
HETATM    9  C   UNL     1     -21.063  -7.695  -4.626  1.00  0.00     0.000 C 
BRANCH   9  10
HETATM   10  C   UNL     1     -22.022  -6.749  -3.928  1.00  0.00     0.000 C 
BRANCH  10  11
HETATM   11  C   UNL     1     -21.485  -6.389  -2.555  1.00  0.00     0.000 C 
BRANCH  11  12
HETATM   12  C   UNL     1     -21.678  -7.554  -1.601  1.00  0.00     0.000 C 
BRANCH  12  13
HETATM   13  C   UNL     1     -22.479  -7.107  -0.391  1.00  0.00     0.000 C 
BRANCH  13  14
HETATM   14  C   UNL     1     -23.044  -8.313   0.341  1.00  0.00    -0.000 C 
BRANCH  14  15
HETATM   15  C   UNL     1     -22.685  -9.595  -0.395  1.00  0.00    -0.005 C 
HETATM   16  C   UNL     1     -23.806 -10.606  -0.259  1.00  0.00     0.005 C 
ENDBRANCH  14  15
ENDBRANCH  13  14
ENDBRANCH  12  13
ENDBRANCH  11  12
ENDBRANCH  10  11
ENDBRANCH   9  10
ENDBRANCH   8   9
ENDBRANCH   7   8
ENDBRANCH   6   7
ENDBRANCH   5   6
ENDBRANCH   4   5
ENDBRANCH   3   4
ENDBRANCH   1   2
BRANCH   1  17
HETATM   17  C   UNL     1     -22.599  -5.043 -13.602  1.00  0.00     0.140 C 
BRANCH  17  18
HETATM   18  C   UNL     1     -23.819  -5.891 -14.117  1.00  0.00     0.208 C 
BRANCH  18  19
HETATM   19  O   UNL     1     -23.955  -5.834 -15.558  1.00  0.00    -0.295 OA
BRANCH  19  20
HETATM   20  P   UNL     1     -24.994  -6.856 -16.296  1.00  0.00     0.393 P 
HETATM   21  O   UNL     1     -25.362  -6.520 -17.671  1.00  0.00    -0.631 OA
BRANCH  20  22
HETATM   22  O   UNL     1     -24.170  -8.213 -16.158  1.00  0.00    -0.307 OA
HETATM   23  H   UNL     1     -23.534  -8.142 -15.410  1.00  0.00     0.222 HD
ENDBRANCH  20  22
BRANCH  20  24
HETATM   24  O   UNL     1     -26.208  -7.120 -15.262  1.00  0.00    -0.295 OA
BRANCH  24  25
HETATM   25  C   UNL     1     -27.544  -7.321 -15.736  1.00  0.00     0.208 C 
BRANCH  25  26
HETATM   26  C   UNL     1     -28.562  -6.134 -15.724  1.00  0.00     0.262 C 
BRANCH  26  27
HETATM   27  N   UNL     1     -29.440  -6.067 -17.000  1.00  0.00    -0.077 N 
HETATM   28  C   UNL     1     -28.708  -5.305 -18.088  1.00  0.00     0.271 C 
HETATM   29  C   UNL     1     -29.797  -7.470 -17.481  1.00  0.00     0.271 C 
HETATM   30  C   UNL     1     -30.742  -5.315 -16.699  1.00  0.00     0.271 C 
ENDBRANCH  26  27
ENDBRANCH  25  26
ENDBRANCH  24  25
ENDBRANCH  20  24
ENDBRANCH  19  20
ENDBRANCH  18  19
ENDBRANCH  17  18
BRANCH  17  31
HETATM   31  N   UNL     1     -22.227  -4.051 -14.649  1.00  0.00    -0.359 N 
HETATM   32  H   UNL     1     -21.621  -4.371 -15.395  1.00  0.00     0.162 HD
BRANCH  31  33
HETATM   33  C   UNL     1     -22.598  -2.734 -14.701  1.00  0.00     0.349 C 
HETATM   34  O   UNL     1     -22.566  -2.007 -15.655  1.00  0.00    -0.284 OA
ENDBRANCH  31  33
ENDBRANCH  17  31
ENDBRANCH   1  17
BRANCH   1  35
HETATM   35  O   UNL     1     -23.982  -5.010 -11.533  1.00  0.00    -0.390 OA
HETATM   36  H   UNL     1     -24.165  -5.870 -11.963  1.00  0.00     0.210 HD
ENDBRANCH   1  35
TORSDOF 25
BEGIN_RES ARG D 557
REMARK  4 active torsions:
REMARK  status: ('A' for Active; 'I' for Inactive)
REMARK    1  A    between atoms: CA   and  CB  
REMARK    2  A    between atoms: CB   and  CG  
REMARK    3  A    between atoms: CG   and  CD  
REMARK    4  A    between atoms: CD   and  NE  
REMARK       I    between atoms: NE   and  CZ  
REMARK       I    between atoms: CZ   and  NH1 
REMARK       I    between atoms: CZ   and  NH2 
ROOT
ATOM      1  CA  ARG D 557     -26.217   2.705 -17.014  1.00 35.49     0.159 C 
ENDROOT
BRANCH   1   2
ATOM      2  CB  ARG D 557     -26.789   1.319 -17.183  1.00 35.49     0.034 C 
BRANCH   2   3
ATOM      3  CG  ARG D 557     -25.961   0.201 -16.715  1.00 35.49     0.027 C 
BRANCH   3   4
ATOM      4  CD  ARG D 557     -26.773  -0.945 -16.246  1.00 35.49     0.116 C 
BRANCH   4   5
ATOM      5  NE  ARG D 557     -26.326  -1.440 -14.970  1.00 35.49    -0.212 N 
ATOM      6  CZ  ARG D 557     -26.184  -2.705 -14.644  1.00 35.49     0.666 C 
ATOM      7  NH1 ARG D 557     -26.460  -3.688 -15.481  1.00 35.49    -0.235 N 
ATOM      8  NH2 ARG D 557     -25.747  -2.971 -13.447  1.00 35.49    -0.235 N 
ATOM      9  HH  ARG D 557     -26.747  -3.536 -16.274  1.00 35.49     0.174 HD
ATOM     10  HH  ARG D 557     -26.346  -4.494 -15.213  1.00 35.49     0.174 HD
ATOM     11  HH  ARG D 557     -25.570  -2.315 -12.931  1.00 35.49     0.174 HD
ATOM     12  HH  ARG D 557     -25.639  -3.775 -13.202  1.00 35.49     0.174 HD
ATOM     13  HE  ARG D 557     -26.196  -0.876 -14.347  1.00 35.49     0.178 HD
ENDBRANCH   4   5
ENDBRANCH   3   4
ENDBRANCH   2   3
ENDBRANCH   1   2
END_RES ARG D 557
BEGIN_RES GLU D 570
REMARK  3 active torsions:
REMARK  status: ('A' for Active; 'I' for Inactive)
REMARK    5  A    between atoms: CA   and  CB  
REMARK    6  A    between atoms: CB   and  CG  
REMARK    7  A    between atoms: CG   and  CD  
ROOT
ATOM     14  CA  GLU D 570     -18.033  -6.348 -13.375  1.00 32.92     0.160 C 
ENDROOT
BRANCH  14  15
ATOM     15  CB  GLU D 570     -19.500  -6.345 -13.794  1.00 32.92     0.043 C 
BRANCH  15  16
ATOM     16  CG  GLU D 570     -20.076  -7.626 -14.278  1.00 32.92     0.100 C 
BRANCH  16  17
ATOM     17  CD  GLU D 570     -20.732  -7.502 -15.634  1.00 32.92     0.185 C 
ATOM     18  OE1 GLU D 570     -21.251  -8.510 -16.150  1.00 32.92    -0.647 OA
ATOM     19  OE2 GLU D 570     -20.710  -6.388 -16.194  1.00 32.92    -0.647 OA
ENDBRANCH  16  17
ENDBRANCH  15  16
ENDBRANCH  14  15
END_RES GLU D 570
ENDMDL
MODEL 2
REMARK VINA RESULT:      -8.4      1.368      1.893
REMARK  25 active torsions:
REMARK  status: ('A' for Active; 'I' for Inactive)
REMARK    1  A    between atoms: C_2  and  C_3 
REMARK    2  A    between atoms: C_3  and  C_4 
REMARK    3  A    between atoms: C_4  and  C_5 
REMARK    4  A    between atoms: C_5  and  C_6 
REMARK    5  A    between atoms: C_6  and  C_7 
REMARK    6  A    between atoms: C_7  and  C_8 
REMARK    7  A    between atoms: C_8  and  C_9 
REMARK    8  A    between atoms: C_9  and  C_10 
REMARK    9  A    between atoms: C_10  and  C_11 
REMARK   10  A    between atoms: C_11  and  C_12 
REMARK   11  A    between atoms: C_12  and  C_13 
REMARK   12  A    between atoms: C_13  and  C_14 
REMARK   13  A    between atoms: C_15  and  C_16 
REMARK   14  A    between atoms: C_16  and  C_17 
REMARK   15  A    between atoms: C_16  and  O_33 
REMARK   16  A    between atoms: C_17  and  C_18 
REMARK   17  A    between atoms: C_17  and  N_30 
REMARK   18  A    between atoms: C_18  and  O_19 
REMARK   19  A    between atoms: O_19  and  P_20 
REMARK   20  A    between atoms: P_20  and  O_22 
REMARK   21  A    between atoms: P_20  and  O_23 
REMARK   22  A    between atoms: O_23  and  C_24 
REMARK   23  A    between atoms: C_24  and  C_25 
REMARK   24  A    between atoms: C_25  and  N_26 
REMARK   25  A    between atoms: N_30  and  C_31 
ROOT
HETATM    1  C   UNL     1     -22.453  -4.546 -12.604  1.00  0.00     0.165 C 
ENDROOT
BRANCH   1   2
HETATM    2  C   UNL     1     -23.250  -4.620 -11.333  1.00  0.00     0.003 C 
HETATM    3  C   UNL     1     -23.151  -3.732 -10.334  1.00  0.00    -0.028 C 
BRANCH   3   4
HETATM    4  C   UNL     1     -23.811  -3.855  -9.015  1.00  0.00     0.027 C 
BRANCH   4   5
HETATM    5  C   UNL     1     -22.780  -4.227  -7.958  1.00  0.00     0.004 C 
BRANCH   5   6
HETATM    6  C   UNL     1     -21.395  -4.066  -8.554  1.00  0.00     0.000 C 
BRANCH   6   7
HETATM    7  C   UNL     1     -20.581  -5.328  -8.351  1.00  0.00     0.000 C 
BRANCH   7   8
HETATM    8  C   UNL     1     -19.655  -5.150  -7.162  1.00  0.00     0.000 C 
BRANCH   8   9
HETATM    9  C   UNL     1     -20.009  -6.149  -6.077  1.00  0.00     0.000 C 
BRANCH   9  10
HETATM   10  C   UNL     1     -21.049  -5.553  -5.147  1.00  0.00     0.000 C 
BRANCH  10  11
HETATM   11  C   UNL     1     -22.097  -6.596  -4.807  1.00  0.00     0.000 C 
BRANCH  11  12
HETATM   12  C   UNL     1     -21.580  -7.513  -3.713  1.00  0.00     0.000 C 
BRANCH  12  13
HETATM   13  C   UNL     1     -21.203  -6.699  -2.489  1.00  0.00     0.000 C 
BRANCH  13  14
HETATM   14  C   UNL     1     -22.328  -6.732  -1.469  1.00  0.00    -0.000 C 
BRANCH  14  15
HETATM   15  C   UNL     1     -21.954  -7.626  -0.296  1.00  0.00    -0.005 C 
HETATM   16  C   UNL     1     -23.197  -8.017   0.479  1.00  0.00     0.005 C 
ENDBRANCH  14  15
ENDBRANCH  13  14
ENDBRANCH  12  13
ENDBRANCH  11  12
ENDBRANCH  10  11
ENDBRANCH   9  10
ENDBRANCH   8   9
ENDBRANCH   7   8
ENDBRANCH   6   7
ENDBRANCH   5   6
ENDBRANCH   4   5
ENDBRANCH   3   4
ENDBRANCH   1   2
BRANCH   1  17
HETATM   17  C   UNL     1     -23.322  -4.505 -13.918  1.00  0.00     0.140 C 
BRANCH  17  18
HETATM   18  C   UNL     1     -23.822  -5.936 -14.334  1.00  0.00     0.208 C 
BRANCH  18  19
HETATM   19  O   UNL     1     -23.637  -6.192 -15.748  1.00  0.00    -0.295 OA
BRANCH  19  20
HETATM   20  P   UNL     1     -24.754  -7.078 -16.545  1.00  0.00     0.393 P 
HETATM   21  O   UNL     1     -25.037  -6.671 -17.921  1.00  0.00    -0.631 OA
BRANCH  20  22
HETATM   22  O   UNL     1     -24.085  -8.519 -16.418  1.00  0.00    -0.307 OA
HETATM   23  H   UNL     1     -24.514  -9.141 -17.047  1.00  0.00     0.222 HD
ENDBRANCH  20  22
BRANCH  20  24
HETATM   24  O   UNL     1     -26.023  -7.233 -15.557  1.00  0.00    -0.295 OA
BRANCH  24  25
HETATM   25  C   UNL     1     -27.243  -6.530 -15.815  1.00  0.00     0.208 C 
BRANCH  25  26
HETATM   26  C   UNL     1     -28.526  -7.322 -16.232  1.00  0.00     0.262 C 
BRANCH  26  27
HETATM   27  N   UNL     1     -29.275  -6.686 -17.431  1.00  0.00    -0.077 N 
HETATM   28  C   UNL     1     -28.325  -5.810 -18.225  1.00  0.00     0.271 C 
HETATM   29  C   UNL     1     -29.875  -7.767 -18.325  1.00  0.00     0.271 C 
HETATM   30  C   UNL     1     -30.415  -5.796 -16.922  1.00  0.00     0.271 C 
ENDBRANCH  26  27
ENDBRANCH  25  26
ENDBRANCH  24  25
ENDBRANCH  20  24
ENDBRANCH  19  20
ENDBRANCH  18  19
ENDBRANCH  17  18
BRANCH  17  31
HETATM   31  N   UNL     1     -24.496  -3.592 -13.834  1.00  0.00    -0.359 N 
HETATM   32  H   UNL     1     -25.406  -4.018 -13.704  1.00  0.00     0.162 HD
BRANCH  31  33
HETATM   33  C   UNL     1     -24.483  -2.226 -13.937  1.00  0.00     0.349 C 
HETATM   34  O   UNL     1     -24.172  -1.572 -14.894  1.00  0.00    -0.284 OA
ENDBRANCH  31  33
ENDBRANCH  17  31
ENDBRANCH   1  17
BRANCH   1  35
HETATM   35  O   UNL     1     -21.591  -3.429 -12.491  1.00  0.00    -0.390 OA
HETATM   36  H   UNL     1     -22.136  -2.617 -12.467  1.00  0.00     0.210 HD
ENDBRANCH   1  35
TORSDOF 25
BEGIN_RES ARG D 557
REMARK  4 active torsions:
REMARK  status: ('A' for Active; 'I' for Inactive)
REMARK    1  A    between atoms: CA   and  CB  
REMARK    2  A    between atoms: CB   and  CG  
REMARK    3  A    between atoms: CG   and  CD  
REMARK    4  A    between atoms: CD   and  NE  
REMARK       I    between atoms: NE   and  CZ  
REMARK       I    between atoms: CZ   and  NH1 
REMARK       I    between atoms: CZ   and  NH2 
ROOT
ATOM      1  CA  ARG D 557     -26.217   2.705 -17.014  1.00 35.49     0.159 C 
ENDROOT
BRANCH   1   2
ATOM      2  CB  ARG D 557     -26.789   1.319 -17.183  1.00 35.49     0.034 C 
BRANCH   2   3
ATOM      3  CG  ARG D 557     -28.230   1.227 -17.447  1.00 35.49     0.027 C 
BRANCH   3   4
ATOM      4  CD  ARG D 557     -28.904   0.249 -16.563  1.00 35.49     0.116 C 
BRANCH   4   5
ATOM      5  NE  ARG D 557     -28.035  -0.836 -16.192  1.00 35.49    -0.212 N 
ATOM      6  CZ  ARG D 557     -28.148  -2.083 -16.594  1.00 35.49     0.666 C 
ATOM      7  NH1 ARG D 557     -29.115  -2.484 -17.398  1.00 35.49    -0.235 N 
ATOM      8  NH2 ARG D 557     -27.255  -2.932 -16.174  1.00 35.49    -0.235 N 
ATOM      9  HH  ARG D 557     -29.712  -1.942 -17.688  1.00 35.49     0.174 HD
ATOM     10  HH  ARG D 557     -29.136  -3.309 -17.628  1.00 35.49     0.174 HD
ATOM     11  HH  ARG D 557     -26.638  -2.643 -15.661  1.00 35.49     0.174 HD
ATOM     12  HH  ARG D 557     -27.293  -3.744 -16.414  1.00 35.49     0.174 HD
ATOM     13  HE  ARG D 557     -27.426  -0.682 -15.618  1.00 35.49     0.178 HD
ENDBRANCH   4   5
ENDBRANCH   3   4
ENDBRANCH   2   3
ENDBRANCH   1   2
END_RES ARG D 557
BEGIN_RES GLU D 570
REMARK  3 active torsions:
REMARK  status: ('A' for Active; 'I' for Inactive)
REMARK    5  A    between atoms: CA   and  CB  
REMARK    6  A    between atoms: CB   and  CG  
REMARK    7  A    between atoms: CG   and  CD  
ROOT
ATOM     14  CA  GLU D 570     -18.033  -6.348 -13.375  1.00 32.92     0.160 C 
ENDROOT
BRANCH  14  15
ATOM     15  CB  GLU D 570     -19.500  -6.345 -13.794  1.00 32.92     0.043 C 
BRANCH  15  16
ATOM     16  CG  GLU D 570     -20.084  -7.633 -14.251  1.00 32.92     0.100 C 
BRANCH  16  17
ATOM     17  CD  GLU D 570     -20.611  -7.572 -15.665  1.00 32.92     0.185 C 
ATOM     18  OE1 GLU D 570     -21.174  -8.575 -16.145  1.00 32.92    -0.647 OA
ATOM     19  OE2 GLU D 570     -20.445  -6.515 -16.306  1.00 32.92    -0.647 OA
ENDBRANCH  16  17
ENDBRANCH  15  16
ENDBRANCH  14  15
END_RES GLU D 570
ENDMDL
MODEL 3
REMARK VINA RESULT:      -8.0      2.269      3.342
REMARK  25 active torsions:
REMARK  status: ('A' for Active; 'I' for Inactive)
REMARK    1  A    between atoms: C_2  and  C_3 
REMARK    2  A    between atoms: C_3  and  C_4 
REMARK    3  A    between atoms: C_4  and  C_5 
REMARK    4  A    between atoms: C_5  and  C_6 
REMARK    5  A    between atoms: C_6  and  C_7 
REMARK    6  A    between atoms: C_7  and  C_8 
REMARK    7  A    between atoms: C_8  and  C_9 
REMARK    8  A    between atoms: C_9  and  C_10 
REMARK    9  A    between atoms: C_10  and  C_11 
REMARK   10  A    between atoms: C_11  and  C_12 
REMARK   11  A    between atoms: C_12  and  C_13 
REMARK   12  A    between atoms: C_13  and  C_14 
REMARK   13  A    between atoms: C_15  and  C_16 
REMARK   14  A    between atoms: C_16  and  C_17 
REMARK   15  A    between atoms: C_16  and  O_33 
REMARK   16  A    between atoms: C_17  and  C_18 
REMARK   17  A    between atoms: C_17  and  N_30 
REMARK   18  A    between atoms: C_18  and  O_19 
REMARK   19  A    between atoms: O_19  and  P_20 
REMARK   20  A    between atoms: P_20  and  O_22 
REMARK   21  A    between atoms: P_20  and  O_23 
REMARK   22  A    between atoms: O_23  and  C_24 
REMARK   23  A    between atoms: C_24  and  C_25 
REMARK   24  A    between atoms: C_25  and  N_26 
REMARK   25  A    between atoms: N_30  and  C_31 
ROOT
HETATM    1  C   UNL     1     -21.226  -4.348 -10.894  1.00  0.00     0.165 C 
ENDROOT
BRANCH   1   2
HETATM    2  C   UNL     1     -20.913  -4.594  -9.445  1.00  0.00     0.003 C 
HETATM    3  C   UNL     1     -19.828  -4.115  -8.821  1.00  0.00    -0.028 C 
BRANCH   3   4
HETATM    4  C   UNL     1     -19.418  -4.457  -7.441  1.00  0.00     0.027 C 
BRANCH   4   5
HETATM    5  C   UNL     1     -20.614  -4.336  -6.506  1.00  0.00     0.004 C 
BRANCH   5   6
HETATM    6  C   UNL     1     -20.345  -5.165  -5.265  1.00  0.00     0.000 C 
BRANCH   6   7
HETATM    7  C   UNL     1     -20.777  -6.601  -5.484  1.00  0.00     0.000 C 
BRANCH   7   8
HETATM    8  C   UNL     1     -21.905  -6.943  -4.529  1.00  0.00     0.000 C 
BRANCH   8   9
HETATM    9  C   UNL     1     -21.704  -6.220  -3.212  1.00  0.00     0.000 C 
BRANCH   9  10
HETATM   10  C   UNL     1     -21.473  -7.227  -2.101  1.00  0.00     0.000 C 
BRANCH  10  11
HETATM   11  C   UNL     1     -22.388  -6.923  -0.929  1.00  0.00     0.000 C 
BRANCH  11  12
HETATM   12  C   UNL     1     -22.563  -8.164  -0.072  1.00  0.00     0.000 C 
BRANCH  12  13
HETATM   13  C   UNL     1     -21.709  -8.056   1.179  1.00  0.00     0.000 C 
BRANCH  13  14
HETATM   14  C   UNL     1     -20.882  -9.318   1.362  1.00  0.00    -0.000 C 
BRANCH  14  15
HETATM   15  C   UNL     1     -21.051 -10.241   0.164  1.00  0.00    -0.005 C 
HETATM   16  C   UNL     1     -21.403 -11.640   0.628  1.00  0.00     0.005 C 
ENDBRANCH  14  15
ENDBRANCH  13  14
ENDBRANCH  12  13
ENDBRANCH  11  12
ENDBRANCH  10  11
ENDBRANCH   9  10
ENDBRANCH   8   9
ENDBRANCH   7   8
ENDBRANCH   6   7
ENDBRANCH   5   6
ENDBRANCH   4   5
ENDBRANCH   3   4
ENDBRANCH   1   2
BRANCH   1  17
HETATM   17  C   UNL     1     -22.419  -3.351 -11.143  1.00  0.00     0.140 C 
BRANCH  17  18
HETATM   18  C   UNL     1     -22.460  -2.848 -12.632  1.00  0.00     0.208 C 
BRANCH  18  19
HETATM   19  O   UNL     1     -23.629  -2.037 -12.905  1.00  0.00    -0.295 OA
BRANCH  19  20
HETATM   20  P   UNL     1     -24.359  -2.166 -14.361  1.00  0.00     0.393 P 
HETATM   21  O   UNL     1     -24.680  -0.908 -15.034  1.00  0.00    -0.631 OA
BRANCH  20  22
HETATM   22  O   UNL     1     -23.275  -3.052 -15.121  1.00  0.00    -0.307 OA
HETATM   23  H   UNL     1     -23.546  -3.178 -16.058  1.00  0.00     0.222 HD
ENDBRANCH  20  22
BRANCH  20  24
HETATM   24  O   UNL     1     -25.567  -3.226 -14.189  1.00  0.00    -0.295 OA
BRANCH  24  25
HETATM   25  C   UNL     1     -25.580  -4.449 -14.933  1.00  0.00     0.208 C 
BRANCH  25  26
HETATM   26  C   UNL     1     -26.929  -5.002 -15.500  1.00  0.00     0.262 C 
BRANCH  26  27
HETATM   27  N   UNL     1     -26.785  -6.384 -16.186  1.00  0.00    -0.077 N 
HETATM   28  C   UNL     1     -27.077  -6.255 -17.669  1.00  0.00     0.271 C 
HETATM   29  C   UNL     1     -25.384  -6.950 -15.968  1.00  0.00     0.271 C 
HETATM   30  C   UNL     1     -27.800  -7.369 -15.595  1.00  0.00     0.271 C 
ENDBRANCH  26  27
ENDBRANCH  25  26
ENDBRANCH  24  25
ENDBRANCH  20  24
ENDBRANCH  19  20
ENDBRANCH  18  19
ENDBRANCH  17  18
BRANCH  17  31
HETATM   31  N   UNL     1     -23.753  -3.908 -10.787  1.00  0.00    -0.359 N 
HETATM   32  H   UNL     1     -24.093  -4.687 -11.340  1.00  0.00     0.162 HD
BRANCH  31  33
HETATM   33  C   UNL     1     -24.592  -3.464  -9.799  1.00  0.00     0.349 C 
HETATM   34  O   UNL     1     -25.739  -3.131  -9.915  1.00  0.00    -0.284 OA
ENDBRANCH  31  33
ENDBRANCH  17  31
ENDBRANCH   1  17
BRANCH   1  35
HETATM   35  O   UNL     1     -20.025  -3.921 -11.512  1.00  0.00    -0.390 OA
HETATM   36  H   UNL     1     -19.546  -3.337 -10.890  1.00  0.00     0.210 HD
ENDBRANCH   1  35
TORSDOF 25
BEGIN_RES ARG D 557
REMARK  4 active torsions:
REMARK  status: ('A' for Active; 'I' for Inactive)
REMARK    1  A    between atoms: CA   and  CB  
REMARK    2  A    between atoms: CB   and  CG  
REMARK    3  A    between atoms: CG   and  CD  
REMARK    4  A    between atoms: CD   and  NE  
REMARK       I    between atoms: NE   and  CZ  
REMARK       I    between atoms: CZ   and  NH1 
REMARK       I    between atoms: CZ   and  NH2 
ROOT
ATOM      1  CA  ARG D 557     -26.217   2.705 -17.014  1.00 35.49     0.159 C 
ENDROOT
BRANCH   1   2
ATOM      2  CB  ARG D 557     -26.789   1.319 -17.183  1.00 35.49     0.034 C 
BRANCH   2   3
ATOM      3  CG  ARG D 557     -28.199   1.230 -17.580  1.00 35.49     0.027 C 
BRANCH   3   4
ATOM      4  CD  ARG D 557     -29.004   0.431 -16.628  1.00 35.49     0.116 C 
BRANCH   4   5
ATOM      5  NE  ARG D 557     -29.338  -0.866 -17.156  1.00 35.49    -0.212 N 
ATOM      6  CZ  ARG D 557     -28.629  -1.963 -17.003  1.00 35.49     0.666 C 
ATOM      7  NH1 ARG D 557     -27.489  -1.984 -16.337  1.00 35.49    -0.235 N 
ATOM      8  NH2 ARG D 557     -29.094  -3.056 -17.533  1.00 35.49    -0.235 N 
ATOM      9  HH  ARG D 557     -27.166  -1.276 -15.979  1.00 35.49     0.174 HD
ATOM     10  HH  ARG D 557     -27.072  -2.729 -16.268  1.00 35.49     0.174 HD
ATOM     11  HH  ARG D 557     -29.837  -3.014 -17.951  1.00 35.49     0.174 HD
ATOM     12  HH  ARG D 557     -28.667  -3.784 -17.453  1.00 35.49     0.174 HD
ATOM     13  HE  ARG D 557     -30.020  -0.929 -17.660  1.00 35.49     0.178 HD
ENDBRANCH   4   5
ENDBRANCH   3   4
ENDBRANCH   2   3
ENDBRANCH   1   2
END_RES ARG D 557
BEGIN_RES GLU D 570
REMARK  3 active torsions:
REMARK  status: ('A' for Active; 'I' for Inactive)
REMARK    5  A    between atoms: CA   and  CB  
REMARK    6  A    between atoms: CB   and  CG  
REMARK    7  A    between atoms: CG   and  CD  
ROOT
ATOM     14  CA  GLU D 570     -18.033  -6.348 -13.375  1.00 32.92     0.160 C 
ENDROOT
BRANCH  14  15
ATOM     15  CB  GLU D 570     -19.500  -6.345 -13.794  1.00 32.92     0.043 C 
BRANCH  15  16
ATOM     16  CG  GLU D 570     -19.825  -6.853 -15.152  1.00 32.92     0.100 C 
BRANCH  16  17
ATOM     17  CD  GLU D 570     -20.933  -6.075 -15.823  1.00 32.92     0.185 C 
ATOM     18  OE1 GLU D 570     -21.241  -4.953 -15.376  1.00 32.92    -0.647 OA
ATOM     19  OE2 GLU D 570     -21.510  -6.599 -16.795  1.00 32.92    -0.647 OA
ENDBRANCH  16  17
ENDBRANCH  15  16
ENDBRANCH  14  15
END_RES GLU D 570
ENDMDL
MODEL 4
REMARK VINA RESULT:      -7.9      5.097     10.780
REMARK  25 active torsions:
REMARK  status: ('A' for Active; 'I' for Inactive)
REMARK    1  A    between atoms: C_2  and  C_3 
REMARK    2  A    between atoms: C_3  and  C_4 
REMARK    3  A    between atoms: C_4  and  C_5 
REMARK    4  A    between atoms: C_5  and  C_6 
REMARK    5  A    between atoms: C_6  and  C_7 
REMARK    6  A    between atoms: C_7  and  C_8 
REMARK    7  A    between atoms: C_8  and  C_9 
REMARK    8  A    between atoms: C_9  and  C_10 
REMARK    9  A    between atoms: C_10  and  C_11 
REMARK   10  A    between atoms: C_11  and  C_12 
REMARK   11  A    between atoms: C_12  and  C_13 
REMARK   12  A    between atoms: C_13  and  C_14 
REMARK   13  A    between atoms: C_15  and  C_16 
REMARK   14  A    between atoms: C_16  and  C_17 
REMARK   15  A    between atoms: C_16  and  O_33 
REMARK   16  A    between atoms: C_17  and  C_18 
REMARK   17  A    between atoms: C_17  and  N_30 
REMARK   18  A    between atoms: C_18  and  O_19 
REMARK   19  A    between atoms: O_19  and  P_20 
REMARK   20  A    between atoms: P_20  and  O_22 
REMARK   21  A    between atoms: P_20  and  O_23 
REMARK   22  A    between atoms: O_23  and  C_24 
REMARK   23  A    between atoms: C_24  and  C_25 
REMARK   24  A    between atoms: C_25  and  N_26 
REMARK   25  A    between atoms: N_30  and  C_31 
ROOT
HETATM    1  C   UNL     1     -30.561  -5.557 -16.572  1.00  0.00     0.165 C 
ENDROOT
BRANCH   1   2
HETATM    2  C   UNL     1     -31.398  -4.400 -17.037  1.00  0.00     0.003 C 
HETATM    3  C   UNL     1     -32.699  -4.253 -16.748  1.00  0.00    -0.028 C 
BRANCH   3   4
HETATM    4  C   UNL     1     -33.583  -3.206 -17.307  1.00  0.00     0.027 C 
BRANCH   4   5
HETATM    5  C   UNL     1     -34.566  -2.742 -16.241  1.00  0.00     0.004 C 
BRANCH   5   6
HETATM    6  C   UNL     1     -35.280  -1.502 -16.746  1.00  0.00     0.000 C 
BRANCH   6   7
HETATM    7  C   UNL     1     -35.921  -0.755 -15.594  1.00  0.00     0.000 C 
BRANCH   7   8
HETATM    8  C   UNL     1     -35.054   0.430 -15.212  1.00  0.00     0.000 C 
BRANCH   8   9
HETATM    9  C   UNL     1     -34.912   0.502 -13.704  1.00  0.00     0.000 C 
BRANCH   9  10
HETATM   10  C   UNL     1     -35.518  -0.737 -13.070  1.00  0.00     0.000 C 
BRANCH  10  11
HETATM   11  C   UNL     1     -34.565  -1.306 -12.036  1.00  0.00     0.000 C 
BRANCH  11  12
HETATM   12  C   UNL     1     -34.280  -2.766 -12.342  1.00  0.00     0.000 C 
BRANCH  12  13
HETATM   13  C   UNL     1     -33.193  -3.287 -11.418  1.00  0.00     0.000 C 
BRANCH  13  14
HETATM   14  C   UNL     1     -33.225  -4.805 -11.374  1.00  0.00    -0.000 C 
BRANCH  14  15
HETATM   15  C   UNL     1     -34.374  -5.287 -10.500  1.00  0.00    -0.005 C 
HETATM   16  C   UNL     1     -34.409  -6.801 -10.472  1.00  0.00     0.005 C 
ENDBRANCH  14  15
ENDBRANCH  13  14
ENDBRANCH  12  13
ENDBRANCH  11  12
ENDBRANCH  10  11
ENDBRANCH   9  10
ENDBRANCH   8   9
ENDBRANCH   7   8
ENDBRANCH   6   7
ENDBRANCH   5   6
ENDBRANCH   4   5
ENDBRANCH   3   4
ENDBRANCH   1   2
BRANCH   1  17
HETATM   17  C   UNL     1     -29.161  -5.677 -17.284  1.00  0.00     0.140 C 
BRANCH  17  18
HETATM   18  C   UNL     1     -28.038  -6.152 -16.291  1.00  0.00     0.208 C 
BRANCH  18  19
HETATM   19  O   UNL     1     -26.737  -5.617 -16.638  1.00  0.00    -0.295 OA
BRANCH  19  20
HETATM   20  P   UNL     1     -25.402  -6.306 -15.998  1.00  0.00     0.393 P 
HETATM   21  O   UNL     1     -25.621  -7.497 -15.179  1.00  0.00    -0.631 OA
BRANCH  20  22
HETATM   22  O   UNL     1     -24.581  -6.581 -17.337  1.00  0.00    -0.307 OA
HETATM   23  H   UNL     1     -25.203  -6.703 -18.089  1.00  0.00     0.222 HD
ENDBRANCH  20  22
BRANCH  20  24
HETATM   24  O   UNL     1     -24.531  -5.117 -15.335  1.00  0.00    -0.295 OA
BRANCH  24  25
HETATM   25  C   UNL     1     -23.771  -5.342 -14.142  1.00  0.00     0.208 C 
BRANCH  25  26
HETATM   26  C   UNL     1     -22.620  -4.357 -13.754  1.00  0.00     0.262 C 
BRANCH  26  27
HETATM   27  N   UNL     1     -22.637  -3.953 -12.258  1.00  0.00    -0.077 N 
HETATM   28  C   UNL     1     -21.269  -4.186 -11.647  1.00  0.00     0.271 C 
HETATM   29  C   UNL     1     -23.049  -2.493 -12.100  1.00  0.00     0.271 C 
HETATM   30  C   UNL     1     -23.642  -4.823 -11.494  1.00  0.00     0.271 C 
ENDBRANCH  26  27
ENDBRANCH  25  26
ENDBRANCH  24  25
ENDBRANCH  20  24
ENDBRANCH  19  20
ENDBRANCH  18  19
ENDBRANCH  17  18
BRANCH  17  31
HETATM   31  N   UNL     1     -29.164  -6.577 -18.471  1.00  0.00    -0.359 N 
HETATM   32  H   UNL     1     -28.742  -6.224 -19.321  1.00  0.00     0.162 HD
BRANCH  31  33
HETATM   33  C   UNL     1     -29.703  -7.834 -18.546  1.00  0.00     0.349 C 
HETATM   34  O   UNL     1     -30.797  -8.134 -18.939  1.00  0.00    -0.284 OA
ENDBRANCH  31  33
ENDBRANCH  17  31
ENDBRANCH   1  17
BRANCH   1  35
HETATM   35  O   UNL     1     -30.445  -5.448 -15.165  1.00  0.00    -0.390 OA
HETATM   36  H   UNL     1     -30.915  -4.640 -14.876  1.00  0.00     0.210 HD
ENDBRANCH   1  35
TORSDOF 25
BEGIN_RES ARG D 557
REMARK  4 active torsions:
REMARK  status: ('A' for Active; 'I' for Inactive)
REMARK    1  A    between atoms: CA   and  CB  
REMARK    2  A    between atoms: CB   and  CG  
REMARK    3  A    between atoms: CG   and  CD  
REMARK    4  A    between atoms: CD   and  NE  
REMARK       I    between atoms: NE   and  CZ  
REMARK       I    between atoms: CZ   and  NH1 
REMARK       I    between atoms: CZ   and  NH2 
ROOT
ATOM      1  CA  ARG D 557     -26.217   2.705 -17.014  1.00 35.49     0.159 C 
ENDROOT
BRANCH   1   2
ATOM      2  CB  ARG D 557     -26.789   1.319 -17.183  1.00 35.49     0.034 C 
BRANCH   2   3
ATOM      3  CG  ARG D 557     -28.251   1.197 -17.135  1.00 35.49     0.027 C 
BRANCH   3   4
ATOM      4  CD  ARG D 557     -28.692  -0.057 -16.484  1.00 35.49     0.116 C 
BRANCH   4   5
ATOM      5  NE  ARG D 557     -27.594  -0.776 -15.893  1.00 35.49    -0.212 N 
ATOM      6  CZ  ARG D 557     -27.325  -2.050 -16.071  1.00 35.49     0.666 C 
ATOM      7  NH1 ARG D 557     -28.071  -2.833 -16.829  1.00 35.49    -0.235 N 
ATOM      8  NH2 ARG D 557     -26.275  -2.531 -15.473  1.00 35.49    -0.235 N 
ATOM      9  HH  ARG D 557     -28.766  -2.537 -17.234  1.00 35.49     0.174 HD
ATOM     10  HH  ARG D 557     -27.845  -3.655 -16.911  1.00 35.49     0.174 HD
ATOM     11  HH  ARG D 557     -25.807  -2.001 -14.996  1.00 35.49     0.174 HD
ATOM     12  HH  ARG D 557     -26.067  -3.348 -15.567  1.00 35.49     0.174 HD
ATOM     13  HE  ARG D 557     -27.104  -0.366 -15.332  1.00 35.49     0.178 HD
ENDBRANCH   4   5
ENDBRANCH   3   4
ENDBRANCH   2   3
ENDBRANCH   1   2
END_RES ARG D 557
BEGIN_RES GLU D 570
REMARK  3 active torsions:
REMARK  status: ('A' for Active; 'I' for Inactive)
REMARK    5  A    between atoms: CA   and  CB  
REMARK    6  A    between atoms: CB   and  CG  
REMARK    7  A    between atoms: CG   and  CD  
ROOT
ATOM     14  CA  GLU D 570     -18.033  -6.348 -13.375  1.00 32.92     0.160 C 
ENDROOT
BRANCH  14  15
ATOM     15  CB  GLU D 570     -19.500  -6.345 -13.794  1.00 32.92     0.043 C 
BRANCH  15  16
ATOM     16  CG  GLU D 570     -19.802  -6.106 -15.229  1.00 32.92     0.100 C 
BRANCH  16  17
ATOM     17  CD  GLU D 570     -20.799  -7.091 -15.794  1.00 32.92     0.185 C 
ATOM     18  OE1 GLU D 570     -21.638  -6.694 -16.624  1.00 32.92    -0.647 OA
ATOM     19  OE2 GLU D 570     -20.750  -8.269 -15.388  1.00 32.92    -0.647 OA
ENDBRANCH  16  17
ENDBRANCH  15  16
ENDBRANCH  14  15
END_RES GLU D 570
ENDMDL
MODEL 5
REMARK VINA RESULT:      -7.9      2.200      3.424
REMARK  25 active torsions:
REMARK  status: ('A' for Active; 'I' for Inactive)
REMARK    1  A    between atoms: C_2  and  C_3 
REMARK    2  A    between atoms: C_3  and  C_4 
REMARK    3  A    between atoms: C_4  and  C_5 
REMARK    4  A    between atoms: C_5  and  C_6 
REMARK    5  A    between atoms: C_6  and  C_7 
REMARK    6  A    between atoms: C_7  and  C_8 
REMARK    7  A    between atoms: C_8  and  C_9 
REMARK    8  A    between atoms: C_9  and  C_10 
REMARK    9  A    between atoms: C_10  and  C_11 
REMARK   10  A    between atoms: C_11  and  C_12 
REMARK   11  A    between atoms: C_12  and  C_13 
REMARK   12  A    between atoms: C_13  and  C_14 
REMARK   13  A    between atoms: C_15  and  C_16 
REMARK   14  A    between atoms: C_16  and  C_17 
REMARK   15  A    between atoms: C_16  and  O_33 
REMARK   16  A    between atoms: C_17  and  C_18 
REMARK   17  A    between atoms: C_17  and  N_30 
REMARK   18  A    between atoms: C_18  and  O_19 
REMARK   19  A    between atoms: O_19  and  P_20 
REMARK   20  A    between atoms: P_20  and  O_22 
REMARK   21  A    between atoms: P_20  and  O_23 
REMARK   22  A    between atoms: O_23  and  C_24 
REMARK   23  A    between atoms: C_24  and  C_25 
REMARK   24  A    between atoms: C_25  and  N_26 
REMARK   25  A    between atoms: N_30  and  C_31 
ROOT
HETATM    1  C   UNL     1     -23.539  -3.625  -9.341  1.00  0.00     0.165 C 
ENDROOT
BRANCH   1   2
HETATM    2  C   UNL     1     -22.729  -4.399  -8.340  1.00  0.00     0.003 C 
HETATM    3  C   UNL     1     -21.776  -3.857  -7.568  1.00  0.00    -0.028 C 
BRANCH   3   4
HETATM    4  C   UNL     1     -20.866  -4.615  -6.681  1.00  0.00     0.027 C 
BRANCH   4   5
HETATM    5  C   UNL     1     -21.171  -6.103  -6.783  1.00  0.00     0.004 C 
BRANCH   5   6
HETATM    6  C   UNL     1     -20.759  -6.773  -5.486  1.00  0.00     0.000 C 
BRANCH   6   7
HETATM    7  C   UNL     1     -21.180  -5.931  -4.299  1.00  0.00     0.000 C 
BRANCH   7   8
HETATM    8  C   UNL     1     -21.575  -6.838  -3.148  1.00  0.00     0.000 C 
BRANCH   8   9
HETATM    9  C   UNL     1     -21.942  -6.005  -1.936  1.00  0.00     0.000 C 
BRANCH   9  10
HETATM   10  C   UNL     1     -22.291  -6.914  -0.772  1.00  0.00     0.000 C 
BRANCH  10  11
HETATM   11  C   UNL     1     -22.125  -8.365  -1.182  1.00  0.00     0.000 C 
BRANCH  11  12
HETATM   12  C   UNL     1     -22.914  -9.262  -0.245  1.00  0.00     0.000 C 
BRANCH  12  13
HETATM   13  C   UNL     1     -23.009 -10.662  -0.825  1.00  0.00     0.000 C 
BRANCH  13  14
HETATM   14  C   UNL     1     -23.878 -11.539   0.060  1.00  0.00    -0.000 C 
BRANCH  14  15
HETATM   15  C   UNL     1     -23.074 -12.715   0.595  1.00  0.00    -0.005 C 
HETATM   16  C   UNL     1     -21.658 -12.278   0.910  1.00  0.00     0.005 C 
ENDBRANCH  14  15
ENDBRANCH  13  14
ENDBRANCH  12  13
ENDBRANCH  11  12
ENDBRANCH  10  11
ENDBRANCH   9  10
ENDBRANCH   8   9
ENDBRANCH   7   8
ENDBRANCH   6   7
ENDBRANCH   5   6
ENDBRANCH   4   5
ENDBRANCH   3   4
ENDBRANCH   1   2
BRANCH   1  17
HETATM   17  C   UNL     1     -23.075  -3.806 -10.835  1.00  0.00     0.140 C 
BRANCH  17  18
HETATM   18  C   UNL     1     -24.197  -3.383 -11.852  1.00  0.00     0.208 C 
BRANCH  18  19
HETATM   19  O   UNL     1     -23.681  -2.557 -12.925  1.00  0.00    -0.295 OA
BRANCH  19  20
HETATM   20  P   UNL     1     -24.418  -2.600 -14.381  1.00  0.00     0.393 P 
HETATM   21  O   UNL     1     -25.447  -1.588 -14.613  1.00  0.00    -0.631 OA
BRANCH  20  22
HETATM   22  O   UNL     1     -23.143  -2.458 -15.326  1.00  0.00    -0.307 OA
HETATM   23  H   UNL     1     -22.809  -3.350 -15.571  1.00  0.00     0.222 HD
ENDBRANCH  20  22
BRANCH  20  24
HETATM   24  O   UNL     1     -24.838  -4.138 -14.650  1.00  0.00    -0.295 OA
BRANCH  24  25
HETATM   25  C   UNL     1     -26.185  -4.481 -14.995  1.00  0.00     0.208 C 
BRANCH  25  26
HETATM   26  C   UNL     1     -26.459  -5.468 -16.177  1.00  0.00     0.262 C 
BRANCH  26  27
HETATM   27  N   UNL     1     -27.846  -6.154 -16.093  1.00  0.00    -0.077 N 
HETATM   28  C   UNL     1     -27.697  -7.544 -15.506  1.00  0.00     0.271 C 
HETATM   29  C   UNL     1     -28.808  -5.321 -15.251  1.00  0.00     0.271 C 
HETATM   30  C   UNL     1     -28.441  -6.302 -17.499  1.00  0.00     0.271 C 
ENDBRANCH  26  27
ENDBRANCH  25  26
ENDBRANCH  24  25
ENDBRANCH  20  24
ENDBRANCH  19  20
ENDBRANCH  18  19
ENDBRANCH  17  18
BRANCH  17  31
HETATM   31  N   UNL     1     -21.822  -3.073 -11.169  1.00  0.00    -0.359 N 
HETATM   32  H   UNL     1     -21.907  -2.087 -11.390  1.00  0.00     0.162 HD
BRANCH  31  33
HETATM   33  C   UNL     1     -20.558  -3.595 -11.234  1.00  0.00     0.349 C 
HETATM   34  O   UNL     1     -20.156  -4.595 -10.707  1.00  0.00    -0.284 OA
ENDBRANCH  31  33
ENDBRANCH  17  31
ENDBRANCH   1  17
BRANCH   1  35
HETATM   35  O   UNL     1     -24.895  -3.986  -9.148  1.00  0.00    -0.390 OA
HETATM   36  H   UNL     1     -25.019  -4.236  -8.210  1.00  0.00     0.210 HD
ENDBRANCH   1  35
TORSDOF 25
BEGIN_RES ARG D 557
REMARK  4 active torsions:
REMARK  status: ('A' for Active; 'I' for Inactive)
REMARK    1  A    between atoms: CA   and  CB  
REMARK    2  A    between atoms: CB   and  CG  
REMARK    3  A    between atoms: CG   and  CD  
REMARK    4  A    between atoms: CD   and  NE  
REMARK       I    between atoms: NE   and  CZ  
REMARK       I    between atoms: CZ   and  NH1 
REMARK       I    between atoms: CZ   and  NH2 
ROOT
ATOM      1  CA  ARG D 557     -26.217   2.705 -17.014  1.00 35.49     0.159 C 
ENDROOT
BRANCH   1   2
ATOM      2  CB  ARG D 557     -26.789   1.319 -17.183  1.00 35.49     0.034 C 
BRANCH   2   3
ATOM      3  CG  ARG D 557     -28.202   1.230 -17.572  1.00 35.49     0.027 C 
BRANCH   3   4
ATOM      4  CD  ARG D 557     -29.001   0.429 -16.617  1.00 35.49     0.116 C 
BRANCH   4   5
ATOM      5  NE  ARG D 557     -29.442  -0.816 -17.190  1.00 35.49    -0.212 N 
ATOM      6  CZ  ARG D 557     -28.816  -1.968 -17.101  1.00 35.49     0.666 C 
ATOM      7  NH1 ARG D 557     -27.667  -2.103 -16.464  1.00 35.49    -0.235 N 
ATOM      8  NH2 ARG D 557     -29.374  -2.999 -17.664  1.00 35.49    -0.235 N 
ATOM      9  HH  ARG D 557     -27.283  -1.438 -16.084  1.00 35.49     0.174 HD
ATOM     10  HH  ARG D 557     -27.306  -2.879 -16.436  1.00 35.49     0.174 HD
ATOM     11  HH  ARG D 557     -30.120  -2.884 -18.062  1.00 35.49     0.174 HD
ATOM     12  HH  ARG D 557     -29.002  -3.760 -17.625  1.00 35.49     0.174 HD
ATOM     13  HE  ARG D 557     -30.138  -0.805 -17.680  1.00 35.49     0.178 HD
ENDBRANCH   4   5
ENDBRANCH   3   4
ENDBRANCH   2   3
ENDBRANCH   1   2
END_RES ARG D 557
BEGIN_RES GLU D 570
REMARK  3 active torsions:
REMARK  status: ('A' for Active; 'I' for Inactive)
REMARK    5  A    between atoms: CA   and  CB  
REMARK    6  A    between atoms: CB   and  CG  
REMARK    7  A    between atoms: CG   and  CD  
ROOT
ATOM     14  CA  GLU D 570     -18.033  -6.348 -13.375  1.00 32.92     0.160 C 
ENDROOT
BRANCH  14  15
ATOM     15  CB  GLU D 570     -19.500  -6.345 -13.794  1.00 32.92     0.043 C 
BRANCH  15  16
ATOM     16  CG  GLU D 570     -19.827  -5.799 -15.136  1.00 32.92     0.100 C 
BRANCH  16  17
ATOM     17  CD  GLU D 570     -21.227  -5.235 -15.218  1.00 32.92     0.185 C 
ATOM     18  OE1 GLU D 570     -21.704  -4.958 -16.336  1.00 32.92    -0.647 OA
ATOM     19  OE2 GLU D 570     -21.847  -5.053 -14.152  1.00 32.92    -0.647 OA
ENDBRANCH  16  17
ENDBRANCH  15  16
ENDBRANCH  14  15
END_RES GLU D 570
ENDMDL
MODEL 6
REMARK VINA RESULT:      -7.8      1.585      2.433
REMARK  25 active torsions:
REMARK  status: ('A' for Active; 'I' for Inactive)
REMARK    1  A    between atoms: C_2  and  C_3 
REMARK    2  A    between atoms: C_3  and  C_4 
REMARK    3  A    between atoms: C_4  and  C_5 
REMARK    4  A    between atoms: C_5  and  C_6 
REMARK    5  A    between atoms: C_6  and  C_7 
REMARK    6  A    between atoms: C_7  and  C_8 
REMARK    7  A    between atoms: C_8  and  C_9 
REMARK    8  A    between atoms: C_9  and  C_10 
REMARK    9  A    between atoms: C_10  and  C_11 
REMARK   10  A    between atoms: C_11  and  C_12 
REMARK   11  A    between atoms: C_12  and  C_13 
REMARK   12  A    between atoms: C_13  and  C_14 
REMARK   13  A    between atoms: C_15  and  C_16 
REMARK   14  A    between atoms: C_16  and  C_17 
REMARK   15  A    between atoms: C_16  and  O_33 
REMARK   16  A    between atoms: C_17  and  C_18 
REMARK   17  A    between atoms: C_17  and  N_30 
REMARK   18  A    between atoms: C_18  and  O_19 
REMARK   19  A    between atoms: O_19  and  P_20 
REMARK   20  A    between atoms: P_20  and  O_22 
REMARK   21  A    between atoms: P_20  and  O_23 
REMARK   22  A    between atoms: O_23  and  C_24 
REMARK   23  A    between atoms: C_24  and  C_25 
REMARK   24  A    between atoms: C_25  and  N_26 
REMARK   25  A    between atoms: N_30  and  C_31 
ROOT
HETATM    1  C   UNL     1     -22.923  -4.260 -12.280  1.00  0.00     0.165 C 
ENDROOT
BRANCH   1   2
HETATM    2  C   UNL     1     -21.737  -4.022 -11.389  1.00  0.00     0.003 C 
HETATM    3  C   UNL     1     -21.660  -4.438 -10.118  1.00  0.00    -0.028 C 
BRANCH   3   4
HETATM    4  C   UNL     1     -20.572  -4.097  -9.173  1.00  0.00     0.027 C 
BRANCH   4   5
HETATM    5  C   UNL     1     -20.347  -5.255  -8.210  1.00  0.00     0.004 C 
BRANCH   5   6
HETATM    6  C   UNL     1     -19.367  -4.813  -7.141  1.00  0.00     0.000 C 
BRANCH   6   7
HETATM    7  C   UNL     1     -20.068  -4.678  -5.804  1.00  0.00     0.000 C 
BRANCH   7   8
HETATM    8  C   UNL     1     -20.811  -5.963  -5.489  1.00  0.00     0.000 C 
BRANCH   8   9
HETATM    9  C   UNL     1     -21.222  -5.977  -4.029  1.00  0.00     0.000 C 
BRANCH   9  10
HETATM   10  C   UNL     1     -21.662  -7.373  -3.631  1.00  0.00     0.000 C 
BRANCH  10  11
HETATM   11  C   UNL     1     -20.529  -8.357  -3.861  1.00  0.00     0.000 C 
BRANCH  11  12
HETATM   12  C   UNL     1     -20.101  -8.973  -2.541  1.00  0.00     0.000 C 
BRANCH  12  13
HETATM   13  C   UNL     1     -18.891  -9.865  -2.753  1.00  0.00     0.000 C 
BRANCH  13  14
HETATM   14  C   UNL     1     -18.088  -9.384  -3.950  1.00  0.00    -0.000 C 
BRANCH  14  15
HETATM   15  C   UNL     1     -16.702 -10.013  -3.945  1.00  0.00    -0.005 C 
HETATM   16  C   UNL     1     -15.890  -9.477  -2.783  1.00  0.00     0.005 C 
ENDBRANCH  14  15
ENDBRANCH  13  14
ENDBRANCH  12  13
ENDBRANCH  11  12
ENDBRANCH  10  11
ENDBRANCH   9  10
ENDBRANCH   8   9
ENDBRANCH   7   8
ENDBRANCH   6   7
ENDBRANCH   5   6
ENDBRANCH   4   5
ENDBRANCH   3   4
ENDBRANCH   1   2
BRANCH   1  17
HETATM   17  C   UNL     1     -22.595  -5.038 -13.609  1.00  0.00     0.140 C 
BRANCH  17  18
HETATM   18  C   UNL     1     -23.737  -6.047 -13.994  1.00  0.00     0.208 C 
BRANCH  18  19
HETATM   19  O   UNL     1     -24.495  -5.604 -15.147  1.00  0.00    -0.295 OA
BRANCH  19  20
HETATM   20  P   UNL     1     -25.077  -6.720 -16.188  1.00  0.00     0.393 P 
HETATM   21  O   UNL     1     -24.099  -7.650 -16.749  1.00  0.00    -0.631 OA
BRANCH  20  22
HETATM   22  O   UNL     1     -26.167  -7.409 -15.251  1.00  0.00    -0.307 OA
HETATM   23  H   UNL     1     -26.284  -6.879 -14.431  1.00  0.00     0.222 HD
ENDBRANCH  20  22
BRANCH  20  24
HETATM   24  O   UNL     1     -26.020  -5.934 -17.240  1.00  0.00    -0.295 OA
BRANCH  24  25
HETATM   25  C   UNL     1     -27.300  -6.458 -17.611  1.00  0.00     0.208 C 
BRANCH  25  26
HETATM   26  C   UNL     1     -28.455  -5.482 -18.009  1.00  0.00     0.262 C 
BRANCH  26  27
HETATM   27  N   UNL     1     -29.735  -5.666 -17.154  1.00  0.00    -0.077 N 
HETATM   28  C   UNL     1     -30.516  -6.867 -17.650  1.00  0.00     0.271 C 
HETATM   29  C   UNL     1     -29.377  -5.836 -15.680  1.00  0.00     0.271 C 
HETATM   30  C   UNL     1     -30.637  -4.434 -17.292  1.00  0.00     0.271 C 
ENDBRANCH  26  27
ENDBRANCH  25  26
ENDBRANCH  24  25
ENDBRANCH  20  24
ENDBRANCH  19  20
ENDBRANCH  18  19
ENDBRANCH  17  18
BRANCH  17  31
HETATM   31  N   UNL     1     -22.326  -4.150 -14.775  1.00  0.00    -0.359 N 
HETATM   32  H   UNL     1     -22.011  -4.592 -15.631  1.00  0.00     0.162 HD
BRANCH  31  33
HETATM   33  C   UNL     1     -22.434  -2.785 -14.810  1.00  0.00     0.349 C 
HETATM   34  O   UNL     1     -23.373  -2.140 -15.188  1.00  0.00    -0.284 OA
ENDBRANCH  31  33
ENDBRANCH  17  31
ENDBRANCH   1  17
BRANCH   1  35
HETATM   35  O   UNL     1     -23.906  -4.915 -11.498  1.00  0.00    -0.390 OA
HETATM   36  H   UNL     1     -24.601  -5.257 -12.096  1.00  0.00     0.210 HD
ENDBRANCH   1  35
TORSDOF 25
BEGIN_RES ARG D 557
REMARK  4 active torsions:
REMARK  status: ('A' for Active; 'I' for Inactive)
REMARK    1  A    between atoms: CA   and  CB  
REMARK    2  A    between atoms: CB   and  CG  
REMARK    3  A    between atoms: CG   and  CD  
REMARK    4  A    between atoms: CD   and  NE  
REMARK       I    between atoms: NE   and  CZ  
REMARK       I    between atoms: CZ   and  NH1 
REMARK       I    between atoms: CZ   and  NH2 
ROOT
ATOM      1  CA  ARG D 557     -26.217   2.705 -17.014  1.00 35.49     0.159 C 
ENDROOT
BRANCH   1   2
ATOM      2  CB  ARG D 557     -26.789   1.319 -17.183  1.00 35.49     0.034 C 
BRANCH   2   3
ATOM      3  CG  ARG D 557     -25.978   0.204 -16.680  1.00 35.49     0.027 C 
BRANCH   3   4
ATOM      4  CD  ARG D 557     -26.807  -0.916 -16.179  1.00 35.49     0.116 C 
BRANCH   4   5
ATOM      5  NE  ARG D 557     -26.279  -1.481 -14.965  1.00 35.49    -0.212 N 
ATOM      6  CZ  ARG D 557     -26.307  -2.752 -14.634  1.00 35.49     0.666 C 
ATOM      7  NH1 ARG D 557     -26.854  -3.674 -15.404  1.00 35.49    -0.235 N 
ATOM      8  NH2 ARG D 557     -25.761  -3.089 -13.501  1.00 35.49    -0.235 N 
ATOM      9  HH  ARG D 557     -27.217  -3.475 -16.154  1.00 35.49     0.174 HD
ATOM     10  HH  ARG D 557     -26.840  -4.488 -15.137  1.00 35.49     0.174 HD
ATOM     11  HH  ARG D 557     -25.408  -2.473 -13.028  1.00 35.49     0.174 HD
ATOM     12  HH  ARG D 557     -25.755  -3.901 -13.255  1.00 35.49     0.174 HD
ATOM     13  HE  ARG D 557     -25.972  -0.948 -14.377  1.00 35.49     0.178 HD
ENDBRANCH   4   5
ENDBRANCH   3   4
ENDBRANCH   2   3
ENDBRANCH   1   2
END_RES ARG D 557
BEGIN_RES GLU D 570
REMARK  3 active torsions:
REMARK  status: ('A' for Active; 'I' for Inactive)
REMARK    5  A    between atoms: CA   and  CB  
REMARK    6  A    between atoms: CB   and  CG  
REMARK    7  A    between atoms: CG   and  CD  
ROOT
ATOM     14  CA  GLU D 570     -18.033  -6.348 -13.375  1.00 32.92     0.160 C 
ENDROOT
BRANCH  14  15
ATOM     15  CB  GLU D 570     -19.500  -6.345 -13.794  1.00 32.92     0.043 C 
BRANCH  15  16
ATOM     16  CG  GLU D 570     -20.096  -7.641 -14.209  1.00 32.92     0.100 C 
BRANCH  16  17
ATOM     17  CD  GLU D 570     -20.628  -7.620 -15.623  1.00 32.92     0.185 C 
ATOM     18  OE1 GLU D 570     -20.838  -8.700 -16.207  1.00 32.92    -0.647 OA
ATOM     19  OE2 GLU D 570     -20.821  -6.510 -16.158  1.00 32.92    -0.647 OA
ENDBRANCH  16  17
ENDBRANCH  15  16
ENDBRANCH  14  15
END_RES GLU D 570
ENDMDL
MODEL 7
REMARK VINA RESULT:      -7.8      1.750      2.680
REMARK  25 active torsions:
REMARK  status: ('A' for Active; 'I' for Inactive)
REMARK    1  A    between atoms: C_2  and  C_3 
REMARK    2  A    between atoms: C_3  and  C_4 
REMARK    3  A    between atoms: C_4  and  C_5 
REMARK    4  A    between atoms: C_5  and  C_6 
REMARK    5  A    between atoms: C_6  and  C_7 
REMARK    6  A    between atoms: C_7  and  C_8 
REMARK    7  A    between atoms: C_8  and  C_9 
REMARK    8  A    between atoms: C_9  and  C_10 
REMARK    9  A    between atoms: C_10  and  C_11 
REMARK   10  A    between atoms: C_11  and  C_12 
REMARK   11  A    between atoms: C_12  and  C_13 
REMARK   12  A    between atoms: C_13  and  C_14 
REMARK   13  A    between atoms: C_15  and  C_16 
REMARK   14  A    between atoms: C_16  and  C_17 
REMARK   15  A    between atoms: C_16  and  O_33 
REMARK   16  A    between atoms: C_17  and  C_18 
REMARK   17  A    between atoms: C_17  and  N_30 
REMARK   18  A    between atoms: C_18  and  O_19 
REMARK   19  A    between atoms: O_19  and  P_20 
REMARK   20  A    between atoms: P_20  and  O_22 
REMARK   21  A    between atoms: P_20  and  O_23 
REMARK   22  A    between atoms: O_23  and  C_24 
REMARK   23  A    between atoms: C_24  and  C_25 
REMARK   24  A    between atoms: C_25  and  N_26 
REMARK   25  A    between atoms: N_30  and  C_31 
ROOT
HETATM    1  C   UNL     1     -21.086  -4.430 -11.218  1.00  0.00     0.165 C 
ENDROOT
BRANCH   1   2
HETATM    2  C   UNL     1     -20.852  -4.664  -9.752  1.00  0.00     0.003 C 
HETATM    3  C   UNL     1     -19.838  -4.126  -9.061  1.00  0.00    -0.028 C 
BRANCH   3   4
HETATM    4  C   UNL     1     -19.497  -4.450  -7.657  1.00  0.00     0.027 C 
BRANCH   4   5
HETATM    5  C   UNL     1     -20.713  -4.225  -6.769  1.00  0.00     0.004 C 
BRANCH   5   6
HETATM    6  C   UNL     1     -20.509  -4.976  -5.467  1.00  0.00     0.000 C 
BRANCH   6   7
HETATM    7  C   UNL     1     -21.576  -6.038  -5.296  1.00  0.00     0.000 C 
BRANCH   7   8
HETATM    8  C   UNL     1     -21.198  -6.957  -4.149  1.00  0.00     0.000 C 
BRANCH   8   9
HETATM    9  C   UNL     1     -20.506  -8.195  -4.684  1.00  0.00     0.000 C 
BRANCH   9  10
HETATM   10  C   UNL     1     -19.656  -8.822  -3.595  1.00  0.00     0.000 C 
BRANCH  10  11
HETATM   11  C   UNL     1     -20.361  -8.705  -2.257  1.00  0.00     0.000 C 
BRANCH  11  12
HETATM   12  C   UNL     1     -21.065 -10.009  -1.927  1.00  0.00     0.000 C 
BRANCH  12  13
HETATM   13  C   UNL     1     -21.506 -10.007  -0.474  1.00  0.00     0.000 C 
BRANCH  13  14
HETATM   14  C   UNL     1     -22.972  -9.622  -0.370  1.00  0.00    -0.000 C 
BRANCH  14  15
HETATM   15  C   UNL     1     -23.125  -8.323   0.407  1.00  0.00    -0.005 C 
HETATM   16  C   UNL     1     -21.842  -8.003   1.147  1.00  0.00     0.005 C 
ENDBRANCH  14  15
ENDBRANCH  13  14
ENDBRANCH  12  13
ENDBRANCH  11  12
ENDBRANCH  10  11
ENDBRANCH   9  10
ENDBRANCH   8   9
ENDBRANCH   7   8
ENDBRANCH   6   7
ENDBRANCH   5   6
ENDBRANCH   4   5
ENDBRANCH   3   4
ENDBRANCH   1   2
BRANCH   1  17
HETATM   17  C   UNL     1     -22.537  -3.930 -11.575  1.00  0.00     0.140 C 
BRANCH  17  18
HETATM   18  C   UNL     1     -23.457  -5.107 -12.064  1.00  0.00     0.208 C 
BRANCH  18  19
HETATM   19  O   UNL     1     -22.986  -5.692 -13.303  1.00  0.00    -0.295 OA
BRANCH  19  20
HETATM   20  P   UNL     1     -23.777  -5.349 -14.691  1.00  0.00     0.393 P 
HETATM   21  O   UNL     1     -24.871  -4.384 -14.588  1.00  0.00    -0.631 OA
BRANCH  20  22
HETATM   22  O   UNL     1     -22.550  -4.849 -15.576  1.00  0.00    -0.307 OA
HETATM   23  H   UNL     1     -21.712  -5.231 -15.231  1.00  0.00     0.222 HD
ENDBRANCH  20  22
BRANCH  20  24
HETATM   24  O   UNL     1     -24.118  -6.762 -15.398  1.00  0.00    -0.295 OA
BRANCH  24  25
HETATM   25  C   UNL     1     -25.229  -6.885 -16.293  1.00  0.00     0.208 C 
BRANCH  25  26
HETATM   26  C   UNL     1     -26.674  -7.061 -15.722  1.00  0.00     0.262 C 
BRANCH  26  27
HETATM   27  N   UNL     1     -27.751  -6.294 -16.531  1.00  0.00    -0.077 N 
HETATM   28  C   UNL     1     -28.142  -5.028 -15.795  1.00  0.00     0.271 C 
HETATM   29  C   UNL     1     -27.237  -5.960 -17.928  1.00  0.00     0.271 C 
HETATM   30  C   UNL     1     -29.010  -7.158 -16.674  1.00  0.00     0.271 C 
ENDBRANCH  26  27
ENDBRANCH  25  26
ENDBRANCH  24  25
ENDBRANCH  20  24
ENDBRANCH  19  20
ENDBRANCH  18  19
ENDBRANCH  17  18
BRANCH  17  31
HETATM   31  N   UNL     1     -23.219  -3.219 -10.458  1.00  0.00    -0.359 N 
HETATM   32  H   UNL     1     -22.750  -2.410 -10.068  1.00  0.00     0.162 HD
BRANCH  31  33
HETATM   33  C   UNL     1     -24.414  -3.556  -9.879  1.00  0.00     0.349 C 
HETATM   34  O   UNL     1     -25.334  -2.826  -9.633  1.00  0.00    -0.284 OA
ENDBRANCH  31  33
ENDBRANCH  17  31
ENDBRANCH   1  17
BRANCH   1  35
HETATM   35  O   UNL     1     -20.081  -3.537 -11.662  1.00  0.00    -0.390 OA
HETATM   36  H   UNL     1     -20.033  -3.584 -12.638  1.00  0.00     0.210 HD
ENDBRANCH   1  35
TORSDOF 25
BEGIN_RES ARG D 557
REMARK  4 active torsions:
REMARK  status: ('A' for Active; 'I' for Inactive)
REMARK    1  A    between atoms: CA   and  CB  
REMARK    2  A    between atoms: CB   and  CG  
REMARK    3  A    between atoms: CG   and  CD  
REMARK    4  A    between atoms: CD   and  NE  
REMARK       I    between atoms: NE   and  CZ  
REMARK       I    between atoms: CZ   and  NH1 
REMARK       I    between atoms: CZ   and  NH2 
ROOT
ATOM      1  CA  ARG D 557     -26.217   2.705 -17.014  1.00 35.49     0.159 C 
ENDROOT
BRANCH   1   2
ATOM      2  CB  ARG D 557     -26.789   1.319 -17.183  1.00 35.49     0.034 C 
BRANCH   2   3
ATOM      3  CG  ARG D 557     -25.832   0.206 -17.189  1.00 35.49     0.027 C 
BRANCH   3   4
ATOM      4  CD  ARG D 557     -24.668   0.457 -16.309  1.00 35.49     0.116 C 
BRANCH   4   5
ATOM      5  NE  ARG D 557     -24.761  -0.267 -15.068  1.00 35.49    -0.212 N 
ATOM      6  CZ  ARG D 557     -23.980  -1.257 -14.697  1.00 35.49     0.666 C 
ATOM      7  NH1 ARG D 557     -23.005  -1.715 -15.459  1.00 35.49    -0.235 N 
ATOM      8  NH2 ARG D 557     -24.195  -1.784 -13.526  1.00 35.49    -0.235 N 
ATOM      9  HH  ARG D 557     -22.844  -1.382 -16.232  1.00 35.49     0.174 HD
ATOM     10  HH  ARG D 557     -22.526  -2.362 -15.163  1.00 35.49     0.174 HD
ATOM     11  HH  ARG D 557     -24.828  -1.463 -13.053  1.00 35.49     0.174 HD
ATOM     12  HH  ARG D 557     -23.710  -2.422 -13.251  1.00 35.49     0.174 HD
ATOM     13  HE  ARG D 557     -25.408  -0.086 -14.547  1.00 35.49     0.178 HD
ENDBRANCH   4   5
ENDBRANCH   3   4
ENDBRANCH   2   3
ENDBRANCH   1   2
END_RES ARG D 557
BEGIN_RES GLU D 570
REMARK  3 active torsions:
REMARK  status: ('A' for Active; 'I' for Inactive)
REMARK    5  A    between atoms: CA   and  CB  
REMARK    6  A    between atoms: CB   and  CG  
REMARK    7  A    between atoms: CG   and  CD  
ROOT
ATOM     14  CA  GLU D 570     -18.033  -6.348 -13.375  1.00 32.92     0.160 C 
ENDROOT
BRANCH  14  15
ATOM     15  CB  GLU D 570     -19.500  -6.345 -13.794  1.00 32.92     0.043 C 
BRANCH  15  16
ATOM     16  CG  GLU D 570     -20.094  -7.640 -14.217  1.00 32.92     0.100 C 
BRANCH  16  17
ATOM     17  CD  GLU D 570     -20.655  -7.600 -15.619  1.00 32.92     0.185 C 
ATOM     18  OE1 GLU D 570     -21.308  -8.576 -16.037  1.00 32.92    -0.647 OA
ATOM     19  OE2 GLU D 570     -20.426  -6.590 -16.313  1.00 32.92    -0.647 OA
ENDBRANCH  16  17
ENDBRANCH  15  16
ENDBRANCH  14  15
END_RES GLU D 570
ENDMDL
MODEL 8
REMARK VINA RESULT:      -7.3      5.822     10.669
REMARK  25 active torsions:
REMARK  status: ('A' for Active; 'I' for Inactive)
REMARK    1  A    between atoms: C_2  and  C_3 
REMARK    2  A    between atoms: C_3  and  C_4 
REMARK    3  A    between atoms: C_4  and  C_5 
REMARK    4  A    between atoms: C_5  and  C_6 
REMARK    5  A    between atoms: C_6  and  C_7 
REMARK    6  A    between atoms: C_7  and  C_8 
REMARK    7  A    between atoms: C_8  and  C_9 
REMARK    8  A    between atoms: C_9  and  C_10 
REMARK    9  A    between atoms: C_10  and  C_11 
REMARK   10  A    between atoms: C_11  and  C_12 
REMARK   11  A    between atoms: C_12  and  C_13 
REMARK   12  A    between atoms: C_13  and  C_14 
REMARK   13  A    between atoms: C_15  and  C_16 
REMARK   14  A    between atoms: C_16  and  C_17 
REMARK   15  A    between atoms: C_16  and  O_33 
REMARK   16  A    between atoms: C_17  and  C_18 
REMARK   17  A    between atoms: C_17  and  N_30 
REMARK   18  A    between atoms: C_18  and  O_19 
REMARK   19  A    between atoms: O_19  and  P_20 
REMARK   20  A    between atoms: P_20  and  O_22 
REMARK   21  A    between atoms: P_20  and  O_23 
REMARK   22  A    between atoms: O_23  and  C_24 
REMARK   23  A    between atoms: C_24  and  C_25 
REMARK   24  A    between atoms: C_25  and  N_26 
REMARK   25  A    between atoms: N_30  and  C_31 
ROOT
HETATM    1  C   UNL     1     -30.497  -5.490 -16.875  1.00  0.00     0.165 C 
ENDROOT
BRANCH   1   2
HETATM    2  C   UNL     1     -31.308  -4.266 -17.192  1.00  0.00     0.003 C 
HETATM    3  C   UNL     1     -32.616  -4.145 -16.925  1.00  0.00    -0.028 C 
BRANCH   3   4
HETATM    4  C   UNL     1     -33.472  -3.015 -17.352  1.00  0.00     0.027 C 
BRANCH   4   5
HETATM    5  C   UNL     1     -34.574  -2.789 -16.325  1.00  0.00     0.004 C 
BRANCH   5   6
HETATM    6  C   UNL     1     -35.546  -1.763 -16.874  1.00  0.00     0.000 C 
BRANCH   6   7
HETATM    7  C   UNL     1     -35.306  -0.411 -16.233  1.00  0.00     0.000 C 
BRANCH   7   8
HETATM    8  C   UNL     1     -35.858  -0.414 -14.820  1.00  0.00     0.000 C 
BRANCH   8   9
HETATM    9  C   UNL     1     -35.023   0.493 -13.937  1.00  0.00     0.000 C 
BRANCH   9  10
HETATM   10  C   UNL     1     -34.857  -0.133 -12.565  1.00  0.00     0.000 C 
BRANCH  10  11
HETATM   11  C   UNL     1     -34.884  -1.646 -12.680  1.00  0.00     0.000 C 
BRANCH  11  12
HETATM   12  C   UNL     1     -35.336  -2.258 -11.367  1.00  0.00     0.000 C 
BRANCH  12  13
HETATM   13  C   UNL     1     -34.129  -2.667 -10.543  1.00  0.00     0.000 C 
BRANCH  13  14
HETATM   14  C   UNL     1     -33.071  -3.294 -11.436  1.00  0.00    -0.000 C 
BRANCH  14  15
HETATM   15  C   UNL     1     -33.343  -4.780 -11.617  1.00  0.00    -0.005 C 
HETATM   16  C   UNL     1     -34.094  -5.323 -10.417  1.00  0.00     0.005 C 
ENDBRANCH  14  15
ENDBRANCH  13  14
ENDBRANCH  12  13
ENDBRANCH  11  12
ENDBRANCH  10  11
ENDBRANCH   9  10
ENDBRANCH   8   9
ENDBRANCH   7   8
ENDBRANCH   6   7
ENDBRANCH   5   6
ENDBRANCH   4   5
ENDBRANCH   3   4
ENDBRANCH   1   2
BRANCH   1  17
HETATM   17  C   UNL     1     -29.151  -5.607 -17.684  1.00  0.00     0.140 C 
BRANCH  17  18
HETATM   18  C   UNL     1     -27.913  -5.150 -16.829  1.00  0.00     0.208 C 
BRANCH  18  19
HETATM   19  O   UNL     1     -26.659  -5.616 -17.387  1.00  0.00    -0.295 OA
BRANCH  19  20
HETATM   20  P   UNL     1     -25.623  -6.438 -16.428  1.00  0.00     0.393 P 
HETATM   21  O   UNL     1     -24.931  -5.655 -15.406  1.00  0.00    -0.631 OA
BRANCH  20  22
HETATM   22  O   UNL     1     -26.621  -7.534 -15.842  1.00  0.00    -0.307 OA
HETATM   23  H   UNL     1     -27.365  -7.091 -15.375  1.00  0.00     0.222 HD
ENDBRANCH  20  22
BRANCH  20  24
HETATM   24  O   UNL     1     -24.701  -7.342 -17.400  1.00  0.00    -0.295 OA
BRANCH  24  25
HETATM   25  C   UNL     1     -24.249  -6.837 -18.661  1.00  0.00     0.208 C 
BRANCH  25  26
HETATM   26  C   UNL     1     -24.106  -7.804 -19.882  1.00  0.00     0.262 C 
BRANCH  26  27
HETATM   27  N   UNL     1     -24.995  -7.406 -21.087  1.00  0.00    -0.077 N 
HETATM   28  C   UNL     1     -25.406  -5.952 -20.964  1.00  0.00     0.271 C 
HETATM   29  C   UNL     1     -24.255  -7.640 -22.401  1.00  0.00     0.271 C 
HETATM   30  C   UNL     1     -26.273  -8.253 -21.096  1.00  0.00     0.271 C 
ENDBRANCH  26  27
ENDBRANCH  25  26
ENDBRANCH  24  25
ENDBRANCH  20  24
ENDBRANCH  19  20
ENDBRANCH  18  19
ENDBRANCH  17  18
BRANCH  17  31
HETATM   31  N   UNL     1     -28.887  -6.972 -18.219  1.00  0.00    -0.359 N 
HETATM   32  H   UNL     1     -27.926  -7.208 -18.435  1.00  0.00     0.162 HD
BRANCH  31  33
HETATM   33  C   UNL     1     -29.815  -7.947 -18.476  1.00  0.00     0.349 C 
HETATM   34  O   UNL     1     -29.754  -8.807 -19.311  1.00  0.00    -0.284 OA
ENDBRANCH  31  33
ENDBRANCH  17  31
ENDBRANCH   1  17
BRANCH   1  35
HETATM   35  O   UNL     1     -30.290  -5.502 -15.474  1.00  0.00    -0.390 OA
HETATM   36  H   UNL     1     -31.134  -5.733 -15.037  1.00  0.00     0.210 HD
ENDBRANCH   1  35
TORSDOF 25
BEGIN_RES ARG D 557
REMARK  4 active torsions:
REMARK  status: ('A' for Active; 'I' for Inactive)
REMARK    1  A    between atoms: CA   and  CB  
REMARK    2  A    between atoms: CB   and  CG  
REMARK    3  A    between atoms: CG   and  CD  
REMARK    4  A    between atoms: CD   and  NE  
REMARK       I    between atoms: NE   and  CZ  
REMARK       I    between atoms: CZ   and  NH1 
REMARK       I    between atoms: CZ   and  NH2 
ROOT
ATOM      1  CA  ARG D 557     -26.217   2.705 -17.014  1.00 35.49     0.159 C 
ENDROOT
BRANCH   1   2
ATOM      2  CB  ARG D 557     -26.789   1.319 -17.183  1.00 35.49     0.034 C 
BRANCH   2   3
ATOM      3  CG  ARG D 557     -26.045   0.217 -16.562  1.00 35.49     0.027 C 
BRANCH   3   4
ATOM      4  CD  ARG D 557     -26.922  -0.915 -16.186  1.00 35.49     0.116 C 
BRANCH   4   5
ATOM      5  NE  ARG D 557     -26.190  -1.985 -15.562  1.00 35.49    -0.212 N 
ATOM      6  CZ  ARG D 557     -25.153  -1.845 -14.766  1.00 35.49     0.666 C 
ATOM      7  NH1 ARG D 557     -24.651  -0.663 -14.458  1.00 35.49    -0.235 N 
ATOM      8  NH2 ARG D 557     -24.625  -2.926 -14.272  1.00 35.49    -0.235 N 
ATOM      9  HH  ARG D 557     -24.984   0.062 -14.770  1.00 35.49     0.174 HD
ATOM     10  HH  ARG D 557     -23.975  -0.633 -13.932  1.00 35.49     0.174 HD
ATOM     11  HH  ARG D 557     -24.975  -3.675 -14.482  1.00 35.49     0.174 HD
ATOM     12  HH  ARG D 557     -23.957  -2.876 -13.751  1.00 35.49     0.174 HD
ATOM     13  HE  ARG D 557     -26.400  -2.784 -15.763  1.00 35.49     0.178 HD
ENDBRANCH   4   5
ENDBRANCH   3   4
ENDBRANCH   2   3
ENDBRANCH   1   2
END_RES ARG D 557
BEGIN_RES GLU D 570
REMARK  3 active torsions:
REMARK  status: ('A' for Active; 'I' for Inactive)
REMARK    5  A    between atoms: CA   and  CB  
REMARK    6  A    between atoms: CB   and  CG  
REMARK    7  A    between atoms: CG   and  CD  
ROOT
ATOM     14  CA  GLU D 570     -18.033  -6.348 -13.375  1.00 32.92     0.160 C 
ENDROOT
BRANCH  14  15
ATOM     15  CB  GLU D 570     -19.500  -6.345 -13.794  1.00 32.92     0.043 C 
BRANCH  15  16
ATOM     16  CG  GLU D 570     -20.438  -5.514 -12.996  1.00 32.92     0.100 C 
BRANCH  16  17
ATOM     17  CD  GLU D 570     -21.707  -5.175 -13.743  1.00 32.92     0.185 C 
ATOM     18  OE1 GLU D 570     -22.783  -5.126 -13.118  1.00 32.92    -0.647 OA
ATOM     19  OE2 GLU D 570     -21.626  -4.972 -14.971  1.00 32.92    -0.647 OA
ENDBRANCH  16  17
ENDBRANCH  15  16
ENDBRANCH  14  15
END_RES GLU D 570
ENDMDL
MODEL 9
REMARK VINA RESULT:      -7.1      3.904     11.595
REMARK  25 active torsions:
REMARK  status: ('A' for Active; 'I' for Inactive)
REMARK    1  A    between atoms: C_2  and  C_3 
REMARK    2  A    between atoms: C_3  and  C_4 
REMARK    3  A    between atoms: C_4  and  C_5 
REMARK    4  A    between atoms: C_5  and  C_6 
REMARK    5  A    between atoms: C_6  and  C_7 
REMARK    6  A    between atoms: C_7  and  C_8 
REMARK    7  A    between atoms: C_8  and  C_9 
REMARK    8  A    between atoms: C_9  and  C_10 
REMARK    9  A    between atoms: C_10  and  C_11 
REMARK   10  A    between atoms: C_11  and  C_12 
REMARK   11  A    between atoms: C_12  and  C_13 
REMARK   12  A    between atoms: C_13  and  C_14 
REMARK   13  A    between atoms: C_15  and  C_16 
REMARK   14  A    between atoms: C_16  and  C_17 
REMARK   15  A    between atoms: C_16  and  O_33 
REMARK   16  A    between atoms: C_17  and  C_18 
REMARK   17  A    between atoms: C_17  and  N_30 
REMARK   18  A    between atoms: C_18  and  O_19 
REMARK   19  A    between atoms: O_19  and  P_20 
REMARK   20  A    between atoms: P_20  and  O_22 
REMARK   21  A    between atoms: P_20  and  O_23 
REMARK   22  A    between atoms: O_23  and  C_24 
REMARK   23  A    between atoms: C_24  and  C_25 
REMARK   24  A    between atoms: C_25  and  N_26 
REMARK   25  A    between atoms: N_30  and  C_31 
ROOT
HETATM    1  C   UNL     1     -21.820  -3.896 -10.418  1.00  0.00     0.165 C 
ENDROOT
BRANCH   1   2
HETATM    2  C   UNL     1     -21.879  -4.673 -11.702  1.00  0.00     0.003 C 
HETATM    3  C   UNL     1     -22.442  -4.216 -12.829  1.00  0.00    -0.028 C 
BRANCH   3   4
HETATM    4  C   UNL     1     -22.645  -5.008 -14.063  1.00  0.00     0.027 C 
BRANCH   4   5
HETATM    5  C   UNL     1     -23.807  -5.973 -13.867  1.00  0.00     0.004 C 
BRANCH   5   6
HETATM    6  C   UNL     1     -24.222  -6.514 -15.222  1.00  0.00     0.000 C 
BRANCH   6   7
HETATM    7  C   UNL     1     -25.583  -5.974 -15.613  1.00  0.00     0.000 C 
BRANCH   7   8
HETATM    8  C   UNL     1     -26.569  -7.121 -15.728  1.00  0.00     0.000 C 
BRANCH   8   9
HETATM    9  C   UNL     1     -27.988  -6.589 -15.677  1.00  0.00     0.000 C 
BRANCH   9  10
HETATM   10  C   UNL     1     -28.070  -5.267 -16.416  1.00  0.00     0.000 C 
BRANCH  10  11
HETATM   11  C   UNL     1     -29.017  -5.391 -17.596  1.00  0.00     0.000 C 
BRANCH  11  12
HETATM   12  C   UNL     1     -28.513  -6.456 -18.554  1.00  0.00     0.000 C 
BRANCH  12  13
HETATM   13  C   UNL     1     -27.204  -6.011 -19.182  1.00  0.00     0.000 C 
BRANCH  13  14
HETATM   14  C   UNL     1     -26.809  -6.959 -20.302  1.00  0.00    -0.000 C 
BRANCH  14  15
HETATM   15  C   UNL     1     -25.381  -6.686 -20.748  1.00  0.00    -0.005 C 
HETATM   16  C   UNL     1     -24.835  -7.878 -21.509  1.00  0.00     0.005 C 
ENDBRANCH  14  15
ENDBRANCH  13  14
ENDBRANCH  12  13
ENDBRANCH  11  12
ENDBRANCH  10  11
ENDBRANCH   9  10
ENDBRANCH   8   9
ENDBRANCH   7   8
ENDBRANCH   6   7
ENDBRANCH   5   6
ENDBRANCH   4   5
ENDBRANCH   3   4
ENDBRANCH   1   2
BRANCH   1  17
HETATM   17  C   UNL     1     -22.553  -4.583  -9.205  1.00  0.00     0.140 C 
BRANCH  17  18
HETATM   18  C   UNL     1     -21.895  -4.197  -7.830  1.00  0.00     0.208 C 
BRANCH  18  19
HETATM   19  O   UNL     1     -22.431  -4.972  -6.730  1.00  0.00    -0.295 OA
BRANCH  19  20
HETATM   20  P   UNL     1     -21.409  -5.860  -5.815  1.00  0.00     0.393 P 
HETATM   21  O   UNL     1     -20.927  -7.105  -6.411  1.00  0.00    -0.631 OA
BRANCH  20  22
HETATM   22  O   UNL     1     -20.269  -4.774  -5.567  1.00  0.00    -0.307 OA
HETATM   23  H   UNL     1     -19.385  -5.203  -5.614  1.00  0.00     0.222 HD
ENDBRANCH  20  22
BRANCH  20  24
HETATM   24  O   UNL     1     -22.068  -5.966  -4.343  1.00  0.00    -0.295 OA
BRANCH  24  25
HETATM   25  C   UNL     1     -21.369  -6.609  -3.271  1.00  0.00     0.208 C 
BRANCH  25  26
HETATM   26  C   UNL     1     -22.099  -6.875  -1.914  1.00  0.00     0.262 C 
BRANCH  26  27
HETATM   27  N   UNL     1     -21.538  -8.099  -1.146  1.00  0.00    -0.077 N 
HETATM   28  C   UNL     1     -20.042  -8.206  -1.372  1.00  0.00     0.271 C 
HETATM   29  C   UNL     1     -21.844  -7.986   0.344  1.00  0.00     0.271 C 
HETATM   30  C   UNL     1     -22.182  -9.386  -1.674  1.00  0.00     0.271 C 
ENDBRANCH  26  27
ENDBRANCH  25  26
ENDBRANCH  24  25
ENDBRANCH  20  24
ENDBRANCH  19  20
ENDBRANCH  18  19
ENDBRANCH  17  18
BRANCH  17  31
HETATM   31  N   UNL     1     -24.011  -4.290  -9.139  1.00  0.00    -0.359 N 
HETATM   32  H   UNL     1     -24.596  -4.956  -8.648  1.00  0.00     0.162 HD
BRANCH  31  33
HETATM   33  C   UNL     1     -24.660  -3.219  -9.695  1.00  0.00     0.349 C 
HETATM   34  O   UNL     1     -25.245  -3.187 -10.742  1.00  0.00    -0.284 OA
ENDBRANCH  31  33
ENDBRANCH  17  31
ENDBRANCH   1  17
BRANCH   1  35
HETATM   35  O   UNL     1     -20.453  -3.638 -10.150  1.00  0.00    -0.390 OA
HETATM   36  H   UNL     1     -20.139  -2.949 -10.770  1.00  0.00     0.210 HD
ENDBRANCH   1  35
TORSDOF 25
BEGIN_RES ARG D 557
REMARK  4 active torsions:
REMARK  status: ('A' for Active; 'I' for Inactive)
REMARK    1  A    between atoms: CA   and  CB  
REMARK    2  A    between atoms: CB   and  CG  
REMARK    3  A    between atoms: CG   and  CD  
REMARK    4  A    between atoms: CD   and  NE  
REMARK       I    between atoms: NE   and  CZ  
REMARK       I    between atoms: CZ   and  NH1 
REMARK       I    between atoms: CZ   and  NH2 
ROOT
ATOM      1  CA  ARG D 557     -26.217   2.705 -17.014  1.00 35.49     0.159 C 
ENDROOT
BRANCH   1   2
ATOM      2  CB  ARG D 557     -26.789   1.319 -17.183  1.00 35.49     0.034 C 
BRANCH   2   3
ATOM      3  CG  ARG D 557     -25.837   0.202 -17.144  1.00 35.49     0.027 C 
BRANCH   3   4
ATOM      4  CD  ARG D 557     -24.736   0.433 -16.181  1.00 35.49     0.116 C 
BRANCH   4   5
ATOM      5  NE  ARG D 557     -24.872  -0.373 -14.997  1.00 35.49    -0.212 N 
ATOM      6  CZ  ARG D 557     -24.082  -1.362 -14.645  1.00 35.49     0.666 C 
ATOM      7  NH1 ARG D 557     -23.051  -1.740 -15.378  1.00 35.49    -0.235 N 
ATOM      8  NH2 ARG D 557     -24.343  -1.970 -13.525  1.00 35.49    -0.235 N 
ATOM      9  HH  ARG D 557     -22.859  -1.353 -16.118  1.00 35.49     0.174 HD
ATOM     10  HH  ARG D 557     -22.568  -2.390 -15.097  1.00 35.49     0.174 HD
ATOM     11  HH  ARG D 557     -25.011  -1.700 -13.069  1.00 35.49     0.174 HD
ATOM     12  HH  ARG D 557     -23.853  -2.611 -13.263  1.00 35.49     0.174 HD
ATOM     13  HE  ARG D 557     -25.553  -0.245 -14.503  1.00 35.49     0.178 HD
ENDBRANCH   4   5
ENDBRANCH   3   4
ENDBRANCH   2   3
ENDBRANCH   1   2
END_RES ARG D 557
BEGIN_RES GLU D 570
REMARK  3 active torsions:
REMARK  status: ('A' for Active; 'I' for Inactive)
REMARK    5  A    between atoms: CA   and  CB  
REMARK    6  A    between atoms: CB   and  CG  
REMARK    7  A    between atoms: CG   and  CD  
ROOT
ATOM     14  CA  GLU D 570     -18.033  -6.348 -13.375  1.00 32.92     0.160 C 
ENDROOT
BRANCH  14  15
ATOM     15  CB  GLU D 570     -19.500  -6.345 -13.794  1.00 32.92     0.043 C 
BRANCH  15  16
ATOM     16  CG  GLU D 570     -20.086  -7.634 -14.242  1.00 32.92     0.100 C 
BRANCH  16  17
ATOM     17  CD  GLU D 570     -20.629  -7.577 -15.652  1.00 32.92     0.185 C 
ATOM     18  OE1 GLU D 570     -20.478  -6.533 -16.316  1.00 32.92    -0.647 OA
ATOM     19  OE2 GLU D 570     -21.225  -8.580 -16.090  1.00 32.92    -0.647 OA
ENDBRANCH  16  17
ENDBRANCH  15  16
ENDBRANCH  14  15
END_RES GLU D 570
ENDMDL
