MODEL 1
REMARK VINA RESULT:      -6.3      0.000      0.000
REMARK  22 active torsions:
REMARK  status: ('A' for Active; 'I' for Inactive)
REMARK    1  A    between atoms: C_2  and  C_3 
REMARK    2  A    between atoms: C_3  and  C_4 
REMARK    3  A    between atoms: C_4  and  C_5 
REMARK    4  A    between atoms: C_5  and  C_6 
REMARK    5  A    between atoms: C_6  and  C_7 
REMARK    6  A    between atoms: C_7  and  C_8 
REMARK    7  A    between atoms: C_8  and  C_9 
REMARK    8  A    between atoms: C_10  and  C_11 
REMARK    9  A    between atoms: C_11  and  C_12 
REMARK   10  A    between atoms: C_12  and  C_13 
REMARK   11  A    between atoms: C_13  and  C_14 
REMARK   12  A    between atoms: C_14  and  C_15 
REMARK   13  A    between atoms: C_15  and  C_16 
REMARK   14  A    between atoms: C_16  and  C_17 
REMARK   15  A    between atoms: C_17  and  C_18 
REMARK   16  A    between atoms: C_18  and  O_19 
REMARK   17  A    between atoms: O_19  and  C_20 
REMARK   18  A    between atoms: C_20  and  C_21 
REMARK   19  A    between atoms: C_21  and  O_22 
REMARK   20  A    between atoms: O_22  and  C_23 
REMARK   21  A    between atoms: C_23  and  C_24 
REMARK   22  A    between atoms: C_24  and  O_25 
ROOT
HETATM    1  C   UNL     1     -22.148  -6.774  -4.415  1.00  0.00     0.000 C 
ENDROOT
BRANCH   1   2
HETATM    2  C   UNL     1     -21.264  -6.505  -3.203  1.00  0.00     0.004 C 
BRANCH   2   3
HETATM    3  C   UNL     1     -22.079  -5.946  -2.040  1.00  0.00     0.027 C 
BRANCH   3   4
HETATM    4  C   UNL     1     -22.454  -7.025  -1.085  1.00  0.00    -0.031 C 
HETATM    5  C   UNL     1     -21.549  -7.857  -0.557  1.00  0.00    -0.031 C 
BRANCH   5   6
HETATM    6  C   UNL     1     -21.921  -8.933   0.406  1.00  0.00     0.027 C 
BRANCH   6   7
HETATM    7  C   UNL     1     -23.292  -9.493   0.059  1.00  0.00     0.004 C 
BRANCH   7   8
HETATM    8  C   UNL     1     -23.155 -10.926  -0.438  1.00  0.00     0.000 C 
BRANCH   8   9
HETATM    9  C   UNL     1     -23.063 -10.954  -1.955  1.00  0.00     0.000 C 
BRANCH   9  10
HETATM   10  C   UNL     1     -21.623 -11.181  -2.394  1.00  0.00     0.000 C 
BRANCH  10  11
HETATM   11  C   UNL     1     -21.246 -10.205  -3.501  1.00  0.00    -0.000 C 
BRANCH  11  12
HETATM   12  C   UNL     1     -19.813  -9.715  -3.326  1.00  0.00    -0.005 C 
HETATM   13  C   UNL     1     -19.212  -9.331  -4.665  1.00  0.00     0.005 C 
ENDBRANCH  11  12
ENDBRANCH  10  11
ENDBRANCH   9  10
ENDBRANCH   8   9
ENDBRANCH   7   8
ENDBRANCH   6   7
ENDBRANCH   5   6
ENDBRANCH   3   4
ENDBRANCH   2   3
ENDBRANCH   1   2
BRANCH   1  14
HETATM   14  C   UNL     1     -21.506  -6.256  -5.696  1.00  0.00     0.000 C 
BRANCH  14  15
HETATM   15  C   UNL     1     -20.521  -5.141  -5.403  1.00  0.00     0.000 C 
BRANCH  15  16
HETATM   16  C   UNL     1     -20.117  -4.457  -6.704  1.00  0.00     0.002 C 
BRANCH  16  17
HETATM   17  C   UNL     1     -21.294  -3.748  -7.334  1.00  0.00     0.026 C 
BRANCH  17  18
HETATM   18  C   UNL     1     -21.414  -4.150  -8.802  1.00  0.00     0.167 C 
BRANCH  18  19
HETATM   19  O   UNL     1     -22.746  -3.877  -9.216  1.00  0.00    -0.389 OA
BRANCH  19  20
HETATM   20  C   UNL     1     -22.879  -4.110 -10.613  1.00  0.00     0.193 C 
BRANCH  20  21
HETATM   21  C   UNL     1     -22.349  -2.911 -11.372  1.00  0.00     0.193 C 
BRANCH  21  22
HETATM   22  O   UNL     1     -22.563  -3.116 -12.767  1.00  0.00    -0.387 OA
BRANCH  22  23
HETATM   23  C   UNL     1     -22.468  -4.505 -13.084  1.00  0.00     0.193 C 
BRANCH  23  24
HETATM   24  C   UNL     1     -22.813  -4.697 -14.555  1.00  0.00     0.190 C 
BRANCH  24  25
HETATM   25  O   UNL     1     -21.871  -4.025 -15.389  1.00  0.00    -0.399 OA
HETATM   26  H   UNL     1     -21.226  -3.628 -14.773  1.00  0.00     0.209 HD
ENDBRANCH  24  25
ENDBRANCH  23  24
ENDBRANCH  22  23
ENDBRANCH  21  22
ENDBRANCH  20  21
ENDBRANCH  19  20
ENDBRANCH  18  19
ENDBRANCH  17  18
ENDBRANCH  16  17
ENDBRANCH  15  16
ENDBRANCH  14  15
ENDBRANCH   1  14
TORSDOF 22
BEGIN_RES ARG D 557
REMARK  4 active torsions:
REMARK  status: ('A' for Active; 'I' for Inactive)
REMARK    1  A    between atoms: CA   and  CB  
REMARK    2  A    between atoms: CB   and  CG  
REMARK    3  A    between atoms: CG   and  CD  
REMARK    4  A    between atoms: CD   and  NE  
REMARK       I    between atoms: NE   and  CZ  
REMARK       I    between atoms: CZ   and  NH1 
REMARK       I    between atoms: CZ   and  NH2 
ROOT
ATOM      1  CA  ARG D 557     -26.217   2.705 -17.014  1.00 35.49     0.159 C 
ENDROOT
BRANCH   1   2
ATOM      2  CB  ARG D 557     -26.789   1.319 -17.183  1.00 35.49     0.034 C 
BRANCH   2   3
ATOM      3  CG  ARG D 557     -25.949   0.199 -16.742  1.00 35.49     0.027 C 
BRANCH   3   4
ATOM      4  CD  ARG D 557     -26.746  -0.928 -16.206  1.00 35.49     0.116 C 
BRANCH   4   5
ATOM      5  NE  ARG D 557     -26.210  -1.432 -14.969  1.00 35.49    -0.212 N 
ATOM      6  CZ  ARG D 557     -26.176  -2.694 -14.604  1.00 35.49     0.666 C 
ATOM      7  NH1 ARG D 557     -26.661  -3.663 -15.358  1.00 35.49    -0.235 N 
ATOM      8  NH2 ARG D 557     -25.633  -2.972 -13.455  1.00 35.49    -0.235 N 
ATOM      9  HH  ARG D 557     -27.021  -3.503 -16.119  1.00 35.49     0.174 HD
ATOM     10  HH  ARG D 557     -26.608  -4.468 -15.070  1.00 35.49     0.174 HD
ATOM     11  HH  ARG D 557     -25.322  -2.326 -12.993  1.00 35.49     0.174 HD
ATOM     12  HH  ARG D 557     -25.589  -3.775 -13.187  1.00 35.49     0.174 HD
ATOM     13  HE  ARG D 557     -25.943  -0.868 -14.391  1.00 35.49     0.178 HD
ENDBRANCH   4   5
ENDBRANCH   3   4
ENDBRANCH   2   3
ENDBRANCH   1   2
END_RES ARG D 557
BEGIN_RES GLU D 570
REMARK  3 active torsions:
REMARK  status: ('A' for Active; 'I' for Inactive)
REMARK    5  A    between atoms: CA   and  CB  
REMARK    6  A    between atoms: CB   and  CG  
REMARK    7  A    between atoms: CG   and  CD  
ROOT
ATOM     14  CA  GLU D 570     -18.033  -6.348 -13.375  1.00 32.92     0.160 C 
ENDROOT
BRANCH  14  15
ATOM     15  CB  GLU D 570     -19.500  -6.345 -13.794  1.00 32.92     0.043 C 
BRANCH  15  16
ATOM     16  CG  GLU D 570     -20.085  -7.634 -14.246  1.00 32.92     0.100 C 
BRANCH  16  17
ATOM     17  CD  GLU D 570     -20.642  -7.568 -15.649  1.00 32.92     0.185 C 
ATOM     18  OE1 GLU D 570     -21.229  -8.564 -16.114  1.00 32.92    -0.647 OA
ATOM     19  OE2 GLU D 570     -20.475  -6.516 -16.296  1.00 32.92    -0.647 OA
ENDBRANCH  16  17
ENDBRANCH  15  16
ENDBRANCH  14  15
END_RES GLU D 570
ENDMDL
MODEL 2
REMARK VINA RESULT:      -6.3      1.888      3.675
REMARK  22 active torsions:
REMARK  status: ('A' for Active; 'I' for Inactive)
REMARK    1  A    between atoms: C_2  and  C_3 
REMARK    2  A    between atoms: C_3  and  C_4 
REMARK    3  A    between atoms: C_4  and  C_5 
REMARK    4  A    between atoms: C_5  and  C_6 
REMARK    5  A    between atoms: C_6  and  C_7 
REMARK    6  A    between atoms: C_7  and  C_8 
REMARK    7  A    between atoms: C_8  and  C_9 
REMARK    8  A    between atoms: C_10  and  C_11 
REMARK    9  A    between atoms: C_11  and  C_12 
REMARK   10  A    between atoms: C_12  and  C_13 
REMARK   11  A    between atoms: C_13  and  C_14 
REMARK   12  A    between atoms: C_14  and  C_15 
REMARK   13  A    between atoms: C_15  and  C_16 
REMARK   14  A    between atoms: C_16  and  C_17 
REMARK   15  A    between atoms: C_17  and  C_18 
REMARK   16  A    between atoms: C_18  and  O_19 
REMARK   17  A    between atoms: O_19  and  C_20 
REMARK   18  A    between atoms: C_20  and  C_21 
REMARK   19  A    between atoms: C_21  and  O_22 
REMARK   20  A    between atoms: O_22  and  C_23 
REMARK   21  A    between atoms: C_23  and  C_24 
REMARK   22  A    between atoms: C_24  and  O_25 
ROOT
HETATM    1  C   UNL     1     -20.431  -4.840  -8.055  1.00  0.00     0.000 C 
ENDROOT
BRANCH   1   2
HETATM    2  C   UNL     1     -20.797  -5.925  -7.049  1.00  0.00     0.004 C 
BRANCH   2   3
HETATM    3  C   UNL     1     -21.087  -5.327  -5.675  1.00  0.00     0.027 C 
BRANCH   3   4
HETATM    4  C   UNL     1     -21.623  -6.359  -4.747  1.00  0.00    -0.031 C 
HETATM    5  C   UNL     1     -20.831  -7.070  -3.935  1.00  0.00    -0.031 C 
BRANCH   5   6
HETATM    6  C   UNL     1     -21.366  -8.098  -2.998  1.00  0.00     0.027 C 
BRANCH   6   7
HETATM    7  C   UNL     1     -21.061  -7.705  -1.561  1.00  0.00     0.004 C 
BRANCH   7   8
HETATM    8  C   UNL     1     -22.305  -7.118  -0.909  1.00  0.00     0.000 C 
BRANCH   8   9
HETATM    9  C   UNL     1     -22.624  -7.853   0.383  1.00  0.00     0.000 C 
BRANCH   9  10
HETATM   10  C   UNL     1     -21.931  -9.208   0.406  1.00  0.00     0.000 C 
BRANCH  10  11
HETATM   11  C   UNL     1     -22.957 -10.330   0.316  1.00  0.00    -0.000 C 
BRANCH  11  12
HETATM   12  C   UNL     1     -23.152 -10.772  -1.129  1.00  0.00    -0.005 C 
HETATM   13  C   UNL     1     -24.096 -11.957  -1.204  1.00  0.00     0.005 C 
ENDBRANCH  11  12
ENDBRANCH  10  11
ENDBRANCH   9  10
ENDBRANCH   8   9
ENDBRANCH   7   8
ENDBRANCH   6   7
ENDBRANCH   5   6
ENDBRANCH   3   4
ENDBRANCH   2   3
ENDBRANCH   1   2
BRANCH   1  14
HETATM   14  C   UNL     1     -21.537  -3.798  -8.174  1.00  0.00     0.000 C 
BRANCH  14  15
HETATM   15  C   UNL     1     -22.303  -3.957  -9.472  1.00  0.00     0.000 C 
BRANCH  15  16
HETATM   16  C   UNL     1     -23.760  -4.291  -9.171  1.00  0.00     0.002 C 
BRANCH  16  17
HETATM   17  C   UNL     1     -24.695  -3.430  -9.990  1.00  0.00     0.026 C 
BRANCH  17  18
HETATM   18  C   UNL     1     -24.105  -3.204 -11.380  1.00  0.00     0.167 C 
BRANCH  18  19
HETATM   19  O   UNL     1     -25.183  -2.938 -12.267  1.00  0.00    -0.389 OA
BRANCH  19  20
HETATM   20  C   UNL     1     -24.688  -2.715 -13.581  1.00  0.00     0.193 C 
BRANCH  20  21
HETATM   21  C   UNL     1     -24.923  -3.953 -14.422  1.00  0.00     0.193 C 
BRANCH  21  22
HETATM   22  O   UNL     1     -23.671  -4.591 -14.667  1.00  0.00    -0.387 OA
BRANCH  22  23
HETATM   23  C   UNL     1     -23.762  -5.988 -14.382  1.00  0.00     0.193 C 
BRANCH  23  24
HETATM   24  C   UNL     1     -24.283  -6.707 -15.619  1.00  0.00     0.190 C 
BRANCH  24  25
HETATM   25  O   UNL     1     -25.485  -7.417 -15.326  1.00  0.00    -0.399 OA
HETATM   26  H   UNL     1     -25.364  -8.297 -15.733  1.00  0.00     0.209 HD
ENDBRANCH  24  25
ENDBRANCH  23  24
ENDBRANCH  22  23
ENDBRANCH  21  22
ENDBRANCH  20  21
ENDBRANCH  19  20
ENDBRANCH  18  19
ENDBRANCH  17  18
ENDBRANCH  16  17
ENDBRANCH  15  16
ENDBRANCH  14  15
ENDBRANCH   1  14
TORSDOF 22
BEGIN_RES ARG D 557
REMARK  4 active torsions:
REMARK  status: ('A' for Active; 'I' for Inactive)
REMARK    1  A    between atoms: CA   and  CB  
REMARK    2  A    between atoms: CB   and  CG  
REMARK    3  A    between atoms: CG   and  CD  
REMARK    4  A    between atoms: CD   and  NE  
REMARK       I    between atoms: NE   and  CZ  
REMARK       I    between atoms: CZ   and  NH1 
REMARK       I    between atoms: CZ   and  NH2 
ROOT
ATOM      1  CA  ARG D 557     -26.217   2.705 -17.014  1.00 35.49     0.159 C 
ENDROOT
BRANCH   1   2
ATOM      2  CB  ARG D 557     -26.789   1.319 -17.183  1.00 35.49     0.034 C 
BRANCH   2   3
ATOM      3  CG  ARG D 557     -28.238   1.224 -17.399  1.00 35.49     0.027 C 
BRANCH   3   4
ATOM      4  CD  ARG D 557     -28.889   0.288 -16.454  1.00 35.49     0.116 C 
BRANCH   4   5
ATOM      5  NE  ARG D 557     -29.308  -0.929 -17.098  1.00 35.49    -0.212 N 
ATOM      6  CZ  ARG D 557     -28.682  -2.084 -17.038  1.00 35.49     0.666 C 
ATOM      7  NH1 ARG D 557     -27.557  -2.247 -16.368  1.00 35.49    -0.235 N 
ATOM      8  NH2 ARG D 557     -29.218  -3.089 -17.668  1.00 35.49    -0.235 N 
ATOM      9  HH  ARG D 557     -27.188  -1.599 -15.945  1.00 35.49     0.174 HD
ATOM     10  HH  ARG D 557     -27.195  -3.024 -16.363  1.00 35.49     0.174 HD
ATOM     11  HH  ARG D 557     -29.949  -2.956 -18.086  1.00 35.49     0.174 HD
ATOM     12  HH  ARG D 557     -28.846  -3.851 -17.649  1.00 35.49     0.174 HD
ATOM     13  HE  ARG D 557     -29.985  -0.897 -17.611  1.00 35.49     0.178 HD
ENDBRANCH   4   5
ENDBRANCH   3   4
ENDBRANCH   2   3
ENDBRANCH   1   2
END_RES ARG D 557
BEGIN_RES GLU D 570
REMARK  3 active torsions:
REMARK  status: ('A' for Active; 'I' for Inactive)
REMARK    5  A    between atoms: CA   and  CB  
REMARK    6  A    between atoms: CB   and  CG  
REMARK    7  A    between atoms: CG   and  CD  
ROOT
ATOM     14  CA  GLU D 570     -18.033  -6.348 -13.375  1.00 32.92     0.160 C 
ENDROOT
BRANCH  14  15
ATOM     15  CB  GLU D 570     -19.500  -6.345 -13.794  1.00 32.92     0.043 C 
BRANCH  15  16
ATOM     16  CG  GLU D 570     -20.096  -7.641 -14.208  1.00 32.92     0.100 C 
BRANCH  16  17
ATOM     17  CD  GLU D 570     -20.598  -7.631 -15.633  1.00 32.92     0.185 C 
ATOM     18  OE1 GLU D 570     -20.839  -8.715 -16.198  1.00 32.92    -0.647 OA
ATOM     19  OE2 GLU D 570     -20.736  -6.527 -16.196  1.00 32.92    -0.647 OA
ENDBRANCH  16  17
ENDBRANCH  15  16
ENDBRANCH  14  15
END_RES GLU D 570
ENDMDL
MODEL 3
REMARK VINA RESULT:      -6.3      1.511      2.613
REMARK  22 active torsions:
REMARK  status: ('A' for Active; 'I' for Inactive)
REMARK    1  A    between atoms: C_2  and  C_3 
REMARK    2  A    between atoms: C_3  and  C_4 
REMARK    3  A    between atoms: C_4  and  C_5 
REMARK    4  A    between atoms: C_5  and  C_6 
REMARK    5  A    between atoms: C_6  and  C_7 
REMARK    6  A    between atoms: C_7  and  C_8 
REMARK    7  A    between atoms: C_8  and  C_9 
REMARK    8  A    between atoms: C_10  and  C_11 
REMARK    9  A    between atoms: C_11  and  C_12 
REMARK   10  A    between atoms: C_12  and  C_13 
REMARK   11  A    between atoms: C_13  and  C_14 
REMARK   12  A    between atoms: C_14  and  C_15 
REMARK   13  A    between atoms: C_15  and  C_16 
REMARK   14  A    between atoms: C_16  and  C_17 
REMARK   15  A    between atoms: C_17  and  C_18 
REMARK   16  A    between atoms: C_18  and  O_19 
REMARK   17  A    between atoms: O_19  and  C_20 
REMARK   18  A    between atoms: C_20  and  C_21 
REMARK   19  A    between atoms: C_21  and  O_22 
REMARK   20  A    between atoms: O_22  and  C_23 
REMARK   21  A    between atoms: C_23  and  C_24 
REMARK   22  A    between atoms: C_24  and  O_25 
ROOT
HETATM    1  C   UNL     1     -21.613  -5.586  -6.370  1.00  0.00     0.000 C 
ENDROOT
BRANCH   1   2
HETATM    2  C   UNL     1     -22.040  -6.338  -5.115  1.00  0.00     0.004 C 
BRANCH   2   3
HETATM    3  C   UNL     1     -21.167  -5.958  -3.922  1.00  0.00     0.027 C 
BRANCH   3   4
HETATM    4  C   UNL     1     -21.498  -6.789  -2.733  1.00  0.00    -0.031 C 
HETATM    5  C   UNL     1     -22.203  -6.311  -1.700  1.00  0.00    -0.031 C 
BRANCH   5   6
HETATM    6  C   UNL     1     -22.543  -7.144  -0.513  1.00  0.00     0.027 C 
BRANCH   6   7
HETATM    7  C   UNL     1     -21.474  -8.204  -0.294  1.00  0.00     0.004 C 
BRANCH   7   8
HETATM    8  C   UNL     1     -22.100  -9.456   0.304  1.00  0.00     0.000 C 
BRANCH   8   9
HETATM    9  C   UNL     1     -22.770 -10.284  -0.780  1.00  0.00     0.000 C 
BRANCH   9  10
HETATM   10  C   UNL     1     -23.952 -11.052  -0.206  1.00  0.00     0.000 C 
BRANCH  10  11
HETATM   11  C   UNL     1     -23.657 -12.546  -0.189  1.00  0.00    -0.000 C 
BRANCH  11  12
HETATM   12  C   UNL     1     -23.346 -13.021   1.225  1.00  0.00    -0.005 C 
HETATM   13  C   UNL     1     -22.008 -13.735   1.267  1.00  0.00     0.005 C 
ENDBRANCH  11  12
ENDBRANCH  10  11
ENDBRANCH   9  10
ENDBRANCH   8   9
ENDBRANCH   7   8
ENDBRANCH   6   7
ENDBRANCH   5   6
ENDBRANCH   3   4
ENDBRANCH   2   3
ENDBRANCH   1   2
BRANCH   1  14
HETATM   14  C   UNL     1     -20.271  -4.891  -6.171  1.00  0.00     0.000 C 
BRANCH  14  15
HETATM   15  C   UNL     1     -19.621  -4.564  -7.501  1.00  0.00     0.000 C 
BRANCH  15  16
HETATM   16  C   UNL     1     -20.687  -4.489  -8.588  1.00  0.00     0.002 C 
BRANCH  16  17
HETATM   17  C   UNL     1     -20.078  -4.666  -9.960  1.00  0.00     0.026 C 
BRANCH  17  18
HETATM   18  C   UNL     1     -21.088  -4.260 -11.030  1.00  0.00     0.167 C 
BRANCH  18  19
HETATM   19  O   UNL     1     -22.386  -4.560 -10.534  1.00  0.00    -0.389 OA
BRANCH  19  20
HETATM   20  C   UNL     1     -23.370  -3.872 -11.296  1.00  0.00     0.193 C 
BRANCH  20  21
HETATM   21  C   UNL     1     -22.744  -2.649 -11.933  1.00  0.00     0.193 C 
BRANCH  21  22
HETATM   22  O   UNL     1     -22.835  -2.768 -13.352  1.00  0.00    -0.387 OA
BRANCH  22  23
HETATM   23  C   UNL     1     -23.655  -3.884 -13.703  1.00  0.00     0.193 C 
BRANCH  23  24
HETATM   24  C   UNL     1     -22.869  -4.796 -14.635  1.00  0.00     0.190 C 
BRANCH  24  25
HETATM   25  O   UNL     1     -21.875  -4.060 -15.347  1.00  0.00    -0.399 OA
HETATM   26  H   UNL     1     -21.540  -3.403 -14.706  1.00  0.00     0.209 HD
ENDBRANCH  24  25
ENDBRANCH  23  24
ENDBRANCH  22  23
ENDBRANCH  21  22
ENDBRANCH  20  21
ENDBRANCH  19  20
ENDBRANCH  18  19
ENDBRANCH  17  18
ENDBRANCH  16  17
ENDBRANCH  15  16
ENDBRANCH  14  15
ENDBRANCH   1  14
TORSDOF 22
BEGIN_RES ARG D 557
REMARK  4 active torsions:
REMARK  status: ('A' for Active; 'I' for Inactive)
REMARK    1  A    between atoms: CA   and  CB  
REMARK    2  A    between atoms: CB   and  CG  
REMARK    3  A    between atoms: CG   and  CD  
REMARK    4  A    between atoms: CD   and  NE  
REMARK       I    between atoms: NE   and  CZ  
REMARK       I    between atoms: CZ   and  NH1 
REMARK       I    between atoms: CZ   and  NH2 
ROOT
ATOM      1  CA  ARG D 557     -26.217   2.705 -17.014  1.00 35.49     0.159 C 
ENDROOT
BRANCH   1   2
ATOM      2  CB  ARG D 557     -26.789   1.319 -17.183  1.00 35.49     0.034 C 
BRANCH   2   3
ATOM      3  CG  ARG D 557     -28.251   1.196 -17.123  1.00 35.49     0.027 C 
BRANCH   3   4
ATOM      4  CD  ARG D 557     -28.686  -0.163 -16.728  1.00 35.49     0.116 C 
BRANCH   4   5
ATOM      5  NE  ARG D 557     -27.641  -0.897 -16.066  1.00 35.49    -0.212 N 
ATOM      6  CZ  ARG D 557     -27.441  -2.194 -16.149  1.00 35.49     0.666 C 
ATOM      7  NH1 ARG D 557     -28.217  -2.987 -16.864  1.00 35.49    -0.235 N 
ATOM      8  NH2 ARG D 557     -26.429  -2.688 -15.496  1.00 35.49    -0.235 N 
ATOM      9  HH  ARG D 557     -28.888  -2.682 -17.302  1.00 35.49     0.174 HD
ATOM     10  HH  ARG D 557     -28.037  -3.824 -16.882  1.00 35.49     0.174 HD
ATOM     11  HH  ARG D 557     -25.940  -2.151 -15.049  1.00 35.49     0.174 HD
ATOM     12  HH  ARG D 557     -26.266  -3.519 -15.529  1.00 35.49     0.174 HD
ATOM     13  HE  ARG D 557     -27.137  -0.475 -15.526  1.00 35.49     0.178 HD
ENDBRANCH   4   5
ENDBRANCH   3   4
ENDBRANCH   2   3
ENDBRANCH   1   2
END_RES ARG D 557
BEGIN_RES GLU D 570
REMARK  3 active torsions:
REMARK  status: ('A' for Active; 'I' for Inactive)
REMARK    5  A    between atoms: CA   and  CB  
REMARK    6  A    between atoms: CB   and  CG  
REMARK    7  A    between atoms: CG   and  CD  
ROOT
ATOM     14  CA  GLU D 570     -18.033  -6.348 -13.375  1.00 32.92     0.160 C 
ENDROOT
BRANCH  14  15
ATOM     15  CB  GLU D 570     -19.500  -6.345 -13.794  1.00 32.92     0.043 C 
BRANCH  15  16
ATOM     16  CG  GLU D 570     -20.080  -7.629 -14.266  1.00 32.92     0.100 C 
BRANCH  16  17
ATOM     17  CD  GLU D 570     -20.675  -7.534 -15.651  1.00 32.92     0.185 C 
ATOM     18  OE1 GLU D 570     -21.412  -8.452 -16.058  1.00 32.92    -0.647 OA
ATOM     19  OE2 GLU D 570     -20.387  -6.538 -16.344  1.00 32.92    -0.647 OA
ENDBRANCH  16  17
ENDBRANCH  15  16
ENDBRANCH  14  15
END_RES GLU D 570
ENDMDL
MODEL 4
REMARK VINA RESULT:      -6.3      1.588      2.491
REMARK  22 active torsions:
REMARK  status: ('A' for Active; 'I' for Inactive)
REMARK    1  A    between atoms: C_2  and  C_3 
REMARK    2  A    between atoms: C_3  and  C_4 
REMARK    3  A    between atoms: C_4  and  C_5 
REMARK    4  A    between atoms: C_5  and  C_6 
REMARK    5  A    between atoms: C_6  and  C_7 
REMARK    6  A    between atoms: C_7  and  C_8 
REMARK    7  A    between atoms: C_8  and  C_9 
REMARK    8  A    between atoms: C_10  and  C_11 
REMARK    9  A    between atoms: C_11  and  C_12 
REMARK   10  A    between atoms: C_12  and  C_13 
REMARK   11  A    between atoms: C_13  and  C_14 
REMARK   12  A    between atoms: C_14  and  C_15 
REMARK   13  A    between atoms: C_15  and  C_16 
REMARK   14  A    between atoms: C_16  and  C_17 
REMARK   15  A    between atoms: C_17  and  C_18 
REMARK   16  A    between atoms: C_18  and  O_19 
REMARK   17  A    between atoms: O_19  and  C_20 
REMARK   18  A    between atoms: C_20  and  C_21 
REMARK   19  A    between atoms: C_21  and  O_22 
REMARK   20  A    between atoms: O_22  and  C_23 
REMARK   21  A    between atoms: C_23  and  C_24 
REMARK   22  A    between atoms: C_24  and  O_25 
ROOT
HETATM    1  C   UNL     1     -20.423  -4.836  -5.885  1.00  0.00     0.000 C 
ENDROOT
BRANCH   1   2
HETATM    2  C   UNL     1     -20.716  -6.272  -5.466  1.00  0.00     0.004 C 
BRANCH   2   3
HETATM    3  C   UNL     1     -21.895  -6.334  -4.499  1.00  0.00     0.027 C 
BRANCH   3   4
HETATM    4  C   UNL     1     -21.447  -6.733  -3.137  1.00  0.00    -0.031 C 
HETATM    5  C   UNL     1     -22.274  -6.732  -2.084  1.00  0.00    -0.031 C 
BRANCH   5   6
HETATM    6  C   UNL     1     -21.830  -7.139  -0.721  1.00  0.00     0.027 C 
BRANCH   6   7
HETATM    7  C   UNL     1     -22.924  -7.941  -0.033  1.00  0.00     0.004 C 
BRANCH   7   8
HETATM    8  C   UNL     1     -22.551  -9.416  -0.013  1.00  0.00     0.000 C 
BRANCH   8   9
HETATM    9  C   UNL     1     -23.801 -10.280  -0.050  1.00  0.00     0.000 C 
BRANCH   9  10
HETATM   10  C   UNL     1     -23.739 -11.251  -1.221  1.00  0.00     0.000 C 
BRANCH  10  11
HETATM   11  C   UNL     1     -22.464 -11.032  -2.024  1.00  0.00    -0.000 C 
BRANCH  11  12
HETATM   12  C   UNL     1     -22.784 -10.802  -3.497  1.00  0.00    -0.005 C 
HETATM   13  C   UNL     1     -21.588 -10.210  -4.218  1.00  0.00     0.005 C 
ENDBRANCH  11  12
ENDBRANCH  10  11
ENDBRANCH   9  10
ENDBRANCH   8   9
ENDBRANCH   7   8
ENDBRANCH   6   7
ENDBRANCH   5   6
ENDBRANCH   3   4
ENDBRANCH   2   3
ENDBRANCH   1   2
BRANCH   1  14
HETATM   14  C   UNL     1     -19.369  -4.783  -6.986  1.00  0.00     0.000 C 
BRANCH  14  15
HETATM   15  C   UNL     1     -19.830  -3.920  -8.143  1.00  0.00     0.000 C 
BRANCH  15  16
HETATM   16  C   UNL     1     -20.592  -4.775  -9.150  1.00  0.00     0.002 C 
BRANCH  16  17
HETATM   17  C   UNL     1     -21.571  -3.940  -9.943  1.00  0.00     0.026 C 
BRANCH  17  18
HETATM   18  C   UNL     1     -22.903  -4.676 -10.059  1.00  0.00     0.167 C 
BRANCH  18  19
HETATM   19  O   UNL     1     -23.222  -4.775 -11.440  1.00  0.00    -0.389 OA
BRANCH  19  20
HETATM   20  C   UNL     1     -22.572  -3.739 -12.165  1.00  0.00     0.193 C 
BRANCH  20  21
HETATM   21  C   UNL     1     -22.768  -3.967 -13.650  1.00  0.00     0.193 C 
BRANCH  21  22
HETATM   22  O   UNL     1     -24.160  -3.881 -13.950  1.00  0.00    -0.387 OA
BRANCH  22  23
HETATM   23  C   UNL     1     -24.652  -2.574 -13.650  1.00  0.00     0.193 C 
BRANCH  23  24
HETATM   24  C   UNL     1     -24.225  -1.623 -14.760  1.00  0.00     0.190 C 
BRANCH  24  25
HETATM   25  O   UNL     1     -25.010  -0.433 -14.739  1.00  0.00    -0.399 OA
HETATM   26  H   UNL     1     -25.143  -0.234 -13.792  1.00  0.00     0.209 HD
ENDBRANCH  24  25
ENDBRANCH  23  24
ENDBRANCH  22  23
ENDBRANCH  21  22
ENDBRANCH  20  21
ENDBRANCH  19  20
ENDBRANCH  18  19
ENDBRANCH  17  18
ENDBRANCH  16  17
ENDBRANCH  15  16
ENDBRANCH  14  15
ENDBRANCH   1  14
TORSDOF 22
BEGIN_RES ARG D 557
REMARK  4 active torsions:
REMARK  status: ('A' for Active; 'I' for Inactive)
REMARK    1  A    between atoms: CA   and  CB  
REMARK    2  A    between atoms: CB   and  CG  
REMARK    3  A    between atoms: CG   and  CD  
REMARK    4  A    between atoms: CD   and  NE  
REMARK       I    between atoms: NE   and  CZ  
REMARK       I    between atoms: CZ   and  NH1 
REMARK       I    between atoms: CZ   and  NH2 
ROOT
ATOM      1  CA  ARG D 557     -26.217   2.705 -17.014  1.00 35.49     0.159 C 
ENDROOT
BRANCH   1   2
ATOM      2  CB  ARG D 557     -26.789   1.319 -17.183  1.00 35.49     0.034 C 
BRANCH   2   3
ATOM      3  CG  ARG D 557     -28.238   1.224 -17.396  1.00 35.49     0.027 C 
BRANCH   3   4
ATOM      4  CD  ARG D 557     -28.878   0.240 -16.493  1.00 35.49     0.116 C 
BRANCH   4   5
ATOM      5  NE  ARG D 557     -27.995  -0.847 -16.163  1.00 35.49    -0.212 N 
ATOM      6  CZ  ARG D 557     -28.110  -2.086 -16.587  1.00 35.49     0.666 C 
ATOM      7  NH1 ARG D 557     -29.092  -2.477 -17.377  1.00 35.49    -0.235 N 
ATOM      8  NH2 ARG D 557     -27.204  -2.938 -16.203  1.00 35.49    -0.235 N 
ATOM      9  HH  ARG D 557     -29.698  -1.932 -17.643  1.00 35.49     0.174 HD
ATOM     10  HH  ARG D 557     -29.114  -3.297 -17.624  1.00 35.49     0.174 HD
ATOM     11  HH  ARG D 557     -26.577  -2.656 -15.699  1.00 35.49     0.174 HD
ATOM     12  HH  ARG D 557     -27.242  -3.746 -16.460  1.00 35.49     0.174 HD
ATOM     13  HE  ARG D 557     -27.374  -0.701 -15.599  1.00 35.49     0.178 HD
ENDBRANCH   4   5
ENDBRANCH   3   4
ENDBRANCH   2   3
ENDBRANCH   1   2
END_RES ARG D 557
BEGIN_RES GLU D 570
REMARK  3 active torsions:
REMARK  status: ('A' for Active; 'I' for Inactive)
REMARK    5  A    between atoms: CA   and  CB  
REMARK    6  A    between atoms: CB   and  CG  
REMARK    7  A    between atoms: CG   and  CD  
ROOT
ATOM     14  CA  GLU D 570     -18.033  -6.348 -13.375  1.00 32.92     0.160 C 
ENDROOT
BRANCH  14  15
ATOM     15  CB  GLU D 570     -19.500  -6.345 -13.794  1.00 32.92     0.043 C 
BRANCH  15  16
ATOM     16  CG  GLU D 570     -20.039  -7.586 -14.408  1.00 32.92     0.100 C 
BRANCH  16  17
ATOM     17  CD  GLU D 570     -20.760  -7.334 -15.711  1.00 32.92     0.185 C 
ATOM     18  OE1 GLU D 570     -21.557  -8.191 -16.138  1.00 32.92    -0.647 OA
ATOM     19  OE2 GLU D 570     -20.513  -6.274 -16.320  1.00 32.92    -0.647 OA
ENDBRANCH  16  17
ENDBRANCH  15  16
ENDBRANCH  14  15
END_RES GLU D 570
ENDMDL
MODEL 5
REMARK VINA RESULT:      -6.2      2.170      4.992
REMARK  22 active torsions:
REMARK  status: ('A' for Active; 'I' for Inactive)
REMARK    1  A    between atoms: C_2  and  C_3 
REMARK    2  A    between atoms: C_3  and  C_4 
REMARK    3  A    between atoms: C_4  and  C_5 
REMARK    4  A    between atoms: C_5  and  C_6 
REMARK    5  A    between atoms: C_6  and  C_7 
REMARK    6  A    between atoms: C_7  and  C_8 
REMARK    7  A    between atoms: C_8  and  C_9 
REMARK    8  A    between atoms: C_10  and  C_11 
REMARK    9  A    between atoms: C_11  and  C_12 
REMARK   10  A    between atoms: C_12  and  C_13 
REMARK   11  A    between atoms: C_13  and  C_14 
REMARK   12  A    between atoms: C_14  and  C_15 
REMARK   13  A    between atoms: C_15  and  C_16 
REMARK   14  A    between atoms: C_16  and  C_17 
REMARK   15  A    between atoms: C_17  and  C_18 
REMARK   16  A    between atoms: C_18  and  O_19 
REMARK   17  A    between atoms: O_19  and  C_20 
REMARK   18  A    between atoms: C_20  and  C_21 
REMARK   19  A    between atoms: C_21  and  O_22 
REMARK   20  A    between atoms: O_22  and  C_23 
REMARK   21  A    between atoms: C_23  and  C_24 
REMARK   22  A    between atoms: C_24  and  O_25 
ROOT
HETATM    1  C   UNL     1     -21.021  -3.911 -10.057  1.00  0.00     0.000 C 
ENDROOT
BRANCH   1   2
HETATM    2  C   UNL     1     -20.292  -4.624  -8.925  1.00  0.00     0.004 C 
BRANCH   2   3
HETATM    3  C   UNL     1     -20.569  -3.953  -7.582  1.00  0.00     0.027 C 
BRANCH   3   4
HETATM    4  C   UNL     1     -20.889  -4.962  -6.537  1.00  0.00    -0.031 C 
HETATM    5  C   UNL     1     -20.160  -6.072  -6.368  1.00  0.00    -0.031 C 
BRANCH   5   6
HETATM    6  C   UNL     1     -20.473  -7.080  -5.317  1.00  0.00     0.027 C 
BRANCH   6   7
HETATM    7  C   UNL     1     -21.642  -6.605  -4.468  1.00  0.00     0.004 C 
BRANCH   7   8
HETATM    8  C   UNL     1     -21.521  -7.166  -3.058  1.00  0.00     0.000 C 
BRANCH   8   9
HETATM    9  C   UNL     1     -22.074  -6.178  -2.044  1.00  0.00     0.000 C 
BRANCH   9  10
HETATM   10  C   UNL     1     -22.466  -6.899  -0.762  1.00  0.00     0.000 C 
BRANCH  10  11
HETATM   11  C   UNL     1     -21.865  -8.298  -0.735  1.00  0.00    -0.000 C 
BRANCH  11  12
HETATM   12  C   UNL     1     -22.750  -9.253   0.058  1.00  0.00    -0.005 C 
HETATM   13  C   UNL     1     -23.221 -10.398  -0.818  1.00  0.00     0.005 C 
ENDBRANCH  11  12
ENDBRANCH  10  11
ENDBRANCH   9  10
ENDBRANCH   8   9
ENDBRANCH   7   8
ENDBRANCH   6   7
ENDBRANCH   5   6
ENDBRANCH   3   4
ENDBRANCH   2   3
ENDBRANCH   1   2
BRANCH   1  14
HETATM   14  C   UNL     1     -22.335  -4.606 -10.396  1.00  0.00     0.000 C 
BRANCH  14  15
HETATM   15  C   UNL     1     -23.405  -3.600 -10.773  1.00  0.00     0.000 C 
BRANCH  15  16
HETATM   16  C   UNL     1     -23.269  -3.236 -12.248  1.00  0.00     0.002 C 
BRANCH  16  17
HETATM   17  C   UNL     1     -23.310  -4.471 -13.119  1.00  0.00     0.026 C 
BRANCH  17  18
HETATM   18  C   UNL     1     -22.564  -4.206 -14.425  1.00  0.00     0.167 C 
BRANCH  18  19
HETATM   19  O   UNL     1     -23.034  -5.142 -15.386  1.00  0.00    -0.389 OA
BRANCH  19  20
HETATM   20  C   UNL     1     -23.779  -6.168 -14.742  1.00  0.00     0.193 C 
BRANCH  20  21
HETATM   21  C   UNL     1     -24.696  -6.828 -15.752  1.00  0.00     0.193 C 
BRANCH  21  22
HETATM   22  O   UNL     1     -25.878  -7.268 -15.085  1.00  0.00    -0.387 OA
BRANCH  22  23
HETATM   23  C   UNL     1     -27.034  -6.943 -15.859  1.00  0.00     0.193 C 
BRANCH  23  24
HETATM   24  C   UNL     1     -26.760  -5.661 -16.633  1.00  0.00     0.190 C 
BRANCH  24  25
HETATM   25  O   UNL     1     -27.889  -4.790 -16.592  1.00  0.00    -0.399 OA
HETATM   26  H   UNL     1     -28.501  -5.201 -15.950  1.00  0.00     0.209 HD
ENDBRANCH  24  25
ENDBRANCH  23  24
ENDBRANCH  22  23
ENDBRANCH  21  22
ENDBRANCH  20  21
ENDBRANCH  19  20
ENDBRANCH  18  19
ENDBRANCH  17  18
ENDBRANCH  16  17
ENDBRANCH  15  16
ENDBRANCH  14  15
ENDBRANCH   1  14
TORSDOF 22
BEGIN_RES ARG D 557
REMARK  4 active torsions:
REMARK  status: ('A' for Active; 'I' for Inactive)
REMARK    1  A    between atoms: CA   and  CB  
REMARK    2  A    between atoms: CB   and  CG  
REMARK    3  A    between atoms: CG   and  CD  
REMARK    4  A    between atoms: CD   and  NE  
REMARK       I    between atoms: NE   and  CZ  
REMARK       I    between atoms: CZ   and  NH1 
REMARK       I    between atoms: CZ   and  NH2 
ROOT
ATOM      1  CA  ARG D 557     -26.217   2.705 -17.014  1.00 35.49     0.159 C 
ENDROOT
BRANCH   1   2
ATOM      2  CB  ARG D 557     -26.789   1.319 -17.183  1.00 35.49     0.034 C 
BRANCH   2   3
ATOM      3  CG  ARG D 557     -25.969   0.202 -16.698  1.00 35.49     0.027 C 
BRANCH   3   4
ATOM      4  CD  ARG D 557     -26.729  -0.718 -15.822  1.00 35.49     0.116 C 
BRANCH   4   5
ATOM      5  NE  ARG D 557     -27.563  -1.618 -16.574  1.00 35.49    -0.212 N 
ATOM      6  CZ  ARG D 557     -28.817  -1.405 -16.908  1.00 35.49     0.666 C 
ATOM      7  NH1 ARG D 557     -29.467  -0.310 -16.562  1.00 35.49    -0.235 N 
ATOM      8  NH2 ARG D 557     -29.414  -2.323 -17.611  1.00 35.49    -0.235 N 
ATOM      9  HH  ARG D 557     -29.093   0.308 -16.101  1.00 35.49     0.174 HD
ATOM     10  HH  ARG D 557     -30.282  -0.225 -16.811  1.00 35.49     0.174 HD
ATOM     11  HH  ARG D 557     -28.967  -3.017 -17.826  1.00 35.49     0.174 HD
ATOM     12  HH  ARG D 557     -30.222  -2.220 -17.849  1.00 35.49     0.174 HD
ATOM     13  HE  ARG D 557     -27.247  -2.381 -16.776  1.00 35.49     0.178 HD
ENDBRANCH   4   5
ENDBRANCH   3   4
ENDBRANCH   2   3
ENDBRANCH   1   2
END_RES ARG D 557
BEGIN_RES GLU D 570
REMARK  3 active torsions:
REMARK  status: ('A' for Active; 'I' for Inactive)
REMARK    5  A    between atoms: CA   and  CB  
REMARK    6  A    between atoms: CB   and  CG  
REMARK    7  A    between atoms: CG   and  CD  
ROOT
ATOM     14  CA  GLU D 570     -18.033  -6.348 -13.375  1.00 32.92     0.160 C 
ENDROOT
BRANCH  14  15
ATOM     15  CB  GLU D 570     -19.500  -6.345 -13.794  1.00 32.92     0.043 C 
BRANCH  15  16
ATOM     16  CG  GLU D 570     -20.091  -7.638 -14.225  1.00 32.92     0.100 C 
BRANCH  16  17
ATOM     17  CD  GLU D 570     -20.476  -7.652 -15.686  1.00 32.92     0.185 C 
ATOM     18  OE1 GLU D 570     -20.821  -8.729 -16.211  1.00 32.92    -0.647 OA
ATOM     19  OE2 GLU D 570     -20.415  -6.579 -16.317  1.00 32.92    -0.647 OA
ENDBRANCH  16  17
ENDBRANCH  15  16
ENDBRANCH  14  15
END_RES GLU D 570
ENDMDL
MODEL 6
REMARK VINA RESULT:      -6.2      3.182      7.056
REMARK  22 active torsions:
REMARK  status: ('A' for Active; 'I' for Inactive)
REMARK    1  A    between atoms: C_2  and  C_3 
REMARK    2  A    between atoms: C_3  and  C_4 
REMARK    3  A    between atoms: C_4  and  C_5 
REMARK    4  A    between atoms: C_5  and  C_6 
REMARK    5  A    between atoms: C_6  and  C_7 
REMARK    6  A    between atoms: C_7  and  C_8 
REMARK    7  A    between atoms: C_8  and  C_9 
REMARK    8  A    between atoms: C_10  and  C_11 
REMARK    9  A    between atoms: C_11  and  C_12 
REMARK   10  A    between atoms: C_12  and  C_13 
REMARK   11  A    between atoms: C_13  and  C_14 
REMARK   12  A    between atoms: C_14  and  C_15 
REMARK   13  A    between atoms: C_15  and  C_16 
REMARK   14  A    between atoms: C_16  and  C_17 
REMARK   15  A    between atoms: C_17  and  C_18 
REMARK   16  A    between atoms: C_18  and  O_19 
REMARK   17  A    between atoms: O_19  and  C_20 
REMARK   18  A    between atoms: C_20  and  C_21 
REMARK   19  A    between atoms: C_21  and  O_22 
REMARK   20  A    between atoms: O_22  and  C_23 
REMARK   21  A    between atoms: C_23  and  C_24 
REMARK   22  A    between atoms: C_24  and  O_25 
ROOT
HETATM    1  C   UNL     1     -23.488  -4.311 -12.244  1.00  0.00     0.000 C 
ENDROOT
BRANCH   1   2
HETATM    2  C   UNL     1     -22.696  -3.374 -11.339  1.00  0.00     0.004 C 
BRANCH   2   3
HETATM    3  C   UNL     1     -21.198  -3.486 -11.607  1.00  0.00     0.027 C 
BRANCH   3   4
HETATM    4  C   UNL     1     -20.495  -4.109 -10.453  1.00  0.00    -0.031 C 
HETATM    5  C   UNL     1     -21.040  -4.168  -9.232  1.00  0.00    -0.031 C 
BRANCH   5   6
HETATM    6  C   UNL     1     -20.342  -4.799  -8.076  1.00  0.00     0.027 C 
BRANCH   6   7
HETATM    7  C   UNL     1     -20.851  -4.207  -6.771  1.00  0.00     0.004 C 
BRANCH   7   8
HETATM    8  C   UNL     1     -20.137  -4.857  -5.594  1.00  0.00     0.000 C 
BRANCH   8   9
HETATM    9  C   UNL     1     -20.494  -6.331  -5.504  1.00  0.00     0.000 C 
BRANCH   9  10
HETATM   10  C   UNL     1     -21.796  -6.514  -4.737  1.00  0.00     0.000 C 
BRANCH  10  11
HETATM   11  C   UNL     1     -21.526  -7.139  -3.375  1.00  0.00    -0.000 C 
BRANCH  11  12
HETATM   12  C   UNL     1     -21.799  -6.139  -2.257  1.00  0.00    -0.005 C 
HETATM   13  C   UNL     1     -22.425  -6.831  -1.061  1.00  0.00     0.005 C 
ENDBRANCH  11  12
ENDBRANCH  10  11
ENDBRANCH   9  10
ENDBRANCH   8   9
ENDBRANCH   7   8
ENDBRANCH   6   7
ENDBRANCH   5   6
ENDBRANCH   3   4
ENDBRANCH   2   3
ENDBRANCH   1   2
BRANCH   1  14
HETATM   14  C   UNL     1     -23.489  -3.818 -13.686  1.00  0.00     0.000 C 
BRANCH  14  15
HETATM   15  C   UNL     1     -23.047  -4.912 -14.638  1.00  0.00     0.000 C 
BRANCH  15  16
HETATM   16  C   UNL     1     -23.683  -6.237 -14.229  1.00  0.00     0.002 C 
BRANCH  16  17
HETATM   17  C   UNL     1     -24.256  -6.958 -15.427  1.00  0.00     0.026 C 
BRANCH  17  18
HETATM   18  C   UNL     1     -25.173  -6.018 -16.206  1.00  0.00     0.167 C 
BRANCH  18  19
HETATM   19  O   UNL     1     -26.332  -5.793 -15.414  1.00  0.00    -0.389 OA
BRANCH  19  20
HETATM   20  C   UNL     1     -27.353  -6.715 -15.773  1.00  0.00     0.193 C 
BRANCH  20  21
HETATM   21  C   UNL     1     -27.735  -6.499 -17.223  1.00  0.00     0.193 C 
BRANCH  21  22
HETATM   22  O   UNL     1     -28.959  -5.767 -17.275  1.00  0.00    -0.387 OA
BRANCH  22  23
HETATM   23  C   UNL     1     -29.851  -6.361 -18.219  1.00  0.00     0.193 C 
BRANCH  23  24
HETATM   24  C   UNL     1     -29.949  -7.853 -17.930  1.00  0.00     0.190 C 
BRANCH  24  25
HETATM   25  O   UNL     1     -29.777  -8.614 -19.124  1.00  0.00    -0.399 OA
HETATM   26  H   UNL     1     -29.993  -9.533 -18.872  1.00  0.00     0.209 HD
ENDBRANCH  24  25
ENDBRANCH  23  24
ENDBRANCH  22  23
ENDBRANCH  21  22
ENDBRANCH  20  21
ENDBRANCH  19  20
ENDBRANCH  18  19
ENDBRANCH  17  18
ENDBRANCH  16  17
ENDBRANCH  15  16
ENDBRANCH  14  15
ENDBRANCH   1  14
TORSDOF 22
BEGIN_RES ARG D 557
REMARK  4 active torsions:
REMARK  status: ('A' for Active; 'I' for Inactive)
REMARK    1  A    between atoms: CA   and  CB  
REMARK    2  A    between atoms: CB   and  CG  
REMARK    3  A    between atoms: CG   and  CD  
REMARK    4  A    between atoms: CD   and  NE  
REMARK       I    between atoms: NE   and  CZ  
REMARK       I    between atoms: CZ   and  NH1 
REMARK       I    between atoms: CZ   and  NH2 
ROOT
ATOM      1  CA  ARG D 557     -26.217   2.705 -17.014  1.00 35.49     0.159 C 
ENDROOT
BRANCH   1   2
ATOM      2  CB  ARG D 557     -26.789   1.319 -17.183  1.00 35.49     0.034 C 
BRANCH   2   3
ATOM      3  CG  ARG D 557     -28.242   1.181 -17.029  1.00 35.49     0.027 C 
BRANCH   3   4
ATOM      4  CD  ARG D 557     -28.646  -0.206 -16.705  1.00 35.49     0.116 C 
BRANCH   4   5
ATOM      5  NE  ARG D 557     -27.607  -0.927 -16.016  1.00 35.49    -0.212 N 
ATOM      6  CZ  ARG D 557     -27.394  -2.222 -16.087  1.00 35.49     0.666 C 
ATOM      7  NH1 ARG D 557     -28.149  -3.026 -16.812  1.00 35.49    -0.235 N 
ATOM      8  NH2 ARG D 557     -26.391  -2.702 -15.411  1.00 35.49    -0.235 N 
ATOM      9  HH  ARG D 557     -28.813  -2.731 -17.267  1.00 35.49     0.174 HD
ATOM     10  HH  ARG D 557     -27.960  -3.862 -16.822  1.00 35.49     0.174 HD
ATOM     11  HH  ARG D 557     -25.917  -2.158 -14.957  1.00 35.49     0.174 HD
ATOM     12  HH  ARG D 557     -26.220  -3.533 -15.435  1.00 35.49     0.174 HD
ATOM     13  HE  ARG D 557     -27.119  -0.497 -15.469  1.00 35.49     0.178 HD
ENDBRANCH   4   5
ENDBRANCH   3   4
ENDBRANCH   2   3
ENDBRANCH   1   2
END_RES ARG D 557
BEGIN_RES GLU D 570
REMARK  3 active torsions:
REMARK  status: ('A' for Active; 'I' for Inactive)
REMARK    5  A    between atoms: CA   and  CB  
REMARK    6  A    between atoms: CB   and  CG  
REMARK    7  A    between atoms: CG   and  CD  
ROOT
ATOM     14  CA  GLU D 570     -18.033  -6.348 -13.375  1.00 32.92     0.160 C 
ENDROOT
BRANCH  14  15
ATOM     15  CB  GLU D 570     -19.500  -6.345 -13.794  1.00 32.92     0.043 C 
BRANCH  15  16
ATOM     16  CG  GLU D 570     -20.089  -7.636 -14.235  1.00 32.92     0.100 C 
BRANCH  16  17
ATOM     17  CD  GLU D 570     -20.606  -7.594 -15.654  1.00 32.92     0.185 C 
ATOM     18  OE1 GLU D 570     -20.474  -6.546 -16.315  1.00 32.92    -0.647 OA
ATOM     19  OE2 GLU D 570     -21.165  -8.614 -16.103  1.00 32.92    -0.647 OA
ENDBRANCH  16  17
ENDBRANCH  15  16
ENDBRANCH  14  15
END_RES GLU D 570
ENDMDL
MODEL 7
REMARK VINA RESULT:      -6.1      1.362      2.965
REMARK  22 active torsions:
REMARK  status: ('A' for Active; 'I' for Inactive)
REMARK    1  A    between atoms: C_2  and  C_3 
REMARK    2  A    between atoms: C_3  and  C_4 
REMARK    3  A    between atoms: C_4  and  C_5 
REMARK    4  A    between atoms: C_5  and  C_6 
REMARK    5  A    between atoms: C_6  and  C_7 
REMARK    6  A    between atoms: C_7  and  C_8 
REMARK    7  A    between atoms: C_8  and  C_9 
REMARK    8  A    between atoms: C_10  and  C_11 
REMARK    9  A    between atoms: C_11  and  C_12 
REMARK   10  A    between atoms: C_12  and  C_13 
REMARK   11  A    between atoms: C_13  and  C_14 
REMARK   12  A    between atoms: C_14  and  C_15 
REMARK   13  A    between atoms: C_15  and  C_16 
REMARK   14  A    between atoms: C_16  and  C_17 
REMARK   15  A    between atoms: C_17  and  C_18 
REMARK   16  A    between atoms: C_18  and  O_19 
REMARK   17  A    between atoms: O_19  and  C_20 
REMARK   18  A    between atoms: C_20  and  C_21 
REMARK   19  A    between atoms: C_21  and  O_22 
REMARK   20  A    between atoms: O_22  and  C_23 
REMARK   21  A    between atoms: C_23  and  C_24 
REMARK   22  A    between atoms: C_24  and  O_25 
ROOT
HETATM    1  C   UNL     1     -22.320  -6.455  -1.189  1.00  0.00     0.000 C 
ENDROOT
BRANCH   1   2
HETATM    2  C   UNL     1     -22.662  -7.468  -0.103  1.00  0.00     0.004 C 
BRANCH   2   3
HETATM    3  C   UNL     1     -21.469  -8.370   0.203  1.00  0.00     0.027 C 
BRANCH   3   4
HETATM    4  C   UNL     1     -21.881  -9.800   0.248  1.00  0.00    -0.031 C 
HETATM    5  C   UNL     1     -23.066 -10.217  -0.212  1.00  0.00    -0.031 C 
BRANCH   5   6
HETATM    6  C   UNL     1     -23.477 -11.649  -0.176  1.00  0.00     0.027 C 
BRANCH   6   7
HETATM    7  C   UNL     1     -23.375 -12.258  -1.566  1.00  0.00     0.004 C 
BRANCH   7   8
HETATM    8  C   UNL     1     -23.130 -11.163  -2.595  1.00  0.00     0.000 C 
BRANCH   8   9
HETATM    9  C   UNL     1     -22.006 -11.562  -3.537  1.00  0.00     0.000 C 
BRANCH   9  10
HETATM   10  C   UNL     1     -21.144 -10.353  -3.875  1.00  0.00     0.000 C 
BRANCH  10  11
HETATM   11  C   UNL     1     -19.913 -10.312  -2.980  1.00  0.00    -0.000 C 
BRANCH  11  12
HETATM   12  C   UNL     1     -18.913  -9.278  -3.481  1.00  0.00    -0.005 C 
HETATM   13  C   UNL     1     -18.785  -9.345  -4.991  1.00  0.00     0.005 C 
ENDBRANCH  11  12
ENDBRANCH  10  11
ENDBRANCH   9  10
ENDBRANCH   8   9
ENDBRANCH   7   8
ENDBRANCH   6   7
ENDBRANCH   5   6
ENDBRANCH   3   4
ENDBRANCH   2   3
ENDBRANCH   1   2
BRANCH   1  14
HETATM   14  C   UNL     1     -21.508  -7.095  -2.309  1.00  0.00     0.000 C 
BRANCH  14  15
HETATM   15  C   UNL     1     -21.314  -6.132  -3.464  1.00  0.00     0.000 C 
BRANCH  15  16
HETATM   16  C   UNL     1     -21.898  -6.733  -4.737  1.00  0.00     0.002 C 
BRANCH  16  17
HETATM   17  C   UNL     1     -20.997  -6.474  -5.923  1.00  0.00     0.026 C 
BRANCH  17  18
HETATM   18  C   UNL     1     -21.551  -5.316  -6.750  1.00  0.00     0.167 C 
BRANCH  18  19
HETATM   19  O   UNL     1     -20.448  -4.546  -7.207  1.00  0.00    -0.389 OA
BRANCH  19  20
HETATM   20  C   UNL     1     -20.648  -4.167  -8.564  1.00  0.00     0.193 C 
BRANCH  20  21
HETATM   21  C   UNL     1     -21.915  -4.815  -9.082  1.00  0.00     0.193 C 
BRANCH  21  22
HETATM   22  O   UNL     1     -22.407  -4.052 -10.183  1.00  0.00    -0.387 OA
BRANCH  22  23
HETATM   23  C   UNL     1     -23.806  -4.282 -10.359  1.00  0.00     0.193 C 
BRANCH  23  24
HETATM   24  C   UNL     1     -24.577  -3.318  -9.467  1.00  0.00     0.190 C 
BRANCH  24  25
HETATM   25  O   UNL     1     -25.967  -3.332  -9.786  1.00  0.00    -0.399 OA
HETATM   26  H   UNL     1     -26.240  -2.394  -9.767  1.00  0.00     0.209 HD
ENDBRANCH  24  25
ENDBRANCH  23  24
ENDBRANCH  22  23
ENDBRANCH  21  22
ENDBRANCH  20  21
ENDBRANCH  19  20
ENDBRANCH  18  19
ENDBRANCH  17  18
ENDBRANCH  16  17
ENDBRANCH  15  16
ENDBRANCH  14  15
ENDBRANCH   1  14
TORSDOF 22
BEGIN_RES ARG D 557
REMARK  4 active torsions:
REMARK  status: ('A' for Active; 'I' for Inactive)
REMARK    1  A    between atoms: CA   and  CB  
REMARK    2  A    between atoms: CB   and  CG  
REMARK    3  A    between atoms: CG   and  CD  
REMARK    4  A    between atoms: CD   and  NE  
REMARK       I    between atoms: NE   and  CZ  
REMARK       I    between atoms: CZ   and  NH1 
REMARK       I    between atoms: CZ   and  NH2 
ROOT
ATOM      1  CA  ARG D 557     -26.217   2.705 -17.014  1.00 35.49     0.159 C 
ENDROOT
BRANCH   1   2
ATOM      2  CB  ARG D 557     -26.789   1.319 -17.183  1.00 35.49     0.034 C 
BRANCH   2   3
ATOM      3  CG  ARG D 557     -25.927   0.197 -16.792  1.00 35.49     0.027 C 
BRANCH   3   4
ATOM      4  CD  ARG D 557     -26.678  -0.877 -16.101  1.00 35.49     0.116 C 
BRANCH   4   5
ATOM      5  NE  ARG D 557     -25.945  -1.420 -14.987  1.00 35.49    -0.212 N 
ATOM      6  CZ  ARG D 557     -25.921  -2.683 -14.626  1.00 35.49     0.666 C 
ATOM      7  NH1 ARG D 557     -26.604  -3.616 -15.264  1.00 35.49    -0.235 N 
ATOM      8  NH2 ARG D 557     -25.184  -3.001 -13.602  1.00 35.49    -0.235 N 
ATOM      9  HH  ARG D 557     -27.094  -3.429 -15.942  1.00 35.49     0.174 HD
ATOM     10  HH  ARG D 557     -26.548  -4.424 -14.985  1.00 35.49     0.174 HD
ATOM     11  HH  ARG D 557     -24.748  -2.379 -13.214  1.00 35.49     0.174 HD
ATOM     12  HH  ARG D 557     -25.140  -3.807 -13.342  1.00 35.49     0.174 HD
ATOM     13  HE  ARG D 557     -25.535  -0.877 -14.477  1.00 35.49     0.178 HD
ENDBRANCH   4   5
ENDBRANCH   3   4
ENDBRANCH   2   3
ENDBRANCH   1   2
END_RES ARG D 557
BEGIN_RES GLU D 570
REMARK  3 active torsions:
REMARK  status: ('A' for Active; 'I' for Inactive)
REMARK    5  A    between atoms: CA   and  CB  
REMARK    6  A    between atoms: CB   and  CG  
REMARK    7  A    between atoms: CG   and  CD  
ROOT
ATOM     14  CA  GLU D 570     -18.033  -6.348 -13.375  1.00 32.92     0.160 C 
ENDROOT
BRANCH  14  15
ATOM     15  CB  GLU D 570     -19.500  -6.345 -13.794  1.00 32.92     0.043 C 
BRANCH  15  16
ATOM     16  CG  GLU D 570     -20.438  -5.514 -12.996  1.00 32.92     0.100 C 
BRANCH  16  17
ATOM     17  CD  GLU D 570     -21.748  -5.258 -13.705  1.00 32.92     0.185 C 
ATOM     18  OE1 GLU D 570     -22.315  -4.160 -13.548  1.00 32.92    -0.647 OA
ATOM     19  OE2 GLU D 570     -22.219  -6.171 -14.411  1.00 32.92    -0.647 OA
ENDBRANCH  16  17
ENDBRANCH  15  16
ENDBRANCH  14  15
END_RES GLU D 570
ENDMDL
MODEL 8
REMARK VINA RESULT:      -6.1      1.688      3.677
REMARK  22 active torsions:
REMARK  status: ('A' for Active; 'I' for Inactive)
REMARK    1  A    between atoms: C_2  and  C_3 
REMARK    2  A    between atoms: C_3  and  C_4 
REMARK    3  A    between atoms: C_4  and  C_5 
REMARK    4  A    between atoms: C_5  and  C_6 
REMARK    5  A    between atoms: C_6  and  C_7 
REMARK    6  A    between atoms: C_7  and  C_8 
REMARK    7  A    between atoms: C_8  and  C_9 
REMARK    8  A    between atoms: C_10  and  C_11 
REMARK    9  A    between atoms: C_11  and  C_12 
REMARK   10  A    between atoms: C_12  and  C_13 
REMARK   11  A    between atoms: C_13  and  C_14 
REMARK   12  A    between atoms: C_14  and  C_15 
REMARK   13  A    between atoms: C_15  and  C_16 
REMARK   14  A    between atoms: C_16  and  C_17 
REMARK   15  A    between atoms: C_17  and  C_18 
REMARK   16  A    between atoms: C_18  and  O_19 
REMARK   17  A    between atoms: O_19  and  C_20 
REMARK   18  A    between atoms: C_20  and  C_21 
REMARK   19  A    between atoms: C_21  and  O_22 
REMARK   20  A    between atoms: O_22  and  C_23 
REMARK   21  A    between atoms: C_23  and  C_24 
REMARK   22  A    between atoms: C_24  and  O_25 
ROOT
HETATM    1  C   UNL     1     -21.838  -7.524  -1.193  1.00  0.00     0.000 C 
ENDROOT
BRANCH   1   2
HETATM    2  C   UNL     1     -22.781  -7.745  -0.017  1.00  0.00     0.004 C 
BRANCH   2   3
HETATM    3  C   UNL     1     -22.018  -8.202   1.223  1.00  0.00     0.027 C 
BRANCH   3   4
HETATM    4  C   UNL     1     -20.854  -9.050   0.850  1.00  0.00    -0.031 C 
HETATM    5  C   UNL     1     -20.913 -10.387   0.856  1.00  0.00    -0.031 C 
BRANCH   5   6
HETATM    6  C   UNL     1     -19.751 -11.239   0.474  1.00  0.00     0.027 C 
BRANCH   6   7
HETATM    7  C   UNL     1     -20.172 -12.262  -0.570  1.00  0.00     0.004 C 
BRANCH   7   8
HETATM    8  C   UNL     1     -20.639 -11.551  -1.833  1.00  0.00     0.000 C 
BRANCH   8   9
HETATM    9  C   UNL     1     -22.031 -12.019  -2.221  1.00  0.00     0.000 C 
BRANCH   9  10
HETATM   10  C   UNL     1     -23.057 -10.935  -1.923  1.00  0.00     0.000 C 
BRANCH  10  11
HETATM   11  C   UNL     1     -24.066 -11.429  -0.894  1.00  0.00    -0.000 C 
BRANCH  11  12
HETATM   12  C   UNL     1     -23.782 -12.875  -0.506  1.00  0.00    -0.005 C 
HETATM   13  C   UNL     1     -23.469 -12.980   0.974  1.00  0.00     0.005 C 
ENDBRANCH  11  12
ENDBRANCH  10  11
ENDBRANCH   9  10
ENDBRANCH   8   9
ENDBRANCH   7   8
ENDBRANCH   6   7
ENDBRANCH   5   6
ENDBRANCH   3   4
ENDBRANCH   2   3
ENDBRANCH   1   2
BRANCH   1  14
HETATM   14  C   UNL     1     -22.167  -6.233  -1.934  1.00  0.00     0.000 C 
BRANCH  14  15
HETATM   15  C   UNL     1     -21.354  -6.110  -3.207  1.00  0.00     0.000 C 
BRANCH  15  16
HETATM   16  C   UNL     1     -21.583  -7.337  -4.084  1.00  0.00     0.002 C 
BRANCH  16  17
HETATM   17  C   UNL     1     -21.335  -7.018  -5.540  1.00  0.00     0.026 C 
BRANCH  17  18
HETATM   18  C   UNL     1     -20.878  -5.569  -5.681  1.00  0.00     0.167 C 
BRANCH  18  19
HETATM   19  O   UNL     1     -20.264  -5.433  -6.956  1.00  0.00    -0.389 OA
BRANCH  19  20
HETATM   20  C   UNL     1     -21.257  -5.242  -7.957  1.00  0.00     0.193 C 
BRANCH  20  21
HETATM   21  C   UNL     1     -21.857  -3.859  -7.808  1.00  0.00     0.193 C 
BRANCH  21  22
HETATM   22  O   UNL     1     -22.464  -3.483  -9.044  1.00  0.00    -0.387 OA
BRANCH  22  23
HETATM   23  C   UNL     1     -23.636  -4.265  -9.278  1.00  0.00     0.193 C 
BRANCH  23  24
HETATM   24  C   UNL     1     -24.760  -3.340  -9.724  1.00  0.00     0.190 C 
BRANCH  24  25
HETATM   25  O   UNL     1     -24.795  -3.230 -11.145  1.00  0.00    -0.399 OA
HETATM   26  H   UNL     1     -24.122  -3.864 -11.464  1.00  0.00     0.209 HD
ENDBRANCH  24  25
ENDBRANCH  23  24
ENDBRANCH  22  23
ENDBRANCH  21  22
ENDBRANCH  20  21
ENDBRANCH  19  20
ENDBRANCH  18  19
ENDBRANCH  17  18
ENDBRANCH  16  17
ENDBRANCH  15  16
ENDBRANCH  14  15
ENDBRANCH   1  14
TORSDOF 22
BEGIN_RES ARG D 557
REMARK  4 active torsions:
REMARK  status: ('A' for Active; 'I' for Inactive)
REMARK    1  A    between atoms: CA   and  CB  
REMARK    2  A    between atoms: CB   and  CG  
REMARK    3  A    between atoms: CG   and  CD  
REMARK    4  A    between atoms: CD   and  NE  
REMARK       I    between atoms: NE   and  CZ  
REMARK       I    between atoms: CZ   and  NH1 
REMARK       I    between atoms: CZ   and  NH2 
ROOT
ATOM      1  CA  ARG D 557     -26.217   2.705 -17.014  1.00 35.49     0.159 C 
ENDROOT
BRANCH   1   2
ATOM      2  CB  ARG D 557     -26.789   1.319 -17.183  1.00 35.49     0.034 C 
BRANCH   2   3
ATOM      3  CG  ARG D 557     -25.834   0.204 -17.169  1.00 35.49     0.027 C 
BRANCH   3   4
ATOM      4  CD  ARG D 557     -25.080   0.123 -15.897  1.00 35.49     0.116 C 
BRANCH   4   5
ATOM      5  NE  ARG D 557     -25.455  -1.026 -15.116  1.00 35.49    -0.212 N 
ATOM      6  CZ  ARG D 557     -24.642  -1.972 -14.701  1.00 35.49     0.666 C 
ATOM      7  NH1 ARG D 557     -23.352  -1.971 -14.981  1.00 35.49    -0.235 N 
ATOM      8  NH2 ARG D 557     -25.152  -2.930 -13.984  1.00 35.49    -0.235 N 
ATOM      9  HH  ARG D 557     -22.994  -1.349 -15.450  1.00 35.49     0.174 HD
ATOM     10  HH  ARG D 557     -22.870  -2.612 -14.681  1.00 35.49     0.174 HD
ATOM     11  HH  ARG D 557     -25.987  -2.901 -13.812  1.00 35.49     0.174 HD
ATOM     12  HH  ARG D 557     -24.658  -3.556 -13.695  1.00 35.49     0.174 HD
ATOM     13  HE  ARG D 557     -26.281  -1.145 -14.952  1.00 35.49     0.178 HD
ENDBRANCH   4   5
ENDBRANCH   3   4
ENDBRANCH   2   3
ENDBRANCH   1   2
END_RES ARG D 557
BEGIN_RES GLU D 570
REMARK  3 active torsions:
REMARK  status: ('A' for Active; 'I' for Inactive)
REMARK    5  A    between atoms: CA   and  CB  
REMARK    6  A    between atoms: CB   and  CG  
REMARK    7  A    between atoms: CG   and  CD  
ROOT
ATOM     14  CA  GLU D 570     -18.033  -6.348 -13.375  1.00 32.92     0.160 C 
ENDROOT
BRANCH  14  15
ATOM     15  CB  GLU D 570     -19.500  -6.345 -13.794  1.00 32.92     0.043 C 
BRANCH  15  16
ATOM     16  CG  GLU D 570     -20.450  -5.570 -12.955  1.00 32.92     0.100 C 
BRANCH  16  17
ATOM     17  CD  GLU D 570     -21.656  -5.085 -13.725  1.00 32.92     0.185 C 
ATOM     18  OE1 GLU D 570     -21.732  -5.325 -14.945  1.00 32.92    -0.647 OA
ATOM     19  OE2 GLU D 570     -22.527  -4.444 -13.104  1.00 32.92    -0.647 OA
ENDBRANCH  16  17
ENDBRANCH  15  16
ENDBRANCH  14  15
END_RES GLU D 570
ENDMDL
MODEL 9
REMARK VINA RESULT:      -6.0      2.184      4.050
REMARK  22 active torsions:
REMARK  status: ('A' for Active; 'I' for Inactive)
REMARK    1  A    between atoms: C_2  and  C_3 
REMARK    2  A    between atoms: C_3  and  C_4 
REMARK    3  A    between atoms: C_4  and  C_5 
REMARK    4  A    between atoms: C_5  and  C_6 
REMARK    5  A    between atoms: C_6  and  C_7 
REMARK    6  A    between atoms: C_7  and  C_8 
REMARK    7  A    between atoms: C_8  and  C_9 
REMARK    8  A    between atoms: C_10  and  C_11 
REMARK    9  A    between atoms: C_11  and  C_12 
REMARK   10  A    between atoms: C_12  and  C_13 
REMARK   11  A    between atoms: C_13  and  C_14 
REMARK   12  A    between atoms: C_14  and  C_15 
REMARK   13  A    between atoms: C_15  and  C_16 
REMARK   14  A    between atoms: C_16  and  C_17 
REMARK   15  A    between atoms: C_17  and  C_18 
REMARK   16  A    between atoms: C_18  and  O_19 
REMARK   17  A    between atoms: O_19  and  C_20 
REMARK   18  A    between atoms: C_20  and  C_21 
REMARK   19  A    between atoms: C_21  and  O_22 
REMARK   20  A    between atoms: O_22  and  C_23 
REMARK   21  A    between atoms: C_23  and  C_24 
REMARK   22  A    between atoms: C_24  and  O_25 
ROOT
HETATM    1  C   UNL     1     -21.304  -3.975  -7.150  1.00  0.00     0.000 C 
ENDROOT
BRANCH   1   2
HETATM    2  C   UNL     1     -20.098  -4.777  -6.677  1.00  0.00     0.004 C 
BRANCH   2   3
HETATM    3  C   UNL     1     -20.531  -6.049  -5.954  1.00  0.00     0.027 C 
BRANCH   3   4
HETATM    4  C   UNL     1     -20.843  -5.770  -4.526  1.00  0.00    -0.031 C 
HETATM    5  C   UNL     1     -21.696  -6.523  -3.821  1.00  0.00    -0.031 C 
BRANCH   5   6
HETATM    6  C   UNL     1     -22.004  -6.251  -2.388  1.00  0.00     0.027 C 
BRANCH   6   7
HETATM    7  C   UNL     1     -21.806  -7.513  -1.562  1.00  0.00     0.004 C 
BRANCH   7   8
HETATM    8  C   UNL     1     -22.452  -7.343  -0.195  1.00  0.00     0.000 C 
BRANCH   8   9
HETATM    9  C   UNL     1     -22.949  -8.682   0.327  1.00  0.00     0.000 C 
BRANCH   9  10
HETATM   10  C   UNL     1     -22.900  -9.731  -0.775  1.00  0.00     0.000 C 
BRANCH  10  11
HETATM   11  C   UNL     1     -23.576 -11.016  -0.315  1.00  0.00    -0.000 C 
BRANCH  11  12
HETATM   12  C   UNL     1     -22.576 -11.939   0.373  1.00  0.00    -0.005 C 
HETATM   13  C   UNL     1     -23.297 -13.004   1.177  1.00  0.00     0.005 C 
ENDBRANCH  11  12
ENDBRANCH  10  11
ENDBRANCH   9  10
ENDBRANCH   8   9
ENDBRANCH   7   8
ENDBRANCH   6   7
ENDBRANCH   5   6
ENDBRANCH   3   4
ENDBRANCH   2   3
ENDBRANCH   1   2
BRANCH   1  14
HETATM   14  C   UNL     1     -22.098  -4.737  -8.205  1.00  0.00     0.000 C 
BRANCH  14  15
HETATM   15  C   UNL     1     -22.415  -3.852  -9.395  1.00  0.00     0.000 C 
BRANCH  15  16
HETATM   16  C   UNL     1     -23.908  -3.916  -9.698  1.00  0.00     0.002 C 
BRANCH  16  17
HETATM   17  C   UNL     1     -24.172  -3.723 -11.174  1.00  0.00     0.026 C 
BRANCH  17  18
HETATM   18  C   UNL     1     -23.388  -4.756 -11.979  1.00  0.00     0.167 C 
BRANCH  18  19
HETATM   19  O   UNL     1     -23.384  -4.333 -13.336  1.00  0.00    -0.389 OA
BRANCH  19  20
HETATM   20  C   UNL     1     -24.418  -4.994 -14.054  1.00  0.00     0.193 C 
BRANCH  20  21
HETATM   21  C   UNL     1     -23.893  -6.312 -14.587  1.00  0.00     0.193 C 
BRANCH  21  22
HETATM   22  O   UNL     1     -24.999  -7.135 -14.953  1.00  0.00    -0.387 OA
BRANCH  22  23
HETATM   23  C   UNL     1     -25.657  -6.599 -16.102  1.00  0.00     0.193 C 
BRANCH  23  24
HETATM   24  C   UNL     1     -27.161  -6.643 -15.869  1.00  0.00     0.190 C 
BRANCH  24  25
HETATM   25  O   UNL     1     -27.506  -7.695 -14.970  1.00  0.00    -0.399 OA
HETATM   26  H   UNL     1     -27.957  -8.363 -15.523  1.00  0.00     0.209 HD
ENDBRANCH  24  25
ENDBRANCH  23  24
ENDBRANCH  22  23
ENDBRANCH  21  22
ENDBRANCH  20  21
ENDBRANCH  19  20
ENDBRANCH  18  19
ENDBRANCH  17  18
ENDBRANCH  16  17
ENDBRANCH  15  16
ENDBRANCH  14  15
ENDBRANCH   1  14
TORSDOF 22
BEGIN_RES ARG D 557
REMARK  4 active torsions:
REMARK  status: ('A' for Active; 'I' for Inactive)
REMARK    1  A    between atoms: CA   and  CB  
REMARK    2  A    between atoms: CB   and  CG  
REMARK    3  A    between atoms: CG   and  CD  
REMARK    4  A    between atoms: CD   and  NE  
REMARK       I    between atoms: NE   and  CZ  
REMARK       I    between atoms: CZ   and  NH1 
REMARK       I    between atoms: CZ   and  NH2 
ROOT
ATOM      1  CA  ARG D 557     -26.217   2.705 -17.014  1.00 35.49     0.159 C 
ENDROOT
BRANCH   1   2
ATOM      2  CB  ARG D 557     -26.789   1.319 -17.183  1.00 35.49     0.034 C 
BRANCH   2   3
ATOM      3  CG  ARG D 557     -25.971   0.203 -16.694  1.00 35.49     0.027 C 
BRANCH   3   4
ATOM      4  CD  ARG D 557     -24.784   0.662 -15.937  1.00 35.49     0.116 C 
BRANCH   4   5
ATOM      5  NE  ARG D 557     -23.749  -0.337 -15.892  1.00 35.49    -0.212 N 
ATOM      6  CZ  ARG D 557     -23.676  -1.329 -15.034  1.00 35.49     0.666 C 
ATOM      7  NH1 ARG D 557     -24.570  -1.509 -14.080  1.00 35.49    -0.235 N 
ATOM      8  NH2 ARG D 557     -22.677  -2.155 -15.155  1.00 35.49    -0.235 N 
ATOM      9  HH  ARG D 557     -25.236  -0.979 -13.983  1.00 35.49     0.174 HD
ATOM     10  HH  ARG D 557     -24.472  -2.176 -13.550  1.00 35.49     0.174 HD
ATOM     11  HH  ARG D 557     -22.119  -2.019 -15.785  1.00 35.49     0.174 HD
ATOM     12  HH  ARG D 557     -22.598  -2.810 -14.622  1.00 35.49     0.174 HD
ATOM     13  HE  ARG D 557     -23.092  -0.255 -16.426  1.00 35.49     0.178 HD
ENDBRANCH   4   5
ENDBRANCH   3   4
ENDBRANCH   2   3
ENDBRANCH   1   2
END_RES ARG D 557
BEGIN_RES GLU D 570
REMARK  3 active torsions:
REMARK  status: ('A' for Active; 'I' for Inactive)
REMARK    5  A    between atoms: CA   and  CB  
REMARK    6  A    between atoms: CB   and  CG  
REMARK    7  A    between atoms: CG   and  CD  
ROOT
ATOM     14  CA  GLU D 570     -18.033  -6.348 -13.375  1.00 32.92     0.160 C 
ENDROOT
BRANCH  14  15
ATOM     15  CB  GLU D 570     -19.500  -6.345 -13.794  1.00 32.92     0.043 C 
BRANCH  15  16
ATOM     16  CG  GLU D 570     -19.822  -6.827 -15.162  1.00 32.92     0.100 C 
BRANCH  16  17
ATOM     17  CD  GLU D 570     -20.522  -5.785 -16.004  1.00 32.92     0.185 C 
ATOM     18  OE1 GLU D 570     -21.058  -4.812 -15.441  1.00 32.92    -0.647 OA
ATOM     19  OE2 GLU D 570     -20.549  -5.954 -17.239  1.00 32.92    -0.647 OA
ENDBRANCH  16  17
ENDBRANCH  15  16
ENDBRANCH  14  15
END_RES GLU D 570
ENDMDL
