MODEL 1
REMARK VINA RESULT:      -7.2      0.000      0.000
REMARK  13 active torsions:
REMARK  status: ('A' for Active; 'I' for Inactive)
REMARK    1  A    between atoms: C_2  and  C_3 
REMARK    2  A    between atoms: C_3  and  C_4 
REMARK    3  A    between atoms: C_4  and  C_5 
REMARK    4  A    between atoms: C_5  and  C_6 
REMARK    5  A    between atoms: C_6  and  C_7 
REMARK    6  A    between atoms: C_7  and  C_8 
REMARK    7  A    between atoms: C_8  and  C_9 
REMARK    8  A    between atoms: C_9  and  C_10 
REMARK    9  A    between atoms: C_10  and  C_11 
REMARK   10  A    between atoms: C_11  and  C_12 
REMARK       I    between atoms: C_12  and  N_14 
REMARK   11  A    between atoms: N_14  and  C_15 
REMARK   12  A    between atoms: C_15  and  C_16 
REMARK   13  A    between atoms: C_16  and  O_18 
ROOT
HETATM    1  C   UNL     1     -22.931  -3.980  -8.745  1.00  0.00     0.009 C 
ENDROOT
BRANCH   1   2
HETATM    2  C   UNL     1     -21.708  -4.663  -8.151  1.00  0.00     0.000 C 
BRANCH   2   3
HETATM    3  C   UNL     1     -21.214  -3.882  -6.934  1.00  0.00     0.000 C 
BRANCH   3   4
HETATM    4  C   UNL     1     -20.597  -4.814  -5.899  1.00  0.00     0.000 C 
BRANCH   4   5
HETATM    5  C   UNL     1     -21.266  -6.183  -5.937  1.00  0.00     0.000 C 
BRANCH   5   6
HETATM    6  C   UNL     1     -22.109  -6.403  -4.687  1.00  0.00     0.000 C 
BRANCH   6   7
HETATM    7  C   UNL     1     -21.260  -6.268  -3.427  1.00  0.00     0.000 C 
BRANCH   7   8
HETATM    8  C   UNL     1     -22.137  -6.317  -2.180  1.00  0.00    -0.000 C 
BRANCH   8   9
HETATM    9  C   UNL     1     -21.697  -7.438  -1.243  1.00  0.00    -0.005 C 
HETATM   10  C   UNL     1     -22.678  -7.605  -0.097  1.00  0.00     0.005 C 
ENDBRANCH   8   9
ENDBRANCH   7   8
ENDBRANCH   6   7
ENDBRANCH   5   6
ENDBRANCH   4   5
ENDBRANCH   3   4
ENDBRANCH   2   3
ENDBRANCH   1   2
BRANCH   1  11
HETATM   11  C   UNL     1     -22.739  -3.598 -10.209  1.00  0.00     0.103 C 
BRANCH  11  12
HETATM   12  C   UNL     1     -24.080  -3.279 -10.842  1.00  0.00     0.217 C 
HETATM   13  O   UNL     1     -25.119  -3.178 -10.202  1.00  0.00    -0.274 OA
HETATM   14  N   UNL     1     -24.024  -3.095 -12.203  1.00  0.00    -0.359 N 
HETATM   15  H   UNL     1     -23.164  -3.278 -12.710  1.00  0.00     0.162 HD
BRANCH  14  16
HETATM   16  C   UNL     1     -25.211  -2.759 -12.967  1.00  0.00     0.153 C 
BRANCH  16  17
HETATM   17  C   UNL     1     -24.910  -2.658 -14.466  1.00  0.00     0.132 C 
HETATM   18  C   UNL     1     -23.659  -1.825 -14.709  1.00  0.00     0.041 C 
BRANCH  17  19
HETATM   19  O   UNL     1     -24.717  -3.970 -15.007  1.00  0.00    -0.394 OA
HETATM   20  H   UNL     1     -23.913  -3.950 -15.554  1.00  0.00     0.210 HD
ENDBRANCH  17  19
ENDBRANCH  16  17
ENDBRANCH  14  16
ENDBRANCH  11  12
ENDBRANCH   1  11
TORSDOF 13
BEGIN_RES ARG D 557
REMARK  4 active torsions:
REMARK  status: ('A' for Active; 'I' for Inactive)
REMARK    1  A    between atoms: CA   and  CB  
REMARK    2  A    between atoms: CB   and  CG  
REMARK    3  A    between atoms: CG   and  CD  
REMARK    4  A    between atoms: CD   and  NE  
REMARK       I    between atoms: NE   and  CZ  
REMARK       I    between atoms: CZ   and  NH1 
REMARK       I    between atoms: CZ   and  NH2 
ROOT
ATOM      1  CA  ARG D 557     -26.217   2.705 -17.014  1.00 35.49     0.159 C 
ENDROOT
BRANCH   1   2
ATOM      2  CB  ARG D 557     -26.789   1.319 -17.183  1.00 35.49     0.034 C 
BRANCH   2   3
ATOM      3  CG  ARG D 557     -28.176   1.119 -16.746  1.00 35.49     0.027 C 
BRANCH   3   4
ATOM      4  CD  ARG D 557     -28.738  -0.166 -17.223  1.00 35.49     0.116 C 
BRANCH   4   5
ATOM      5  NE  ARG D 557     -28.030  -1.299 -16.687  1.00 35.49    -0.212 N 
ATOM      6  CZ  ARG D 557     -28.351  -2.560 -16.869  1.00 35.49     0.666 C 
ATOM      7  NH1 ARG D 557     -29.402  -2.930 -17.577  1.00 35.49    -0.235 N 
ATOM      8  NH2 ARG D 557     -27.582  -3.459 -16.326  1.00 35.49    -0.235 N 
ATOM      9  HH  ARG D 557     -29.920  -2.356 -17.946  1.00 35.49     0.174 HD
ATOM     10  HH  ARG D 557     -29.560  -3.768 -17.664  1.00 35.49     0.174 HD
ATOM     11  HH  ARG D 557     -26.906  -3.191 -15.881  1.00 35.49     0.174 HD
ATOM     12  HH  ARG D 557     -27.754  -4.284 -16.425  1.00 35.49     0.174 HD
ATOM     13  HE  ARG D 557     -27.381  -1.151 -16.158  1.00 35.49     0.178 HD
ENDBRANCH   4   5
ENDBRANCH   3   4
ENDBRANCH   2   3
ENDBRANCH   1   2
END_RES ARG D 557
BEGIN_RES GLU D 570
REMARK  3 active torsions:
REMARK  status: ('A' for Active; 'I' for Inactive)
REMARK    5  A    between atoms: CA   and  CB  
REMARK    6  A    between atoms: CB   and  CG  
REMARK    7  A    between atoms: CG   and  CD  
ROOT
ATOM     14  CA  GLU D 570     -18.033  -6.348 -13.375  1.00 32.92     0.160 C 
ENDROOT
BRANCH  14  15
ATOM     15  CB  GLU D 570     -19.500  -6.345 -13.794  1.00 32.92     0.043 C 
BRANCH  15  16
ATOM     16  CG  GLU D 570     -20.422  -5.445 -13.054  1.00 32.92     0.100 C 
BRANCH  16  17
ATOM     17  CD  GLU D 570     -21.717  -5.194 -13.789  1.00 32.92     0.185 C 
ATOM     18  OE1 GLU D 570     -21.679  -4.702 -14.933  1.00 32.92    -0.647 OA
ATOM     19  OE2 GLU D 570     -22.784  -5.478 -13.208  1.00 32.92    -0.647 OA
ENDBRANCH  16  17
ENDBRANCH  15  16
ENDBRANCH  14  15
END_RES GLU D 570
ENDMDL
MODEL 2
REMARK VINA RESULT:      -6.8      5.822     10.821
REMARK  13 active torsions:
REMARK  status: ('A' for Active; 'I' for Inactive)
REMARK    1  A    between atoms: C_2  and  C_3 
REMARK    2  A    between atoms: C_3  and  C_4 
REMARK    3  A    between atoms: C_4  and  C_5 
REMARK    4  A    between atoms: C_5  and  C_6 
REMARK    5  A    between atoms: C_6  and  C_7 
REMARK    6  A    between atoms: C_7  and  C_8 
REMARK    7  A    between atoms: C_8  and  C_9 
REMARK    8  A    between atoms: C_9  and  C_10 
REMARK    9  A    between atoms: C_10  and  C_11 
REMARK   10  A    between atoms: C_11  and  C_12 
REMARK       I    between atoms: C_12  and  N_14 
REMARK   11  A    between atoms: N_14  and  C_15 
REMARK   12  A    between atoms: C_15  and  C_16 
REMARK   13  A    between atoms: C_16  and  O_18 
ROOT
HETATM    1  C   UNL     1     -35.959  -0.732 -15.645  1.00  0.00     0.009 C 
ENDROOT
BRANCH   1   2
HETATM    2  C   UNL     1     -35.113   0.358 -15.002  1.00  0.00     0.000 C 
BRANCH   2   3
HETATM    3  C   UNL     1     -35.480   0.498 -13.526  1.00  0.00     0.000 C 
BRANCH   3   4
HETATM    4  C   UNL     1     -34.689  -0.481 -12.668  1.00  0.00     0.000 C 
BRANCH   4   5
HETATM    5  C   UNL     1     -35.623  -1.467 -11.974  1.00  0.00     0.000 C 
BRANCH   5   6
HETATM    6  C   UNL     1     -34.975  -2.018 -10.709  1.00  0.00     0.000 C 
BRANCH   6   7
HETATM    7  C   UNL     1     -33.467  -2.168 -10.891  1.00  0.00     0.000 C 
BRANCH   7   8
HETATM    8  C   UNL     1     -33.121  -3.571 -11.377  1.00  0.00    -0.000 C 
BRANCH   8   9
HETATM    9  C   UNL     1     -33.898  -4.629 -10.600  1.00  0.00    -0.005 C 
HETATM   10  C   UNL     1     -34.508  -5.655 -11.539  1.00  0.00     0.005 C 
ENDBRANCH   8   9
ENDBRANCH   7   8
ENDBRANCH   6   7
ENDBRANCH   5   6
ENDBRANCH   4   5
ENDBRANCH   3   4
ENDBRANCH   2   3
ENDBRANCH   1   2
BRANCH   1  11
HETATM   11  C   UNL     1     -35.237  -1.439 -16.788  1.00  0.00     0.103 C 
BRANCH  11  12
HETATM   12  C   UNL     1     -34.507  -2.661 -16.263  1.00  0.00     0.217 C 
HETATM   13  O   UNL     1     -34.689  -3.124 -15.144  1.00  0.00    -0.274 OA
HETATM   14  N   UNL     1     -33.632  -3.216 -17.165  1.00  0.00    -0.359 N 
HETATM   15  H   UNL     1     -33.440  -2.752 -18.047  1.00  0.00     0.162 HD
BRANCH  14  16
HETATM   16  C   UNL     1     -32.867  -4.406 -16.837  1.00  0.00     0.153 C 
BRANCH  16  17
HETATM   17  C   UNL     1     -31.360  -4.168 -16.982  1.00  0.00     0.132 C 
HETATM   18  C   UNL     1     -30.644  -5.458 -17.359  1.00  0.00     0.041 C 
BRANCH  17  19
HETATM   19  O   UNL     1     -31.123  -3.183 -17.994  1.00  0.00    -0.394 OA
HETATM   20  H   UNL     1     -31.984  -2.926 -18.366  1.00  0.00     0.210 HD
ENDBRANCH  17  19
ENDBRANCH  16  17
ENDBRANCH  14  16
ENDBRANCH  11  12
ENDBRANCH   1  11
TORSDOF 13
BEGIN_RES ARG D 557
REMARK  4 active torsions:
REMARK  status: ('A' for Active; 'I' for Inactive)
REMARK    1  A    between atoms: CA   and  CB  
REMARK    2  A    between atoms: CB   and  CG  
REMARK    3  A    between atoms: CG   and  CD  
REMARK    4  A    between atoms: CD   and  NE  
REMARK       I    between atoms: NE   and  CZ  
REMARK       I    between atoms: CZ   and  NH1 
REMARK       I    between atoms: CZ   and  NH2 
ROOT
ATOM      1  CA  ARG D 557     -26.217   2.705 -17.014  1.00 35.49     0.159 C 
ENDROOT
BRANCH   1   2
ATOM      2  CB  ARG D 557     -26.789   1.319 -17.183  1.00 35.49     0.034 C 
BRANCH   2   3
ATOM      3  CG  ARG D 557     -28.231   1.167 -16.957  1.00 35.49     0.027 C 
BRANCH   3   4
ATOM      4  CD  ARG D 557     -28.615  -0.237 -16.684  1.00 35.49     0.116 C 
BRANCH   4   5
ATOM      5  NE  ARG D 557     -27.592  -0.949 -15.964  1.00 35.49    -0.212 N 
ATOM      6  CZ  ARG D 557     -27.360  -2.240 -16.036  1.00 35.49     0.666 C 
ATOM      7  NH1 ARG D 557     -28.079  -3.049 -16.793  1.00 35.49    -0.235 N 
ATOM      8  NH2 ARG D 557     -26.376  -2.713 -15.329  1.00 35.49    -0.235 N 
ATOM      9  HH  ARG D 557     -28.730  -2.759 -17.268  1.00 35.49     0.174 HD
ATOM     10  HH  ARG D 557     -27.880  -3.882 -16.802  1.00 35.49     0.174 HD
ATOM     11  HH  ARG D 557     -25.924  -2.166 -14.855  1.00 35.49     0.174 HD
ATOM     12  HH  ARG D 557     -26.193  -3.541 -15.352  1.00 35.49     0.174 HD
ATOM     13  HE  ARG D 557     -27.129  -0.517 -15.397  1.00 35.49     0.178 HD
ENDBRANCH   4   5
ENDBRANCH   3   4
ENDBRANCH   2   3
ENDBRANCH   1   2
END_RES ARG D 557
BEGIN_RES GLU D 570
REMARK  3 active torsions:
REMARK  status: ('A' for Active; 'I' for Inactive)
REMARK    5  A    between atoms: CA   and  CB  
REMARK    6  A    between atoms: CB   and  CG  
REMARK    7  A    between atoms: CG   and  CD  
ROOT
ATOM     14  CA  GLU D 570     -18.033  -6.348 -13.375  1.00 32.92     0.160 C 
ENDROOT
BRANCH  14  15
ATOM     15  CB  GLU D 570     -19.500  -6.345 -13.794  1.00 32.92     0.043 C 
BRANCH  15  16
ATOM     16  CG  GLU D 570     -20.435  -5.502 -13.006  1.00 32.92     0.100 C 
BRANCH  16  17
ATOM     17  CD  GLU D 570     -21.710  -5.180 -13.751  1.00 32.92     0.185 C 
ATOM     18  OE1 GLU D 570     -21.651  -4.929 -14.970  1.00 32.92    -0.647 OA
ATOM     19  OE2 GLU D 570     -22.776  -5.164 -13.105  1.00 32.92    -0.647 OA
ENDBRANCH  16  17
ENDBRANCH  15  16
ENDBRANCH  14  15
END_RES GLU D 570
ENDMDL
MODEL 3
REMARK VINA RESULT:      -6.8      1.419      1.880
REMARK  13 active torsions:
REMARK  status: ('A' for Active; 'I' for Inactive)
REMARK    1  A    between atoms: C_2  and  C_3 
REMARK    2  A    between atoms: C_3  and  C_4 
REMARK    3  A    between atoms: C_4  and  C_5 
REMARK    4  A    between atoms: C_5  and  C_6 
REMARK    5  A    between atoms: C_6  and  C_7 
REMARK    6  A    between atoms: C_7  and  C_8 
REMARK    7  A    between atoms: C_8  and  C_9 
REMARK    8  A    between atoms: C_9  and  C_10 
REMARK    9  A    between atoms: C_10  and  C_11 
REMARK   10  A    between atoms: C_11  and  C_12 
REMARK       I    between atoms: C_12  and  N_14 
REMARK   11  A    between atoms: N_14  and  C_15 
REMARK   12  A    between atoms: C_15  and  C_16 
REMARK   13  A    between atoms: C_16  and  O_18 
ROOT
HETATM    1  C   UNL     1     -20.070  -5.339  -8.150  1.00  0.00     0.009 C 
ENDROOT
BRANCH   1   2
HETATM    2  C   UNL     1     -19.336  -4.598  -7.042  1.00  0.00     0.000 C 
BRANCH   2   3
HETATM    3  C   UNL     1     -20.067  -4.789  -5.714  1.00  0.00     0.000 C 
BRANCH   3   4
HETATM    4  C   UNL     1     -20.435  -6.251  -5.496  1.00  0.00     0.000 C 
BRANCH   4   5
HETATM    5  C   UNL     1     -21.893  -6.383  -5.069  1.00  0.00     0.000 C 
BRANCH   5   6
HETATM    6  C   UNL     1     -21.997  -7.121  -3.740  1.00  0.00     0.000 C 
BRANCH   6   7
HETATM    7  C   UNL     1     -21.463  -6.263  -2.597  1.00  0.00     0.000 C 
BRANCH   7   8
HETATM    8  C   UNL     1     -22.318  -6.439  -1.347  1.00  0.00    -0.000 C 
BRANCH   8   9
HETATM    9  C   UNL     1     -21.903  -7.683  -0.568  1.00  0.00    -0.005 C 
HETATM   10  C   UNL     1     -23.008  -8.130   0.372  1.00  0.00     0.005 C 
ENDBRANCH   8   9
ENDBRANCH   7   8
ENDBRANCH   6   7
ENDBRANCH   5   6
ENDBRANCH   4   5
ENDBRANCH   3   4
ENDBRANCH   2   3
ENDBRANCH   1   2
BRANCH   1  11
HETATM   11  C   UNL     1     -20.445  -4.431  -9.317  1.00  0.00     0.103 C 
BRANCH  11  12
HETATM   12  C   UNL     1     -21.928  -4.116  -9.272  1.00  0.00     0.217 C 
HETATM   13  O   UNL     1     -22.491  -3.666  -8.282  1.00  0.00    -0.274 OA
HETATM   14  N   UNL     1     -22.586  -4.365 -10.453  1.00  0.00    -0.359 N 
HETATM   15  H   UNL     1     -22.106  -4.823 -11.220  1.00  0.00     0.162 HD
BRANCH  14  16
HETATM   16  C   UNL     1     -24.006  -4.097 -10.595  1.00  0.00     0.153 C 
BRANCH  16  17
HETATM   17  C   UNL     1     -24.275  -3.004 -11.634  1.00  0.00     0.132 C 
HETATM   18  C   UNL     1     -22.969  -2.394 -12.125  1.00  0.00     0.041 C 
BRANCH  17  19
HETATM   19  O   UNL     1     -24.983  -3.562 -12.747  1.00  0.00    -0.394 OA
HETATM   20  H   UNL     1     -24.326  -3.839 -13.409  1.00  0.00     0.210 HD
ENDBRANCH  17  19
ENDBRANCH  16  17
ENDBRANCH  14  16
ENDBRANCH  11  12
ENDBRANCH   1  11
TORSDOF 13
BEGIN_RES ARG D 557
REMARK  4 active torsions:
REMARK  status: ('A' for Active; 'I' for Inactive)
REMARK    1  A    between atoms: CA   and  CB  
REMARK    2  A    between atoms: CB   and  CG  
REMARK    3  A    between atoms: CG   and  CD  
REMARK    4  A    between atoms: CD   and  NE  
REMARK       I    between atoms: NE   and  CZ  
REMARK       I    between atoms: CZ   and  NH1 
REMARK       I    between atoms: CZ   and  NH2 
ROOT
ATOM      1  CA  ARG D 557     -26.217   2.705 -17.014  1.00 35.49     0.159 C 
ENDROOT
BRANCH   1   2
ATOM      2  CB  ARG D 557     -26.789   1.319 -17.183  1.00 35.49     0.034 C 
BRANCH   2   3
ATOM      3  CG  ARG D 557     -28.234   1.170 -16.972  1.00 35.49     0.027 C 
BRANCH   3   4
ATOM      4  CD  ARG D 557     -28.621  -0.229 -16.681  1.00 35.49     0.116 C 
BRANCH   4   5
ATOM      5  NE  ARG D 557     -27.584  -0.945 -15.986  1.00 35.49    -0.212 N 
ATOM      6  CZ  ARG D 557     -27.377  -2.242 -16.040  1.00 35.49     0.666 C 
ATOM      7  NH1 ARG D 557     -28.138  -3.052 -16.753  1.00 35.49    -0.235 N 
ATOM      8  NH2 ARG D 557     -26.375  -2.719 -15.361  1.00 35.49    -0.235 N 
ATOM      9  HH  ARG D 557     -28.802  -2.760 -17.210  1.00 35.49     0.174 HD
ATOM     10  HH  ARG D 557     -27.954  -3.889 -16.753  1.00 35.49     0.174 HD
ATOM     11  HH  ARG D 557     -25.896  -2.171 -14.916  1.00 35.49     0.174 HD
ATOM     12  HH  ARG D 557     -26.208  -3.550 -15.374  1.00 35.49     0.174 HD
ATOM     13  HE  ARG D 557     -27.092  -0.511 -15.446  1.00 35.49     0.178 HD
ENDBRANCH   4   5
ENDBRANCH   3   4
ENDBRANCH   2   3
ENDBRANCH   1   2
END_RES ARG D 557
BEGIN_RES GLU D 570
REMARK  3 active torsions:
REMARK  status: ('A' for Active; 'I' for Inactive)
REMARK    5  A    between atoms: CA   and  CB  
REMARK    6  A    between atoms: CB   and  CG  
REMARK    7  A    between atoms: CG   and  CD  
ROOT
ATOM     14  CA  GLU D 570     -18.033  -6.348 -13.375  1.00 32.92     0.160 C 
ENDROOT
BRANCH  14  15
ATOM     15  CB  GLU D 570     -19.500  -6.345 -13.794  1.00 32.92     0.043 C 
BRANCH  15  16
ATOM     16  CG  GLU D 570     -20.424  -5.454 -13.045  1.00 32.92     0.100 C 
BRANCH  16  17
ATOM     17  CD  GLU D 570     -21.726  -5.212 -13.772  1.00 32.92     0.185 C 
ATOM     18  OE1 GLU D 570     -21.713  -4.568 -14.839  1.00 32.92    -0.647 OA
ATOM     19  OE2 GLU D 570     -22.773  -5.655 -13.260  1.00 32.92    -0.647 OA
ENDBRANCH  16  17
ENDBRANCH  15  16
ENDBRANCH  14  15
END_RES GLU D 570
ENDMDL
MODEL 4
REMARK VINA RESULT:      -6.7      2.406      4.534
REMARK  13 active torsions:
REMARK  status: ('A' for Active; 'I' for Inactive)
REMARK    1  A    between atoms: C_2  and  C_3 
REMARK    2  A    between atoms: C_3  and  C_4 
REMARK    3  A    between atoms: C_4  and  C_5 
REMARK    4  A    between atoms: C_5  and  C_6 
REMARK    5  A    between atoms: C_6  and  C_7 
REMARK    6  A    between atoms: C_7  and  C_8 
REMARK    7  A    between atoms: C_8  and  C_9 
REMARK    8  A    between atoms: C_9  and  C_10 
REMARK    9  A    between atoms: C_10  and  C_11 
REMARK   10  A    between atoms: C_11  and  C_12 
REMARK       I    between atoms: C_12  and  N_14 
REMARK   11  A    between atoms: N_14  and  C_15 
REMARK   12  A    between atoms: C_15  and  C_16 
REMARK   13  A    between atoms: C_16  and  O_18 
ROOT
HETATM    1  C   UNL     1     -21.676  -6.288  -5.142  1.00  0.00     0.009 C 
ENDROOT
BRANCH   1   2
HETATM    2  C   UNL     1     -21.590  -7.031  -3.817  1.00  0.00     0.000 C 
BRANCH   2   3
HETATM    3  C   UNL     1     -21.605  -6.034  -2.659  1.00  0.00     0.000 C 
BRANCH   3   4
HETATM    4  C   UNL     1     -22.283  -6.629  -1.432  1.00  0.00     0.000 C 
BRANCH   4   5
HETATM    5  C   UNL     1     -21.483  -7.810  -0.892  1.00  0.00     0.000 C 
BRANCH   5   6
HETATM    6  C   UNL     1     -22.064  -8.289   0.433  1.00  0.00     0.000 C 
BRANCH   6   7
HETATM    7  C   UNL     1     -23.325  -9.117   0.208  1.00  0.00     0.000 C 
BRANCH   7   8
HETATM    8  C   UNL     1     -22.969 -10.573  -0.075  1.00  0.00    -0.000 C 
BRANCH   8   9
HETATM    9  C   UNL     1     -23.749 -11.107  -1.272  1.00  0.00    -0.005 C 
HETATM   10  C   UNL     1     -22.914 -11.046  -2.538  1.00  0.00     0.005 C 
ENDBRANCH   8   9
ENDBRANCH   7   8
ENDBRANCH   6   7
ENDBRANCH   5   6
ENDBRANCH   4   5
ENDBRANCH   3   4
ENDBRANCH   2   3
ENDBRANCH   1   2
BRANCH   1  11
HETATM   11  C   UNL     1     -20.566  -5.255  -5.311  1.00  0.00     0.103 C 
BRANCH  11  12
HETATM   12  C   UNL     1     -20.481  -4.818  -6.761  1.00  0.00     0.217 C 
HETATM   13  O   UNL     1     -19.433  -4.488  -7.304  1.00  0.00    -0.274 OA
HETATM   14  N   UNL     1     -21.686  -4.840  -7.420  1.00  0.00    -0.359 N 
HETATM   15  H   UNL     1     -22.544  -5.029  -6.914  1.00  0.00     0.162 HD
BRANCH  14  16
HETATM   16  C   UNL     1     -21.784  -4.475  -8.822  1.00  0.00     0.153 C 
BRANCH  16  17
HETATM   17  C   UNL     1     -23.186  -3.972  -9.179  1.00  0.00     0.132 C 
HETATM   18  C   UNL     1     -23.784  -4.798 -10.310  1.00  0.00     0.041 C 
BRANCH  17  19
HETATM   19  O   UNL     1     -24.037  -4.060  -8.030  1.00  0.00    -0.394 OA
HETATM   20  H   UNL     1     -24.956  -4.106  -8.344  1.00  0.00     0.210 HD
ENDBRANCH  17  19
ENDBRANCH  16  17
ENDBRANCH  14  16
ENDBRANCH  11  12
ENDBRANCH   1  11
TORSDOF 13
BEGIN_RES ARG D 557
REMARK  4 active torsions:
REMARK  status: ('A' for Active; 'I' for Inactive)
REMARK    1  A    between atoms: CA   and  CB  
REMARK    2  A    between atoms: CB   and  CG  
REMARK    3  A    between atoms: CG   and  CD  
REMARK    4  A    between atoms: CD   and  NE  
REMARK       I    between atoms: NE   and  CZ  
REMARK       I    between atoms: CZ   and  NH1 
REMARK       I    between atoms: CZ   and  NH2 
ROOT
ATOM      1  CA  ARG D 557     -26.217   2.705 -17.014  1.00 35.49     0.159 C 
ENDROOT
BRANCH   1   2
ATOM      2  CB  ARG D 557     -26.789   1.319 -17.183  1.00 35.49     0.034 C 
BRANCH   2   3
ATOM      3  CG  ARG D 557     -25.927   0.196 -16.793  1.00 35.49     0.027 C 
BRANCH   3   4
ATOM      4  CD  ARG D 557     -26.673  -0.867 -16.081  1.00 35.49     0.116 C 
BRANCH   4   5
ATOM      5  NE  ARG D 557     -25.883  -1.485 -15.049  1.00 35.49    -0.212 N 
ATOM      6  CZ  ARG D 557     -25.913  -2.756 -14.716  1.00 35.49     0.666 C 
ATOM      7  NH1 ARG D 557     -26.712  -3.625 -15.307  1.00 35.49    -0.235 N 
ATOM      8  NH2 ARG D 557     -25.111  -3.147 -13.769  1.00 35.49    -0.235 N 
ATOM      9  HH  ARG D 557     -27.246  -3.390 -15.934  1.00 35.49     0.174 HD
ATOM     10  HH  ARG D 557     -26.686  -4.442 -15.049  1.00 35.49     0.174 HD
ATOM     11  HH  ARG D 557     -24.601  -2.565 -13.410  1.00 35.49     0.174 HD
ATOM     12  HH  ARG D 557     -25.099  -3.960 -13.529  1.00 35.49     0.174 HD
ATOM     13  HE  ARG D 557     -25.392  -0.984 -14.568  1.00 35.49     0.178 HD
ENDBRANCH   4   5
ENDBRANCH   3   4
ENDBRANCH   2   3
ENDBRANCH   1   2
END_RES ARG D 557
BEGIN_RES GLU D 570
REMARK  3 active torsions:
REMARK  status: ('A' for Active; 'I' for Inactive)
REMARK    5  A    between atoms: CA   and  CB  
REMARK    6  A    between atoms: CB   and  CG  
REMARK    7  A    between atoms: CG   and  CD  
ROOT
ATOM     14  CA  GLU D 570     -18.033  -6.348 -13.375  1.00 32.92     0.160 C 
ENDROOT
BRANCH  14  15
ATOM     15  CB  GLU D 570     -19.500  -6.345 -13.794  1.00 32.92     0.043 C 
BRANCH  15  16
ATOM     16  CG  GLU D 570     -20.439  -5.520 -12.991  1.00 32.92     0.100 C 
BRANCH  16  17
ATOM     17  CD  GLU D 570     -21.730  -5.220 -13.719  1.00 32.92     0.185 C 
ATOM     18  OE1 GLU D 570     -22.303  -4.134 -13.511  1.00 32.92    -0.647 OA
ATOM     19  OE2 GLU D 570     -22.181  -6.089 -14.491  1.00 32.92    -0.647 OA
ENDBRANCH  16  17
ENDBRANCH  15  16
ENDBRANCH  14  15
END_RES GLU D 570
ENDMDL
MODEL 5
REMARK VINA RESULT:      -6.6      1.909      2.639
REMARK  13 active torsions:
REMARK  status: ('A' for Active; 'I' for Inactive)
REMARK    1  A    between atoms: C_2  and  C_3 
REMARK    2  A    between atoms: C_3  and  C_4 
REMARK    3  A    between atoms: C_4  and  C_5 
REMARK    4  A    between atoms: C_5  and  C_6 
REMARK    5  A    between atoms: C_6  and  C_7 
REMARK    6  A    between atoms: C_7  and  C_8 
REMARK    7  A    between atoms: C_8  and  C_9 
REMARK    8  A    between atoms: C_9  and  C_10 
REMARK    9  A    between atoms: C_10  and  C_11 
REMARK   10  A    between atoms: C_11  and  C_12 
REMARK       I    between atoms: C_12  and  N_14 
REMARK   11  A    between atoms: N_14  and  C_15 
REMARK   12  A    between atoms: C_15  and  C_16 
REMARK   13  A    between atoms: C_16  and  O_18 
ROOT
HETATM    1  C   UNL     1     -19.796  -4.401  -7.060  1.00  0.00     0.009 C 
ENDROOT
BRANCH   1   2
HETATM    2  C   UNL     1     -20.284  -5.101  -5.799  1.00  0.00     0.000 C 
BRANCH   2   3
HETATM    3  C   UNL     1     -20.932  -6.436  -6.162  1.00  0.00     0.000 C 
BRANCH   3   4
HETATM    4  C   UNL     1     -21.471  -7.138  -4.922  1.00  0.00     0.000 C 
BRANCH   4   5
HETATM    5  C   UNL     1     -21.362  -6.234  -3.699  1.00  0.00     0.000 C 
BRANCH   5   6
HETATM    6  C   UNL     1     -21.344  -7.063  -2.420  1.00  0.00     0.000 C 
BRANCH   6   7
HETATM    7  C   UNL     1     -22.322  -6.502  -1.393  1.00  0.00     0.000 C 
BRANCH   7   8
HETATM    8  C   UNL     1     -22.432  -7.434  -0.191  1.00  0.00    -0.000 C 
BRANCH   8   9
HETATM    9  C   UNL     1     -22.024  -8.857  -0.559  1.00  0.00    -0.005 C 
HETATM   10  C   UNL     1     -23.131  -9.842  -0.229  1.00  0.00     0.005 C 
ENDBRANCH   8   9
ENDBRANCH   7   8
ENDBRANCH   6   7
ENDBRANCH   5   6
ENDBRANCH   4   5
ENDBRANCH   3   4
ENDBRANCH   2   3
ENDBRANCH   1   2
BRANCH   1  11
HETATM   11  C   UNL     1     -20.188  -5.144  -8.334  1.00  0.00     0.103 C 
BRANCH  11  12
HETATM   12  C   UNL     1     -21.169  -4.312  -9.138  1.00  0.00     0.217 C 
HETATM   13  O   UNL     1     -22.241  -3.920  -8.694  1.00  0.00    -0.274 OA
HETATM   14  N   UNL     1     -20.740  -4.023 -10.410  1.00  0.00    -0.359 N 
HETATM   15  H   UNL     1     -19.890  -4.442 -10.774  1.00  0.00     0.162 HD
BRANCH  14  16
HETATM   16  C   UNL     1     -21.544  -3.215 -11.311  1.00  0.00     0.153 C 
BRANCH  16  17
HETATM   17  C   UNL     1     -22.063  -4.035 -12.496  1.00  0.00     0.132 C 
HETATM   18  C   UNL     1     -23.369  -4.731 -12.140  1.00  0.00     0.041 C 
BRANCH  17  19
HETATM   19  O   UNL     1     -22.278  -3.173 -13.620  1.00  0.00    -0.394 OA
HETATM   20  H   UNL     1     -21.714  -2.389 -13.505  1.00  0.00     0.210 HD
ENDBRANCH  17  19
ENDBRANCH  16  17
ENDBRANCH  14  16
ENDBRANCH  11  12
ENDBRANCH   1  11
TORSDOF 13
BEGIN_RES ARG D 557
REMARK  4 active torsions:
REMARK  status: ('A' for Active; 'I' for Inactive)
REMARK    1  A    between atoms: CA   and  CB  
REMARK    2  A    between atoms: CB   and  CG  
REMARK    3  A    between atoms: CG   and  CD  
REMARK    4  A    between atoms: CD   and  NE  
REMARK       I    between atoms: NE   and  CZ  
REMARK       I    between atoms: CZ   and  NH1 
REMARK       I    between atoms: CZ   and  NH2 
ROOT
ATOM      1  CA  ARG D 557     -26.217   2.705 -17.014  1.00 35.49     0.159 C 
ENDROOT
BRANCH   1   2
ATOM      2  CB  ARG D 557     -26.789   1.319 -17.183  1.00 35.49     0.034 C 
BRANCH   2   3
ATOM      3  CG  ARG D 557     -28.208   1.145 -16.850  1.00 35.49     0.027 C 
BRANCH   3   4
ATOM      4  CD  ARG D 557     -28.572  -0.278 -16.659  1.00 35.49     0.116 C 
BRANCH   4   5
ATOM      5  NE  ARG D 557     -27.546  -1.012 -15.967  1.00 35.49    -0.212 N 
ATOM      6  CZ  ARG D 557     -27.355  -2.311 -16.030  1.00 35.49     0.666 C 
ATOM      7  NH1 ARG D 557     -28.124  -3.106 -16.751  1.00 35.49    -0.235 N 
ATOM      8  NH2 ARG D 557     -26.360  -2.805 -15.352  1.00 35.49    -0.235 N 
ATOM      9  HH  ARG D 557     -28.783  -2.802 -17.206  1.00 35.49     0.174 HD
ATOM     10  HH  ARG D 557     -27.950  -3.945 -16.756  1.00 35.49     0.174 HD
ATOM     11  HH  ARG D 557     -25.876  -2.266 -14.901  1.00 35.49     0.174 HD
ATOM     12  HH  ARG D 557     -26.204  -3.638 -15.371  1.00 35.49     0.174 HD
ATOM     13  HE  ARG D 557     -27.050  -0.587 -15.422  1.00 35.49     0.178 HD
ENDBRANCH   4   5
ENDBRANCH   3   4
ENDBRANCH   2   3
ENDBRANCH   1   2
END_RES ARG D 557
BEGIN_RES GLU D 570
REMARK  3 active torsions:
REMARK  status: ('A' for Active; 'I' for Inactive)
REMARK    5  A    between atoms: CA   and  CB  
REMARK    6  A    between atoms: CB   and  CG  
REMARK    7  A    between atoms: CG   and  CD  
ROOT
ATOM     14  CA  GLU D 570     -18.033  -6.348 -13.375  1.00 32.92     0.160 C 
ENDROOT
BRANCH  14  15
ATOM     15  CB  GLU D 570     -19.500  -6.345 -13.794  1.00 32.92     0.043 C 
BRANCH  15  16
ATOM     16  CG  GLU D 570     -19.796  -6.284 -15.249  1.00 32.92     0.100 C 
BRANCH  16  17
ATOM     17  CD  GLU D 570     -21.239  -5.945 -15.542  1.00 32.92     0.185 C 
ATOM     18  OE1 GLU D 570     -21.513  -4.831 -16.027  1.00 32.92    -0.647 OA
ATOM     19  OE2 GLU D 570     -22.107  -6.798 -15.269  1.00 32.92    -0.647 OA
ENDBRANCH  16  17
ENDBRANCH  15  16
ENDBRANCH  14  15
END_RES GLU D 570
ENDMDL
MODEL 6
REMARK VINA RESULT:      -6.5      2.399      4.293
REMARK  13 active torsions:
REMARK  status: ('A' for Active; 'I' for Inactive)
REMARK    1  A    between atoms: C_2  and  C_3 
REMARK    2  A    between atoms: C_3  and  C_4 
REMARK    3  A    between atoms: C_4  and  C_5 
REMARK    4  A    between atoms: C_5  and  C_6 
REMARK    5  A    between atoms: C_6  and  C_7 
REMARK    6  A    between atoms: C_7  and  C_8 
REMARK    7  A    between atoms: C_8  and  C_9 
REMARK    8  A    between atoms: C_9  and  C_10 
REMARK    9  A    between atoms: C_10  and  C_11 
REMARK   10  A    between atoms: C_11  and  C_12 
REMARK       I    between atoms: C_12  and  N_14 
REMARK   11  A    between atoms: N_14  and  C_15 
REMARK   12  A    between atoms: C_15  and  C_16 
REMARK   13  A    between atoms: C_16  and  O_18 
ROOT
HETATM    1  C   UNL     1     -20.540  -6.838  -4.981  1.00  0.00     0.009 C 
ENDROOT
BRANCH   1   2
HETATM    2  C   UNL     1     -21.749  -7.725  -4.722  1.00  0.00     0.000 C 
BRANCH   2   3
HETATM    3  C   UNL     1     -21.644  -8.356  -3.334  1.00  0.00     0.000 C 
BRANCH   3   4
HETATM    4  C   UNL     1     -21.020  -7.387  -2.338  1.00  0.00     0.000 C 
BRANCH   4   5
HETATM    5  C   UNL     1     -22.098  -6.592  -1.610  1.00  0.00     0.000 C 
BRANCH   5   6
HETATM    6  C   UNL     1     -22.600  -7.359  -0.393  1.00  0.00     0.000 C 
BRANCH   6   7
HETATM    7  C   UNL     1     -21.492  -8.223   0.202  1.00  0.00     0.000 C 
BRANCH   7   8
HETATM    8  C   UNL     1     -21.919  -9.686   0.253  1.00  0.00    -0.000 C 
BRANCH   8   9
HETATM    9  C   UNL     1     -23.402  -9.837  -0.074  1.00  0.00    -0.005 C 
HETATM   10  C   UNL     1     -23.636 -11.015  -1.002  1.00  0.00     0.005 C 
ENDBRANCH   8   9
ENDBRANCH   7   8
ENDBRANCH   6   7
ENDBRANCH   5   6
ENDBRANCH   4   5
ENDBRANCH   3   4
ENDBRANCH   2   3
ENDBRANCH   1   2
BRANCH   1  11
HETATM   11  C   UNL     1     -20.927  -5.445  -5.470  1.00  0.00     0.103 C 
BRANCH  11  12
HETATM   12  C   UNL     1     -20.883  -5.396  -6.985  1.00  0.00     0.217 C 
HETATM   13  O   UNL     1     -20.149  -6.107  -7.660  1.00  0.00    -0.274 OA
HETATM   14  N   UNL     1     -21.758  -4.492  -7.538  1.00  0.00    -0.359 N 
HETATM   15  H   UNL     1     -22.282  -3.857  -6.945  1.00  0.00     0.162 HD
BRANCH  14  16
HETATM   16  C   UNL     1     -21.866  -4.332  -8.977  1.00  0.00     0.153 C 
BRANCH  16  17
HETATM   17  C   UNL     1     -23.284  -3.933  -9.397  1.00  0.00     0.132 C 
HETATM   18  C   UNL     1     -23.854  -4.937 -10.391  1.00  0.00     0.041 C 
BRANCH  17  19
HETATM   19  O   UNL     1     -24.131  -3.878  -8.243  1.00  0.00    -0.394 OA
HETATM   20  H   UNL     1     -24.548  -2.999  -8.222  1.00  0.00     0.210 HD
ENDBRANCH  17  19
ENDBRANCH  16  17
ENDBRANCH  14  16
ENDBRANCH  11  12
ENDBRANCH   1  11
TORSDOF 13
BEGIN_RES ARG D 557
REMARK  4 active torsions:
REMARK  status: ('A' for Active; 'I' for Inactive)
REMARK    1  A    between atoms: CA   and  CB  
REMARK    2  A    between atoms: CB   and  CG  
REMARK    3  A    between atoms: CG   and  CD  
REMARK    4  A    between atoms: CD   and  NE  
REMARK       I    between atoms: NE   and  CZ  
REMARK       I    between atoms: CZ   and  NH1 
REMARK       I    between atoms: CZ   and  NH2 
ROOT
ATOM      1  CA  ARG D 557     -26.217   2.705 -17.014  1.00 35.49     0.159 C 
ENDROOT
BRANCH   1   2
ATOM      2  CB  ARG D 557     -26.789   1.319 -17.183  1.00 35.49     0.034 C 
BRANCH   2   3
ATOM      3  CG  ARG D 557     -28.229   1.227 -17.450  1.00 35.49     0.027 C 
BRANCH   3   4
ATOM      4  CD  ARG D 557     -28.920   0.314 -16.512  1.00 35.49     0.116 C 
BRANCH   4   5
ATOM      5  NE  ARG D 557     -29.280  -0.933 -17.134  1.00 35.49    -0.212 N 
ATOM      6  CZ  ARG D 557     -28.627  -2.068 -17.014  1.00 35.49     0.666 C 
ATOM      7  NH1 ARG D 557     -27.526  -2.180 -16.296  1.00 35.49    -0.235 N 
ATOM      8  NH2 ARG D 557     -29.110  -3.106 -17.633  1.00 35.49    -0.235 N 
ATOM      9  HH  ARG D 557     -27.191  -1.510 -15.879  1.00 35.49     0.174 HD
ATOM     10  HH  ARG D 557     -27.144  -2.946 -16.252  1.00 35.49     0.174 HD
ATOM     11  HH  ARG D 557     -29.828  -3.006 -18.084  1.00 35.49     0.174 HD
ATOM     12  HH  ARG D 557     -28.719  -3.856 -17.576  1.00 35.49     0.174 HD
ATOM     13  HE  ARG D 557     -29.937  -0.935 -17.674  1.00 35.49     0.178 HD
ENDBRANCH   4   5
ENDBRANCH   3   4
ENDBRANCH   2   3
ENDBRANCH   1   2
END_RES ARG D 557
BEGIN_RES GLU D 570
REMARK  3 active torsions:
REMARK  status: ('A' for Active; 'I' for Inactive)
REMARK    5  A    between atoms: CA   and  CB  
REMARK    6  A    between atoms: CB   and  CG  
REMARK    7  A    between atoms: CG   and  CD  
ROOT
ATOM     14  CA  GLU D 570     -18.033  -6.348 -13.375  1.00 32.92     0.160 C 
ENDROOT
BRANCH  14  15
ATOM     15  CB  GLU D 570     -19.500  -6.345 -13.794  1.00 32.92     0.043 C 
BRANCH  15  16
ATOM     16  CG  GLU D 570     -20.115  -7.652 -14.141  1.00 32.92     0.100 C 
BRANCH  16  17
ATOM     17  CD  GLU D 570     -20.892  -7.612 -15.437  1.00 32.92     0.185 C 
ATOM     18  OE1 GLU D 570     -21.661  -6.656 -15.652  1.00 32.92    -0.647 OA
ATOM     19  OE2 GLU D 570     -20.742  -8.556 -16.238  1.00 32.92    -0.647 OA
ENDBRANCH  16  17
ENDBRANCH  15  16
ENDBRANCH  14  15
END_RES GLU D 570
ENDMDL
MODEL 7
REMARK VINA RESULT:      -6.5      3.920      8.102
REMARK  13 active torsions:
REMARK  status: ('A' for Active; 'I' for Inactive)
REMARK    1  A    between atoms: C_2  and  C_3 
REMARK    2  A    between atoms: C_3  and  C_4 
REMARK    3  A    between atoms: C_4  and  C_5 
REMARK    4  A    between atoms: C_5  and  C_6 
REMARK    5  A    between atoms: C_6  and  C_7 
REMARK    6  A    between atoms: C_7  and  C_8 
REMARK    7  A    between atoms: C_8  and  C_9 
REMARK    8  A    between atoms: C_9  and  C_10 
REMARK    9  A    between atoms: C_10  and  C_11 
REMARK   10  A    between atoms: C_11  and  C_12 
REMARK       I    between atoms: C_12  and  N_14 
REMARK   11  A    between atoms: N_14  and  C_15 
REMARK   12  A    between atoms: C_15  and  C_16 
REMARK   13  A    between atoms: C_16  and  O_18 
ROOT
HETATM    1  C   UNL     1     -21.633  -7.572  -5.185  1.00  0.00     0.009 C 
ENDROOT
BRANCH   1   2
HETATM    2  C   UNL     1     -21.884  -6.091  -5.433  1.00  0.00     0.000 C 
BRANCH   2   3
HETATM    3  C   UNL     1     -20.565  -5.323  -5.381  1.00  0.00     0.000 C 
BRANCH   3   4
HETATM    4  C   UNL     1     -20.523  -4.233  -6.445  1.00  0.00     0.000 C 
BRANCH   4   5
HETATM    5  C   UNL     1     -19.538  -4.596  -7.551  1.00  0.00     0.000 C 
BRANCH   5   6
HETATM    6  C   UNL     1     -20.253  -4.700  -8.893  1.00  0.00     0.000 C 
BRANCH   6   7
HETATM    7  C   UNL     1     -21.675  -4.154  -8.796  1.00  0.00     0.000 C 
BRANCH   7   8
HETATM    8  C   UNL     1     -22.243  -3.885 -10.185  1.00  0.00    -0.000 C 
BRANCH   8   9
HETATM    9  C   UNL     1     -23.651  -4.454 -10.323  1.00  0.00    -0.005 C 
HETATM   10  C   UNL     1     -24.691  -3.453  -9.852  1.00  0.00     0.005 C 
ENDBRANCH   8   9
ENDBRANCH   7   8
ENDBRANCH   6   7
ENDBRANCH   5   6
ENDBRANCH   4   5
ENDBRANCH   3   4
ENDBRANCH   2   3
ENDBRANCH   1   2
BRANCH   1  11
HETATM   11  C   UNL     1     -20.170  -7.877  -4.880  1.00  0.00     0.103 C 
BRANCH  11  12
HETATM   12  C   UNL     1     -20.043  -8.473  -3.491  1.00  0.00     0.217 C 
HETATM   13  O   UNL     1     -19.199  -9.309  -3.192  1.00  0.00    -0.274 OA
HETATM   14  N   UNL     1     -20.953  -7.979  -2.589  1.00  0.00    -0.359 N 
HETATM   15  H   UNL     1     -21.695  -7.358  -2.895  1.00  0.00     0.162 HD
BRANCH  14  16
HETATM   16  C   UNL     1     -20.959  -8.422  -1.206  1.00  0.00     0.153 C 
BRANCH  16  17
HETATM   17  C   UNL     1     -22.253  -8.023  -0.489  1.00  0.00     0.132 C 
HETATM   18  C   UNL     1     -22.048  -8.000   1.020  1.00  0.00     0.041 C 
BRANCH  17  19
HETATM   19  O   UNL     1     -22.667  -6.724  -0.929  1.00  0.00    -0.394 OA
HETATM   20  H   UNL     1     -21.873  -6.243  -1.221  1.00  0.00     0.210 HD
ENDBRANCH  17  19
ENDBRANCH  16  17
ENDBRANCH  14  16
ENDBRANCH  11  12
ENDBRANCH   1  11
TORSDOF 13
BEGIN_RES ARG D 557
REMARK  4 active torsions:
REMARK  status: ('A' for Active; 'I' for Inactive)
REMARK    1  A    between atoms: CA   and  CB  
REMARK    2  A    between atoms: CB   and  CG  
REMARK    3  A    between atoms: CG   and  CD  
REMARK    4  A    between atoms: CD   and  NE  
REMARK       I    between atoms: NE   and  CZ  
REMARK       I    between atoms: CZ   and  NH1 
REMARK       I    between atoms: CZ   and  NH2 
ROOT
ATOM      1  CA  ARG D 557     -26.217   2.705 -17.014  1.00 35.49     0.159 C 
ENDROOT
BRANCH   1   2
ATOM      2  CB  ARG D 557     -26.789   1.319 -17.183  1.00 35.49     0.034 C 
BRANCH   2   3
ATOM      3  CG  ARG D 557     -25.836   0.203 -17.151  1.00 35.49     0.027 C 
BRANCH   3   4
ATOM      4  CD  ARG D 557     -24.756   0.411 -16.159  1.00 35.49     0.116 C 
BRANCH   4   5
ATOM      5  NE  ARG D 557     -24.904  -0.442 -15.009  1.00 35.49    -0.212 N 
ATOM      6  CZ  ARG D 557     -24.090  -1.414 -14.665  1.00 35.49     0.666 C 
ATOM      7  NH1 ARG D 557     -23.021  -1.729 -15.373  1.00 35.49    -0.235 N 
ATOM      8  NH2 ARG D 557     -24.368  -2.072 -13.576  1.00 35.49    -0.235 N 
ATOM      9  HH  ARG D 557     -22.818  -1.308 -16.091  1.00 35.49     0.174 HD
ATOM     10  HH  ARG D 557     -22.525  -2.371 -15.097  1.00 35.49     0.174 HD
ATOM     11  HH  ARG D 557     -25.060  -1.842 -13.135  1.00 35.49     0.174 HD
ATOM     12  HH  ARG D 557     -23.863  -2.704 -13.320  1.00 35.49     0.174 HD
ATOM     13  HE  ARG D 557     -25.606  -0.357 -14.537  1.00 35.49     0.178 HD
ENDBRANCH   4   5
ENDBRANCH   3   4
ENDBRANCH   2   3
ENDBRANCH   1   2
END_RES ARG D 557
BEGIN_RES GLU D 570
REMARK  3 active torsions:
REMARK  status: ('A' for Active; 'I' for Inactive)
REMARK    5  A    between atoms: CA   and  CB  
REMARK    6  A    between atoms: CB   and  CG  
REMARK    7  A    between atoms: CG   and  CD  
ROOT
ATOM     14  CA  GLU D 570     -18.033  -6.348 -13.375  1.00 32.92     0.160 C 
ENDROOT
BRANCH  14  15
ATOM     15  CB  GLU D 570     -19.500  -6.345 -13.794  1.00 32.92     0.043 C 
BRANCH  15  16
ATOM     16  CG  GLU D 570     -20.439  -5.519 -12.992  1.00 32.92     0.100 C 
BRANCH  16  17
ATOM     17  CD  GLU D 570     -21.743  -5.248 -13.707  1.00 32.92     0.185 C 
ATOM     18  OE1 GLU D 570     -22.245  -4.110 -13.639  1.00 32.92    -0.647 OA
ATOM     19  OE2 GLU D 570     -22.277  -6.189 -14.326  1.00 32.92    -0.647 OA
ENDBRANCH  16  17
ENDBRANCH  15  16
ENDBRANCH  14  15
END_RES GLU D 570
ENDMDL
MODEL 8
REMARK VINA RESULT:      -6.4      2.771      5.120
REMARK  13 active torsions:
REMARK  status: ('A' for Active; 'I' for Inactive)
REMARK    1  A    between atoms: C_2  and  C_3 
REMARK    2  A    between atoms: C_3  and  C_4 
REMARK    3  A    between atoms: C_4  and  C_5 
REMARK    4  A    between atoms: C_5  and  C_6 
REMARK    5  A    between atoms: C_6  and  C_7 
REMARK    6  A    between atoms: C_7  and  C_8 
REMARK    7  A    between atoms: C_8  and  C_9 
REMARK    8  A    between atoms: C_9  and  C_10 
REMARK    9  A    between atoms: C_10  and  C_11 
REMARK   10  A    between atoms: C_11  and  C_12 
REMARK       I    between atoms: C_12  and  N_14 
REMARK   11  A    between atoms: N_14  and  C_15 
REMARK   12  A    between atoms: C_15  and  C_16 
REMARK   13  A    between atoms: C_16  and  O_18 
ROOT
HETATM    1  C   UNL     1     -21.422  -7.717  -4.590  1.00  0.00     0.009 C 
ENDROOT
BRANCH   1   2
HETATM    2  C   UNL     1     -21.139  -7.720  -3.095  1.00  0.00     0.000 C 
BRANCH   2   3
HETATM    3  C   UNL     1     -21.510  -6.366  -2.492  1.00  0.00     0.000 C 
BRANCH   3   4
HETATM    4  C   UNL     1     -22.327  -6.539  -1.217  1.00  0.00     0.000 C 
BRANCH   4   5
HETATM    5  C   UNL     1     -22.280  -7.986  -0.738  1.00  0.00     0.000 C 
BRANCH   5   6
HETATM    6  C   UNL     1     -22.103  -8.043   0.775  1.00  0.00     0.000 C 
BRANCH   6   7
HETATM    7  C   UNL     1     -21.032  -9.060   1.160  1.00  0.00     0.000 C 
BRANCH   7   8
HETATM    8  C   UNL     1     -21.363 -10.433   0.584  1.00  0.00    -0.000 C 
BRANCH   8   9
HETATM    9  C   UNL     1     -20.102 -11.145   0.105  1.00  0.00    -0.005 C 
HETATM   10  C   UNL     1     -19.761 -10.747  -1.320  1.00  0.00     0.005 C 
ENDBRANCH   8   9
ENDBRANCH   7   8
ENDBRANCH   6   7
ENDBRANCH   5   6
ENDBRANCH   4   5
ENDBRANCH   3   4
ENDBRANCH   2   3
ENDBRANCH   1   2
BRANCH   1  11
HETATM   11  C   UNL     1     -22.316  -6.557  -5.017  1.00  0.00     0.103 C 
BRANCH  11  12
HETATM   12  C   UNL     1     -21.560  -5.640  -5.960  1.00  0.00     0.217 C 
HETATM   13  O   UNL     1     -20.340  -5.641  -6.066  1.00  0.00    -0.274 OA
HETATM   14  N   UNL     1     -22.370  -4.815  -6.702  1.00  0.00    -0.359 N 
HETATM   15  H   UNL     1     -23.368  -4.777  -6.521  1.00  0.00     0.162 HD
BRANCH  14  16
HETATM   16  C   UNL     1     -21.815  -3.889  -7.673  1.00  0.00     0.153 C 
BRANCH  16  17
HETATM   17  C   UNL     1     -21.557  -4.570  -9.021  1.00  0.00     0.132 C 
HETATM   18  C   UNL     1     -21.994  -3.672 -10.171  1.00  0.00     0.041 C 
BRANCH  17  19
HETATM   19  O   UNL     1     -20.160  -4.860  -9.155  1.00  0.00    -0.394 OA
HETATM   20  H   UNL     1     -19.747  -4.119  -9.630  1.00  0.00     0.210 HD
ENDBRANCH  17  19
ENDBRANCH  16  17
ENDBRANCH  14  16
ENDBRANCH  11  12
ENDBRANCH   1  11
TORSDOF 13
BEGIN_RES ARG D 557
REMARK  4 active torsions:
REMARK  status: ('A' for Active; 'I' for Inactive)
REMARK    1  A    between atoms: CA   and  CB  
REMARK    2  A    between atoms: CB   and  CG  
REMARK    3  A    between atoms: CG   and  CD  
REMARK    4  A    between atoms: CD   and  NE  
REMARK       I    between atoms: NE   and  CZ  
REMARK       I    between atoms: CZ   and  NH1 
REMARK       I    between atoms: CZ   and  NH2 
ROOT
ATOM      1  CA  ARG D 557     -26.217   2.705 -17.014  1.00 35.49     0.159 C 
ENDROOT
BRANCH   1   2
ATOM      2  CB  ARG D 557     -26.789   1.319 -17.183  1.00 35.49     0.034 C 
BRANCH   2   3
ATOM      3  CG  ARG D 557     -25.837   0.203 -17.149  1.00 35.49     0.027 C 
BRANCH   3   4
ATOM      4  CD  ARG D 557     -24.746   0.421 -16.172  1.00 35.49     0.116 C 
BRANCH   4   5
ATOM      5  NE  ARG D 557     -24.877  -0.424 -15.014  1.00 35.49    -0.212 N 
ATOM      6  CZ  ARG D 557     -24.059  -1.395 -14.675  1.00 35.49     0.666 C 
ATOM      7  NH1 ARG D 557     -23.000  -1.715 -15.396  1.00 35.49    -0.235 N 
ATOM      8  NH2 ARG D 557     -24.321  -2.045 -13.578  1.00 35.49    -0.235 N 
ATOM      9  HH  ARG D 557     -22.808  -1.299 -16.120  1.00 35.49     0.174 HD
ATOM     10  HH  ARG D 557     -22.501  -2.356 -15.124  1.00 35.49     0.174 HD
ATOM     11  HH  ARG D 557     -25.007  -1.812 -13.129  1.00 35.49     0.174 HD
ATOM     12  HH  ARG D 557     -23.814  -2.675 -13.325  1.00 35.49     0.174 HD
ATOM     13  HE  ARG D 557     -25.572  -0.335 -14.532  1.00 35.49     0.178 HD
ENDBRANCH   4   5
ENDBRANCH   3   4
ENDBRANCH   2   3
ENDBRANCH   1   2
END_RES ARG D 557
BEGIN_RES GLU D 570
REMARK  3 active torsions:
REMARK  status: ('A' for Active; 'I' for Inactive)
REMARK    5  A    between atoms: CA   and  CB  
REMARK    6  A    between atoms: CB   and  CG  
REMARK    7  A    between atoms: CG   and  CD  
ROOT
ATOM     14  CA  GLU D 570     -18.033  -6.348 -13.375  1.00 32.92     0.160 C 
ENDROOT
BRANCH  14  15
ATOM     15  CB  GLU D 570     -19.500  -6.345 -13.794  1.00 32.92     0.043 C 
BRANCH  15  16
ATOM     16  CG  GLU D 570     -20.441  -5.526 -12.986  1.00 32.92     0.100 C 
BRANCH  16  17
ATOM     17  CD  GLU D 570     -21.741  -5.244 -13.703  1.00 32.92     0.185 C 
ATOM     18  OE1 GLU D 570     -22.245  -4.108 -13.617  1.00 32.92    -0.647 OA
ATOM     19  OE2 GLU D 570     -22.270  -6.174 -14.343  1.00 32.92    -0.647 OA
ENDBRANCH  16  17
ENDBRANCH  15  16
ENDBRANCH  14  15
END_RES GLU D 570
ENDMDL
MODEL 9
REMARK VINA RESULT:      -6.4      7.746     10.991
REMARK  13 active torsions:
REMARK  status: ('A' for Active; 'I' for Inactive)
REMARK    1  A    between atoms: C_2  and  C_3 
REMARK    2  A    between atoms: C_3  and  C_4 
REMARK    3  A    between atoms: C_4  and  C_5 
REMARK    4  A    between atoms: C_5  and  C_6 
REMARK    5  A    between atoms: C_6  and  C_7 
REMARK    6  A    between atoms: C_7  and  C_8 
REMARK    7  A    between atoms: C_8  and  C_9 
REMARK    8  A    between atoms: C_9  and  C_10 
REMARK    9  A    between atoms: C_10  and  C_11 
REMARK   10  A    between atoms: C_11  and  C_12 
REMARK       I    between atoms: C_12  and  N_14 
REMARK   11  A    between atoms: N_14  and  C_15 
REMARK   12  A    between atoms: C_15  and  C_16 
REMARK   13  A    between atoms: C_16  and  O_18 
ROOT
HETATM    1  C   UNL     1     -33.784  -3.733 -10.815  1.00  0.00     0.009 C 
ENDROOT
BRANCH   1   2
HETATM    2  C   UNL     1     -33.722  -2.233 -10.566  1.00  0.00     0.000 C 
BRANCH   2   3
HETATM    3  C   UNL     1     -34.832  -1.529 -11.346  1.00  0.00     0.000 C 
BRANCH   3   4
HETATM    4  C   UNL     1     -36.187  -1.740 -10.683  1.00  0.00     0.000 C 
BRANCH   4   5
HETATM    5  C   UNL     1     -36.375  -0.773  -9.519  1.00  0.00     0.000 C 
BRANCH   5   6
HETATM    6  C   UNL     1     -37.412   0.288  -9.867  1.00  0.00     0.000 C 
BRANCH   6   7
HETATM    7  C   UNL     1     -37.507   1.339  -8.765  1.00  0.00     0.000 C 
BRANCH   7   8
HETATM    8  C   UNL     1     -36.762   0.877  -7.517  1.00  0.00    -0.000 C 
BRANCH   8   9
HETATM    9  C   UNL     1     -37.735   0.460  -6.419  1.00  0.00    -0.005 C 
HETATM   10  C   UNL     1     -37.093   0.579  -5.048  1.00  0.00     0.005 C 
ENDBRANCH   8   9
ENDBRANCH   7   8
ENDBRANCH   6   7
ENDBRANCH   5   6
ENDBRANCH   4   5
ENDBRANCH   3   4
ENDBRANCH   2   3
ENDBRANCH   1   2
BRANCH   1  11
HETATM   11  C   UNL     1     -32.962  -4.162 -12.028  1.00  0.00     0.103 C 
BRANCH  11  12
HETATM   12  C   UNL     1     -33.878  -4.423 -13.208  1.00  0.00     0.217 C 
HETATM   13  O   UNL     1     -35.027  -4.832 -13.091  1.00  0.00    -0.274 OA
HETATM   14  N   UNL     1     -33.309  -4.142 -14.427  1.00  0.00    -0.359 N 
HETATM   15  H   UNL     1     -32.327  -3.894 -14.490  1.00  0.00     0.162 HD
BRANCH  14  16
HETATM   16  C   UNL     1     -34.053  -4.312 -15.662  1.00  0.00     0.153 C 
BRANCH  16  17
HETATM   17  C   UNL     1     -33.159  -4.825 -16.796  1.00  0.00     0.132 C 
HETATM   18  C   UNL     1     -31.694  -4.530 -16.502  1.00  0.00     0.041 C 
BRANCH  17  19
HETATM   19  O   UNL     1     -33.335  -6.238 -16.946  1.00  0.00    -0.394 OA
HETATM   20  H   UNL     1     -34.286  -6.408 -17.066  1.00  0.00     0.210 HD
ENDBRANCH  17  19
ENDBRANCH  16  17
ENDBRANCH  14  16
ENDBRANCH  11  12
ENDBRANCH   1  11
TORSDOF 13
BEGIN_RES ARG D 557
REMARK  4 active torsions:
REMARK  status: ('A' for Active; 'I' for Inactive)
REMARK    1  A    between atoms: CA   and  CB  
REMARK    2  A    between atoms: CB   and  CG  
REMARK    3  A    between atoms: CG   and  CD  
REMARK    4  A    between atoms: CD   and  NE  
REMARK       I    between atoms: NE   and  CZ  
REMARK       I    between atoms: CZ   and  NH1 
REMARK       I    between atoms: CZ   and  NH2 
ROOT
ATOM      1  CA  ARG D 557     -26.217   2.705 -17.014  1.00 35.49     0.159 C 
ENDROOT
BRANCH   1   2
ATOM      2  CB  ARG D 557     -26.789   1.319 -17.183  1.00 35.49     0.034 C 
BRANCH   2   3
ATOM      3  CG  ARG D 557     -28.198   1.136 -16.815  1.00 35.49     0.027 C 
BRANCH   3   4
ATOM      4  CD  ARG D 557     -28.588  -0.291 -16.766  1.00 35.49     0.116 C 
BRANCH   4   5
ATOM      5  NE  ARG D 557     -27.617  -1.095 -16.073  1.00 35.49    -0.212 N 
ATOM      6  CZ  ARG D 557     -27.498  -2.401 -16.160  1.00 35.49     0.666 C 
ATOM      7  NH1 ARG D 557     -28.296  -3.138 -16.911  1.00 35.49    -0.235 N 
ATOM      8  NH2 ARG D 557     -26.545  -2.964 -15.476  1.00 35.49    -0.235 N 
ATOM      9  HH  ARG D 557     -28.929  -2.788 -17.371  1.00 35.49     0.174 HD
ATOM     10  HH  ARG D 557     -28.169  -3.985 -16.931  1.00 35.49     0.174 HD
ATOM     11  HH  ARG D 557     -26.040  -2.463 -15.006  1.00 35.49     0.174 HD
ATOM     12  HH  ARG D 557     -26.434  -3.804 -15.510  1.00 35.49     0.174 HD
ATOM     13  HE  ARG D 557     -27.108  -0.711 -15.510  1.00 35.49     0.178 HD
ENDBRANCH   4   5
ENDBRANCH   3   4
ENDBRANCH   2   3
ENDBRANCH   1   2
END_RES ARG D 557
BEGIN_RES GLU D 570
REMARK  3 active torsions:
REMARK  status: ('A' for Active; 'I' for Inactive)
REMARK    5  A    between atoms: CA   and  CB  
REMARK    6  A    between atoms: CB   and  CG  
REMARK    7  A    between atoms: CG   and  CD  
ROOT
ATOM     14  CA  GLU D 570     -18.033  -6.348 -13.375  1.00 32.92     0.160 C 
ENDROOT
BRANCH  14  15
ATOM     15  CB  GLU D 570     -19.500  -6.345 -13.794  1.00 32.92     0.043 C 
BRANCH  15  16
ATOM     16  CG  GLU D 570     -20.444  -5.543 -12.974  1.00 32.92     0.100 C 
BRANCH  16  17
ATOM     17  CD  GLU D 570     -21.704  -5.170 -13.722  1.00 32.92     0.185 C 
ATOM     18  OE1 GLU D 570     -22.775  -5.076 -13.093  1.00 32.92    -0.647 OA
ATOM     19  OE2 GLU D 570     -21.620  -4.986 -14.952  1.00 32.92    -0.647 OA
ENDBRANCH  16  17
ENDBRANCH  15  16
ENDBRANCH  14  15
END_RES GLU D 570
ENDMDL
