MODEL 1
REMARK VINA RESULT:      -7.3      0.000      0.000
REMARK WARNING: 32 MAX_TORS EXCEEDED!!!
REMARK  40 active torsions:
REMARK  status: ('A' for Active; 'I' for Inactive)
REMARK    1  A    between atoms: C_2  and  C_3 
REMARK    2  A    between atoms: C_3  and  C_4 
REMARK    3  A    between atoms: C_4  and  C_5 
REMARK    4  A    between atoms: C_5  and  C_6 
REMARK    5  A    between atoms: C_6  and  C_7 
REMARK    6  A    between atoms: C_7  and  C_8 
REMARK    7  A    between atoms: C_8  and  C_9 
REMARK    8  A    between atoms: C_9  and  C_10 
REMARK    9  A    between atoms: C_10  and  C_11 
REMARK   10  A    between atoms: C_11  and  C_12 
REMARK   11  A    between atoms: C_12  and  C_13 
REMARK   12  A    between atoms: C_13  and  C_14 
REMARK   13  A    between atoms: C_14  and  C_15 
REMARK   14  A    between atoms: C_15  and  C_16 
REMARK   15  A    between atoms: C_16  and  O_18 
REMARK   16  A    between atoms: O_18  and  C_19 
REMARK   17  A    between atoms: C_19  and  C_20 
REMARK   18  A    between atoms: C_20  and  C_21 
REMARK   19  A    between atoms: C_20  and  O_33 
REMARK   20  A    between atoms: C_21  and  O_22 
REMARK   21  A    between atoms: O_22  and  P_23 
REMARK   22  A    between atoms: P_23  and  O_26 
REMARK   23  A    between atoms: O_26  and  C_27 
REMARK   24  A    between atoms: C_27  and  C_28 
REMARK   25  A    between atoms: C_28  and  N_29 
REMARK   26  A    between atoms: O_33  and  C_34 
REMARK   27  A    between atoms: C_34  and  C_36 
REMARK   28  A    between atoms: C_36  and  C_37 
REMARK   29  A    between atoms: C_37  and  C_38 
REMARK   30  A    between atoms: C_38  and  C_39 
REMARK   31  A    between atoms: C_39  and  C_40 
REMARK   32  A    between atoms: C_40  and  C_41 
REMARK   33  A    between atoms: C_41  and  C_42 
REMARK   34  A    between atoms: C_42  and  C_43 
REMARK   35  A    between atoms: C_44  and  C_45 
REMARK   36  A    between atoms: C_45  and  C_46 
REMARK   37  A    between atoms: C_47  and  C_48 
REMARK   38  A    between atoms: C_48  and  C_49 
REMARK   39  A    between atoms: C_49  and  C_50 
REMARK   40  A    between atoms: C_50  and  C_51 
ROOT
HETATM    1  C   UNL     1     -27.348  -5.876 -15.743  1.00  0.00     0.180 C 
ENDROOT
BRANCH   1   2
HETATM    2  C   UNL     1     -28.344  -4.713 -15.696  1.00  0.00     0.213 C 
BRANCH   2   3
HETATM    3  O   UNL     1     -27.920  -3.642 -16.568  1.00  0.00    -0.319 OA
BRANCH   3   4
HETATM    4  C   UNL     1     -28.945  -2.959 -17.168  1.00  0.00     0.258 C 
HETATM    5  O   UNL     1     -29.083  -1.752 -17.135  1.00  0.00    -0.265 OA
BRANCH   4   6
HETATM    6  C   UNL     1     -29.916  -3.897 -17.875  1.00  0.00     0.111 C 
BRANCH   6   7
HETATM    7  C   UNL     1     -31.352  -3.520 -17.499  1.00  0.00     0.010 C 
BRANCH   7   8
HETATM    8  C   UNL     1     -32.110  -4.681 -16.864  1.00  0.00     0.000 C 
BRANCH   8   9
HETATM    9  C   UNL     1     -33.429  -4.190 -16.274  1.00  0.00     0.000 C 
BRANCH   9  10
HETATM   10  C   UNL     1     -33.865  -2.903 -16.955  1.00  0.00     0.000 C 
BRANCH  10  11
HETATM   11  C   UNL     1     -35.221  -2.462 -16.429  1.00  0.00     0.000 C 
BRANCH  11  12
HETATM   12  C   UNL     1     -35.211  -0.969 -16.154  1.00  0.00     0.000 C 
BRANCH  12  13
HETATM   13  C   UNL     1     -36.577  -0.522 -15.667  1.00  0.00     0.000 C 
BRANCH  13  14
HETATM   14  C   UNL     1     -36.499  -0.117 -14.206  1.00  0.00     0.000 C 
BRANCH  14  15
HETATM   15  C   UNL     1     -35.059   0.176 -13.828  1.00  0.00     0.000 C 
BRANCH  15  16
HETATM   16  C   UNL     1     -34.772  -0.351 -12.433  1.00  0.00     0.000 C 
BRANCH  16  17
HETATM   17  C   UNL     1     -35.374  -1.736 -12.268  1.00  0.00     0.000 C 
BRANCH  17  18
HETATM   18  C   UNL     1     -34.430  -2.786 -12.831  1.00  0.00    -0.000 C 
BRANCH  18  19
HETATM   19  C   UNL     1     -33.427  -3.222 -11.773  1.00  0.00    -0.005 C 
HETATM   20  C   UNL     1     -34.143  -3.864 -10.601  1.00  0.00     0.005 C 
ENDBRANCH  18  19
ENDBRANCH  17  18
ENDBRANCH  16  17
ENDBRANCH  15  16
ENDBRANCH  14  15
ENDBRANCH  13  14
ENDBRANCH  12  13
ENDBRANCH  11  12
ENDBRANCH  10  11
ENDBRANCH   9  10
ENDBRANCH   8   9
ENDBRANCH   7   8
ENDBRANCH   6   7
ENDBRANCH   4   6
ENDBRANCH   3   4
ENDBRANCH   2   3
ENDBRANCH   1   2
BRANCH   1  21
HETATM   21  C   UNL     1     -27.662  -6.713 -17.010  1.00  0.00     0.216 C 
BRANCH  21  22
HETATM   22  O   UNL     1     -29.030  -7.446 -17.151  1.00  0.00    -0.287 OA
BRANCH  22  23
HETATM   23  P   UNL     1     -29.149  -7.558 -18.803  1.00  0.00     0.408 P 
HETATM   24  O   UNL     1     -30.472  -8.244 -18.899  1.00  0.00    -0.624 OA
HETATM   25  O   UNL     1     -28.415  -6.293 -19.150  1.00  0.00    -0.624 OA
BRANCH  23  26
HETATM   26  O   UNL     1     -28.436  -8.440 -20.050  1.00  0.00    -0.288 OA
BRANCH  26  27
HETATM   27  C   UNL     1     -27.668  -7.990 -21.066  1.00  0.00     0.209 C 
BRANCH  27  28
HETATM   28  C   UNL     1     -26.221  -8.509 -21.094  1.00  0.00     0.262 C 
BRANCH  28  29
HETATM   29  N   UNL     1     -25.176  -7.376 -21.003  1.00  0.00    -0.077 N 
HETATM   30  C   UNL     1     -25.855  -6.035 -21.283  1.00  0.00     0.271 C 
HETATM   31  C   UNL     1     -24.581  -7.344 -19.595  1.00  0.00     0.271 C 
HETATM   32  C   UNL     1     -24.088  -7.606 -22.010  1.00  0.00     0.271 C 
ENDBRANCH  28  29
ENDBRANCH  27  28
ENDBRANCH  26  27
ENDBRANCH  23  26
ENDBRANCH  22  23
ENDBRANCH  21  22
ENDBRANCH   1  21
BRANCH   1  33
HETATM   33  O   UNL     1     -25.999  -5.364 -15.819  1.00  0.00    -0.312 OA
BRANCH  33  34
HETATM   34  C   UNL     1     -24.995  -6.226 -15.416  1.00  0.00     0.259 C 
HETATM   35  O   UNL     1     -25.072  -7.381 -15.319  1.00  0.00    -0.265 OA
BRANCH  34  36
HETATM   36  C   UNL     1     -23.826  -5.447 -14.908  1.00  0.00     0.111 C 
BRANCH  36  37
HETATM   37  C   UNL     1     -23.445  -5.906 -13.503  1.00  0.00     0.010 C 
BRANCH  37  38
HETATM   38  C   UNL     1     -22.702  -4.814 -12.738  1.00  0.00     0.000 C 
BRANCH  38  39
HETATM   39  C   UNL     1     -23.249  -4.690 -11.322  1.00  0.00     0.000 C 
BRANCH  39  40
HETATM   40  C   UNL     1     -22.451  -3.654 -10.541  1.00  0.00     0.000 C 
BRANCH  40  41
HETATM   41  C   UNL     1     -21.011  -3.611 -11.040  1.00  0.00     0.004 C 
BRANCH  41  42
HETATM   42  C   UNL     1     -20.134  -4.518 -10.186  1.00  0.00     0.027 C 
BRANCH  42  43
HETATM   43  C   UNL     1     -20.634  -4.542  -8.761  1.00  0.00    -0.030 C 
HETATM   44  C   UNL     1     -19.750  -4.536  -7.725  1.00  0.00    -0.027 C 
BRANCH  44  45
HETATM   45  C   UNL     1     -20.230  -4.530  -6.300  1.00  0.00     0.053 C 
BRANCH  45  46
HETATM   46  C   UNL     1     -20.887  -5.836  -5.933  1.00  0.00    -0.027 C 
HETATM   47  C   UNL     1     -20.268  -6.919  -5.634  1.00  0.00    -0.030 C 
BRANCH  47  48
HETATM   48  C   UNL     1     -20.941  -8.188  -5.260  1.00  0.00     0.027 C 
BRANCH  48  49
HETATM   49  C   UNL     1     -21.843  -8.008  -4.043  1.00  0.00     0.004 C 
BRANCH  49  50
HETATM   50  C   UNL     1     -21.130  -8.461  -2.776  1.00  0.00    -0.000 C 
BRANCH  50  51
HETATM   51  C   UNL     1     -21.356  -7.460  -1.650  1.00  0.00    -0.005 C 
HETATM   52  C   UNL     1     -22.032  -6.210  -2.180  1.00  0.00     0.005 C 
ENDBRANCH  50  51
ENDBRANCH  49  50
ENDBRANCH  48  49
ENDBRANCH  47  48
ENDBRANCH  45  46
ENDBRANCH  44  45
ENDBRANCH  42  43
ENDBRANCH  41  42
ENDBRANCH  40  41
ENDBRANCH  39  40
ENDBRANCH  38  39
ENDBRANCH  37  38
ENDBRANCH  36  37
ENDBRANCH  34  36
ENDBRANCH  33  34
ENDBRANCH   1  33
TORSDOF 40
BEGIN_RES ARG D 557
REMARK  4 active torsions:
REMARK  status: ('A' for Active; 'I' for Inactive)
REMARK    1  A    between atoms: CA   and  CB  
REMARK    2  A    between atoms: CB   and  CG  
REMARK    3  A    between atoms: CG   and  CD  
REMARK    4  A    between atoms: CD   and  NE  
REMARK       I    between atoms: NE   and  CZ  
REMARK       I    between atoms: CZ   and  NH1 
REMARK       I    between atoms: CZ   and  NH2 
ROOT
ATOM      1  CA  ARG D 557     -26.217   2.705 -17.014  1.00 35.49     0.159 C 
ENDROOT
BRANCH   1   2
ATOM      2  CB  ARG D 557     -26.789   1.319 -17.183  1.00 35.49     0.034 C 
BRANCH   2   3
ATOM      3  CG  ARG D 557     -25.862   0.195 -17.003  1.00 35.49     0.027 C 
BRANCH   3   4
ATOM      4  CD  ARG D 557     -26.230  -0.662 -15.853  1.00 35.49     0.116 C 
BRANCH   4   5
ATOM      5  NE  ARG D 557     -25.125  -0.869 -14.955  1.00 35.49    -0.212 N 
ATOM      6  CZ  ARG D 557     -24.970  -1.897 -14.151  1.00 35.49     0.666 C 
ATOM      7  NH1 ARG D 557     -25.854  -2.875 -14.073  1.00 35.49    -0.235 N 
ATOM      8  NH2 ARG D 557     -23.894  -1.931 -13.420  1.00 35.49    -0.235 N 
ATOM      9  HH  ARG D 557     -26.568  -2.874 -14.546  1.00 35.49     0.174 HD
ATOM     10  HH  ARG D 557     -25.698  -3.521 -13.532  1.00 35.49     0.174 HD
ATOM     11  HH  ARG D 557     -23.338  -1.289 -13.497  1.00 35.49     0.174 HD
ATOM     12  HH  ARG D 557     -23.758  -2.580 -12.892  1.00 35.49     0.174 HD
ATOM     13  HE  ARG D 557     -24.544  -0.251 -14.888  1.00 35.49     0.178 HD
ENDBRANCH   4   5
ENDBRANCH   3   4
ENDBRANCH   2   3
ENDBRANCH   1   2
END_RES ARG D 557
BEGIN_RES GLU D 570
REMARK  3 active torsions:
REMARK  status: ('A' for Active; 'I' for Inactive)
REMARK    5  A    between atoms: CA   and  CB  
REMARK    6  A    between atoms: CB   and  CG  
REMARK    7  A    between atoms: CG   and  CD  
ROOT
ATOM     14  CA  GLU D 570     -18.033  -6.348 -13.375  1.00 32.92     0.160 C 
ENDROOT
BRANCH  14  15
ATOM     15  CB  GLU D 570     -19.500  -6.345 -13.794  1.00 32.92     0.043 C 
BRANCH  15  16
ATOM     16  CG  GLU D 570     -20.001  -7.528 -14.539  1.00 32.92     0.100 C 
BRANCH  16  17
ATOM     17  CD  GLU D 570     -20.745  -7.158 -15.801  1.00 32.92     0.185 C 
ATOM     18  OE1 GLU D 570     -21.653  -7.907 -16.210  1.00 32.92    -0.647 OA
ATOM     19  OE2 GLU D 570     -20.405  -6.117 -16.396  1.00 32.92    -0.647 OA
ENDBRANCH  16  17
ENDBRANCH  15  16
ENDBRANCH  14  15
END_RES GLU D 570
ENDMDL
MODEL 2
REMARK VINA RESULT:      -7.3      6.409     15.651
REMARK WARNING: 32 MAX_TORS EXCEEDED!!!
REMARK  40 active torsions:
REMARK  status: ('A' for Active; 'I' for Inactive)
REMARK    1  A    between atoms: C_2  and  C_3 
REMARK    2  A    between atoms: C_3  and  C_4 
REMARK    3  A    between atoms: C_4  and  C_5 
REMARK    4  A    between atoms: C_5  and  C_6 
REMARK    5  A    between atoms: C_6  and  C_7 
REMARK    6  A    between atoms: C_7  and  C_8 
REMARK    7  A    between atoms: C_8  and  C_9 
REMARK    8  A    between atoms: C_9  and  C_10 
REMARK    9  A    between atoms: C_10  and  C_11 
REMARK   10  A    between atoms: C_11  and  C_12 
REMARK   11  A    between atoms: C_12  and  C_13 
REMARK   12  A    between atoms: C_13  and  C_14 
REMARK   13  A    between atoms: C_14  and  C_15 
REMARK   14  A    between atoms: C_15  and  C_16 
REMARK   15  A    between atoms: C_16  and  O_18 
REMARK   16  A    between atoms: O_18  and  C_19 
REMARK   17  A    between atoms: C_19  and  C_20 
REMARK   18  A    between atoms: C_20  and  C_21 
REMARK   19  A    between atoms: C_20  and  O_33 
REMARK   20  A    between atoms: C_21  and  O_22 
REMARK   21  A    between atoms: O_22  and  P_23 
REMARK   22  A    between atoms: P_23  and  O_26 
REMARK   23  A    between atoms: O_26  and  C_27 
REMARK   24  A    between atoms: C_27  and  C_28 
REMARK   25  A    between atoms: C_28  and  N_29 
REMARK   26  A    between atoms: O_33  and  C_34 
REMARK   27  A    between atoms: C_34  and  C_36 
REMARK   28  A    between atoms: C_36  and  C_37 
REMARK   29  A    between atoms: C_37  and  C_38 
REMARK   30  A    between atoms: C_38  and  C_39 
REMARK   31  A    between atoms: C_39  and  C_40 
REMARK   32  A    between atoms: C_40  and  C_41 
REMARK   33  A    between atoms: C_41  and  C_42 
REMARK   34  A    between atoms: C_42  and  C_43 
REMARK   35  A    between atoms: C_44  and  C_45 
REMARK   36  A    between atoms: C_45  and  C_46 
REMARK   37  A    between atoms: C_47  and  C_48 
REMARK   38  A    between atoms: C_48  and  C_49 
REMARK   39  A    between atoms: C_49  and  C_50 
REMARK   40  A    between atoms: C_50  and  C_51 
ROOT
HETATM    1  C   UNL     1     -20.878  -7.724  -5.354  1.00  0.00     0.180 C 
ENDROOT
BRANCH   1   2
HETATM    2  C   UNL     1     -21.950  -7.522  -4.278  1.00  0.00     0.213 C 
BRANCH   2   3
HETATM    3  O   UNL     1     -21.371  -7.618  -2.957  1.00  0.00    -0.319 OA
BRANCH   3   4
HETATM    4  C   UNL     1     -21.891  -6.738  -2.045  1.00  0.00     0.258 C 
HETATM    5  O   UNL     1     -21.973  -5.537  -2.213  1.00  0.00    -0.265 OA
BRANCH   4   6
HETATM    6  C   UNL     1     -22.344  -7.440  -0.771  1.00  0.00     0.111 C 
BRANCH   6   7
HETATM    7  C   UNL     1     -21.167  -8.213  -0.169  1.00  0.00     0.010 C 
BRANCH   7   8
HETATM    8  C   UNL     1     -21.389  -8.560   1.300  1.00  0.00     0.000 C 
BRANCH   8   9
HETATM    9  C   UNL     1     -20.401  -9.634   1.743  1.00  0.00     0.000 C 
BRANCH   9  10
HETATM   10  C   UNL     1     -20.615 -10.910   0.945  1.00  0.00     0.000 C 
BRANCH  10  11
HETATM   11  C   UNL     1     -19.314 -11.346   0.291  1.00  0.00     0.000 C 
BRANCH  11  12
HETATM   12  C   UNL     1     -19.339 -12.842   0.031  1.00  0.00     0.000 C 
BRANCH  12  13
HETATM   13  C   UNL     1     -17.945 -13.420   0.188  1.00  0.00     0.000 C 
BRANCH  13  14
HETATM   14  C   UNL     1     -17.020 -12.383   0.800  1.00  0.00     0.000 C 
BRANCH  14  15
HETATM   15  C   UNL     1     -15.930 -13.071   1.600  1.00  0.00     0.000 C 
BRANCH  15  16
HETATM   16  C   UNL     1     -14.615 -13.010   0.844  1.00  0.00     0.000 C 
BRANCH  16  17
HETATM   17  C   UNL     1     -13.735 -14.183   1.239  1.00  0.00     0.000 C 
BRANCH  17  18
HETATM   18  C   UNL     1     -12.491 -14.219   0.365  1.00  0.00    -0.000 C 
BRANCH  18  19
HETATM   19  C   UNL     1     -11.477 -15.205   0.924  1.00  0.00    -0.005 C 
HETATM   20  C   UNL     1     -10.245 -14.472   1.417  1.00  0.00     0.005 C 
ENDBRANCH  18  19
ENDBRANCH  17  18
ENDBRANCH  16  17
ENDBRANCH  15  16
ENDBRANCH  14  15
ENDBRANCH  13  14
ENDBRANCH  12  13
ENDBRANCH  11  12
ENDBRANCH  10  11
ENDBRANCH   9  10
ENDBRANCH   8   9
ENDBRANCH   7   8
ENDBRANCH   6   7
ENDBRANCH   4   6
ENDBRANCH   3   4
ENDBRANCH   2   3
ENDBRANCH   1   2
BRANCH   1  21
HETATM   21  C   UNL     1     -20.611  -6.347  -6.015  1.00  0.00     0.216 C 
BRANCH  21  22
HETATM   22  O   UNL     1     -21.675  -5.703  -6.955  1.00  0.00    -0.287 OA
BRANCH  22  23
HETATM   23  P   UNL     1     -20.762  -4.535  -7.698  1.00  0.00     0.408 P 
HETATM   24  O   UNL     1     -21.541  -3.328  -7.288  1.00  0.00    -0.624 OA
HETATM   25  O   UNL     1     -19.424  -5.208  -7.577  1.00  0.00    -0.624 OA
BRANCH  23  26
HETATM   26  O   UNL     1     -20.465  -3.991  -9.266  1.00  0.00    -0.288 OA
BRANCH  26  27
HETATM   27  C   UNL     1     -21.114  -4.317 -10.406  1.00  0.00     0.209 C 
BRANCH  27  28
HETATM   28  C   UNL     1     -22.070  -3.250 -10.963  1.00  0.00     0.262 C 
BRANCH  28  29
HETATM   29  N   UNL     1     -23.542  -3.715 -10.982  1.00  0.00    -0.077 N 
HETATM   30  C   UNL     1     -24.218  -3.315  -9.671  1.00  0.00     0.271 C 
HETATM   31  C   UNL     1     -24.274  -3.040 -12.141  1.00  0.00     0.271 C 
HETATM   32  C   UNL     1     -23.602  -5.206 -11.141  1.00  0.00     0.271 C 
ENDBRANCH  28  29
ENDBRANCH  27  28
ENDBRANCH  26  27
ENDBRANCH  23  26
ENDBRANCH  22  23
ENDBRANCH  21  22
ENDBRANCH   1  21
BRANCH   1  33
HETATM   33  O   UNL     1     -19.663  -8.218  -4.750  1.00  0.00    -0.312 OA
BRANCH  33  34
HETATM   34  C   UNL     1     -19.146  -9.385  -5.284  1.00  0.00     0.259 C 
HETATM   35  O   UNL     1     -19.693 -10.121  -5.998  1.00  0.00    -0.265 OA
BRANCH  34  36
HETATM   36  C   UNL     1     -17.832  -9.701  -4.648  1.00  0.00     0.111 C 
BRANCH  36  37
HETATM   37  C   UNL     1     -17.869  -9.383  -3.155  1.00  0.00     0.010 C 
BRANCH  37  38
HETATM   38  C   UNL     1     -17.291 -10.525  -2.324  1.00  0.00     0.000 C 
BRANCH  38  39
HETATM   39  C   UNL     1     -15.771 -10.443  -2.292  1.00  0.00     0.000 C 
BRANCH  39  40
HETATM   40  C   UNL     1     -15.167 -11.564  -3.129  1.00  0.00     0.000 C 
BRANCH  40  41
HETATM   41  C   UNL     1     -15.637 -12.920  -2.613  1.00  0.00     0.004 C 
BRANCH  41  42
HETATM   42  C   UNL     1     -16.238 -13.733  -3.752  1.00  0.00     0.027 C 
BRANCH  42  43
HETATM   43  C   UNL     1     -17.741 -13.794  -3.618  1.00  0.00    -0.030 C 
HETATM   44  C   UNL     1     -18.537 -13.313  -4.612  1.00  0.00    -0.027 C 
BRANCH  44  45
HETATM   45  C   UNL     1     -20.035 -13.391  -4.509  1.00  0.00     0.053 C 
BRANCH  45  46
HETATM   46  C   UNL     1     -20.561 -12.493  -3.419  1.00  0.00    -0.027 C 
HETATM   47  C   UNL     1     -21.606 -11.753  -3.507  1.00  0.00    -0.030 C 
BRANCH  47  48
HETATM   48  C   UNL     1     -22.110 -10.890  -2.411  1.00  0.00     0.027 C 
BRANCH  48  49
HETATM   49  C   UNL     1     -23.524 -11.282  -1.992  1.00  0.00     0.004 C 
BRANCH  49  50
HETATM   50  C   UNL     1     -23.770 -10.922  -0.534  1.00  0.00    -0.000 C 
BRANCH  50  51
HETATM   51  C   UNL     1     -23.745 -12.173   0.335  1.00  0.00    -0.005 C 
HETATM   52  C   UNL     1     -23.730 -13.418  -0.529  1.00  0.00     0.005 C 
ENDBRANCH  50  51
ENDBRANCH  49  50
ENDBRANCH  48  49
ENDBRANCH  47  48
ENDBRANCH  45  46
ENDBRANCH  44  45
ENDBRANCH  42  43
ENDBRANCH  41  42
ENDBRANCH  40  41
ENDBRANCH  39  40
ENDBRANCH  38  39
ENDBRANCH  37  38
ENDBRANCH  36  37
ENDBRANCH  34  36
ENDBRANCH  33  34
ENDBRANCH   1  33
TORSDOF 40
BEGIN_RES ARG D 557
REMARK  4 active torsions:
REMARK  status: ('A' for Active; 'I' for Inactive)
REMARK    1  A    between atoms: CA   and  CB  
REMARK    2  A    between atoms: CB   and  CG  
REMARK    3  A    between atoms: CG   and  CD  
REMARK    4  A    between atoms: CD   and  NE  
REMARK       I    between atoms: NE   and  CZ  
REMARK       I    between atoms: CZ   and  NH1 
REMARK       I    between atoms: CZ   and  NH2 
ROOT
ATOM      1  CA  ARG D 557     -26.217   2.705 -17.014  1.00 35.49     0.159 C 
ENDROOT
BRANCH   1   2
ATOM      2  CB  ARG D 557     -26.789   1.319 -17.183  1.00 35.49     0.034 C 
BRANCH   2   3
ATOM      3  CG  ARG D 557     -25.955   0.200 -16.729  1.00 35.49     0.027 C 
BRANCH   3   4
ATOM      4  CD  ARG D 557     -26.746  -0.860 -16.063  1.00 35.49     0.116 C 
BRANCH   4   5
ATOM      5  NE  ARG D 557     -27.991  -1.112 -16.739  1.00 35.49    -0.212 N 
ATOM      6  CZ  ARG D 557     -28.516  -2.296 -16.966  1.00 35.49     0.666 C 
ATOM      7  NH1 ARG D 557     -27.924  -3.417 -16.596  1.00 35.49    -0.235 N 
ATOM      8  NH2 ARG D 557     -29.665  -2.336 -17.574  1.00 35.49    -0.235 N 
ATOM      9  HH  ARG D 557     -27.168  -3.414 -16.192  1.00 35.49     0.174 HD
ATOM     10  HH  ARG D 557     -28.315  -4.159 -16.768  1.00 35.49     0.174 HD
ATOM     11  HH  ARG D 557     -30.027  -1.596 -17.795  1.00 35.49     0.174 HD
ATOM     12  HH  ARG D 557     -30.037  -3.081 -17.735  1.00 35.49     0.174 HD
ATOM     13  HE  ARG D 557     -28.404  -0.450 -17.075  1.00 35.49     0.178 HD
ENDBRANCH   4   5
ENDBRANCH   3   4
ENDBRANCH   2   3
ENDBRANCH   1   2
END_RES ARG D 557
BEGIN_RES GLU D 570
REMARK  3 active torsions:
REMARK  status: ('A' for Active; 'I' for Inactive)
REMARK    5  A    between atoms: CA   and  CB  
REMARK    6  A    between atoms: CB   and  CG  
REMARK    7  A    between atoms: CG   and  CD  
ROOT
ATOM     14  CA  GLU D 570     -18.033  -6.348 -13.375  1.00 32.92     0.160 C 
ENDROOT
BRANCH  14  15
ATOM     15  CB  GLU D 570     -19.500  -6.345 -13.794  1.00 32.92     0.043 C 
BRANCH  15  16
ATOM     16  CG  GLU D 570     -19.814  -5.923 -15.184  1.00 32.92     0.100 C 
BRANCH  16  17
ATOM     17  CD  GLU D 570     -21.229  -5.417 -15.340  1.00 32.92     0.185 C 
ATOM     18  OE1 GLU D 570     -21.783  -5.503 -16.453  1.00 32.92    -0.647 OA
ATOM     19  OE2 GLU D 570     -21.784  -4.914 -14.343  1.00 32.92    -0.647 OA
ENDBRANCH  16  17
ENDBRANCH  15  16
ENDBRANCH  14  15
END_RES GLU D 570
ENDMDL
MODEL 3
REMARK VINA RESULT:      -7.2      6.503     14.326
REMARK WARNING: 32 MAX_TORS EXCEEDED!!!
REMARK  40 active torsions:
REMARK  status: ('A' for Active; 'I' for Inactive)
REMARK    1  A    between atoms: C_2  and  C_3 
REMARK    2  A    between atoms: C_3  and  C_4 
REMARK    3  A    between atoms: C_4  and  C_5 
REMARK    4  A    between atoms: C_5  and  C_6 
REMARK    5  A    between atoms: C_6  and  C_7 
REMARK    6  A    between atoms: C_7  and  C_8 
REMARK    7  A    between atoms: C_8  and  C_9 
REMARK    8  A    between atoms: C_9  and  C_10 
REMARK    9  A    between atoms: C_10  and  C_11 
REMARK   10  A    between atoms: C_11  and  C_12 
REMARK   11  A    between atoms: C_12  and  C_13 
REMARK   12  A    between atoms: C_13  and  C_14 
REMARK   13  A    between atoms: C_14  and  C_15 
REMARK   14  A    between atoms: C_15  and  C_16 
REMARK   15  A    between atoms: C_16  and  O_18 
REMARK   16  A    between atoms: O_18  and  C_19 
REMARK   17  A    between atoms: C_19  and  C_20 
REMARK   18  A    between atoms: C_20  and  C_21 
REMARK   19  A    between atoms: C_20  and  O_33 
REMARK   20  A    between atoms: C_21  and  O_22 
REMARK   21  A    between atoms: O_22  and  P_23 
REMARK   22  A    between atoms: P_23  and  O_26 
REMARK   23  A    between atoms: O_26  and  C_27 
REMARK   24  A    between atoms: C_27  and  C_28 
REMARK   25  A    between atoms: C_28  and  N_29 
REMARK   26  A    between atoms: O_33  and  C_34 
REMARK   27  A    between atoms: C_34  and  C_36 
REMARK   28  A    between atoms: C_36  and  C_37 
REMARK   29  A    between atoms: C_37  and  C_38 
REMARK   30  A    between atoms: C_38  and  C_39 
REMARK   31  A    between atoms: C_39  and  C_40 
REMARK   32  A    between atoms: C_40  and  C_41 
REMARK   33  A    between atoms: C_41  and  C_42 
REMARK   34  A    between atoms: C_42  and  C_43 
REMARK   35  A    between atoms: C_44  and  C_45 
REMARK   36  A    between atoms: C_45  and  C_46 
REMARK   37  A    between atoms: C_47  and  C_48 
REMARK   38  A    between atoms: C_48  and  C_49 
REMARK   39  A    between atoms: C_49  and  C_50 
REMARK   40  A    between atoms: C_50  and  C_51 
ROOT
HETATM    1  C   UNL     1     -20.699  -7.924  -5.206  1.00  0.00     0.180 C 
ENDROOT
BRANCH   1   2
HETATM    2  C   UNL     1     -21.726  -8.091  -4.081  1.00  0.00     0.213 C 
BRANCH   2   3
HETATM    3  O   UNL     1     -21.154  -7.717  -2.808  1.00  0.00    -0.319 OA
BRANCH   3   4
HETATM    4  C   UNL     1     -21.940  -6.886  -2.055  1.00  0.00     0.258 C 
HETATM    5  O   UNL     1     -22.332  -5.793  -2.414  1.00  0.00    -0.265 OA
BRANCH   4   6
HETATM    6  C   UNL     1     -22.258  -7.485  -0.690  1.00  0.00     0.111 C 
BRANCH   6   7
HETATM    7  C   UNL     1     -21.150  -8.464  -0.293  1.00  0.00     0.010 C 
BRANCH   7   8
HETATM    8  C   UNL     1     -21.156  -8.774   1.201  1.00  0.00     0.000 C 
BRANCH   8   9
HETATM    9  C   UNL     1     -20.391 -10.065   1.474  1.00  0.00     0.000 C 
BRANCH   9  10
HETATM   10  C   UNL     1     -20.731 -11.113   0.427  1.00  0.00     0.000 C 
BRANCH  10  11
HETATM   11  C   UNL     1     -21.500 -12.261   1.061  1.00  0.00     0.000 C 
BRANCH  11  12
HETATM   12  C   UNL     1     -22.697 -12.622   0.200  1.00  0.00     0.000 C 
BRANCH  12  13
HETATM   13  C   UNL     1     -23.546 -11.390  -0.052  1.00  0.00     0.000 C 
BRANCH  13  14
HETATM   14  C   UNL     1     -23.916 -11.308  -1.522  1.00  0.00     0.000 C 
BRANCH  14  15
HETATM   15  C   UNL     1     -22.662 -11.151  -2.362  1.00  0.00     0.000 C 
BRANCH  15  16
HETATM   16  C   UNL     1     -22.766 -12.004  -3.613  1.00  0.00     0.000 C 
BRANCH  16  17
HETATM   17  C   UNL     1     -21.915 -13.252  -3.462  1.00  0.00     0.000 C 
BRANCH  17  18
HETATM   18  C   UNL     1     -20.574 -12.898  -2.839  1.00  0.00    -0.000 C 
BRANCH  18  19
HETATM   19  C   UNL     1     -20.099 -14.020  -1.928  1.00  0.00    -0.005 C 
HETATM   20  C   UNL     1     -18.636 -13.832  -1.579  1.00  0.00     0.005 C 
ENDBRANCH  18  19
ENDBRANCH  17  18
ENDBRANCH  16  17
ENDBRANCH  15  16
ENDBRANCH  14  15
ENDBRANCH  13  14
ENDBRANCH  12  13
ENDBRANCH  11  12
ENDBRANCH  10  11
ENDBRANCH   9  10
ENDBRANCH   8   9
ENDBRANCH   7   8
ENDBRANCH   6   7
ENDBRANCH   4   6
ENDBRANCH   3   4
ENDBRANCH   2   3
ENDBRANCH   1   2
BRANCH   1  21
HETATM   21  C   UNL     1     -20.816  -6.472  -5.737  1.00  0.00     0.216 C 
BRANCH  21  22
HETATM   22  O   UNL     1     -22.185  -5.729  -5.707  1.00  0.00    -0.287 OA
BRANCH  22  23
HETATM   23  P   UNL     1     -22.038  -4.760  -7.046  1.00  0.00     0.408 P 
HETATM   24  O   UNL     1     -23.461  -4.326  -7.181  1.00  0.00    -0.624 OA
HETATM   25  O   UNL     1     -20.643  -4.264  -6.792  1.00  0.00    -0.624 OA
BRANCH  23  26
HETATM   26  O   UNL     1     -21.785  -4.947  -8.702  1.00  0.00    -0.288 OA
BRANCH  26  27
HETATM   27  C   UNL     1     -22.168  -4.132  -9.709  1.00  0.00     0.209 C 
BRANCH  27  28
HETATM   28  C   UNL     1     -23.241  -4.693 -10.656  1.00  0.00     0.262 C 
BRANCH  28  29
HETATM   29  N   UNL     1     -23.220  -4.027 -12.049  1.00  0.00    -0.077 N 
HETATM   30  C   UNL     1     -23.220  -5.109 -13.129  1.00  0.00     0.271 C 
HETATM   31  C   UNL     1     -24.467  -3.160 -12.217  1.00  0.00     0.271 C 
HETATM   32  C   UNL     1     -21.989  -3.181 -12.188  1.00  0.00     0.271 C 
ENDBRANCH  28  29
ENDBRANCH  27  28
ENDBRANCH  26  27
ENDBRANCH  23  26
ENDBRANCH  22  23
ENDBRANCH  21  22
ENDBRANCH   1  21
BRANCH   1  33
HETATM   33  O   UNL     1     -19.368  -8.150  -4.692  1.00  0.00    -0.312 OA
BRANCH  33  34
HETATM   34  C   UNL     1     -18.743  -9.312  -5.105  1.00  0.00     0.259 C 
HETATM   35  O   UNL     1     -18.369  -9.553  -6.179  1.00  0.00    -0.265 OA
BRANCH  34  36
HETATM   36  C   UNL     1     -18.793 -10.334  -4.016  1.00  0.00     0.111 C 
BRANCH  36  37
HETATM   37  C   UNL     1     -18.161  -9.787  -2.739  1.00  0.00     0.010 C 
BRANCH  37  38
HETATM   38  C   UNL     1     -16.720  -9.341  -2.973  1.00  0.00     0.000 C 
BRANCH  38  39
HETATM   39  C   UNL     1     -15.798 -10.549  -3.070  1.00  0.00     0.000 C 
BRANCH  39  40
HETATM   40  C   UNL     1     -15.308 -10.722  -4.502  1.00  0.00     0.000 C 
BRANCH  40  41
HETATM   41  C   UNL     1     -15.078 -12.199  -4.806  1.00  0.00     0.004 C 
BRANCH  41  42
HETATM   42  C   UNL     1     -15.720 -13.060  -3.726  1.00  0.00     0.027 C 
BRANCH  42  43
HETATM   43  C   UNL     1     -14.705 -14.013  -3.141  1.00  0.00    -0.030 C 
HETATM   44  C   UNL     1     -13.507 -13.547  -2.693  1.00  0.00    -0.027 C 
BRANCH  44  45
HETATM   45  C   UNL     1     -12.495 -14.476  -2.082  1.00  0.00     0.053 C 
BRANCH  45  46
HETATM   46  C   UNL     1     -12.966 -15.008  -0.753  1.00  0.00    -0.027 C 
HETATM   47  C   UNL     1     -13.074 -14.321   0.325  1.00  0.00    -0.030 C 
BRANCH  47  48
HETATM   48  C   UNL     1     -13.558 -14.868   1.617  1.00  0.00     0.027 C 
BRANCH  48  49
HETATM   49  C   UNL     1     -15.078 -14.809   1.718  1.00  0.00     0.004 C 
BRANCH  49  50
HETATM   50  C   UNL     1     -15.529 -13.450   2.235  1.00  0.00    -0.000 C 
BRANCH  50  51
HETATM   51  C   UNL     1     -16.546 -12.829   1.286  1.00  0.00    -0.005 C 
HETATM   52  C   UNL     1     -15.856 -11.914   0.293  1.00  0.00     0.005 C 
ENDBRANCH  50  51
ENDBRANCH  49  50
ENDBRANCH  48  49
ENDBRANCH  47  48
ENDBRANCH  45  46
ENDBRANCH  44  45
ENDBRANCH  42  43
ENDBRANCH  41  42
ENDBRANCH  40  41
ENDBRANCH  39  40
ENDBRANCH  38  39
ENDBRANCH  37  38
ENDBRANCH  36  37
ENDBRANCH  34  36
ENDBRANCH  33  34
ENDBRANCH   1  33
TORSDOF 40
BEGIN_RES ARG D 557
REMARK  4 active torsions:
REMARK  status: ('A' for Active; 'I' for Inactive)
REMARK    1  A    between atoms: CA   and  CB  
REMARK    2  A    between atoms: CB   and  CG  
REMARK    3  A    between atoms: CG   and  CD  
REMARK    4  A    between atoms: CD   and  NE  
REMARK       I    between atoms: NE   and  CZ  
REMARK       I    between atoms: CZ   and  NH1 
REMARK       I    between atoms: CZ   and  NH2 
ROOT
ATOM      1  CA  ARG D 557     -26.217   2.705 -17.014  1.00 35.49     0.159 C 
ENDROOT
BRANCH   1   2
ATOM      2  CB  ARG D 557     -26.789   1.319 -17.183  1.00 35.49     0.034 C 
BRANCH   2   3
ATOM      3  CG  ARG D 557     -28.142   1.094 -16.660  1.00 35.49     0.027 C 
BRANCH   3   4
ATOM      4  CD  ARG D 557     -28.797  -0.083 -17.275  1.00 35.49     0.116 C 
BRANCH   4   5
ATOM      5  NE  ARG D 557     -28.191  -1.320 -16.858  1.00 35.49    -0.212 N 
ATOM      6  CZ  ARG D 557     -28.686  -2.522 -17.052  1.00 35.49     0.666 C 
ATOM      7  NH1 ARG D 557     -29.841  -2.723 -17.660  1.00 35.49    -0.235 N 
ATOM      8  NH2 ARG D 557     -27.989  -3.534 -16.626  1.00 35.49    -0.235 N 
ATOM      9  HH  ARG D 557     -30.315  -2.071 -17.950  1.00 35.49     0.174 HD
ATOM     10  HH  ARG D 557     -30.113  -3.529 -17.760  1.00 35.49     0.174 HD
ATOM     11  HH  ARG D 557     -27.244  -3.375 -16.244  1.00 35.49     0.174 HD
ATOM     12  HH  ARG D 557     -28.275  -4.325 -16.736  1.00 35.49     0.174 HD
ATOM     13  HE  ARG D 557     -27.479  -1.280 -16.395  1.00 35.49     0.178 HD
ENDBRANCH   4   5
ENDBRANCH   3   4
ENDBRANCH   2   3
ENDBRANCH   1   2
END_RES ARG D 557
BEGIN_RES GLU D 570
REMARK  3 active torsions:
REMARK  status: ('A' for Active; 'I' for Inactive)
REMARK    5  A    between atoms: CA   and  CB  
REMARK    6  A    between atoms: CB   and  CG  
REMARK    7  A    between atoms: CG   and  CD  
ROOT
ATOM     14  CA  GLU D 570     -18.033  -6.348 -13.375  1.00 32.92     0.160 C 
ENDROOT
BRANCH  14  15
ATOM     15  CB  GLU D 570     -19.500  -6.345 -13.794  1.00 32.92     0.043 C 
BRANCH  15  16
ATOM     16  CG  GLU D 570     -20.109  -7.649 -14.163  1.00 32.92     0.100 C 
BRANCH  16  17
ATOM     17  CD  GLU D 570     -20.752  -7.633 -15.531  1.00 32.92     0.185 C 
ATOM     18  OE1 GLU D 570     -20.759  -8.679 -16.208  1.00 32.92    -0.647 OA
ATOM     19  OE2 GLU D 570     -21.238  -6.559 -15.936  1.00 32.92    -0.647 OA
ENDBRANCH  16  17
ENDBRANCH  15  16
ENDBRANCH  14  15
END_RES GLU D 570
ENDMDL
MODEL 4
REMARK VINA RESULT:      -7.2      4.105     11.294
REMARK WARNING: 32 MAX_TORS EXCEEDED!!!
REMARK  40 active torsions:
REMARK  status: ('A' for Active; 'I' for Inactive)
REMARK    1  A    between atoms: C_2  and  C_3 
REMARK    2  A    between atoms: C_3  and  C_4 
REMARK    3  A    between atoms: C_4  and  C_5 
REMARK    4  A    between atoms: C_5  and  C_6 
REMARK    5  A    between atoms: C_6  and  C_7 
REMARK    6  A    between atoms: C_7  and  C_8 
REMARK    7  A    between atoms: C_8  and  C_9 
REMARK    8  A    between atoms: C_9  and  C_10 
REMARK    9  A    between atoms: C_10  and  C_11 
REMARK   10  A    between atoms: C_11  and  C_12 
REMARK   11  A    between atoms: C_12  and  C_13 
REMARK   12  A    between atoms: C_13  and  C_14 
REMARK   13  A    between atoms: C_14  and  C_15 
REMARK   14  A    between atoms: C_15  and  C_16 
REMARK   15  A    between atoms: C_16  and  O_18 
REMARK   16  A    between atoms: O_18  and  C_19 
REMARK   17  A    between atoms: C_19  and  C_20 
REMARK   18  A    between atoms: C_20  and  C_21 
REMARK   19  A    between atoms: C_20  and  O_33 
REMARK   20  A    between atoms: C_21  and  O_22 
REMARK   21  A    between atoms: O_22  and  P_23 
REMARK   22  A    between atoms: P_23  and  O_26 
REMARK   23  A    between atoms: O_26  and  C_27 
REMARK   24  A    between atoms: C_27  and  C_28 
REMARK   25  A    between atoms: C_28  and  N_29 
REMARK   26  A    between atoms: O_33  and  C_34 
REMARK   27  A    between atoms: C_34  and  C_36 
REMARK   28  A    between atoms: C_36  and  C_37 
REMARK   29  A    between atoms: C_37  and  C_38 
REMARK   30  A    between atoms: C_38  and  C_39 
REMARK   31  A    between atoms: C_39  and  C_40 
REMARK   32  A    between atoms: C_40  and  C_41 
REMARK   33  A    between atoms: C_41  and  C_42 
REMARK   34  A    between atoms: C_42  and  C_43 
REMARK   35  A    between atoms: C_44  and  C_45 
REMARK   36  A    between atoms: C_45  and  C_46 
REMARK   37  A    between atoms: C_47  and  C_48 
REMARK   38  A    between atoms: C_48  and  C_49 
REMARK   39  A    between atoms: C_49  and  C_50 
REMARK   40  A    between atoms: C_50  and  C_51 
ROOT
HETATM    1  C   UNL     1     -22.651  -3.886 -11.992  1.00  0.00     0.180 C 
ENDROOT
BRANCH   1   2
HETATM    2  C   UNL     1     -21.174  -3.608 -11.695  1.00  0.00     0.213 C 
BRANCH   2   3
HETATM    3  O   UNL     1     -20.990  -3.269 -10.302  1.00  0.00    -0.319 OA
BRANCH   3   4
HETATM    4  C   UNL     1     -20.157  -4.114  -9.618  1.00  0.00     0.258 C 
HETATM    5  O   UNL     1     -19.737  -5.170 -10.051  1.00  0.00    -0.265 OA
BRANCH   4   6
HETATM    6  C   UNL     1     -19.824  -3.586  -8.228  1.00  0.00     0.111 C 
BRANCH   6   7
HETATM    7  C   UNL     1     -18.858  -4.550  -7.534  1.00  0.00     0.010 C 
BRANCH   7   8
HETATM    8  C   UNL     1     -19.498  -5.261  -6.347  1.00  0.00     0.000 C 
BRANCH   8   9
HETATM    9  C   UNL     1     -19.857  -6.695  -6.723  1.00  0.00     0.000 C 
BRANCH   9  10
HETATM   10  C   UNL     1     -19.007  -7.677  -5.934  1.00  0.00     0.000 C 
BRANCH  10  11
HETATM   11  C   UNL     1     -19.851  -8.857  -5.479  1.00  0.00     0.000 C 
BRANCH  11  12
HETATM   12  C   UNL     1     -19.795  -8.983  -3.967  1.00  0.00     0.000 C 
BRANCH  12  13
HETATM   13  C   UNL     1     -20.575 -10.205  -3.519  1.00  0.00     0.000 C 
BRANCH  13  14
HETATM   14  C   UNL     1     -19.742 -11.024  -2.550  1.00  0.00     0.000 C 
BRANCH  14  15
HETATM   15  C   UNL     1     -18.568 -10.200  -2.054  1.00  0.00     0.000 C 
BRANCH  15  16
HETATM   16  C   UNL     1     -17.263 -10.859  -2.462  1.00  0.00     0.000 C 
BRANCH  16  17
HETATM   17  C   UNL     1     -16.315  -9.821  -3.037  1.00  0.00     0.000 C 
BRANCH  17  18
HETATM   18  C   UNL     1     -15.553 -10.406  -4.215  1.00  0.00    -0.000 C 
BRANCH  18  19
HETATM   19  C   UNL     1     -16.192  -9.976  -5.527  1.00  0.00    -0.005 C 
HETATM   20  C   UNL     1     -16.948 -11.133  -6.149  1.00  0.00     0.005 C 
ENDBRANCH  18  19
ENDBRANCH  17  18
ENDBRANCH  16  17
ENDBRANCH  15  16
ENDBRANCH  14  15
ENDBRANCH  13  14
ENDBRANCH  12  13
ENDBRANCH  11  12
ENDBRANCH  10  11
ENDBRANCH   9  10
ENDBRANCH   8   9
ENDBRANCH   7   8
ENDBRANCH   6   7
ENDBRANCH   4   6
ENDBRANCH   3   4
ENDBRANCH   2   3
ENDBRANCH   1   2
BRANCH   1  21
HETATM   21  C   UNL     1     -22.713  -4.870 -13.189  1.00  0.00     0.216 C 
BRANCH  21  22
HETATM   22  O   UNL     1     -23.833  -5.950 -13.265  1.00  0.00    -0.287 OA
BRANCH  22  23
HETATM   23  P   UNL     1     -24.221  -5.877 -14.877  1.00  0.00     0.408 P 
HETATM   24  O   UNL     1     -23.226  -4.853 -15.314  1.00  0.00    -0.624 OA
HETATM   25  O   UNL     1     -24.639  -7.310 -15.055  1.00  0.00    -0.624 OA
BRANCH  23  26
HETATM   26  O   UNL     1     -25.474  -5.281 -15.834  1.00  0.00    -0.288 OA
BRANCH  26  27
HETATM   27  C   UNL     1     -26.730  -5.762 -15.972  1.00  0.00     0.209 C 
BRANCH  27  28
HETATM   28  C   UNL     1     -27.705  -4.876 -16.764  1.00  0.00     0.262 C 
BRANCH  28  29
HETATM   29  N   UNL     1     -28.621  -5.687 -17.706  1.00  0.00    -0.077 N 
HETATM   30  C   UNL     1     -29.192  -6.887 -16.950  1.00  0.00     0.271 C 
HETATM   31  C   UNL     1     -29.776  -4.804 -18.177  1.00  0.00     0.271 C 
HETATM   32  C   UNL     1     -27.833  -6.170 -18.889  1.00  0.00     0.271 C 
ENDBRANCH  28  29
ENDBRANCH  27  28
ENDBRANCH  26  27
ENDBRANCH  23  26
ENDBRANCH  22  23
ENDBRANCH  21  22
ENDBRANCH   1  21
BRANCH   1  33
HETATM   33  O   UNL     1     -23.281  -4.483 -10.838  1.00  0.00    -0.312 OA
BRANCH  33  34
HETATM   34  C   UNL     1     -24.331  -3.776 -10.280  1.00  0.00     0.259 C 
HETATM   35  O   UNL     1     -25.171  -3.217 -10.855  1.00  0.00    -0.265 OA
BRANCH  34  36
HETATM   36  C   UNL     1     -24.130  -3.641  -8.805  1.00  0.00     0.111 C 
BRANCH  36  37
HETATM   37  C   UNL     1     -23.293  -4.801  -8.271  1.00  0.00     0.010 C 
BRANCH  37  38
HETATM   38  C   UNL     1     -22.883  -4.573  -6.819  1.00  0.00     0.000 C 
BRANCH  38  39
HETATM   39  C   UNL     1     -23.613  -5.543  -5.900  1.00  0.00     0.000 C 
BRANCH  39  40
HETATM   40  C   UNL     1     -22.645  -6.590  -5.366  1.00  0.00     0.000 C 
BRANCH  40  41
HETATM   41  C   UNL     1     -22.720  -6.651  -3.844  1.00  0.00     0.004 C 
BRANCH  41  42
HETATM   42  C   UNL     1     -21.475  -6.019  -3.234  1.00  0.00     0.027 C 
BRANCH  42  43
HETATM   43  C   UNL     1     -21.225  -6.578  -1.853  1.00  0.00    -0.030 C 
HETATM   44  C   UNL     1     -22.241  -7.153  -1.153  1.00  0.00    -0.027 C 
BRANCH  44  45
HETATM   45  C   UNL     1     -22.005  -7.740   0.211  1.00  0.00     0.053 C 
BRANCH  45  46
HETATM   46  C   UNL     1     -22.094  -9.245   0.186  1.00  0.00    -0.027 C 
HETATM   47  C   UNL     1     -21.228 -10.047   0.689  1.00  0.00    -0.030 C 
BRANCH  47  48
HETATM   48  C   UNL     1     -21.351 -11.526   0.665  1.00  0.00     0.027 C 
BRANCH  48  49
HETATM   49  C   UNL     1     -22.499 -11.980  -0.229  1.00  0.00     0.004 C 
BRANCH  49  50
HETATM   50  C   UNL     1     -23.519 -12.778   0.571  1.00  0.00    -0.000 C 
BRANCH  50  51
HETATM   51  C   UNL     1     -22.829 -13.879   1.367  1.00  0.00    -0.005 C 
HETATM   52  C   UNL     1     -23.597 -14.172   2.641  1.00  0.00     0.005 C 
ENDBRANCH  50  51
ENDBRANCH  49  50
ENDBRANCH  48  49
ENDBRANCH  47  48
ENDBRANCH  45  46
ENDBRANCH  44  45
ENDBRANCH  42  43
ENDBRANCH  41  42
ENDBRANCH  40  41
ENDBRANCH  39  40
ENDBRANCH  38  39
ENDBRANCH  37  38
ENDBRANCH  36  37
ENDBRANCH  34  36
ENDBRANCH  33  34
ENDBRANCH   1  33
TORSDOF 40
BEGIN_RES ARG D 557
REMARK  4 active torsions:
REMARK  status: ('A' for Active; 'I' for Inactive)
REMARK    1  A    between atoms: CA   and  CB  
REMARK    2  A    between atoms: CB   and  CG  
REMARK    3  A    between atoms: CG   and  CD  
REMARK    4  A    between atoms: CD   and  NE  
REMARK       I    between atoms: NE   and  CZ  
REMARK       I    between atoms: CZ   and  NH1 
REMARK       I    between atoms: CZ   and  NH2 
ROOT
ATOM      1  CA  ARG D 557     -26.217   2.705 -17.014  1.00 35.49     0.159 C 
ENDROOT
BRANCH   1   2
ATOM      2  CB  ARG D 557     -26.789   1.319 -17.183  1.00 35.49     0.034 C 
BRANCH   2   3
ATOM      3  CG  ARG D 557     -26.175   0.249 -16.387  1.00 35.49     0.027 C 
BRANCH   3   4
ATOM      4  CD  ARG D 557     -26.944  -1.015 -16.452  1.00 35.49     0.116 C 
BRANCH   4   5
ATOM      5  NE  ARG D 557     -26.819  -1.788 -15.245  1.00 35.49    -0.212 N 
ATOM      6  CZ  ARG D 557     -25.690  -2.148 -14.676  1.00 35.49     0.666 C 
ATOM      7  NH1 ARG D 557     -24.511  -1.837 -15.182  1.00 35.49    -0.235 N 
ATOM      8  NH2 ARG D 557     -25.765  -2.830 -13.570  1.00 35.49    -0.235 N 
ATOM      9  HH  ARG D 557     -24.437  -1.387 -15.907  1.00 35.49     0.174 HD
ATOM     10  HH  ARG D 557     -23.808  -2.096 -14.766  1.00 35.49     0.174 HD
ATOM     11  HH  ARG D 557     -26.540  -3.010 -13.263  1.00 35.49     0.174 HD
ATOM     12  HH  ARG D 557     -25.058  -3.077 -13.173  1.00 35.49     0.174 HD
ATOM     13  HE  ARG D 557     -27.529  -2.093 -14.890  1.00 35.49     0.178 HD
ENDBRANCH   4   5
ENDBRANCH   3   4
ENDBRANCH   2   3
ENDBRANCH   1   2
END_RES ARG D 557
BEGIN_RES GLU D 570
REMARK  3 active torsions:
REMARK  status: ('A' for Active; 'I' for Inactive)
REMARK    5  A    between atoms: CA   and  CB  
REMARK    6  A    between atoms: CB   and  CG  
REMARK    7  A    between atoms: CG   and  CD  
ROOT
ATOM     14  CA  GLU D 570     -18.033  -6.348 -13.375  1.00 32.92     0.160 C 
ENDROOT
BRANCH  14  15
ATOM     15  CB  GLU D 570     -19.500  -6.345 -13.794  1.00 32.92     0.043 C 
BRANCH  15  16
ATOM     16  CG  GLU D 570     -20.084  -7.633 -14.250  1.00 32.92     0.100 C 
BRANCH  16  17
ATOM     17  CD  GLU D 570     -20.667  -7.555 -15.642  1.00 32.92     0.185 C 
ATOM     18  OE1 GLU D 570     -20.592  -6.482 -16.271  1.00 32.92    -0.647 OA
ATOM     19  OE2 GLU D 570     -21.218  -8.574 -16.103  1.00 32.92    -0.647 OA
ENDBRANCH  16  17
ENDBRANCH  15  16
ENDBRANCH  14  15
END_RES GLU D 570
ENDMDL
MODEL 5
REMARK VINA RESULT:      -7.1      6.036     14.333
REMARK WARNING: 32 MAX_TORS EXCEEDED!!!
REMARK  40 active torsions:
REMARK  status: ('A' for Active; 'I' for Inactive)
REMARK    1  A    between atoms: C_2  and  C_3 
REMARK    2  A    between atoms: C_3  and  C_4 
REMARK    3  A    between atoms: C_4  and  C_5 
REMARK    4  A    between atoms: C_5  and  C_6 
REMARK    5  A    between atoms: C_6  and  C_7 
REMARK    6  A    between atoms: C_7  and  C_8 
REMARK    7  A    between atoms: C_8  and  C_9 
REMARK    8  A    between atoms: C_9  and  C_10 
REMARK    9  A    between atoms: C_10  and  C_11 
REMARK   10  A    between atoms: C_11  and  C_12 
REMARK   11  A    between atoms: C_12  and  C_13 
REMARK   12  A    between atoms: C_13  and  C_14 
REMARK   13  A    between atoms: C_14  and  C_15 
REMARK   14  A    between atoms: C_15  and  C_16 
REMARK   15  A    between atoms: C_16  and  O_18 
REMARK   16  A    between atoms: O_18  and  C_19 
REMARK   17  A    between atoms: C_19  and  C_20 
REMARK   18  A    between atoms: C_20  and  C_21 
REMARK   19  A    between atoms: C_20  and  O_33 
REMARK   20  A    between atoms: C_21  and  O_22 
REMARK   21  A    between atoms: O_22  and  P_23 
REMARK   22  A    between atoms: P_23  and  O_26 
REMARK   23  A    between atoms: O_26  and  C_27 
REMARK   24  A    between atoms: C_27  and  C_28 
REMARK   25  A    between atoms: C_28  and  N_29 
REMARK   26  A    between atoms: O_33  and  C_34 
REMARK   27  A    between atoms: C_34  and  C_36 
REMARK   28  A    between atoms: C_36  and  C_37 
REMARK   29  A    between atoms: C_37  and  C_38 
REMARK   30  A    between atoms: C_38  and  C_39 
REMARK   31  A    between atoms: C_39  and  C_40 
REMARK   32  A    between atoms: C_40  and  C_41 
REMARK   33  A    between atoms: C_41  and  C_42 
REMARK   34  A    between atoms: C_42  and  C_43 
REMARK   35  A    between atoms: C_44  and  C_45 
REMARK   36  A    between atoms: C_45  and  C_46 
REMARK   37  A    between atoms: C_47  and  C_48 
REMARK   38  A    between atoms: C_48  and  C_49 
REMARK   39  A    between atoms: C_49  and  C_50 
REMARK   40  A    between atoms: C_50  and  C_51 
ROOT
HETATM    1  C   UNL     1     -21.567  -7.008  -4.297  1.00  0.00     0.180 C 
ENDROOT
BRANCH   1   2
HETATM    2  C   UNL     1     -21.449  -6.317  -2.935  1.00  0.00     0.213 C 
BRANCH   2   3
HETATM    3  O   UNL     1     -21.023  -7.256  -1.922  1.00  0.00    -0.319 OA
BRANCH   3   4
HETATM    4  C   UNL     1     -21.859  -7.342  -0.841  1.00  0.00     0.258 C 
HETATM    5  O   UNL     1     -22.909  -6.740  -0.731  1.00  0.00    -0.265 OA
BRANCH   4   6
HETATM    6  C   UNL     1     -21.311  -8.276   0.230  1.00  0.00     0.111 C 
BRANCH   6   7
HETATM    7  C   UNL     1     -21.007  -9.642  -0.392  1.00  0.00     0.010 C 
BRANCH   7   8
HETATM    8  C   UNL     1     -21.990 -10.718   0.057  1.00  0.00     0.000 C 
BRANCH   8   9
HETATM    9  C   UNL     1     -23.415 -10.316  -0.312  1.00  0.00     0.000 C 
BRANCH   9  10
HETATM   10  C   UNL     1     -24.210 -11.535  -0.752  1.00  0.00     0.000 C 
BRANCH  10  11
HETATM   11  C   UNL     1     -23.586 -12.802  -0.190  1.00  0.00     0.000 C 
BRANCH  11  12
HETATM   12  C   UNL     1     -23.889 -13.977  -1.101  1.00  0.00     0.000 C 
BRANCH  12  13
HETATM   13  C   UNL     1     -22.656 -14.849  -1.251  1.00  0.00     0.000 C 
BRANCH  13  14
HETATM   14  C   UNL     1     -21.470 -14.190  -0.571  1.00  0.00     0.000 C 
BRANCH  14  15
HETATM   15  C   UNL     1     -20.283 -15.135  -0.574  1.00  0.00     0.000 C 
BRANCH  15  16
HETATM   16  C   UNL     1     -19.020 -14.378  -0.945  1.00  0.00     0.000 C 
BRANCH  16  17
HETATM   17  C   UNL     1     -19.379 -13.019  -1.520  1.00  0.00     0.000 C 
BRANCH  17  18
HETATM   18  C   UNL     1     -18.724 -12.838  -2.880  1.00  0.00    -0.000 C 
BRANCH  18  19
HETATM   19  C   UNL     1     -18.285 -14.181  -3.442  1.00  0.00    -0.005 C 
HETATM   20  C   UNL     1     -16.865 -14.095  -3.966  1.00  0.00     0.005 C 
ENDBRANCH  18  19
ENDBRANCH  17  18
ENDBRANCH  16  17
ENDBRANCH  15  16
ENDBRANCH  14  15
ENDBRANCH  13  14
ENDBRANCH  12  13
ENDBRANCH  11  12
ENDBRANCH  10  11
ENDBRANCH   9  10
ENDBRANCH   8   9
ENDBRANCH   7   8
ENDBRANCH   6   7
ENDBRANCH   4   6
ENDBRANCH   3   4
ENDBRANCH   2   3
ENDBRANCH   1   2
BRANCH   1  21
HETATM   21  C   UNL     1     -21.448  -5.915  -5.391  1.00  0.00     0.216 C 
BRANCH  21  22
HETATM   22  O   UNL     1     -20.144  -5.073  -5.525  1.00  0.00    -0.287 OA
BRANCH  22  23
HETATM   23  P   UNL     1     -19.842  -5.230  -7.149  1.00  0.00     0.408 P 
HETATM   24  O   UNL     1     -19.148  -3.930  -7.389  1.00  0.00    -0.624 OA
HETATM   25  O   UNL     1     -19.661  -6.722  -7.184  1.00  0.00    -0.624 OA
BRANCH  23  26
HETATM   26  O   UNL     1     -20.716  -5.196  -8.591  1.00  0.00    -0.288 OA
BRANCH  26  27
HETATM   27  C   UNL     1     -21.199  -4.123  -9.257  1.00  0.00     0.209 C 
BRANCH  27  28
HETATM   28  C   UNL     1     -22.646  -3.724  -8.927  1.00  0.00     0.262 C 
BRANCH  28  29
HETATM   29  N   UNL     1     -23.581  -3.792 -10.154  1.00  0.00    -0.077 N 
HETATM   30  C   UNL     1     -24.939  -3.189  -9.791  1.00  0.00     0.271 C 
HETATM   31  C   UNL     1     -22.974  -2.987 -11.302  1.00  0.00     0.271 C 
HETATM   32  C   UNL     1     -23.765  -5.221 -10.574  1.00  0.00     0.271 C 
ENDBRANCH  28  29
ENDBRANCH  27  28
ENDBRANCH  26  27
ENDBRANCH  23  26
ENDBRANCH  22  23
ENDBRANCH  21  22
ENDBRANCH   1  21
BRANCH   1  33
HETATM   33  O   UNL     1     -20.501  -7.971  -4.453  1.00  0.00    -0.312 OA
BRANCH  33  34
HETATM   34  C   UNL     1     -20.861  -9.202  -4.973  1.00  0.00     0.259 C 
HETATM   35  O   UNL     1     -21.235  -9.413  -6.053  1.00  0.00    -0.265 OA
BRANCH  34  36
HETATM   36  C   UNL     1     -20.909 -10.223  -3.884  1.00  0.00     0.111 C 
BRANCH  36  37
HETATM   37  C   UNL     1     -22.282 -10.889  -3.835  1.00  0.00     0.010 C 
BRANCH  37  38
HETATM   38  C   UNL     1     -22.173 -12.407  -3.953  1.00  0.00     0.000 C 
BRANCH  38  39
HETATM   39  C   UNL     1     -22.754 -12.880  -5.279  1.00  0.00     0.000 C 
BRANCH  39  40
HETATM   40  C   UNL     1     -21.819 -13.891  -5.931  1.00  0.00     0.000 C 
BRANCH  40  41
HETATM   41  C   UNL     1     -21.274 -13.336  -7.242  1.00  0.00     0.004 C 
BRANCH  41  42
HETATM   42  C   UNL     1     -19.750 -13.347  -7.221  1.00  0.00     0.027 C 
BRANCH  42  43
HETATM   43  C   UNL     1     -19.217 -11.939  -7.090  1.00  0.00    -0.030 C 
HETATM   44  C   UNL     1     -18.119 -11.692  -6.324  1.00  0.00    -0.027 C 
BRANCH  44  45
HETATM   45  C   UNL     1     -17.557 -10.303  -6.204  1.00  0.00     0.053 C 
BRANCH  45  46
HETATM   46  C   UNL     1     -16.718 -10.152  -4.962  1.00  0.00    -0.027 C 
HETATM   47  C   UNL     1     -17.148  -9.753  -3.820  1.00  0.00    -0.030 C 
BRANCH  47  48
HETATM   48  C   UNL     1     -16.301  -9.630  -2.608  1.00  0.00     0.027 C 
BRANCH  48  49
HETATM   49  C   UNL     1     -15.588 -10.939  -2.285  1.00  0.00     0.004 C 
BRANCH  49  50
HETATM   50  C   UNL     1     -15.984 -11.438  -0.902  1.00  0.00    -0.000 C 
BRANCH  50  51
HETATM   51  C   UNL     1     -15.508 -12.870  -0.696  1.00  0.00    -0.005 C 
HETATM   52  C   UNL     1     -15.392 -13.182   0.784  1.00  0.00     0.005 C 
ENDBRANCH  50  51
ENDBRANCH  49  50
ENDBRANCH  48  49
ENDBRANCH  47  48
ENDBRANCH  45  46
ENDBRANCH  44  45
ENDBRANCH  42  43
ENDBRANCH  41  42
ENDBRANCH  40  41
ENDBRANCH  39  40
ENDBRANCH  38  39
ENDBRANCH  37  38
ENDBRANCH  36  37
ENDBRANCH  34  36
ENDBRANCH  33  34
ENDBRANCH   1  33
TORSDOF 40
BEGIN_RES ARG D 557
REMARK  4 active torsions:
REMARK  status: ('A' for Active; 'I' for Inactive)
REMARK    1  A    between atoms: CA   and  CB  
REMARK    2  A    between atoms: CB   and  CG  
REMARK    3  A    between atoms: CG   and  CD  
REMARK    4  A    between atoms: CD   and  NE  
REMARK       I    between atoms: NE   and  CZ  
REMARK       I    between atoms: CZ   and  NH1 
REMARK       I    between atoms: CZ   and  NH2 
ROOT
ATOM      1  CA  ARG D 557     -26.217   2.705 -17.014  1.00 35.49     0.159 C 
ENDROOT
BRANCH   1   2
ATOM      2  CB  ARG D 557     -26.789   1.319 -17.183  1.00 35.49     0.034 C 
BRANCH   2   3
ATOM      3  CG  ARG D 557     -28.189   1.129 -16.786  1.00 35.49     0.027 C 
BRANCH   3   4
ATOM      4  CD  ARG D 557     -28.729  -0.177 -17.227  1.00 35.49     0.116 C 
BRANCH   4   5
ATOM      5  NE  ARG D 557     -28.005  -1.283 -16.657  1.00 35.49    -0.212 N 
ATOM      6  CZ  ARG D 557     -28.290  -2.555 -16.824  1.00 35.49     0.666 C 
ATOM      7  NH1 ARG D 557     -29.317  -2.963 -17.547  1.00 35.49    -0.235 N 
ATOM      8  NH2 ARG D 557     -27.512  -3.425 -16.248  1.00 35.49    -0.235 N 
ATOM      9  HH  ARG D 557     -29.841  -2.408 -17.936  1.00 35.49     0.174 HD
ATOM     10  HH  ARG D 557     -29.452  -3.806 -17.623  1.00 35.49     0.174 HD
ATOM     11  HH  ARG D 557     -26.852  -3.133 -15.793  1.00 35.49     0.174 HD
ATOM     12  HH  ARG D 557     -27.662  -4.255 -16.336  1.00 35.49     0.174 HD
ATOM     13  HE  ARG D 557     -27.372  -1.110 -16.117  1.00 35.49     0.178 HD
ENDBRANCH   4   5
ENDBRANCH   3   4
ENDBRANCH   2   3
ENDBRANCH   1   2
END_RES ARG D 557
BEGIN_RES GLU D 570
REMARK  3 active torsions:
REMARK  status: ('A' for Active; 'I' for Inactive)
REMARK    5  A    between atoms: CA   and  CB  
REMARK    6  A    between atoms: CB   and  CG  
REMARK    7  A    between atoms: CG   and  CD  
ROOT
ATOM     14  CA  GLU D 570     -18.033  -6.348 -13.375  1.00 32.92     0.160 C 
ENDROOT
BRANCH  14  15
ATOM     15  CB  GLU D 570     -19.500  -6.345 -13.794  1.00 32.92     0.043 C 
BRANCH  15  16
ATOM     16  CG  GLU D 570     -20.043  -7.591 -14.393  1.00 32.92     0.100 C 
BRANCH  16  17
ATOM     17  CD  GLU D 570     -20.769  -7.351 -15.696  1.00 32.92     0.185 C 
ATOM     18  OE1 GLU D 570     -20.522  -6.317 -16.345  1.00 32.92    -0.647 OA
ATOM     19  OE2 GLU D 570     -21.607  -8.199 -16.063  1.00 32.92    -0.647 OA
ENDBRANCH  16  17
ENDBRANCH  15  16
ENDBRANCH  14  15
END_RES GLU D 570
ENDMDL
MODEL 6
REMARK VINA RESULT:      -7.1      6.056     14.536
REMARK WARNING: 32 MAX_TORS EXCEEDED!!!
REMARK  40 active torsions:
REMARK  status: ('A' for Active; 'I' for Inactive)
REMARK    1  A    between atoms: C_2  and  C_3 
REMARK    2  A    between atoms: C_3  and  C_4 
REMARK    3  A    between atoms: C_4  and  C_5 
REMARK    4  A    between atoms: C_5  and  C_6 
REMARK    5  A    between atoms: C_6  and  C_7 
REMARK    6  A    between atoms: C_7  and  C_8 
REMARK    7  A    between atoms: C_8  and  C_9 
REMARK    8  A    between atoms: C_9  and  C_10 
REMARK    9  A    between atoms: C_10  and  C_11 
REMARK   10  A    between atoms: C_11  and  C_12 
REMARK   11  A    between atoms: C_12  and  C_13 
REMARK   12  A    between atoms: C_13  and  C_14 
REMARK   13  A    between atoms: C_14  and  C_15 
REMARK   14  A    between atoms: C_15  and  C_16 
REMARK   15  A    between atoms: C_16  and  O_18 
REMARK   16  A    between atoms: O_18  and  C_19 
REMARK   17  A    between atoms: C_19  and  C_20 
REMARK   18  A    between atoms: C_20  and  C_21 
REMARK   19  A    between atoms: C_20  and  O_33 
REMARK   20  A    between atoms: C_21  and  O_22 
REMARK   21  A    between atoms: O_22  and  P_23 
REMARK   22  A    between atoms: P_23  and  O_26 
REMARK   23  A    between atoms: O_26  and  C_27 
REMARK   24  A    between atoms: C_27  and  C_28 
REMARK   25  A    between atoms: C_28  and  N_29 
REMARK   26  A    between atoms: O_33  and  C_34 
REMARK   27  A    between atoms: C_34  and  C_36 
REMARK   28  A    between atoms: C_36  and  C_37 
REMARK   29  A    between atoms: C_37  and  C_38 
REMARK   30  A    between atoms: C_38  and  C_39 
REMARK   31  A    between atoms: C_39  and  C_40 
REMARK   32  A    between atoms: C_40  and  C_41 
REMARK   33  A    between atoms: C_41  and  C_42 
REMARK   34  A    between atoms: C_42  and  C_43 
REMARK   35  A    between atoms: C_44  and  C_45 
REMARK   36  A    between atoms: C_45  and  C_46 
REMARK   37  A    between atoms: C_47  and  C_48 
REMARK   38  A    between atoms: C_48  and  C_49 
REMARK   39  A    between atoms: C_49  and  C_50 
REMARK   40  A    between atoms: C_50  and  C_51 
ROOT
HETATM    1  C   UNL     1     -20.552  -8.071  -5.072  1.00  0.00     0.180 C 
ENDROOT
BRANCH   1   2
HETATM    2  C   UNL     1     -21.742  -8.012  -4.110  1.00  0.00     0.213 C 
BRANCH   2   3
HETATM    3  O   UNL     1     -21.288  -7.875  -2.744  1.00  0.00    -0.319 OA
BRANCH   3   4
HETATM    4  C   UNL     1     -21.940  -6.910  -2.024  1.00  0.00     0.258 C 
HETATM    5  O   UNL     1     -22.159  -5.782  -2.420  1.00  0.00    -0.265 OA
BRANCH   4   6
HETATM    6  C   UNL     1     -22.350  -7.409  -0.644  1.00  0.00     0.111 C 
BRANCH   6   7
HETATM    7  C   UNL     1     -21.213  -8.243  -0.045  1.00  0.00     0.010 C 
BRANCH   7   8
HETATM    8  C   UNL     1     -21.654  -9.659   0.310  1.00  0.00     0.000 C 
BRANCH   8   9
HETATM    9  C   UNL     1     -23.039  -9.939  -0.266  1.00  0.00     0.000 C 
BRANCH   9  10
HETATM   10  C   UNL     1     -23.488 -11.345   0.097  1.00  0.00     0.000 C 
BRANCH  10  11
HETATM   11  C   UNL     1     -24.210 -11.986  -1.077  1.00  0.00     0.000 C 
BRANCH  11  12
HETATM   12  C   UNL     1     -23.828 -13.452  -1.182  1.00  0.00     0.000 C 
BRANCH  12  13
HETATM   13  C   UNL     1     -22.663 -13.753  -0.256  1.00  0.00     0.000 C 
BRANCH  13  14
HETATM   14  C   UNL     1     -21.736 -14.765  -0.903  1.00  0.00     0.000 C 
BRANCH  14  15
HETATM   15  C   UNL     1     -20.334 -14.614  -0.342  1.00  0.00     0.000 C 
BRANCH  15  16
HETATM   16  C   UNL     1     -20.174 -13.243   0.290  1.00  0.00     0.000 C 
BRANCH  16  17
HETATM   17  C   UNL     1     -19.132 -12.440  -0.467  1.00  0.00     0.000 C 
BRANCH  17  18
HETATM   18  C   UNL     1     -18.077 -11.916   0.493  1.00  0.00    -0.000 C 
BRANCH  18  19
HETATM   19  C   UNL     1     -17.003 -12.967   0.728  1.00  0.00    -0.005 C 
HETATM   20  C   UNL     1     -15.680 -12.305   1.059  1.00  0.00     0.005 C 
ENDBRANCH  18  19
ENDBRANCH  17  18
ENDBRANCH  16  17
ENDBRANCH  15  16
ENDBRANCH  14  15
ENDBRANCH  13  14
ENDBRANCH  12  13
ENDBRANCH  11  12
ENDBRANCH  10  11
ENDBRANCH   9  10
ENDBRANCH   8   9
ENDBRANCH   7   8
ENDBRANCH   6   7
ENDBRANCH   4   6
ENDBRANCH   3   4
ENDBRANCH   2   3
ENDBRANCH   1   2
BRANCH   1  21
HETATM   21  C   UNL     1     -20.271  -6.627  -5.562  1.00  0.00     0.216 C 
BRANCH  21  22
HETATM   22  O   UNL     1     -19.968  -6.349  -7.066  1.00  0.00    -0.287 OA
BRANCH  22  23
HETATM   23  P   UNL     1     -20.182  -4.705  -7.123  1.00  0.00     0.408 P 
HETATM   24  O   UNL     1     -20.409  -4.444  -5.669  1.00  0.00    -0.624 OA
HETATM   25  O   UNL     1     -19.258  -4.415  -8.273  1.00  0.00    -0.624 OA
BRANCH  23  26
HETATM   26  O   UNL     1     -21.354  -3.615  -7.651  1.00  0.00    -0.288 OA
BRANCH  26  27
HETATM   27  C   UNL     1     -22.422  -3.848  -8.446  1.00  0.00     0.209 C 
BRANCH  27  28
HETATM   28  C   UNL     1     -22.199  -3.633  -9.951  1.00  0.00     0.262 C 
BRANCH  28  29
HETATM   29  N   UNL     1     -23.504  -3.720 -10.770  1.00  0.00    -0.077 N 
HETATM   30  C   UNL     1     -23.431  -2.749 -11.949  1.00  0.00     0.271 C 
HETATM   31  C   UNL     1     -23.672  -5.140 -11.310  1.00  0.00     0.271 C 
HETATM   32  C   UNL     1     -24.674  -3.364  -9.901  1.00  0.00     0.271 C 
ENDBRANCH  28  29
ENDBRANCH  27  28
ENDBRANCH  26  27
ENDBRANCH  23  26
ENDBRANCH  22  23
ENDBRANCH  21  22
ENDBRANCH   1  21
BRANCH   1  33
HETATM   33  O   UNL     1     -19.391  -8.588  -4.386  1.00  0.00    -0.312 OA
BRANCH  33  34
HETATM   34  C   UNL     1     -18.537  -9.374  -5.138  1.00  0.00     0.259 C 
HETATM   35  O   UNL     1     -18.480  -9.422  -6.297  1.00  0.00    -0.265 OA
BRANCH  34  36
HETATM   36  C   UNL     1     -17.815 -10.337  -4.251  1.00  0.00     0.111 C 
BRANCH  36  37
HETATM   37  C   UNL     1     -17.017  -9.589  -3.186  1.00  0.00     0.010 C 
BRANCH  37  38
HETATM   38  C   UNL     1     -16.317 -10.552  -2.231  1.00  0.00     0.000 C 
BRANCH  38  39
HETATM   39  C   UNL     1     -15.267 -11.368  -2.973  1.00  0.00     0.000 C 
BRANCH  39  40
HETATM   40  C   UNL     1     -15.659 -12.841  -2.984  1.00  0.00     0.000 C 
BRANCH  40  41
HETATM   41  C   UNL     1     -15.684 -13.370  -4.414  1.00  0.00     0.004 C 
BRANCH  41  42
HETATM   42  C   UNL     1     -14.991 -12.384  -5.347  1.00  0.00     0.027 C 
BRANCH  42  43
HETATM   43  C   UNL     1     -15.648 -12.399  -6.708  1.00  0.00    -0.030 C 
HETATM   44  C   UNL     1     -16.871 -12.975  -6.871  1.00  0.00    -0.027 C 
BRANCH  44  45
HETATM   45  C   UNL     1     -17.553 -12.973  -8.211  1.00  0.00     0.053 C 
BRANCH  45  46
HETATM   46  C   UNL     1     -19.048 -13.103  -8.069  1.00  0.00    -0.027 C 
HETATM   47  C   UNL     1     -19.788 -12.370  -7.319  1.00  0.00    -0.030 C 
BRANCH  47  48
HETATM   48  C   UNL     1     -21.261 -12.509  -7.212  1.00  0.00     0.027 C 
BRANCH  48  49
HETATM   49  C   UNL     1     -21.751 -12.229  -5.795  1.00  0.00     0.004 C 
BRANCH  49  50
HETATM   50  C   UNL     1     -21.294 -13.326  -4.844  1.00  0.00    -0.000 C 
BRANCH  50  51
HETATM   51  C   UNL     1     -20.578 -12.724  -3.641  1.00  0.00    -0.005 C 
HETATM   52  C   UNL     1     -21.278 -11.457  -3.187  1.00  0.00     0.005 C 
ENDBRANCH  50  51
ENDBRANCH  49  50
ENDBRANCH  48  49
ENDBRANCH  47  48
ENDBRANCH  45  46
ENDBRANCH  44  45
ENDBRANCH  42  43
ENDBRANCH  41  42
ENDBRANCH  40  41
ENDBRANCH  39  40
ENDBRANCH  38  39
ENDBRANCH  37  38
ENDBRANCH  36  37
ENDBRANCH  34  36
ENDBRANCH  33  34
ENDBRANCH   1  33
TORSDOF 40
BEGIN_RES ARG D 557
REMARK  4 active torsions:
REMARK  status: ('A' for Active; 'I' for Inactive)
REMARK    1  A    between atoms: CA   and  CB  
REMARK    2  A    between atoms: CB   and  CG  
REMARK    3  A    between atoms: CG   and  CD  
REMARK    4  A    between atoms: CD   and  NE  
REMARK       I    between atoms: NE   and  CZ  
REMARK       I    between atoms: CZ   and  NH1 
REMARK       I    between atoms: CZ   and  NH2 
ROOT
ATOM      1  CA  ARG D 557     -26.217   2.705 -17.014  1.00 35.49     0.159 C 
ENDROOT
BRANCH   1   2
ATOM      2  CB  ARG D 557     -26.789   1.319 -17.183  1.00 35.49     0.034 C 
BRANCH   2   3
ATOM      3  CG  ARG D 557     -28.153   1.102 -16.685  1.00 35.49     0.027 C 
BRANCH   3   4
ATOM      4  CD  ARG D 557     -28.792  -0.089 -17.291  1.00 35.49     0.116 C 
BRANCH   4   5
ATOM      5  NE  ARG D 557     -28.178  -1.315 -16.854  1.00 35.49    -0.212 N 
ATOM      6  CZ  ARG D 557     -28.663  -2.523 -17.034  1.00 35.49     0.666 C 
ATOM      7  NH1 ARG D 557     -29.813  -2.742 -17.644  1.00 35.49    -0.235 N 
ATOM      8  NH2 ARG D 557     -27.960  -3.524 -16.590  1.00 35.49    -0.235 N 
ATOM      9  HH  ARG D 557     -30.291  -2.098 -17.946  1.00 35.49     0.174 HD
ATOM     10  HH  ARG D 557     -30.078  -3.552 -17.735  1.00 35.49     0.174 HD
ATOM     11  HH  ARG D 557     -27.218  -3.353 -16.206  1.00 35.49     0.174 HD
ATOM     12  HH  ARG D 557     -28.239  -4.319 -16.690  1.00 35.49     0.174 HD
ATOM     13  HE  ARG D 557     -27.469  -1.263 -16.388  1.00 35.49     0.178 HD
ENDBRANCH   4   5
ENDBRANCH   3   4
ENDBRANCH   2   3
ENDBRANCH   1   2
END_RES ARG D 557
BEGIN_RES GLU D 570
REMARK  3 active torsions:
REMARK  status: ('A' for Active; 'I' for Inactive)
REMARK    5  A    between atoms: CA   and  CB  
REMARK    6  A    between atoms: CB   and  CG  
REMARK    7  A    between atoms: CG   and  CD  
ROOT
ATOM     14  CA  GLU D 570     -18.033  -6.348 -13.375  1.00 32.92     0.160 C 
ENDROOT
BRANCH  14  15
ATOM     15  CB  GLU D 570     -19.500  -6.345 -13.794  1.00 32.92     0.043 C 
BRANCH  15  16
ATOM     16  CG  GLU D 570     -19.797  -6.231 -15.245  1.00 32.92     0.100 C 
BRANCH  16  17
ATOM     17  CD  GLU D 570     -20.707  -7.327 -15.749  1.00 32.92     0.185 C 
ATOM     18  OE1 GLU D 570     -20.643  -8.455 -15.223  1.00 32.92    -0.647 OA
ATOM     19  OE2 GLU D 570     -21.479  -7.060 -16.690  1.00 32.92    -0.647 OA
ENDBRANCH  16  17
ENDBRANCH  15  16
ENDBRANCH  14  15
END_RES GLU D 570
ENDMDL
MODEL 7
REMARK VINA RESULT:      -7.0      9.661     19.960
REMARK WARNING: 32 MAX_TORS EXCEEDED!!!
REMARK  40 active torsions:
REMARK  status: ('A' for Active; 'I' for Inactive)
REMARK    1  A    between atoms: C_2  and  C_3 
REMARK    2  A    between atoms: C_3  and  C_4 
REMARK    3  A    between atoms: C_4  and  C_5 
REMARK    4  A    between atoms: C_5  and  C_6 
REMARK    5  A    between atoms: C_6  and  C_7 
REMARK    6  A    between atoms: C_7  and  C_8 
REMARK    7  A    between atoms: C_8  and  C_9 
REMARK    8  A    between atoms: C_9  and  C_10 
REMARK    9  A    between atoms: C_10  and  C_11 
REMARK   10  A    between atoms: C_11  and  C_12 
REMARK   11  A    between atoms: C_12  and  C_13 
REMARK   12  A    between atoms: C_13  and  C_14 
REMARK   13  A    between atoms: C_14  and  C_15 
REMARK   14  A    between atoms: C_15  and  C_16 
REMARK   15  A    between atoms: C_16  and  O_18 
REMARK   16  A    between atoms: O_18  and  C_19 
REMARK   17  A    between atoms: C_19  and  C_20 
REMARK   18  A    between atoms: C_20  and  C_21 
REMARK   19  A    between atoms: C_20  and  O_33 
REMARK   20  A    between atoms: C_21  and  O_22 
REMARK   21  A    between atoms: O_22  and  P_23 
REMARK   22  A    between atoms: P_23  and  O_26 
REMARK   23  A    between atoms: O_26  and  C_27 
REMARK   24  A    between atoms: C_27  and  C_28 
REMARK   25  A    between atoms: C_28  and  N_29 
REMARK   26  A    between atoms: O_33  and  C_34 
REMARK   27  A    between atoms: C_34  and  C_36 
REMARK   28  A    between atoms: C_36  and  C_37 
REMARK   29  A    between atoms: C_37  and  C_38 
REMARK   30  A    between atoms: C_38  and  C_39 
REMARK   31  A    between atoms: C_39  and  C_40 
REMARK   32  A    between atoms: C_40  and  C_41 
REMARK   33  A    between atoms: C_41  and  C_42 
REMARK   34  A    between atoms: C_42  and  C_43 
REMARK   35  A    between atoms: C_44  and  C_45 
REMARK   36  A    between atoms: C_45  and  C_46 
REMARK   37  A    between atoms: C_47  and  C_48 
REMARK   38  A    between atoms: C_48  and  C_49 
REMARK   39  A    between atoms: C_49  and  C_50 
REMARK   40  A    between atoms: C_50  and  C_51 
ROOT
HETATM    1  C   UNL     1     -19.484 -11.423  -1.276  1.00  0.00     0.180 C 
ENDROOT
BRANCH   1   2
HETATM    2  C   UNL     1     -18.792 -11.680   0.066  1.00  0.00     0.213 C 
BRANCH   2   3
HETATM    3  O   UNL     1     -17.909 -12.821  -0.026  1.00  0.00    -0.319 OA
BRANCH   3   4
HETATM    4  C   UNL     1     -16.728 -12.681   0.654  1.00  0.00     0.258 C 
HETATM    5  O   UNL     1     -16.118 -11.636   0.770  1.00  0.00    -0.265 OA
BRANCH   4   6
HETATM    6  C   UNL     1     -16.250 -14.003   1.243  1.00  0.00     0.111 C 
BRANCH   6   7
HETATM    7  C   UNL     1     -15.611 -13.750   2.611  1.00  0.00     0.010 C 
BRANCH   7   8
HETATM    8  C   UNL     1     -15.444 -15.031   3.421  1.00  0.00     0.000 C 
BRANCH   8   9
HETATM    9  C   UNL     1     -14.860 -14.714   4.794  1.00  0.00     0.000 C 
BRANCH   9  10
HETATM   10  C   UNL     1     -14.359 -15.985   5.462  1.00  0.00     0.000 C 
BRANCH  10  11
HETATM   11  C   UNL     1     -12.841 -16.035   5.426  1.00  0.00     0.000 C 
BRANCH  11  12
HETATM   12  C   UNL     1     -12.274 -15.563   6.753  1.00  0.00     0.000 C 
BRANCH  12  13
HETATM   13  C   UNL     1     -10.759 -15.506   6.679  1.00  0.00     0.000 C 
BRANCH  13  14
HETATM   14  C   UNL     1     -10.277 -14.106   7.013  1.00  0.00     0.000 C 
BRANCH  14  15
HETATM   15  C   UNL     1      -8.904 -13.876   6.411  1.00  0.00     0.000 C 
BRANCH  15  16
HETATM   16  C   UNL     1      -9.041 -13.385   4.981  1.00  0.00     0.000 C 
BRANCH  16  17
HETATM   17  C   UNL     1      -8.332 -14.338   4.035  1.00  0.00     0.000 C 
BRANCH  17  18
HETATM   18  C   UNL     1      -9.082 -14.418   2.715  1.00  0.00    -0.000 C 
BRANCH  18  19
HETATM   19  C   UNL     1     -10.163 -15.487   2.781  1.00  0.00    -0.005 C 
HETATM   20  C   UNL     1      -9.606 -16.762   3.383  1.00  0.00     0.005 C 
ENDBRANCH  18  19
ENDBRANCH  17  18
ENDBRANCH  16  17
ENDBRANCH  15  16
ENDBRANCH  14  15
ENDBRANCH  13  14
ENDBRANCH  12  13
ENDBRANCH  11  12
ENDBRANCH  10  11
ENDBRANCH   9  10
ENDBRANCH   8   9
ENDBRANCH   7   8
ENDBRANCH   6   7
ENDBRANCH   4   6
ENDBRANCH   3   4
ENDBRANCH   2   3
ENDBRANCH   1   2
BRANCH   1  21
HETATM   21  C   UNL     1     -18.390 -11.407  -2.374  1.00  0.00     0.216 C 
BRANCH  21  22
HETATM   22  O   UNL     1     -17.118 -10.523  -2.207  1.00  0.00    -0.287 OA
BRANCH  22  23
HETATM   23  P   UNL     1     -17.040  -9.811  -3.704  1.00  0.00     0.408 P 
HETATM   24  O   UNL     1     -18.441  -9.301  -3.797  1.00  0.00    -0.624 OA
HETATM   25  O   UNL     1     -15.599  -9.385  -3.657  1.00  0.00    -0.624 OA
BRANCH  23  26
HETATM   26  O   UNL     1     -16.955 -10.298  -5.316  1.00  0.00    -0.288 OA
BRANCH  26  27
HETATM   27  C   UNL     1     -15.934 -10.908  -5.957  1.00  0.00     0.209 C 
BRANCH  27  28
HETATM   28  C   UNL     1     -16.007 -12.442  -6.028  1.00  0.00     0.262 C 
BRANCH  28  29
HETATM   29  N   UNL     1     -14.717 -13.128  -5.529  1.00  0.00    -0.077 N 
HETATM   30  C   UNL     1     -13.530 -12.644  -6.363  1.00  0.00     0.271 C 
HETATM   31  C   UNL     1     -14.477 -12.758  -4.066  1.00  0.00     0.271 C 
HETATM   32  C   UNL     1     -14.849 -14.617  -5.664  1.00  0.00     0.271 C 
ENDBRANCH  28  29
ENDBRANCH  27  28
ENDBRANCH  26  27
ENDBRANCH  23  26
ENDBRANCH  22  23
ENDBRANCH  21  22
ENDBRANCH   1  21
BRANCH   1  33
HETATM   33  O   UNL     1     -20.433 -12.477  -1.548  1.00  0.00    -0.312 OA
BRANCH  33  34
HETATM   34  C   UNL     1     -21.381 -12.210  -2.521  1.00  0.00     0.259 C 
HETATM   35  O   UNL     1     -21.527 -12.784  -3.520  1.00  0.00    -0.265 OA
BRANCH  34  36
HETATM   36  C   UNL     1     -22.081 -10.927  -2.213  1.00  0.00     0.111 C 
BRANCH  36  37
HETATM   37  C   UNL     1     -23.474 -11.198  -1.651  1.00  0.00     0.010 C 
BRANCH  37  38
HETATM   38  C   UNL     1     -23.700 -10.459  -0.335  1.00  0.00     0.000 C 
BRANCH  38  39
HETATM   39  C   UNL     1     -22.439  -9.713   0.081  1.00  0.00     0.000 C 
BRANCH  39  40
HETATM   40  C   UNL     1     -22.688  -8.211   0.064  1.00  0.00     0.000 C 
BRANCH  40  41
HETATM   41  C   UNL     1     -21.653  -7.514  -0.813  1.00  0.00     0.004 C 
BRANCH  41  42
HETATM   42  C   UNL     1     -22.290  -6.332  -1.534  1.00  0.00     0.027 C 
BRANCH  42  43
HETATM   43  C   UNL     1     -21.859  -6.306  -2.982  1.00  0.00    -0.030 C 
HETATM   44  C   UNL     1     -21.501  -7.459  -3.611  1.00  0.00    -0.027 C 
BRANCH  44  45
HETATM   45  C   UNL     1     -21.097  -7.456  -5.059  1.00  0.00     0.053 C 
BRANCH  45  46
HETATM   46  C   UNL     1     -21.330  -6.109  -5.694  1.00  0.00    -0.027 C 
HETATM   47  C   UNL     1     -20.437  -5.408  -6.292  1.00  0.00    -0.030 C 
BRANCH  47  48
HETATM   48  C   UNL     1     -20.698  -4.091  -6.924  1.00  0.00     0.027 C 
BRANCH  48  49
HETATM   49  C   UNL     1     -20.572  -4.161  -8.442  1.00  0.00     0.004 C 
BRANCH  49  50
HETATM   50  C   UNL     1     -21.930  -4.414  -9.082  1.00  0.00    -0.000 C 
BRANCH  50  51
HETATM   51  C   UNL     1     -21.891  -4.075 -10.567  1.00  0.00    -0.005 C 
HETATM   52  C   UNL     1     -20.459  -4.038 -11.065  1.00  0.00     0.005 C 
ENDBRANCH  50  51
ENDBRANCH  49  50
ENDBRANCH  48  49
ENDBRANCH  47  48
ENDBRANCH  45  46
ENDBRANCH  44  45
ENDBRANCH  42  43
ENDBRANCH  41  42
ENDBRANCH  40  41
ENDBRANCH  39  40
ENDBRANCH  38  39
ENDBRANCH  37  38
ENDBRANCH  36  37
ENDBRANCH  34  36
ENDBRANCH  33  34
ENDBRANCH   1  33
TORSDOF 40
BEGIN_RES ARG D 557
REMARK  4 active torsions:
REMARK  status: ('A' for Active; 'I' for Inactive)
REMARK    1  A    between atoms: CA   and  CB  
REMARK    2  A    between atoms: CB   and  CG  
REMARK    3  A    between atoms: CG   and  CD  
REMARK    4  A    between atoms: CD   and  NE  
REMARK       I    between atoms: NE   and  CZ  
REMARK       I    between atoms: CZ   and  NH1 
REMARK       I    between atoms: CZ   and  NH2 
ROOT
ATOM      1  CA  ARG D 557     -26.217   2.705 -17.014  1.00 35.49     0.159 C 
ENDROOT
BRANCH   1   2
ATOM      2  CB  ARG D 557     -26.789   1.319 -17.183  1.00 35.49     0.034 C 
BRANCH   2   3
ATOM      3  CG  ARG D 557     -25.873   0.194 -16.956  1.00 35.49     0.027 C 
BRANCH   3   4
ATOM      4  CD  ARG D 557     -26.327  -0.690 -15.859  1.00 35.49     0.116 C 
BRANCH   4   5
ATOM      5  NE  ARG D 557     -25.278  -0.959 -14.911  1.00 35.49    -0.212 N 
ATOM      6  CZ  ARG D 557     -25.049  -2.114 -14.325  1.00 35.49     0.666 C 
ATOM      7  NH1 ARG D 557     -25.795  -3.180 -14.545  1.00 35.49    -0.235 N 
ATOM      8  NH2 ARG D 557     -24.039  -2.182 -13.508  1.00 35.49    -0.235 N 
ATOM      9  HH  ARG D 557     -26.463  -3.159 -15.081  1.00 35.49     0.174 HD
ATOM     10  HH  ARG D 557     -25.596  -3.907 -14.137  1.00 35.49     0.174 HD
ATOM     11  HH  ARG D 557     -23.570  -1.479 -13.390  1.00 35.49     0.174 HD
ATOM     12  HH  ARG D 557     -23.858  -2.911 -13.114  1.00 35.49     0.174 HD
ATOM     13  HE  ARG D 557     -24.794  -0.308 -14.655  1.00 35.49     0.178 HD
ENDBRANCH   4   5
ENDBRANCH   3   4
ENDBRANCH   2   3
ENDBRANCH   1   2
END_RES ARG D 557
BEGIN_RES GLU D 570
REMARK  3 active torsions:
REMARK  status: ('A' for Active; 'I' for Inactive)
REMARK    5  A    between atoms: CA   and  CB  
REMARK    6  A    between atoms: CB   and  CG  
REMARK    7  A    between atoms: CG   and  CD  
ROOT
ATOM     14  CA  GLU D 570     -18.033  -6.348 -13.375  1.00 32.92     0.160 C 
ENDROOT
BRANCH  14  15
ATOM     15  CB  GLU D 570     -19.500  -6.345 -13.794  1.00 32.92     0.043 C 
BRANCH  15  16
ATOM     16  CG  GLU D 570     -19.797  -6.236 -15.246  1.00 32.92     0.100 C 
BRANCH  16  17
ATOM     17  CD  GLU D 570     -21.083  -5.495 -15.530  1.00 32.92     0.185 C 
ATOM     18  OE1 GLU D 570     -21.671  -4.922 -14.593  1.00 32.92    -0.647 OA
ATOM     19  OE2 GLU D 570     -21.515  -5.502 -16.700  1.00 32.92    -0.647 OA
ENDBRANCH  16  17
ENDBRANCH  15  16
ENDBRANCH  14  15
END_RES GLU D 570
ENDMDL
MODEL 8
REMARK VINA RESULT:      -7.0      9.084     19.281
REMARK WARNING: 32 MAX_TORS EXCEEDED!!!
REMARK  40 active torsions:
REMARK  status: ('A' for Active; 'I' for Inactive)
REMARK    1  A    between atoms: C_2  and  C_3 
REMARK    2  A    between atoms: C_3  and  C_4 
REMARK    3  A    between atoms: C_4  and  C_5 
REMARK    4  A    between atoms: C_5  and  C_6 
REMARK    5  A    between atoms: C_6  and  C_7 
REMARK    6  A    between atoms: C_7  and  C_8 
REMARK    7  A    between atoms: C_8  and  C_9 
REMARK    8  A    between atoms: C_9  and  C_10 
REMARK    9  A    between atoms: C_10  and  C_11 
REMARK   10  A    between atoms: C_11  and  C_12 
REMARK   11  A    between atoms: C_12  and  C_13 
REMARK   12  A    between atoms: C_13  and  C_14 
REMARK   13  A    between atoms: C_14  and  C_15 
REMARK   14  A    between atoms: C_15  and  C_16 
REMARK   15  A    between atoms: C_16  and  O_18 
REMARK   16  A    between atoms: O_18  and  C_19 
REMARK   17  A    between atoms: C_19  and  C_20 
REMARK   18  A    between atoms: C_20  and  C_21 
REMARK   19  A    between atoms: C_20  and  O_33 
REMARK   20  A    between atoms: C_21  and  O_22 
REMARK   21  A    between atoms: O_22  and  P_23 
REMARK   22  A    between atoms: P_23  and  O_26 
REMARK   23  A    between atoms: O_26  and  C_27 
REMARK   24  A    between atoms: C_27  and  C_28 
REMARK   25  A    between atoms: C_28  and  N_29 
REMARK   26  A    between atoms: O_33  and  C_34 
REMARK   27  A    between atoms: C_34  and  C_36 
REMARK   28  A    between atoms: C_36  and  C_37 
REMARK   29  A    between atoms: C_37  and  C_38 
REMARK   30  A    between atoms: C_38  and  C_39 
REMARK   31  A    between atoms: C_39  and  C_40 
REMARK   32  A    between atoms: C_40  and  C_41 
REMARK   33  A    between atoms: C_41  and  C_42 
REMARK   34  A    between atoms: C_42  and  C_43 
REMARK   35  A    between atoms: C_44  and  C_45 
REMARK   36  A    between atoms: C_45  and  C_46 
REMARK   37  A    between atoms: C_47  and  C_48 
REMARK   38  A    between atoms: C_48  and  C_49 
REMARK   39  A    between atoms: C_49  and  C_50 
REMARK   40  A    between atoms: C_50  and  C_51 
ROOT
HETATM    1  C   UNL     1     -18.810  -9.455  -4.387  1.00  0.00     0.180 C 
ENDROOT
BRANCH   1   2
HETATM    2  C   UNL     1     -18.009  -9.382  -3.082  1.00  0.00     0.213 C 
BRANCH   2   3
HETATM    3  O   UNL     1     -17.994 -10.667  -2.421  1.00  0.00    -0.319 OA
BRANCH   3   4
HETATM    4  C   UNL     1     -16.766 -11.045  -1.945  1.00  0.00     0.258 C 
HETATM    5  O   UNL     1     -15.705 -10.622  -2.359  1.00  0.00    -0.265 OA
BRANCH   4   6
HETATM    6  C   UNL     1     -16.881 -12.082  -0.834  1.00  0.00     0.111 C 
BRANCH   6   7
HETATM    7  C   UNL     1     -15.615 -12.050   0.026  1.00  0.00     0.010 C 
BRANCH   7   8
HETATM    8  C   UNL     1     -15.888 -12.427   1.479  1.00  0.00     0.000 C 
BRANCH   8   9
HETATM    9  C   UNL     1     -15.442 -13.861   1.744  1.00  0.00     0.000 C 
BRANCH   9  10
HETATM   10  C   UNL     1     -15.493 -14.164   3.232  1.00  0.00     0.000 C 
BRANCH  10  11
HETATM   11  C   UNL     1     -15.217 -15.639   3.479  1.00  0.00     0.000 C 
BRANCH  11  12
HETATM   12  C   UNL     1     -13.993 -15.797   4.362  1.00  0.00     0.000 C 
BRANCH  12  13
HETATM   13  C   UNL     1     -14.299 -15.308   5.766  1.00  0.00     0.000 C 
BRANCH  13  14
HETATM   14  C   UNL     1     -13.113 -15.572   6.676  1.00  0.00     0.000 C 
BRANCH  14  15
HETATM   15  C   UNL     1     -11.845 -15.687   5.851  1.00  0.00     0.000 C 
BRANCH  15  16
HETATM   16  C   UNL     1     -10.632 -15.419   6.724  1.00  0.00     0.000 C 
BRANCH  16  17
HETATM   17  C   UNL     1     -10.277 -13.944   6.680  1.00  0.00     0.000 C 
BRANCH  17  18
HETATM   18  C   UNL     1      -8.820 -13.769   6.283  1.00  0.00    -0.000 C 
BRANCH  18  19
HETATM   19  C   UNL     1      -8.516 -14.558   5.018  1.00  0.00    -0.005 C 
HETATM   20  C   UNL     1      -9.041 -13.824   3.800  1.00  0.00     0.005 C 
ENDBRANCH  18  19
ENDBRANCH  17  18
ENDBRANCH  16  17
ENDBRANCH  15  16
ENDBRANCH  14  15
ENDBRANCH  13  14
ENDBRANCH  12  13
ENDBRANCH  11  12
ENDBRANCH  10  11
ENDBRANCH   9  10
ENDBRANCH   8   9
ENDBRANCH   7   8
ENDBRANCH   6   7
ENDBRANCH   4   6
ENDBRANCH   3   4
ENDBRANCH   2   3
ENDBRANCH   1   2
BRANCH   1  21
HETATM   21  C   UNL     1     -17.798  -9.617  -5.551  1.00  0.00     0.216 C 
BRANCH  21  22
HETATM   22  O   UNL     1     -17.826 -10.891  -6.448  1.00  0.00    -0.287 OA
BRANCH  22  23
HETATM   23  P   UNL     1     -16.476 -11.684  -5.899  1.00  0.00     0.408 P 
HETATM   24  O   UNL     1     -15.578 -10.508  -5.692  1.00  0.00    -0.624 OA
HETATM   25  O   UNL     1     -17.171 -12.813  -5.191  1.00  0.00    -0.624 OA
BRANCH  23  26
HETATM   26  O   UNL     1     -15.269 -12.679  -6.528  1.00  0.00    -0.288 OA
BRANCH  26  27
HETATM   27  C   UNL     1     -14.724 -13.788  -5.981  1.00  0.00     0.209 C 
BRANCH  27  28
HETATM   28  C   UNL     1     -13.670 -13.549  -4.888  1.00  0.00     0.262 C 
BRANCH  28  29
HETATM   29  N   UNL     1     -13.711 -14.615  -3.772  1.00  0.00    -0.077 N 
HETATM   30  C   UNL     1     -15.063 -14.554  -3.061  1.00  0.00     0.271 C 
HETATM   31  C   UNL     1     -13.538 -16.003  -4.387  1.00  0.00     0.271 C 
HETATM   32  C   UNL     1     -12.613 -14.356  -2.782  1.00  0.00     0.271 C 
ENDBRANCH  28  29
ENDBRANCH  27  28
ENDBRANCH  26  27
ENDBRANCH  23  26
ENDBRANCH  22  23
ENDBRANCH  21  22
ENDBRANCH   1  21
BRANCH   1  33
HETATM   33  O   UNL     1     -19.701 -10.591  -4.353  1.00  0.00    -0.312 OA
BRANCH  33  34
HETATM   34  C   UNL     1     -20.942 -10.412  -4.937  1.00  0.00     0.259 C 
HETATM   35  O   UNL     1     -21.175 -10.389  -6.075  1.00  0.00    -0.265 OA
BRANCH  34  36
HETATM   36  C   UNL     1     -21.946 -10.033  -3.897  1.00  0.00     0.111 C 
BRANCH  36  37
HETATM   37  C   UNL     1     -22.738 -11.257  -3.447  1.00  0.00     0.010 C 
BRANCH  37  38
HETATM   38  C   UNL     1     -22.602 -11.491  -1.945  1.00  0.00     0.000 C 
BRANCH  38  39
HETATM   39  C   UNL     1     -23.973 -11.504  -1.282  1.00  0.00     0.000 C 
BRANCH  39  40
HETATM   40  C   UNL     1     -23.991 -10.551  -0.094  1.00  0.00     0.000 C 
BRANCH  40  41
HETATM   41  C   UNL     1     -22.772  -9.635  -0.134  1.00  0.00     0.004 C 
BRANCH  41  42
HETATM   42  C   UNL     1     -23.083  -8.320   0.571  1.00  0.00     0.027 C 
BRANCH  42  43
HETATM   43  C   UNL     1     -22.407  -7.171  -0.138  1.00  0.00    -0.030 C 
HETATM   44  C   UNL     1     -22.333  -7.154  -1.498  1.00  0.00    -0.027 C 
BRANCH  44  45
HETATM   45  C   UNL     1     -21.690  -6.004  -2.222  1.00  0.00     0.053 C 
BRANCH  45  46
HETATM   46  C   UNL     1     -21.138  -6.433  -3.558  1.00  0.00    -0.027 C 
HETATM   47  C   UNL     1     -21.786  -6.423  -4.665  1.00  0.00    -0.030 C 
BRANCH  47  48
HETATM   48  C   UNL     1     -21.211  -6.835  -5.970  1.00  0.00     0.027 C 
BRANCH  48  49
HETATM   49  C   UNL     1     -21.224  -5.690  -6.977  1.00  0.00     0.004 C 
BRANCH  49  50
HETATM   50  C   UNL     1     -19.805  -5.248  -7.305  1.00  0.00    -0.000 C 
BRANCH  50  51
HETATM   51  C   UNL     1     -19.823  -3.993  -8.168  1.00  0.00    -0.005 C 
HETATM   52  C   UNL     1     -20.374  -4.306  -9.546  1.00  0.00     0.005 C 
ENDBRANCH  50  51
ENDBRANCH  49  50
ENDBRANCH  48  49
ENDBRANCH  47  48
ENDBRANCH  45  46
ENDBRANCH  44  45
ENDBRANCH  42  43
ENDBRANCH  41  42
ENDBRANCH  40  41
ENDBRANCH  39  40
ENDBRANCH  38  39
ENDBRANCH  37  38
ENDBRANCH  36  37
ENDBRANCH  34  36
ENDBRANCH  33  34
ENDBRANCH   1  33
TORSDOF 40
BEGIN_RES ARG D 557
REMARK  4 active torsions:
REMARK  status: ('A' for Active; 'I' for Inactive)
REMARK    1  A    between atoms: CA   and  CB  
REMARK    2  A    between atoms: CB   and  CG  
REMARK    3  A    between atoms: CG   and  CD  
REMARK    4  A    between atoms: CD   and  NE  
REMARK       I    between atoms: NE   and  CZ  
REMARK       I    between atoms: CZ   and  NH1 
REMARK       I    between atoms: CZ   and  NH2 
ROOT
ATOM      1  CA  ARG D 557     -26.217   2.705 -17.014  1.00 35.49     0.159 C 
ENDROOT
BRANCH   1   2
ATOM      2  CB  ARG D 557     -26.789   1.319 -17.183  1.00 35.49     0.034 C 
BRANCH   2   3
ATOM      3  CG  ARG D 557     -28.235   1.225 -17.420  1.00 35.49     0.027 C 
BRANCH   3   4
ATOM      4  CD  ARG D 557     -28.903   0.301 -16.476  1.00 35.49     0.116 C 
BRANCH   4   5
ATOM      5  NE  ARG D 557     -28.147  -0.907 -16.274  1.00 35.49    -0.212 N 
ATOM      6  CZ  ARG D 557     -28.449  -2.092 -16.757  1.00 35.49     0.666 C 
ATOM      7  NH1 ARG D 557     -29.525  -2.305 -17.493  1.00 35.49    -0.235 N 
ATOM      8  NH2 ARG D 557     -27.638  -3.073 -16.490  1.00 35.49    -0.235 N 
ATOM      9  HH  ARG D 557     -30.071  -1.673 -17.682  1.00 35.49     0.174 HD
ATOM     10  HH  ARG D 557     -29.669  -3.098 -17.783  1.00 35.49     0.174 HD
ATOM     11  HH  ARG D 557     -26.947  -2.905 -16.019  1.00 35.49     0.174 HD
ATOM     12  HH  ARG D 557     -27.797  -3.851 -16.788  1.00 35.49     0.174 HD
ATOM     13  HE  ARG D 557     -27.477  -0.877 -15.751  1.00 35.49     0.178 HD
ENDBRANCH   4   5
ENDBRANCH   3   4
ENDBRANCH   2   3
ENDBRANCH   1   2
END_RES ARG D 557
BEGIN_RES GLU D 570
REMARK  3 active torsions:
REMARK  status: ('A' for Active; 'I' for Inactive)
REMARK    5  A    between atoms: CA   and  CB  
REMARK    6  A    between atoms: CB   and  CG  
REMARK    7  A    between atoms: CG   and  CD  
ROOT
ATOM     14  CA  GLU D 570     -18.033  -6.348 -13.375  1.00 32.92     0.160 C 
ENDROOT
BRANCH  14  15
ATOM     15  CB  GLU D 570     -19.500  -6.345 -13.794  1.00 32.92     0.043 C 
BRANCH  15  16
ATOM     16  CG  GLU D 570     -20.447  -5.554 -12.966  1.00 32.92     0.100 C 
BRANCH  16  17
ATOM     17  CD  GLU D 570     -21.711  -5.184 -13.707  1.00 32.92     0.185 C 
ATOM     18  OE1 GLU D 570     -22.578  -4.507 -13.123  1.00 32.92    -0.647 OA
ATOM     19  OE2 GLU D 570     -21.842  -5.590 -14.878  1.00 32.92    -0.647 OA
ENDBRANCH  16  17
ENDBRANCH  15  16
ENDBRANCH  14  15
END_RES GLU D 570
ENDMDL
MODEL 9
REMARK VINA RESULT:      -7.0      9.287     19.528
REMARK WARNING: 32 MAX_TORS EXCEEDED!!!
REMARK  40 active torsions:
REMARK  status: ('A' for Active; 'I' for Inactive)
REMARK    1  A    between atoms: C_2  and  C_3 
REMARK    2  A    between atoms: C_3  and  C_4 
REMARK    3  A    between atoms: C_4  and  C_5 
REMARK    4  A    between atoms: C_5  and  C_6 
REMARK    5  A    between atoms: C_6  and  C_7 
REMARK    6  A    between atoms: C_7  and  C_8 
REMARK    7  A    between atoms: C_8  and  C_9 
REMARK    8  A    between atoms: C_9  and  C_10 
REMARK    9  A    between atoms: C_10  and  C_11 
REMARK   10  A    between atoms: C_11  and  C_12 
REMARK   11  A    between atoms: C_12  and  C_13 
REMARK   12  A    between atoms: C_13  and  C_14 
REMARK   13  A    between atoms: C_14  and  C_15 
REMARK   14  A    between atoms: C_15  and  C_16 
REMARK   15  A    between atoms: C_16  and  O_18 
REMARK   16  A    between atoms: O_18  and  C_19 
REMARK   17  A    between atoms: C_19  and  C_20 
REMARK   18  A    between atoms: C_20  and  C_21 
REMARK   19  A    between atoms: C_20  and  O_33 
REMARK   20  A    between atoms: C_21  and  O_22 
REMARK   21  A    between atoms: O_22  and  P_23 
REMARK   22  A    between atoms: P_23  and  O_26 
REMARK   23  A    between atoms: O_26  and  C_27 
REMARK   24  A    between atoms: C_27  and  C_28 
REMARK   25  A    between atoms: C_28  and  N_29 
REMARK   26  A    between atoms: O_33  and  C_34 
REMARK   27  A    between atoms: C_34  and  C_36 
REMARK   28  A    between atoms: C_36  and  C_37 
REMARK   29  A    between atoms: C_37  and  C_38 
REMARK   30  A    between atoms: C_38  and  C_39 
REMARK   31  A    between atoms: C_39  and  C_40 
REMARK   32  A    between atoms: C_40  and  C_41 
REMARK   33  A    between atoms: C_41  and  C_42 
REMARK   34  A    between atoms: C_42  and  C_43 
REMARK   35  A    between atoms: C_44  and  C_45 
REMARK   36  A    between atoms: C_45  and  C_46 
REMARK   37  A    between atoms: C_47  and  C_48 
REMARK   38  A    between atoms: C_48  and  C_49 
REMARK   39  A    between atoms: C_49  and  C_50 
REMARK   40  A    between atoms: C_50  and  C_51 
ROOT
HETATM    1  C   UNL     1     -19.965 -11.102  -0.303  1.00  0.00     0.180 C 
ENDROOT
BRANCH   1   2
HETATM    2  C   UNL     1     -18.931 -12.088   0.249  1.00  0.00     0.213 C 
BRANCH   2   3
HETATM    3  O   UNL     1     -17.658 -11.915  -0.412  1.00  0.00    -0.319 OA
BRANCH   3   4
HETATM    4  C   UNL     1     -16.568 -12.095   0.399  1.00  0.00     0.258 C 
HETATM    5  O   UNL     1     -15.574 -11.396   0.385  1.00  0.00    -0.265 OA
BRANCH   4   6
HETATM    6  C   UNL     1     -16.737 -13.296   1.321  1.00  0.00     0.111 C 
BRANCH   6   7
HETATM    7  C   UNL     1     -15.613 -13.301   2.362  1.00  0.00     0.010 C 
BRANCH   7   8
HETATM    8  C   UNL     1     -15.597 -14.579   3.194  1.00  0.00     0.000 C 
BRANCH   8   9
HETATM    9  C   UNL     1     -14.262 -15.298   3.029  1.00  0.00     0.000 C 
BRANCH   9  10
HETATM   10  C   UNL     1     -13.916 -16.067   4.294  1.00  0.00     0.000 C 
BRANCH  10  11
HETATM   11  C   UNL     1     -14.437 -15.330   5.517  1.00  0.00     0.000 C 
BRANCH  11  12
HETATM   12  C   UNL     1     -13.588 -15.671   6.729  1.00  0.00     0.000 C 
BRANCH  12  13
HETATM   13  C   UNL     1     -12.133 -15.810   6.320  1.00  0.00     0.000 C 
BRANCH  13  14
HETATM   14  C   UNL     1     -11.334 -14.627   6.837  1.00  0.00     0.000 C 
BRANCH  14  15
HETATM   15  C   UNL     1      -9.849 -14.921   6.732  1.00  0.00     0.000 C 
BRANCH  15  16
HETATM   16  C   UNL     1      -9.131 -13.741   6.102  1.00  0.00     0.000 C 
BRANCH  16  17
HETATM   17  C   UNL     1      -8.347 -14.201   4.885  1.00  0.00     0.000 C 
BRANCH  17  18
HETATM   18  C   UNL     1      -9.249 -14.228   3.662  1.00  0.00    -0.000 C 
BRANCH  18  19
HETATM   19  C   UNL     1      -8.575 -14.975   2.521  1.00  0.00    -0.005 C 
HETATM   20  C   UNL     1      -8.584 -14.132   1.261  1.00  0.00     0.005 C 
ENDBRANCH  18  19
ENDBRANCH  17  18
ENDBRANCH  16  17
ENDBRANCH  15  16
ENDBRANCH  14  15
ENDBRANCH  13  14
ENDBRANCH  12  13
ENDBRANCH  11  12
ENDBRANCH  10  11
ENDBRANCH   9  10
ENDBRANCH   8   9
ENDBRANCH   7   8
ENDBRANCH   6   7
ENDBRANCH   4   6
ENDBRANCH   3   4
ENDBRANCH   2   3
ENDBRANCH   1   2
BRANCH   1  21
HETATM   21  C   UNL     1     -19.950 -11.221  -1.849  1.00  0.00     0.216 C 
BRANCH  21  22
HETATM   22  O   UNL     1     -20.065 -12.616  -2.534  1.00  0.00    -0.287 OA
BRANCH  22  23
HETATM   23  P   UNL     1     -20.850 -12.204  -3.937  1.00  0.00     0.408 P 
HETATM   24  O   UNL     1     -21.005 -13.567  -4.530  1.00  0.00    -0.624 OA
HETATM   25  O   UNL     1     -21.612 -11.021  -3.410  1.00  0.00    -0.624 OA
BRANCH  23  26
HETATM   26  O   UNL     1     -20.481 -11.451  -5.399  1.00  0.00    -0.288 OA
BRANCH  26  27
HETATM   27  C   UNL     1     -19.375 -11.594  -6.164  1.00  0.00     0.209 C 
BRANCH  27  28
HETATM   28  C   UNL     1     -18.117 -10.864  -5.668  1.00  0.00     0.262 C 
BRANCH  28  29
HETATM   29  N   UNL     1     -16.952 -11.827  -5.349  1.00  0.00    -0.077 N 
HETATM   30  C   UNL     1     -16.499 -11.616  -3.904  1.00  0.00     0.271 C 
HETATM   31  C   UNL     1     -17.426 -13.270  -5.512  1.00  0.00     0.271 C 
HETATM   32  C   UNL     1     -15.804 -11.559  -6.277  1.00  0.00     0.271 C 
ENDBRANCH  28  29
ENDBRANCH  27  28
ENDBRANCH  26  27
ENDBRANCH  23  26
ENDBRANCH  22  23
ENDBRANCH  21  22
ENDBRANCH   1  21
BRANCH   1  33
HETATM   33  O   UNL     1     -21.278 -11.435   0.198  1.00  0.00    -0.312 OA
BRANCH  33  34
HETATM   34  C   UNL     1     -22.253 -10.465   0.051  1.00  0.00     0.259 C 
HETATM   35  O   UNL     1     -23.264 -10.580  -0.511  1.00  0.00    -0.265 OA
BRANCH  34  36
HETATM   36  C   UNL     1     -21.743  -9.149   0.540  1.00  0.00     0.111 C 
BRANCH  36  37
HETATM   37  C   UNL     1     -22.772  -8.050   0.292  1.00  0.00     0.010 C 
BRANCH  37  38
HETATM   38  C   UNL     1     -22.340  -7.123  -0.841  1.00  0.00     0.000 C 
BRANCH  38  39
HETATM   39  C   UNL     1     -20.987  -7.551  -1.392  1.00  0.00     0.000 C 
BRANCH  39  40
HETATM   40  C   UNL     1     -21.025  -7.580  -2.915  1.00  0.00     0.000 C 
BRANCH  40  41
HETATM   41  C   UNL     1     -21.871  -6.427  -3.443  1.00  0.00     0.004 C 
BRANCH  41  42
HETATM   42  C   UNL     1     -21.832  -6.405  -4.966  1.00  0.00     0.027 C 
BRANCH  42  43
HETATM   43  C   UNL     1     -20.779  -5.438  -5.452  1.00  0.00    -0.030 C 
HETATM   44  C   UNL     1     -20.270  -5.555  -6.709  1.00  0.00    -0.027 C 
BRANCH  44  45
HETATM   45  C   UNL     1     -19.241  -4.583  -7.219  1.00  0.00     0.053 C 
BRANCH  45  46
HETATM   46  C   UNL     1     -19.605  -4.061  -8.585  1.00  0.00    -0.027 C 
HETATM   47  C   UNL     1     -20.040  -4.773  -9.560  1.00  0.00    -0.030 C 
BRANCH  47  48
HETATM   48  C   UNL     1     -20.408  -4.229 -10.890  1.00  0.00     0.027 C 
BRANCH  48  49
HETATM   49  C   UNL     1     -21.788  -3.580 -10.871  1.00  0.00     0.004 C 
BRANCH  49  50
HETATM   50  C   UNL     1     -22.797  -4.489 -10.183  1.00  0.00    -0.000 C 
BRANCH  50  51
HETATM   51  C   UNL     1     -23.595  -3.710  -9.145  1.00  0.00    -0.005 C 
HETATM   52  C   UNL     1     -23.412  -4.321  -7.769  1.00  0.00     0.005 C 
ENDBRANCH  50  51
ENDBRANCH  49  50
ENDBRANCH  48  49
ENDBRANCH  47  48
ENDBRANCH  45  46
ENDBRANCH  44  45
ENDBRANCH  42  43
ENDBRANCH  41  42
ENDBRANCH  40  41
ENDBRANCH  39  40
ENDBRANCH  38  39
ENDBRANCH  37  38
ENDBRANCH  36  37
ENDBRANCH  34  36
ENDBRANCH  33  34
ENDBRANCH   1  33
TORSDOF 40
BEGIN_RES ARG D 557
REMARK  4 active torsions:
REMARK  status: ('A' for Active; 'I' for Inactive)
REMARK    1  A    between atoms: CA   and  CB  
REMARK    2  A    between atoms: CB   and  CG  
REMARK    3  A    between atoms: CG   and  CD  
REMARK    4  A    between atoms: CD   and  NE  
REMARK       I    between atoms: NE   and  CZ  
REMARK       I    between atoms: CZ   and  NH1 
REMARK       I    between atoms: CZ   and  NH2 
ROOT
ATOM      1  CA  ARG D 557     -26.217   2.705 -17.014  1.00 35.49     0.159 C 
ENDROOT
BRANCH   1   2
ATOM      2  CB  ARG D 557     -26.789   1.319 -17.183  1.00 35.49     0.034 C 
BRANCH   2   3
ATOM      3  CG  ARG D 557     -25.864   0.195 -16.996  1.00 35.49     0.027 C 
BRANCH   3   4
ATOM      4  CD  ARG D 557     -26.248  -0.668 -15.855  1.00 35.49     0.116 C 
BRANCH   4   5
ATOM      5  NE  ARG D 557     -25.135  -0.944 -14.985  1.00 35.49    -0.212 N 
ATOM      6  CZ  ARG D 557     -24.997  -2.010 -14.229  1.00 35.49     0.666 C 
ATOM      7  NH1 ARG D 557     -25.906  -2.966 -14.179  1.00 35.49    -0.235 N 
ATOM      8  NH2 ARG D 557     -23.912  -2.105 -13.518  1.00 35.49    -0.235 N 
ATOM      9  HH  ARG D 557     -26.627  -2.925 -14.640  1.00 35.49     0.174 HD
ATOM     10  HH  ARG D 557     -25.761  -3.640 -13.669  1.00 35.49     0.174 HD
ATOM     11  HH  ARG D 557     -23.339  -1.476 -13.576  1.00 35.49     0.174 HD
ATOM     12  HH  ARG D 557     -23.785  -2.780 -13.021  1.00 35.49     0.174 HD
ATOM     13  HE  ARG D 557     -24.537  -0.346 -14.900  1.00 35.49     0.178 HD
ENDBRANCH   4   5
ENDBRANCH   3   4
ENDBRANCH   2   3
ENDBRANCH   1   2
END_RES ARG D 557
BEGIN_RES GLU D 570
REMARK  3 active torsions:
REMARK  status: ('A' for Active; 'I' for Inactive)
REMARK    5  A    between atoms: CA   and  CB  
REMARK    6  A    between atoms: CB   and  CG  
REMARK    7  A    between atoms: CG   and  CD  
ROOT
ATOM     14  CA  GLU D 570     -18.033  -6.348 -13.375  1.00 32.92     0.160 C 
ENDROOT
BRANCH  14  15
ATOM     15  CB  GLU D 570     -19.500  -6.345 -13.794  1.00 32.92     0.043 C 
BRANCH  15  16
ATOM     16  CG  GLU D 570     -19.813  -5.935 -15.187  1.00 32.92     0.100 C 
BRANCH  16  17
ATOM     17  CD  GLU D 570     -21.086  -6.557 -15.713  1.00 32.92     0.185 C 
ATOM     18  OE1 GLU D 570     -21.240  -7.790 -15.620  1.00 32.92    -0.647 OA
ATOM     19  OE2 GLU D 570     -21.931  -5.805 -16.237  1.00 32.92    -0.647 OA
ENDBRANCH  16  17
ENDBRANCH  15  16
ENDBRANCH  14  15
END_RES GLU D 570
ENDMDL
