MODEL 1
REMARK VINA RESULT:      -7.0      0.000      0.000
REMARK  18 active torsions:
REMARK  status: ('A' for Active; 'I' for Inactive)
REMARK    1  A    between atoms: C_2  and  C_3 
REMARK    2  A    between atoms: C_3  and  C_4 
REMARK    3  A    between atoms: C_4  and  C_5 
REMARK    4  A    between atoms: C_5  and  C_6 
REMARK    5  A    between atoms: C_6  and  C_7 
REMARK    6  A    between atoms: C_7  and  C_8 
REMARK    7  A    between atoms: C_8  and  C_9 
REMARK    8  A    between atoms: C_9  and  C_10 
REMARK    9  A    between atoms: C_10  and  C_11 
REMARK   10  A    between atoms: C_11  and  C_12 
REMARK   11  A    between atoms: C_12  and  C_13 
REMARK   12  A    between atoms: C_13  and  C_14 
REMARK   13  A    between atoms: C_14  and  C_15 
REMARK   14  A    between atoms: C_15  and  C_16 
REMARK   15  A    between atoms: C_16  and  O_17 
REMARK   16  A    between atoms: O_17  and  P_18 
REMARK   17  A    between atoms: P_18  and  O_20 
REMARK   18  A    between atoms: P_18  and  O_21 
ROOT
HETATM    1  C   UNL     1     -20.419  -5.001  -5.720  1.00  0.00     0.000 C 
ENDROOT
BRANCH   1   2
HETATM    2  C   UNL     1     -21.670  -5.755  -6.134  1.00  0.00     0.000 C 
BRANCH   2   3
HETATM    3  C   UNL     1     -22.300  -6.442  -4.935  1.00  0.00     0.000 C 
BRANCH   3   4
HETATM    4  C   UNL     1     -21.389  -7.547  -4.419  1.00  0.00     0.000 C 
BRANCH   4   5
HETATM    5  C   UNL     1     -21.026  -7.301  -2.962  1.00  0.00     0.000 C 
BRANCH   5   6
HETATM    6  C   UNL     1     -21.950  -6.255  -2.358  1.00  0.00     0.000 C 
BRANCH   6   7
HETATM    7  C   UNL     1     -22.349  -6.649  -0.940  1.00  0.00     0.000 C 
BRANCH   7   8
HETATM    8  C   UNL     1     -21.710  -7.975  -0.556  1.00  0.00     0.000 C 
BRANCH   8   9
HETATM    9  C   UNL     1     -22.714  -8.866   0.168  1.00  0.00     0.000 C 
BRANCH   9  10
HETATM   10  C   UNL     1     -22.675 -10.283  -0.395  1.00  0.00    -0.000 C 
BRANCH  10  11
HETATM   11  C   UNL     1     -24.019 -10.981  -0.214  1.00  0.00    -0.005 C 
HETATM   12  C   UNL     1     -24.001 -12.368  -0.832  1.00  0.00     0.005 C 
ENDBRANCH  10  11
ENDBRANCH   9  10
ENDBRANCH   8   9
ENDBRANCH   7   8
ENDBRANCH   6   7
ENDBRANCH   5   6
ENDBRANCH   4   5
ENDBRANCH   3   4
ENDBRANCH   2   3
ENDBRANCH   1   2
BRANCH   1  13
HETATM   13  C   UNL     1     -19.502  -4.792  -6.922  1.00  0.00     0.000 C 
BRANCH  13  14
HETATM   14  C   UNL     1     -20.260  -5.072  -8.213  1.00  0.00     0.002 C 
BRANCH  14  15
HETATM   15  C   UNL     1     -20.171  -3.914  -9.204  1.00  0.00     0.027 C 
BRANCH  15  16
HETATM   16  C   UNL     1     -21.446  -3.925 -10.067  1.00  0.00     0.180 C 
BRANCH  16  17
HETATM   17  O   UNL     1     -22.555  -3.519  -9.360  1.00  0.00    -0.297 OA
BRANCH  17  18
HETATM   18  P   UNL     1     -24.072  -3.695  -9.739  1.00  0.00     0.390 P 
HETATM   19  O   UNL     1     -24.165  -5.082 -10.370  1.00  0.00    -0.632 OA
BRANCH  18  20
HETATM   20  O   UNL     1     -24.277  -3.926  -8.161  1.00  0.00    -0.307 OA
HETATM   21  H   UNL     1     -23.596  -4.492  -7.803  1.00  0.00     0.222 HD
ENDBRANCH  18  20
BRANCH  18  22
HETATM   22  O   UNL     1     -25.600  -3.297  -9.666  1.00  0.00    -0.307 OA
HETATM   23  H   UNL     1     -25.544  -2.561  -9.028  1.00  0.00     0.222 HD
ENDBRANCH  18  22
ENDBRANCH  17  18
ENDBRANCH  16  17
ENDBRANCH  15  16
ENDBRANCH  14  15
ENDBRANCH  13  14
ENDBRANCH   1  13
TORSDOF 18
BEGIN_RES ARG D 557
REMARK  4 active torsions:
REMARK  status: ('A' for Active; 'I' for Inactive)
REMARK    1  A    between atoms: CA   and  CB  
REMARK    2  A    between atoms: CB   and  CG  
REMARK    3  A    between atoms: CG   and  CD  
REMARK    4  A    between atoms: CD   and  NE  
REMARK       I    between atoms: NE   and  CZ  
REMARK       I    between atoms: CZ   and  NH1 
REMARK       I    between atoms: CZ   and  NH2 
ROOT
ATOM      1  CA  ARG D 557     -26.217   2.705 -17.014  1.00 35.49     0.159 C 
ENDROOT
BRANCH   1   2
ATOM      2  CB  ARG D 557     -26.789   1.319 -17.183  1.00 35.49     0.034 C 
BRANCH   2   3
ATOM      3  CG  ARG D 557     -25.838   0.202 -17.139  1.00 35.49     0.027 C 
BRANCH   3   4
ATOM      4  CD  ARG D 557     -24.759   0.418 -16.147  1.00 35.49     0.116 C 
BRANCH   4   5
ATOM      5  NE  ARG D 557     -24.898  -0.440 -15.000  1.00 35.49    -0.212 N 
ATOM      6  CZ  ARG D 557     -24.080  -1.412 -14.664  1.00 35.49     0.666 C 
ATOM      7  NH1 ARG D 557     -23.014  -1.721 -15.379  1.00 35.49    -0.235 N 
ATOM      8  NH2 ARG D 557     -24.349  -2.074 -13.576  1.00 35.49    -0.235 N 
ATOM      9  HH  ARG D 557     -22.817  -1.297 -16.097  1.00 35.49     0.174 HD
ATOM     10  HH  ARG D 557     -22.515  -2.363 -15.110  1.00 35.49     0.174 HD
ATOM     11  HH  ARG D 557     -25.040  -1.847 -13.130  1.00 35.49     0.174 HD
ATOM     12  HH  ARG D 557     -23.842  -2.706 -13.325  1.00 35.49     0.174 HD
ATOM     13  HE  ARG D 557     -25.597  -0.358 -14.522  1.00 35.49     0.178 HD
ENDBRANCH   4   5
ENDBRANCH   3   4
ENDBRANCH   2   3
ENDBRANCH   1   2
END_RES ARG D 557
BEGIN_RES GLU D 570
REMARK  3 active torsions:
REMARK  status: ('A' for Active; 'I' for Inactive)
REMARK    5  A    between atoms: CA   and  CB  
REMARK    6  A    between atoms: CB   and  CG  
REMARK    7  A    between atoms: CG   and  CD  
ROOT
ATOM     14  CA  GLU D 570     -18.033  -6.348 -13.375  1.00 32.92     0.160 C 
ENDROOT
BRANCH  14  15
ATOM     15  CB  GLU D 570     -19.500  -6.345 -13.794  1.00 32.92     0.043 C 
BRANCH  15  16
ATOM     16  CG  GLU D 570     -20.451  -5.575 -12.952  1.00 32.92     0.100 C 
BRANCH  16  17
ATOM     17  CD  GLU D 570     -21.741  -5.249 -13.667  1.00 32.92     0.185 C 
ATOM     18  OE1 GLU D 570     -22.239  -4.114 -13.531  1.00 32.92    -0.647 OA
ATOM     19  OE2 GLU D 570     -22.269  -6.143 -14.357  1.00 32.92    -0.647 OA
ENDBRANCH  16  17
ENDBRANCH  15  16
ENDBRANCH  14  15
END_RES GLU D 570
ENDMDL
MODEL 2
REMARK VINA RESULT:      -6.9      2.601      3.833
REMARK  18 active torsions:
REMARK  status: ('A' for Active; 'I' for Inactive)
REMARK    1  A    between atoms: C_2  and  C_3 
REMARK    2  A    between atoms: C_3  and  C_4 
REMARK    3  A    between atoms: C_4  and  C_5 
REMARK    4  A    between atoms: C_5  and  C_6 
REMARK    5  A    between atoms: C_6  and  C_7 
REMARK    6  A    between atoms: C_7  and  C_8 
REMARK    7  A    between atoms: C_8  and  C_9 
REMARK    8  A    between atoms: C_9  and  C_10 
REMARK    9  A    between atoms: C_10  and  C_11 
REMARK   10  A    between atoms: C_11  and  C_12 
REMARK   11  A    between atoms: C_12  and  C_13 
REMARK   12  A    between atoms: C_13  and  C_14 
REMARK   13  A    between atoms: C_14  and  C_15 
REMARK   14  A    between atoms: C_15  and  C_16 
REMARK   15  A    between atoms: C_16  and  O_17 
REMARK   16  A    between atoms: O_17  and  P_18 
REMARK   17  A    between atoms: P_18  and  O_20 
REMARK   18  A    between atoms: P_18  and  O_21 
ROOT
HETATM    1  C   UNL     1     -20.453  -4.453  -9.048  1.00  0.00     0.000 C 
ENDROOT
BRANCH   1   2
HETATM    2  C   UNL     1     -21.630  -3.904  -8.263  1.00  0.00     0.000 C 
BRANCH   2   3
HETATM    3  C   UNL     1     -21.849  -4.710  -6.995  1.00  0.00     0.000 C 
BRANCH   3   4
HETATM    4  C   UNL     1     -20.601  -4.677  -6.125  1.00  0.00     0.000 C 
BRANCH   4   5
HETATM    5  C   UNL     1     -20.305  -6.060  -5.564  1.00  0.00     0.000 C 
BRANCH   5   6
HETATM    6  C   UNL     1     -21.570  -6.673  -4.981  1.00  0.00     0.000 C 
BRANCH   6   7
HETATM    7  C   UNL     1     -21.330  -7.129  -3.546  1.00  0.00     0.000 C 
BRANCH   7   8
HETATM    8  C   UNL     1     -21.985  -6.169  -2.565  1.00  0.00     0.000 C 
BRANCH   8   9
HETATM    9  C   UNL     1     -22.160  -6.829  -1.201  1.00  0.00     0.000 C 
BRANCH   9  10
HETATM   10  C   UNL     1     -22.028  -8.344  -1.319  1.00  0.00    -0.000 C 
BRANCH  10  11
HETATM   11  C   UNL     1     -22.219  -9.017   0.036  1.00  0.00    -0.005 C 
HETATM   12  C   UNL     1     -21.829  -8.082   1.168  1.00  0.00     0.005 C 
ENDBRANCH  10  11
ENDBRANCH   9  10
ENDBRANCH   8   9
ENDBRANCH   7   8
ENDBRANCH   6   7
ENDBRANCH   5   6
ENDBRANCH   4   5
ENDBRANCH   3   4
ENDBRANCH   2   3
ENDBRANCH   1   2
BRANCH   1  13
HETATM   13  C   UNL     1     -20.615  -4.149 -10.534  1.00  0.00     0.000 C 
BRANCH  13  14
HETATM   14  C   UNL     1     -21.903  -3.369 -10.771  1.00  0.00     0.002 C 
BRANCH  14  15
HETATM   15  C   UNL     1     -22.858  -4.093 -11.717  1.00  0.00     0.027 C 
BRANCH  15  16
HETATM   16  C   UNL     1     -24.242  -3.429 -11.598  1.00  0.00     0.180 C 
BRANCH  16  17
HETATM   17  O   UNL     1     -24.498  -2.573 -12.645  1.00  0.00    -0.297 OA
BRANCH  17  18
HETATM   18  P   UNL     1     -24.002  -2.677 -14.135  1.00  0.00     0.390 P 
HETATM   19  O   UNL     1     -24.907  -3.721 -14.782  1.00  0.00    -0.632 OA
BRANCH  18  20
HETATM   20  O   UNL     1     -24.763  -1.273 -14.321  1.00  0.00    -0.307 OA
HETATM   21  H   UNL     1     -24.978  -1.116 -15.239  1.00  0.00     0.222 HD
ENDBRANCH  18  20
BRANCH  18  22
HETATM   22  O   UNL     1     -23.191  -2.165 -15.391  1.00  0.00    -0.307 OA
HETATM   23  H   UNL     1     -22.294  -2.447 -15.128  1.00  0.00     0.222 HD
ENDBRANCH  18  22
ENDBRANCH  17  18
ENDBRANCH  16  17
ENDBRANCH  15  16
ENDBRANCH  14  15
ENDBRANCH  13  14
ENDBRANCH   1  13
TORSDOF 18
BEGIN_RES ARG D 557
REMARK  4 active torsions:
REMARK  status: ('A' for Active; 'I' for Inactive)
REMARK    1  A    between atoms: CA   and  CB  
REMARK    2  A    between atoms: CB   and  CG  
REMARK    3  A    between atoms: CG   and  CD  
REMARK    4  A    between atoms: CD   and  NE  
REMARK       I    between atoms: NE   and  CZ  
REMARK       I    between atoms: CZ   and  NH1 
REMARK       I    between atoms: CZ   and  NH2 
ROOT
ATOM      1  CA  ARG D 557     -26.217   2.705 -17.014  1.00 35.49     0.159 C 
ENDROOT
BRANCH   1   2
ATOM      2  CB  ARG D 557     -26.789   1.319 -17.183  1.00 35.49     0.034 C 
BRANCH   2   3
ATOM      3  CG  ARG D 557     -28.235   1.225 -17.418  1.00 35.49     0.027 C 
BRANCH   3   4
ATOM      4  CD  ARG D 557     -28.901   0.296 -16.477  1.00 35.49     0.116 C 
BRANCH   4   5
ATOM      5  NE  ARG D 557     -29.190  -0.976 -17.086  1.00 35.49    -0.212 N 
ATOM      6  CZ  ARG D 557     -28.486  -2.076 -16.939  1.00 35.49     0.666 C 
ATOM      7  NH1 ARG D 557     -27.391  -2.124 -16.203  1.00 35.49    -0.235 N 
ATOM      8  NH2 ARG D 557     -28.909  -3.145 -17.549  1.00 35.49    -0.235 N 
ATOM      9  HH  ARG D 557     -27.096  -1.433 -15.791  1.00 35.49     0.174 HD
ATOM     10  HH  ARG D 557     -26.974  -2.870 -16.142  1.00 35.49     0.174 HD
ATOM     11  HH  ARG D 557     -29.623  -3.086 -18.011  1.00 35.49     0.174 HD
ATOM     12  HH  ARG D 557     -28.483  -3.875 -17.475  1.00 35.49     0.174 HD
ATOM     13  HE  ARG D 557     -29.838  -1.018 -17.635  1.00 35.49     0.178 HD
ENDBRANCH   4   5
ENDBRANCH   3   4
ENDBRANCH   2   3
ENDBRANCH   1   2
END_RES ARG D 557
BEGIN_RES GLU D 570
REMARK  3 active torsions:
REMARK  status: ('A' for Active; 'I' for Inactive)
REMARK    5  A    between atoms: CA   and  CB  
REMARK    6  A    between atoms: CB   and  CG  
REMARK    7  A    between atoms: CG   and  CD  
ROOT
ATOM     14  CA  GLU D 570     -18.033  -6.348 -13.375  1.00 32.92     0.160 C 
ENDROOT
BRANCH  14  15
ATOM     15  CB  GLU D 570     -19.500  -6.345 -13.794  1.00 32.92     0.043 C 
BRANCH  15  16
ATOM     16  CG  GLU D 570     -19.817  -5.896 -15.174  1.00 32.92     0.100 C 
BRANCH  16  17
ATOM     17  CD  GLU D 570     -21.270  -5.525 -15.354  1.00 32.92     0.185 C 
ATOM     18  OE1 GLU D 570     -21.568  -4.608 -16.144  1.00 32.92    -0.647 OA
ATOM     19  OE2 GLU D 570     -22.119  -6.146 -14.686  1.00 32.92    -0.647 OA
ENDBRANCH  16  17
ENDBRANCH  15  16
ENDBRANCH  14  15
END_RES GLU D 570
ENDMDL
MODEL 3
REMARK VINA RESULT:      -6.5      2.324      3.383
REMARK  18 active torsions:
REMARK  status: ('A' for Active; 'I' for Inactive)
REMARK    1  A    between atoms: C_2  and  C_3 
REMARK    2  A    between atoms: C_3  and  C_4 
REMARK    3  A    between atoms: C_4  and  C_5 
REMARK    4  A    between atoms: C_5  and  C_6 
REMARK    5  A    between atoms: C_6  and  C_7 
REMARK    6  A    between atoms: C_7  and  C_8 
REMARK    7  A    between atoms: C_8  and  C_9 
REMARK    8  A    between atoms: C_9  and  C_10 
REMARK    9  A    between atoms: C_10  and  C_11 
REMARK   10  A    between atoms: C_11  and  C_12 
REMARK   11  A    between atoms: C_12  and  C_13 
REMARK   12  A    between atoms: C_13  and  C_14 
REMARK   13  A    between atoms: C_14  and  C_15 
REMARK   14  A    between atoms: C_15  and  C_16 
REMARK   15  A    between atoms: C_16  and  O_17 
REMARK   16  A    between atoms: O_17  and  P_18 
REMARK   17  A    between atoms: P_18  and  O_20 
REMARK   18  A    between atoms: P_18  and  O_21 
ROOT
HETATM    1  C   UNL     1     -20.083  -5.064  -9.003  1.00  0.00     0.000 C 
ENDROOT
BRANCH   1   2
HETATM    2  C   UNL     1     -19.992  -3.749  -8.251  1.00  0.00     0.000 C 
BRANCH   2   3
HETATM    3  C   UNL     1     -21.044  -3.685  -7.158  1.00  0.00     0.000 C 
BRANCH   3   4
HETATM    4  C   UNL     1     -21.539  -5.084  -6.817  1.00  0.00     0.000 C 
BRANCH   4   5
HETATM    5  C   UNL     1     -21.172  -5.445  -5.386  1.00  0.00     0.000 C 
BRANCH   5   6
HETATM    6  C   UNL     1     -21.128  -6.956  -5.219  1.00  0.00     0.000 C 
BRANCH   6   7
HETATM    7  C   UNL     1     -21.348  -7.340  -3.760  1.00  0.00     0.000 C 
BRANCH   7   8
HETATM    8  C   UNL     1     -21.486  -6.095  -2.897  1.00  0.00     0.000 C 
BRANCH   8   9
HETATM    9  C   UNL     1     -22.237  -6.414  -1.609  1.00  0.00     0.000 C 
BRANCH   9  10
HETATM   10  C   UNL     1     -21.843  -7.791  -1.086  1.00  0.00    -0.000 C 
BRANCH  10  11
HETATM   11  C   UNL     1     -22.376  -8.014   0.325  1.00  0.00    -0.005 C 
HETATM   12  C   UNL     1     -21.286  -8.540   1.243  1.00  0.00     0.005 C 
ENDBRANCH  10  11
ENDBRANCH   9  10
ENDBRANCH   8   9
ENDBRANCH   7   8
ENDBRANCH   6   7
ENDBRANCH   5   6
ENDBRANCH   4   5
ENDBRANCH   3   4
ENDBRANCH   2   3
ENDBRANCH   1   2
BRANCH   1  13
HETATM   13  C   UNL     1     -20.164  -4.814 -10.506  1.00  0.00     0.000 C 
BRANCH  13  14
HETATM   14  C   UNL     1     -20.553  -3.366 -10.775  1.00  0.00     0.002 C 
BRANCH  14  15
HETATM   15  C   UNL     1     -21.776  -3.250 -11.682  1.00  0.00     0.027 C 
BRANCH  15  16
HETATM   16  C   UNL     1     -22.470  -4.623 -11.726  1.00  0.00     0.180 C 
BRANCH  16  17
HETATM   17  O   UNL     1     -23.742  -4.579 -11.201  1.00  0.00    -0.297 OA
BRANCH  17  18
HETATM   18  P   UNL     1     -24.234  -3.845  -9.899  1.00  0.00     0.390 P 
HETATM   19  O   UNL     1     -25.374  -2.940 -10.361  1.00  0.00    -0.632 OA
BRANCH  18  20
HETATM   20  O   UNL     1     -24.921  -5.257  -9.552  1.00  0.00    -0.307 OA
HETATM   21  H   UNL     1     -25.719  -5.387 -10.061  1.00  0.00     0.222 HD
ENDBRANCH  18  20
BRANCH  18  22
HETATM   22  O   UNL     1     -24.320  -3.656  -8.333  1.00  0.00    -0.307 OA
HETATM   23  H   UNL     1     -23.676  -4.335  -8.054  1.00  0.00     0.222 HD
ENDBRANCH  18  22
ENDBRANCH  17  18
ENDBRANCH  16  17
ENDBRANCH  15  16
ENDBRANCH  14  15
ENDBRANCH  13  14
ENDBRANCH   1  13
TORSDOF 18
BEGIN_RES ARG D 557
REMARK  4 active torsions:
REMARK  status: ('A' for Active; 'I' for Inactive)
REMARK    1  A    between atoms: CA   and  CB  
REMARK    2  A    between atoms: CB   and  CG  
REMARK    3  A    between atoms: CG   and  CD  
REMARK    4  A    between atoms: CD   and  NE  
REMARK       I    between atoms: NE   and  CZ  
REMARK       I    between atoms: CZ   and  NH1 
REMARK       I    between atoms: CZ   and  NH2 
ROOT
ATOM      1  CA  ARG D 557     -26.217   2.705 -17.014  1.00 35.49     0.159 C 
ENDROOT
BRANCH   1   2
ATOM      2  CB  ARG D 557     -26.789   1.319 -17.183  1.00 35.49     0.034 C 
BRANCH   2   3
ATOM      3  CG  ARG D 557     -28.231   1.226 -17.439  1.00 35.49     0.027 C 
BRANCH   3   4
ATOM      4  CD  ARG D 557     -28.914   0.309 -16.499  1.00 35.49     0.116 C 
BRANCH   4   5
ATOM      5  NE  ARG D 557     -29.313  -0.920 -17.133  1.00 35.49    -0.212 N 
ATOM      6  CZ  ARG D 557     -28.684  -2.070 -17.044  1.00 35.49     0.666 C 
ATOM      7  NH1 ARG D 557     -27.572  -2.218 -16.348  1.00 35.49    -0.235 N 
ATOM      8  NH2 ARG D 557     -29.201  -3.088 -17.669  1.00 35.49    -0.235 N 
ATOM      9  HH  ARG D 557     -27.215  -1.563 -15.927  1.00 35.49     0.174 HD
ATOM     10  HH  ARG D 557     -27.207  -2.993 -16.324  1.00 35.49     0.174 HD
ATOM     11  HH  ARG D 557     -29.924  -2.964 -18.104  1.00 35.49     0.174 HD
ATOM     12  HH  ARG D 557     -28.826  -3.847 -17.632  1.00 35.49     0.174 HD
ATOM     13  HE  ARG D 557     -29.980  -0.899 -17.661  1.00 35.49     0.178 HD
ENDBRANCH   4   5
ENDBRANCH   3   4
ENDBRANCH   2   3
ENDBRANCH   1   2
END_RES ARG D 557
BEGIN_RES GLU D 570
REMARK  3 active torsions:
REMARK  status: ('A' for Active; 'I' for Inactive)
REMARK    5  A    between atoms: CA   and  CB  
REMARK    6  A    between atoms: CB   and  CG  
REMARK    7  A    between atoms: CG   and  CD  
ROOT
ATOM     14  CA  GLU D 570     -18.033  -6.348 -13.375  1.00 32.92     0.160 C 
ENDROOT
BRANCH  14  15
ATOM     15  CB  GLU D 570     -19.500  -6.345 -13.794  1.00 32.92     0.043 C 
BRANCH  15  16
ATOM     16  CG  GLU D 570     -19.796  -6.378 -15.250  1.00 32.92     0.100 C 
BRANCH  16  17
ATOM     17  CD  GLU D 570     -21.029  -5.585 -15.618  1.00 32.92     0.185 C 
ATOM     18  OE1 GLU D 570     -21.428  -4.693 -14.846  1.00 32.92    -0.647 OA
ATOM     19  OE2 GLU D 570     -21.611  -5.871 -16.683  1.00 32.92    -0.647 OA
ENDBRANCH  16  17
ENDBRANCH  15  16
ENDBRANCH  14  15
END_RES GLU D 570
ENDMDL
MODEL 4
REMARK VINA RESULT:      -6.3      3.593      5.407
REMARK  18 active torsions:
REMARK  status: ('A' for Active; 'I' for Inactive)
REMARK    1  A    between atoms: C_2  and  C_3 
REMARK    2  A    between atoms: C_3  and  C_4 
REMARK    3  A    between atoms: C_4  and  C_5 
REMARK    4  A    between atoms: C_5  and  C_6 
REMARK    5  A    between atoms: C_6  and  C_7 
REMARK    6  A    between atoms: C_7  and  C_8 
REMARK    7  A    between atoms: C_8  and  C_9 
REMARK    8  A    between atoms: C_9  and  C_10 
REMARK    9  A    between atoms: C_10  and  C_11 
REMARK   10  A    between atoms: C_11  and  C_12 
REMARK   11  A    between atoms: C_12  and  C_13 
REMARK   12  A    between atoms: C_13  and  C_14 
REMARK   13  A    between atoms: C_14  and  C_15 
REMARK   14  A    between atoms: C_15  and  C_16 
REMARK   15  A    between atoms: C_16  and  O_17 
REMARK   16  A    between atoms: O_17  and  P_18 
REMARK   17  A    between atoms: P_18  and  O_20 
REMARK   18  A    between atoms: P_18  and  O_21 
ROOT
HETATM    1  C   UNL     1     -23.098  -3.606 -10.862  1.00  0.00     0.000 C 
ENDROOT
BRANCH   1   2
HETATM    2  C   UNL     1     -22.385  -4.004  -9.583  1.00  0.00     0.000 C 
BRANCH   2   3
HETATM    3  C   UNL     1     -20.950  -4.406  -9.875  1.00  0.00     0.000 C 
BRANCH   3   4
HETATM    4  C   UNL     1     -20.171  -4.565  -8.577  1.00  0.00     0.000 C 
BRANCH   4   5
HETATM    5  C   UNL     1     -20.847  -3.796  -7.452  1.00  0.00     0.000 C 
BRANCH   5   6
HETATM    6  C   UNL     1     -20.675  -4.533  -6.132  1.00  0.00     0.000 C 
BRANCH   6   7
HETATM    7  C   UNL     1     -20.232  -5.972  -6.377  1.00  0.00     0.000 C 
BRANCH   7   8
HETATM    8  C   UNL     1     -21.202  -6.945  -5.725  1.00  0.00     0.000 C 
BRANCH   8   9
HETATM    9  C   UNL     1     -20.481  -7.821  -4.706  1.00  0.00     0.000 C 
BRANCH   9  10
HETATM   10  C   UNL     1     -21.382  -8.100  -3.508  1.00  0.00    -0.000 C 
BRANCH  10  11
HETATM   11  C   UNL     1     -21.041  -7.179  -2.341  1.00  0.00    -0.005 C 
HETATM   12  C   UNL     1     -22.154  -6.175  -2.096  1.00  0.00     0.005 C 
ENDBRANCH  10  11
ENDBRANCH   9  10
ENDBRANCH   8   9
ENDBRANCH   7   8
ENDBRANCH   6   7
ENDBRANCH   5   6
ENDBRANCH   4   5
ENDBRANCH   3   4
ENDBRANCH   2   3
ENDBRANCH   1   2
BRANCH   1  13
HETATM   13  C   UNL     1     -22.229  -3.921 -12.076  1.00  0.00     0.000 C 
BRANCH  13  14
HETATM   14  C   UNL     1     -22.883  -3.382 -13.341  1.00  0.00     0.002 C 
BRANCH  14  15
HETATM   15  C   UNL     1     -24.017  -4.276 -13.839  1.00  0.00     0.027 C 
BRANCH  15  16
HETATM   16  C   UNL     1     -23.466  -5.705 -13.990  1.00  0.00     0.180 C 
BRANCH  16  17
HETATM   17  O   UNL     1     -24.402  -6.570 -14.511  1.00  0.00    -0.297 OA
BRANCH  17  18
HETATM   18  P   UNL     1     -24.705  -6.882 -16.023  1.00  0.00     0.390 P 
HETATM   19  O   UNL     1     -23.911  -8.148 -16.334  1.00  0.00    -0.632 OA
BRANCH  18  20
HETATM   20  O   UNL     1     -26.126  -7.392 -15.470  1.00  0.00    -0.307 OA
HETATM   21  H   UNL     1     -26.016  -8.094 -14.831  1.00  0.00     0.222 HD
ENDBRANCH  18  20
BRANCH  18  22
HETATM   22  O   UNL     1     -25.525  -6.709 -17.363  1.00  0.00    -0.307 OA
HETATM   23  H   UNL     1     -25.772  -5.768 -17.279  1.00  0.00     0.222 HD
ENDBRANCH  18  22
ENDBRANCH  17  18
ENDBRANCH  16  17
ENDBRANCH  15  16
ENDBRANCH  14  15
ENDBRANCH  13  14
ENDBRANCH   1  13
TORSDOF 18
BEGIN_RES ARG D 557
REMARK  4 active torsions:
REMARK  status: ('A' for Active; 'I' for Inactive)
REMARK    1  A    between atoms: CA   and  CB  
REMARK    2  A    between atoms: CB   and  CG  
REMARK    3  A    between atoms: CG   and  CD  
REMARK    4  A    between atoms: CD   and  NE  
REMARK       I    between atoms: NE   and  CZ  
REMARK       I    between atoms: CZ   and  NH1 
REMARK       I    between atoms: CZ   and  NH2 
ROOT
ATOM      1  CA  ARG D 557     -26.217   2.705 -17.014  1.00 35.49     0.159 C 
ENDROOT
BRANCH   1   2
ATOM      2  CB  ARG D 557     -26.789   1.319 -17.183  1.00 35.49     0.034 C 
BRANCH   2   3
ATOM      3  CG  ARG D 557     -28.232   1.226 -17.438  1.00 35.49     0.027 C 
BRANCH   3   4
ATOM      4  CD  ARG D 557     -28.910   0.293 -16.509  1.00 35.49     0.116 C 
BRANCH   4   5
ATOM      5  NE  ARG D 557     -28.119  -0.881 -16.247  1.00 35.49    -0.212 N 
ATOM      6  CZ  ARG D 557     -28.341  -2.081 -16.735  1.00 35.49     0.666 C 
ATOM      7  NH1 ARG D 557     -29.358  -2.345 -17.534  1.00 35.49    -0.235 N 
ATOM      8  NH2 ARG D 557     -27.508  -3.026 -16.407  1.00 35.49    -0.235 N 
ATOM      9  HH  ARG D 557     -29.918  -1.738 -17.764  1.00 35.49     0.174 HD
ATOM     10  HH  ARG D 557     -29.451  -3.146 -17.823  1.00 35.49     0.174 HD
ATOM     11  HH  ARG D 557     -26.856  -2.824 -15.896  1.00 35.49     0.174 HD
ATOM     12  HH  ARG D 557     -27.616  -3.812 -16.705  1.00 35.49     0.174 HD
ATOM     13  HE  ARG D 557     -27.485  -0.818 -15.684  1.00 35.49     0.178 HD
ENDBRANCH   4   5
ENDBRANCH   3   4
ENDBRANCH   2   3
ENDBRANCH   1   2
END_RES ARG D 557
BEGIN_RES GLU D 570
REMARK  3 active torsions:
REMARK  status: ('A' for Active; 'I' for Inactive)
REMARK    5  A    between atoms: CA   and  CB  
REMARK    6  A    between atoms: CB   and  CG  
REMARK    7  A    between atoms: CG   and  CD  
ROOT
ATOM     14  CA  GLU D 570     -18.033  -6.348 -13.375  1.00 32.92     0.160 C 
ENDROOT
BRANCH  14  15
ATOM     15  CB  GLU D 570     -19.500  -6.345 -13.794  1.00 32.92     0.043 C 
BRANCH  15  16
ATOM     16  CG  GLU D 570     -19.861  -5.581 -15.016  1.00 32.92     0.100 C 
BRANCH  16  17
ATOM     17  CD  GLU D 570     -20.503  -6.441 -16.080  1.00 32.92     0.185 C 
ATOM     18  OE1 GLU D 570     -20.813  -5.924 -17.171  1.00 32.92    -0.647 OA
ATOM     19  OE2 GLU D 570     -20.714  -7.641 -15.814  1.00 32.92    -0.647 OA
ENDBRANCH  16  17
ENDBRANCH  15  16
ENDBRANCH  14  15
END_RES GLU D 570
ENDMDL
MODEL 5
REMARK VINA RESULT:      -6.1      1.917      2.589
REMARK  18 active torsions:
REMARK  status: ('A' for Active; 'I' for Inactive)
REMARK    1  A    between atoms: C_2  and  C_3 
REMARK    2  A    between atoms: C_3  and  C_4 
REMARK    3  A    between atoms: C_4  and  C_5 
REMARK    4  A    between atoms: C_5  and  C_6 
REMARK    5  A    between atoms: C_6  and  C_7 
REMARK    6  A    between atoms: C_7  and  C_8 
REMARK    7  A    between atoms: C_8  and  C_9 
REMARK    8  A    between atoms: C_9  and  C_10 
REMARK    9  A    between atoms: C_10  and  C_11 
REMARK   10  A    between atoms: C_11  and  C_12 
REMARK   11  A    between atoms: C_12  and  C_13 
REMARK   12  A    between atoms: C_13  and  C_14 
REMARK   13  A    between atoms: C_14  and  C_15 
REMARK   14  A    between atoms: C_15  and  C_16 
REMARK   15  A    between atoms: C_16  and  O_17 
REMARK   16  A    between atoms: O_17  and  P_18 
REMARK   17  A    between atoms: P_18  and  O_20 
REMARK   18  A    between atoms: P_18  and  O_21 
ROOT
HETATM    1  C   UNL     1     -19.850  -4.722  -6.998  1.00  0.00     0.000 C 
ENDROOT
BRANCH   1   2
HETATM    2  C   UNL     1     -20.479  -6.056  -6.642  1.00  0.00     0.000 C 
BRANCH   2   3
HETATM    3  C   UNL     1     -20.773  -6.127  -5.154  1.00  0.00     0.000 C 
BRANCH   3   4
HETATM    4  C   UNL     1     -20.733  -7.572  -4.675  1.00  0.00     0.000 C 
BRANCH   4   5
HETATM    5  C   UNL     1     -21.190  -7.666  -3.227  1.00  0.00     0.000 C 
BRANCH   5   6
HETATM    6  C   UNL     1     -21.781  -6.340  -2.773  1.00  0.00     0.000 C 
BRANCH   6   7
HETATM    7  C   UNL     1     -22.310  -6.450  -1.347  1.00  0.00     0.000 C 
BRANCH   7   8
HETATM    8  C   UNL     1     -21.857  -7.755  -0.711  1.00  0.00     0.000 C 
BRANCH   8   9
HETATM    9  C   UNL     1     -22.892  -8.251   0.293  1.00  0.00     0.000 C 
BRANCH   9  10
HETATM   10  C   UNL     1     -23.327  -9.673  -0.046  1.00  0.00    -0.000 C 
BRANCH  10  11
HETATM   11  C   UNL     1     -22.336 -10.338  -0.995  1.00  0.00    -0.005 C 
HETATM   12  C   UNL     1     -23.057 -11.048  -2.128  1.00  0.00     0.005 C 
ENDBRANCH  10  11
ENDBRANCH   9  10
ENDBRANCH   8   9
ENDBRANCH   7   8
ENDBRANCH   6   7
ENDBRANCH   5   6
ENDBRANCH   4   5
ENDBRANCH   3   4
ENDBRANCH   2   3
ENDBRANCH   1   2
BRANCH   1  13
HETATM   13  C   UNL     1     -20.897  -3.781  -7.587  1.00  0.00     0.000 C 
BRANCH  13  14
HETATM   14  C   UNL     1     -21.747  -4.520  -8.611  1.00  0.00     0.002 C 
BRANCH  14  15
HETATM   15  C   UNL     1     -23.214  -4.097  -8.567  1.00  0.00     0.027 C 
BRANCH  15  16
HETATM   16  C   UNL     1     -23.705  -3.923 -10.015  1.00  0.00     0.180 C 
BRANCH  16  17
HETATM   17  O   UNL     1     -22.731  -4.238 -10.935  1.00  0.00    -0.297 OA
BRANCH  17  18
HETATM   18  P   UNL     1     -22.660  -3.841 -12.456  1.00  0.00     0.390 P 
HETATM   19  O   UNL     1     -23.747  -2.785 -12.641  1.00  0.00    -0.632 OA
BRANCH  18  20
HETATM   20  O   UNL     1     -21.342  -3.029 -12.021  1.00  0.00    -0.307 OA
HETATM   21  H   UNL     1     -21.245  -2.228 -12.533  1.00  0.00     0.222 HD
ENDBRANCH  18  20
BRANCH  18  22
HETATM   22  O   UNL     1     -21.962  -3.802 -13.873  1.00  0.00    -0.307 OA
HETATM   23  H   UNL     1     -21.157  -3.301 -13.641  1.00  0.00     0.222 HD
ENDBRANCH  18  22
ENDBRANCH  17  18
ENDBRANCH  16  17
ENDBRANCH  15  16
ENDBRANCH  14  15
ENDBRANCH  13  14
ENDBRANCH   1  13
TORSDOF 18
BEGIN_RES ARG D 557
REMARK  4 active torsions:
REMARK  status: ('A' for Active; 'I' for Inactive)
REMARK    1  A    between atoms: CA   and  CB  
REMARK    2  A    between atoms: CB   and  CG  
REMARK    3  A    between atoms: CG   and  CD  
REMARK    4  A    between atoms: CD   and  NE  
REMARK       I    between atoms: NE   and  CZ  
REMARK       I    between atoms: CZ   and  NH1 
REMARK       I    between atoms: CZ   and  NH2 
ROOT
ATOM      1  CA  ARG D 557     -26.217   2.705 -17.014  1.00 35.49     0.159 C 
ENDROOT
BRANCH   1   2
ATOM      2  CB  ARG D 557     -26.789   1.319 -17.183  1.00 35.49     0.034 C 
BRANCH   2   3
ATOM      3  CG  ARG D 557     -26.055   0.219 -16.546  1.00 35.49     0.027 C 
BRANCH   3   4
ATOM      4  CD  ARG D 557     -26.946  -0.887 -16.127  1.00 35.49     0.116 C 
BRANCH   4   5
ATOM      5  NE  ARG D 557     -26.254  -1.873 -15.340  1.00 35.49    -0.212 N 
ATOM      6  CZ  ARG D 557     -26.499  -3.164 -15.338  1.00 35.49     0.666 C 
ATOM      7  NH1 ARG D 557     -27.451  -3.706 -16.075  1.00 35.49    -0.235 N 
ATOM      8  NH2 ARG D 557     -25.757  -3.914 -14.576  1.00 35.49    -0.235 N 
ATOM      9  HH  ARG D 557     -27.949  -3.232 -16.585  1.00 35.49     0.174 HD
ATOM     10  HH  ARG D 557     -27.563  -4.555 -16.035  1.00 35.49     0.174 HD
ATOM     11  HH  ARG D 557     -25.146  -3.537 -14.116  1.00 35.49     0.174 HD
ATOM     12  HH  ARG D 557     -25.883  -4.753 -14.551  1.00 35.49     0.174 HD
ATOM     13  HE  ARG D 557     -25.673  -1.602 -14.781  1.00 35.49     0.178 HD
ENDBRANCH   4   5
ENDBRANCH   3   4
ENDBRANCH   2   3
ENDBRANCH   1   2
END_RES ARG D 557
BEGIN_RES GLU D 570
REMARK  3 active torsions:
REMARK  status: ('A' for Active; 'I' for Inactive)
REMARK    5  A    between atoms: CA   and  CB  
REMARK    6  A    between atoms: CB   and  CG  
REMARK    7  A    between atoms: CG   and  CD  
ROOT
ATOM     14  CA  GLU D 570     -18.033  -6.348 -13.375  1.00 32.92     0.160 C 
ENDROOT
BRANCH  14  15
ATOM     15  CB  GLU D 570     -19.500  -6.345 -13.794  1.00 32.92     0.043 C 
BRANCH  15  16
ATOM     16  CG  GLU D 570     -20.076  -7.626 -14.280  1.00 32.92     0.100 C 
BRANCH  16  17
ATOM     17  CD  GLU D 570     -21.139  -7.431 -15.335  1.00 32.92     0.185 C 
ATOM     18  OE1 GLU D 570     -21.157  -8.190 -16.324  1.00 32.92    -0.647 OA
ATOM     19  OE2 GLU D 570     -21.953  -6.499 -15.181  1.00 32.92    -0.647 OA
ENDBRANCH  16  17
ENDBRANCH  15  16
ENDBRANCH  14  15
END_RES GLU D 570
ENDMDL
MODEL 6
REMARK VINA RESULT:      -6.1      1.544      2.315
REMARK  18 active torsions:
REMARK  status: ('A' for Active; 'I' for Inactive)
REMARK    1  A    between atoms: C_2  and  C_3 
REMARK    2  A    between atoms: C_3  and  C_4 
REMARK    3  A    between atoms: C_4  and  C_5 
REMARK    4  A    between atoms: C_5  and  C_6 
REMARK    5  A    between atoms: C_6  and  C_7 
REMARK    6  A    between atoms: C_7  and  C_8 
REMARK    7  A    between atoms: C_8  and  C_9 
REMARK    8  A    between atoms: C_9  and  C_10 
REMARK    9  A    between atoms: C_10  and  C_11 
REMARK   10  A    between atoms: C_11  and  C_12 
REMARK   11  A    between atoms: C_12  and  C_13 
REMARK   12  A    between atoms: C_13  and  C_14 
REMARK   13  A    between atoms: C_14  and  C_15 
REMARK   14  A    between atoms: C_15  and  C_16 
REMARK   15  A    between atoms: C_16  and  O_17 
REMARK   16  A    between atoms: O_17  and  P_18 
REMARK   17  A    between atoms: P_18  and  O_20 
REMARK   18  A    between atoms: P_18  and  O_21 
ROOT
HETATM    1  C   UNL     1     -20.683  -6.270  -6.540  1.00  0.00     0.000 C 
ENDROOT
BRANCH   1   2
HETATM    2  C   UNL     1     -20.727  -7.008  -5.215  1.00  0.00     0.000 C 
BRANCH   2   3
HETATM    3  C   UNL     1     -21.854  -6.478  -4.345  1.00  0.00     0.000 C 
BRANCH   3   4
HETATM    4  C   UNL     1     -21.305  -5.969  -3.020  1.00  0.00     0.000 C 
BRANCH   4   5
HETATM    5  C   UNL     1     -22.200  -6.404  -1.870  1.00  0.00     0.000 C 
BRANCH   5   6
HETATM    6  C   UNL     1     -21.601  -7.611  -1.164  1.00  0.00     0.000 C 
BRANCH   6   7
HETATM    7  C   UNL     1     -22.135  -7.717   0.261  1.00  0.00     0.000 C 
BRANCH   7   8
HETATM    8  C   UNL     1     -23.333  -8.654   0.312  1.00  0.00     0.000 C 
BRANCH   8   9
HETATM    9  C   UNL     1     -22.973 -10.020  -0.262  1.00  0.00     0.000 C 
BRANCH   9  10
HETATM   10  C   UNL     1     -24.136 -10.993  -0.099  1.00  0.00    -0.000 C 
BRANCH  10  11
HETATM   11  C   UNL     1     -23.670 -12.435  -0.265  1.00  0.00    -0.005 C 
HETATM   12  C   UNL     1     -23.222 -13.019   1.064  1.00  0.00     0.005 C 
ENDBRANCH  10  11
ENDBRANCH   9  10
ENDBRANCH   8   9
ENDBRANCH   7   8
ENDBRANCH   6   7
ENDBRANCH   5   6
ENDBRANCH   4   5
ENDBRANCH   3   4
ENDBRANCH   2   3
ENDBRANCH   1   2
BRANCH   1  13
HETATM   13  C   UNL     1     -21.845  -5.286  -6.639  1.00  0.00     0.000 C 
BRANCH  13  14
HETATM   14  C   UNL     1     -21.493  -4.156  -7.598  1.00  0.00     0.002 C 
BRANCH  14  15
HETATM   15  C   UNL     1     -20.094  -4.310  -8.191  1.00  0.00     0.027 C 
BRANCH  15  16
HETATM   16  C   UNL     1     -20.231  -4.384  -9.723  1.00  0.00     0.180 C 
BRANCH  16  17
HETATM   17  O   UNL     1     -21.514  -4.112 -10.143  1.00  0.00    -0.297 OA
BRANCH  17  18
HETATM   18  P   UNL     1     -22.022  -3.835 -11.606  1.00  0.00     0.390 P 
HETATM   19  O   UNL     1     -23.254  -2.949 -11.437  1.00  0.00    -0.632 OA
BRANCH  18  20
HETATM   20  O   UNL     1     -20.774  -2.825 -11.681  1.00  0.00    -0.307 OA
HETATM   21  H   UNL     1     -21.066  -1.915 -11.699  1.00  0.00     0.222 HD
ENDBRANCH  18  20
BRANCH  18  22
HETATM   22  O   UNL     1     -21.859  -3.821 -13.178  1.00  0.00    -0.307 OA
HETATM   23  H   UNL     1     -22.364  -3.012 -13.384  1.00  0.00     0.222 HD
ENDBRANCH  18  22
ENDBRANCH  17  18
ENDBRANCH  16  17
ENDBRANCH  15  16
ENDBRANCH  14  15
ENDBRANCH  13  14
ENDBRANCH   1  13
TORSDOF 18
BEGIN_RES ARG D 557
REMARK  4 active torsions:
REMARK  status: ('A' for Active; 'I' for Inactive)
REMARK    1  A    between atoms: CA   and  CB  
REMARK    2  A    between atoms: CB   and  CG  
REMARK    3  A    between atoms: CG   and  CD  
REMARK    4  A    between atoms: CD   and  NE  
REMARK       I    between atoms: NE   and  CZ  
REMARK       I    between atoms: CZ   and  NH1 
REMARK       I    between atoms: CZ   and  NH2 
ROOT
ATOM      1  CA  ARG D 557     -26.217   2.705 -17.014  1.00 35.49     0.159 C 
ENDROOT
BRANCH   1   2
ATOM      2  CB  ARG D 557     -26.789   1.319 -17.183  1.00 35.49     0.034 C 
BRANCH   2   3
ATOM      3  CG  ARG D 557     -26.007   0.209 -16.625  1.00 35.49     0.027 C 
BRANCH   3   4
ATOM      4  CD  ARG D 557     -26.863  -0.832 -16.012  1.00 35.49     0.116 C 
BRANCH   4   5
ATOM      5  NE  ARG D 557     -26.095  -1.945 -15.519  1.00 35.49    -0.212 N 
ATOM      6  CZ  ARG D 557     -25.026  -1.863 -14.759  1.00 35.49     0.666 C 
ATOM      7  NH1 ARG D 557     -24.520  -0.708 -14.368  1.00 35.49    -0.235 N 
ATOM      8  NH2 ARG D 557     -24.467  -2.979 -14.388  1.00 35.49    -0.235 N 
ATOM      9  HH  ARG D 557     -24.873   0.038 -14.599  1.00 35.49     0.174 HD
ATOM     10  HH  ARG D 557     -23.822  -0.717 -13.871  1.00 35.49     0.174 HD
ATOM     11  HH  ARG D 557     -24.820  -3.710 -14.649  1.00 35.49     0.174 HD
ATOM     12  HH  ARG D 557     -23.778  -2.966 -13.894  1.00 35.49     0.174 HD
ATOM     13  HE  ARG D 557     -26.308  -2.725 -15.783  1.00 35.49     0.178 HD
ENDBRANCH   4   5
ENDBRANCH   3   4
ENDBRANCH   2   3
ENDBRANCH   1   2
END_RES ARG D 557
BEGIN_RES GLU D 570
REMARK  3 active torsions:
REMARK  status: ('A' for Active; 'I' for Inactive)
REMARK    5  A    between atoms: CA   and  CB  
REMARK    6  A    between atoms: CB   and  CG  
REMARK    7  A    between atoms: CG   and  CD  
ROOT
ATOM     14  CA  GLU D 570     -18.033  -6.348 -13.375  1.00 32.92     0.160 C 
ENDROOT
BRANCH  14  15
ATOM     15  CB  GLU D 570     -19.500  -6.345 -13.794  1.00 32.92     0.043 C 
BRANCH  15  16
ATOM     16  CG  GLU D 570     -19.796  -6.317 -15.250  1.00 32.92     0.100 C 
BRANCH  16  17
ATOM     17  CD  GLU D 570     -21.214  -6.727 -15.571  1.00 32.92     0.185 C 
ATOM     18  OE1 GLU D 570     -21.425  -7.449 -16.564  1.00 32.92    -0.647 OA
ATOM     19  OE2 GLU D 570     -22.126  -6.307 -14.831  1.00 32.92    -0.647 OA
ENDBRANCH  16  17
ENDBRANCH  15  16
ENDBRANCH  14  15
END_RES GLU D 570
ENDMDL
MODEL 7
REMARK VINA RESULT:      -6.0      2.115      2.674
REMARK  18 active torsions:
REMARK  status: ('A' for Active; 'I' for Inactive)
REMARK    1  A    between atoms: C_2  and  C_3 
REMARK    2  A    between atoms: C_3  and  C_4 
REMARK    3  A    between atoms: C_4  and  C_5 
REMARK    4  A    between atoms: C_5  and  C_6 
REMARK    5  A    between atoms: C_6  and  C_7 
REMARK    6  A    between atoms: C_7  and  C_8 
REMARK    7  A    between atoms: C_8  and  C_9 
REMARK    8  A    between atoms: C_9  and  C_10 
REMARK    9  A    between atoms: C_10  and  C_11 
REMARK   10  A    between atoms: C_11  and  C_12 
REMARK   11  A    between atoms: C_12  and  C_13 
REMARK   12  A    between atoms: C_13  and  C_14 
REMARK   13  A    between atoms: C_14  and  C_15 
REMARK   14  A    between atoms: C_15  and  C_16 
REMARK   15  A    between atoms: C_16  and  O_17 
REMARK   16  A    between atoms: O_17  and  P_18 
REMARK   17  A    between atoms: P_18  and  O_20 
REMARK   18  A    between atoms: P_18  and  O_21 
ROOT
HETATM    1  C   UNL     1     -21.153  -6.724  -6.337  1.00  0.00     0.000 C 
ENDROOT
BRANCH   1   2
HETATM    2  C   UNL     1     -21.464  -7.794  -5.308  1.00  0.00     0.000 C 
BRANCH   2   3
HETATM    3  C   UNL     1     -21.218  -7.272  -3.903  1.00  0.00     0.000 C 
BRANCH   3   4
HETATM    4  C   UNL     1     -20.427  -8.288  -3.092  1.00  0.00     0.000 C 
BRANCH   4   5
HETATM    5  C   UNL     1     -20.513  -7.968  -1.607  1.00  0.00     0.000 C 
BRANCH   5   6
HETATM    6  C   UNL     1     -21.882  -7.398  -1.270  1.00  0.00     0.000 C 
BRANCH   6   7
HETATM    7  C   UNL     1     -22.192  -7.592   0.211  1.00  0.00     0.000 C 
BRANCH   7   8
HETATM    8  C   UNL     1     -23.317  -8.599   0.392  1.00  0.00     0.000 C 
BRANCH   8   9
HETATM    9  C   UNL     1     -22.847 -10.003   0.026  1.00  0.00     0.000 C 
BRANCH   9  10
HETATM   10  C   UNL     1     -24.038 -10.938  -0.151  1.00  0.00    -0.000 C 
BRANCH  10  11
HETATM   11  C   UNL     1     -23.896 -11.773  -1.419  1.00  0.00    -0.005 C 
HETATM   12  C   UNL     1     -22.972 -11.095  -2.416  1.00  0.00     0.005 C 
ENDBRANCH  10  11
ENDBRANCH   9  10
ENDBRANCH   8   9
ENDBRANCH   7   8
ENDBRANCH   6   7
ENDBRANCH   5   6
ENDBRANCH   4   5
ENDBRANCH   3   4
ENDBRANCH   2   3
ENDBRANCH   1   2
BRANCH   1  13
HETATM   13  C   UNL     1     -20.832  -5.400  -5.648  1.00  0.00     0.000 C 
BRANCH  13  14
HETATM   14  C   UNL     1     -20.516  -4.333  -6.688  1.00  0.00     0.002 C 
BRANCH  14  15
HETATM   15  C   UNL     1     -21.043  -4.695  -8.075  1.00  0.00     0.027 C 
BRANCH  15  16
HETATM   16  C   UNL     1     -22.308  -3.858  -8.338  1.00  0.00     0.180 C 
BRANCH  16  17
HETATM   17  O   UNL     1     -23.211  -4.520  -9.138  1.00  0.00    -0.297 OA
BRANCH  17  18
HETATM   18  P   UNL     1     -24.179  -3.917 -10.223  1.00  0.00     0.390 P 
HETATM   19  O   UNL     1     -24.911  -2.781  -9.514  1.00  0.00    -0.632 OA
BRANCH  18  20
HETATM   20  O   UNL     1     -22.841  -3.258 -10.823  1.00  0.00    -0.307 OA
HETATM   21  H   UNL     1     -22.118  -3.314 -10.200  1.00  0.00     0.222 HD
ENDBRANCH  18  20
BRANCH  18  22
HETATM   22  O   UNL     1     -24.689  -3.722 -11.706  1.00  0.00    -0.307 OA
HETATM   23  H   UNL     1     -24.992  -2.796 -11.650  1.00  0.00     0.222 HD
ENDBRANCH  18  22
ENDBRANCH  17  18
ENDBRANCH  16  17
ENDBRANCH  15  16
ENDBRANCH  14  15
ENDBRANCH  13  14
ENDBRANCH   1  13
TORSDOF 18
BEGIN_RES ARG D 557
REMARK  4 active torsions:
REMARK  status: ('A' for Active; 'I' for Inactive)
REMARK    1  A    between atoms: CA   and  CB  
REMARK    2  A    between atoms: CB   and  CG  
REMARK    3  A    between atoms: CG   and  CD  
REMARK    4  A    between atoms: CD   and  NE  
REMARK       I    between atoms: NE   and  CZ  
REMARK       I    between atoms: CZ   and  NH1 
REMARK       I    between atoms: CZ   and  NH2 
ROOT
ATOM      1  CA  ARG D 557     -26.217   2.705 -17.014  1.00 35.49     0.159 C 
ENDROOT
BRANCH   1   2
ATOM      2  CB  ARG D 557     -26.789   1.319 -17.183  1.00 35.49     0.034 C 
BRANCH   2   3
ATOM      3  CG  ARG D 557     -28.148   1.099 -16.674  1.00 35.49     0.027 C 
BRANCH   3   4
ATOM      4  CD  ARG D 557     -28.790  -0.092 -17.277  1.00 35.49     0.116 C 
BRANCH   4   5
ATOM      5  NE  ARG D 557     -28.176  -1.318 -16.839  1.00 35.49    -0.212 N 
ATOM      6  CZ  ARG D 557     -28.656  -2.527 -17.027  1.00 35.49     0.666 C 
ATOM      7  NH1 ARG D 557     -29.801  -2.747 -17.647  1.00 35.49    -0.235 N 
ATOM      8  NH2 ARG D 557     -27.954  -3.528 -16.580  1.00 35.49    -0.235 N 
ATOM      9  HH  ARG D 557     -30.279  -2.104 -17.950  1.00 35.49     0.174 HD
ATOM     10  HH  ARG D 557     -30.063  -3.558 -17.742  1.00 35.49     0.174 HD
ATOM     11  HH  ARG D 557     -27.215  -3.356 -16.191  1.00 35.49     0.174 HD
ATOM     12  HH  ARG D 557     -28.230  -4.323 -16.686  1.00 35.49     0.174 HD
ATOM     13  HE  ARG D 557     -27.471  -1.266 -16.367  1.00 35.49     0.178 HD
ENDBRANCH   4   5
ENDBRANCH   3   4
ENDBRANCH   2   3
ENDBRANCH   1   2
END_RES ARG D 557
BEGIN_RES GLU D 570
REMARK  3 active torsions:
REMARK  status: ('A' for Active; 'I' for Inactive)
REMARK    5  A    between atoms: CA   and  CB  
REMARK    6  A    between atoms: CB   and  CG  
REMARK    7  A    between atoms: CG   and  CD  
ROOT
ATOM     14  CA  GLU D 570     -18.033  -6.348 -13.375  1.00 32.92     0.160 C 
ENDROOT
BRANCH  14  15
ATOM     15  CB  GLU D 570     -19.500  -6.345 -13.794  1.00 32.92     0.043 C 
BRANCH  15  16
ATOM     16  CG  GLU D 570     -20.416  -5.426 -13.071  1.00 32.92     0.100 C 
BRANCH  16  17
ATOM     17  CD  GLU D 570     -21.712  -5.185 -13.810  1.00 32.92     0.185 C 
ATOM     18  OE1 GLU D 570     -21.672  -4.780 -14.988  1.00 32.92    -0.647 OA
ATOM     19  OE2 GLU D 570     -22.780  -5.386 -13.198  1.00 32.92    -0.647 OA
ENDBRANCH  16  17
ENDBRANCH  15  16
ENDBRANCH  14  15
END_RES GLU D 570
ENDMDL
MODEL 8
REMARK VINA RESULT:      -6.0      2.285      2.893
REMARK  18 active torsions:
REMARK  status: ('A' for Active; 'I' for Inactive)
REMARK    1  A    between atoms: C_2  and  C_3 
REMARK    2  A    between atoms: C_3  and  C_4 
REMARK    3  A    between atoms: C_4  and  C_5 
REMARK    4  A    between atoms: C_5  and  C_6 
REMARK    5  A    between atoms: C_6  and  C_7 
REMARK    6  A    between atoms: C_7  and  C_8 
REMARK    7  A    between atoms: C_8  and  C_9 
REMARK    8  A    between atoms: C_9  and  C_10 
REMARK    9  A    between atoms: C_10  and  C_11 
REMARK   10  A    between atoms: C_11  and  C_12 
REMARK   11  A    between atoms: C_12  and  C_13 
REMARK   12  A    between atoms: C_13  and  C_14 
REMARK   13  A    between atoms: C_14  and  C_15 
REMARK   14  A    between atoms: C_15  and  C_16 
REMARK   15  A    between atoms: C_16  and  O_17 
REMARK   16  A    between atoms: O_17  and  P_18 
REMARK   17  A    between atoms: P_18  and  O_20 
REMARK   18  A    between atoms: P_18  and  O_21 
ROOT
HETATM    1  C   UNL     1     -20.621  -6.997  -5.066  1.00  0.00     0.000 C 
ENDROOT
BRANCH   1   2
HETATM    2  C   UNL     1     -21.869  -6.612  -4.294  1.00  0.00     0.000 C 
BRANCH   2   3
HETATM    3  C   UNL     1     -21.509  -6.151  -2.892  1.00  0.00     0.000 C 
BRANCH   3   4
HETATM    4  C   UNL     1     -21.539  -7.325  -1.924  1.00  0.00     0.000 C 
BRANCH   4   5
HETATM    5  C   UNL     1     -22.383  -6.988  -0.704  1.00  0.00     0.000 C 
BRANCH   5   6
HETATM    6  C   UNL     1     -22.219  -8.061   0.362  1.00  0.00     0.000 C 
BRANCH   6   7
HETATM    7  C   UNL     1     -21.314  -9.181  -0.141  1.00  0.00     0.000 C 
BRANCH   7   8
HETATM    8  C   UNL     1     -20.902 -10.089   1.008  1.00  0.00     0.000 C 
BRANCH   8   9
HETATM    9  C   UNL     1     -21.126 -11.552   0.644  1.00  0.00     0.000 C 
BRANCH   9  10
HETATM   10  C   UNL     1     -22.288 -11.688  -0.336  1.00  0.00    -0.000 C 
BRANCH  10  11
HETATM   11  C   UNL     1     -23.549 -12.170   0.374  1.00  0.00    -0.005 C 
HETATM   12  C   UNL     1     -23.229 -13.283   1.357  1.00  0.00     0.005 C 
ENDBRANCH  10  11
ENDBRANCH   9  10
ENDBRANCH   8   9
ENDBRANCH   7   8
ENDBRANCH   6   7
ENDBRANCH   5   6
ENDBRANCH   4   5
ENDBRANCH   3   4
ENDBRANCH   2   3
ENDBRANCH   1   2
BRANCH   1  13
HETATM   13  C   UNL     1     -20.534  -6.204  -6.367  1.00  0.00     0.000 C 
BRANCH  13  14
HETATM   14  C   UNL     1     -20.287  -4.731  -6.067  1.00  0.00     0.002 C 
BRANCH  14  15
HETATM   15  C   UNL     1     -20.746  -3.819  -7.202  1.00  0.00     0.027 C 
BRANCH  15  16
HETATM   16  C   UNL     1     -22.211  -4.160  -7.526  1.00  0.00     0.180 C 
BRANCH  16  17
HETATM   17  O   UNL     1     -22.388  -4.483  -8.853  1.00  0.00    -0.297 OA
BRANCH  17  18
HETATM   18  P   UNL     1     -23.531  -4.013  -9.827  1.00  0.00     0.390 P 
HETATM   19  O   UNL     1     -23.995  -5.283 -10.536  1.00  0.00    -0.632 OA
BRANCH  18  20
HETATM   20  O   UNL     1     -24.418  -3.920  -8.489  1.00  0.00    -0.307 OA
HETATM   21  H   UNL     1     -24.735  -4.781  -8.224  1.00  0.00     0.222 HD
ENDBRANCH  18  20
BRANCH  18  22
HETATM   22  O   UNL     1     -24.596  -2.972 -10.355  1.00  0.00    -0.307 OA
HETATM   23  H   UNL     1     -24.327  -2.930 -11.292  1.00  0.00     0.222 HD
ENDBRANCH  18  22
ENDBRANCH  17  18
ENDBRANCH  16  17
ENDBRANCH  15  16
ENDBRANCH  14  15
ENDBRANCH  13  14
ENDBRANCH   1  13
TORSDOF 18
BEGIN_RES ARG D 557
REMARK  4 active torsions:
REMARK  status: ('A' for Active; 'I' for Inactive)
REMARK    1  A    between atoms: CA   and  CB  
REMARK    2  A    between atoms: CB   and  CG  
REMARK    3  A    between atoms: CG   and  CD  
REMARK    4  A    between atoms: CD   and  NE  
REMARK       I    between atoms: NE   and  CZ  
REMARK       I    between atoms: CZ   and  NH1 
REMARK       I    between atoms: CZ   and  NH2 
ROOT
ATOM      1  CA  ARG D 557     -26.217   2.705 -17.014  1.00 35.49     0.159 C 
ENDROOT
BRANCH   1   2
ATOM      2  CB  ARG D 557     -26.789   1.319 -17.183  1.00 35.49     0.034 C 
BRANCH   2   3
ATOM      3  CG  ARG D 557     -28.150   1.100 -16.677  1.00 35.49     0.027 C 
BRANCH   3   4
ATOM      4  CD  ARG D 557     -28.788  -0.095 -17.275  1.00 35.49     0.116 C 
BRANCH   4   5
ATOM      5  NE  ARG D 557     -28.167  -1.318 -16.838  1.00 35.49    -0.212 N 
ATOM      6  CZ  ARG D 557     -28.643  -2.529 -17.020  1.00 35.49     0.666 C 
ATOM      7  NH1 ARG D 557     -29.790  -2.755 -17.634  1.00 35.49    -0.235 N 
ATOM      8  NH2 ARG D 557     -27.935  -3.526 -16.575  1.00 35.49    -0.235 N 
ATOM      9  HH  ARG D 557     -30.271  -2.115 -17.937  1.00 35.49     0.174 HD
ATOM     10  HH  ARG D 557     -30.049  -3.567 -17.726  1.00 35.49     0.174 HD
ATOM     11  HH  ARG D 557     -27.195  -3.350 -16.189  1.00 35.49     0.174 HD
ATOM     12  HH  ARG D 557     -28.208  -4.322 -16.677  1.00 35.49     0.174 HD
ATOM     13  HE  ARG D 557     -27.460  -1.261 -16.369  1.00 35.49     0.178 HD
ENDBRANCH   4   5
ENDBRANCH   3   4
ENDBRANCH   2   3
ENDBRANCH   1   2
END_RES ARG D 557
BEGIN_RES GLU D 570
REMARK  3 active torsions:
REMARK  status: ('A' for Active; 'I' for Inactive)
REMARK    5  A    between atoms: CA   and  CB  
REMARK    6  A    between atoms: CB   and  CG  
REMARK    7  A    between atoms: CG   and  CD  
ROOT
ATOM     14  CA  GLU D 570     -18.033  -6.348 -13.375  1.00 32.92     0.160 C 
ENDROOT
BRANCH  14  15
ATOM     15  CB  GLU D 570     -19.500  -6.345 -13.794  1.00 32.92     0.043 C 
BRANCH  15  16
ATOM     16  CG  GLU D 570     -19.796  -6.285 -15.249  1.00 32.92     0.100 C 
BRANCH  16  17
ATOM     17  CD  GLU D 570     -21.023  -5.463 -15.567  1.00 32.92     0.185 C 
ATOM     18  OE1 GLU D 570     -21.751  -5.076 -14.633  1.00 32.92    -0.647 OA
ATOM     19  OE2 GLU D 570     -21.268  -5.217 -16.765  1.00 32.92    -0.647 OA
ENDBRANCH  16  17
ENDBRANCH  15  16
ENDBRANCH  14  15
END_RES GLU D 570
ENDMDL
MODEL 9
REMARK VINA RESULT:      -5.7      3.154      4.502
REMARK  18 active torsions:
REMARK  status: ('A' for Active; 'I' for Inactive)
REMARK    1  A    between atoms: C_2  and  C_3 
REMARK    2  A    between atoms: C_3  and  C_4 
REMARK    3  A    between atoms: C_4  and  C_5 
REMARK    4  A    between atoms: C_5  and  C_6 
REMARK    5  A    between atoms: C_6  and  C_7 
REMARK    6  A    between atoms: C_7  and  C_8 
REMARK    7  A    between atoms: C_8  and  C_9 
REMARK    8  A    between atoms: C_9  and  C_10 
REMARK    9  A    between atoms: C_10  and  C_11 
REMARK   10  A    between atoms: C_11  and  C_12 
REMARK   11  A    between atoms: C_12  and  C_13 
REMARK   12  A    between atoms: C_13  and  C_14 
REMARK   13  A    between atoms: C_14  and  C_15 
REMARK   14  A    between atoms: C_15  and  C_16 
REMARK   15  A    between atoms: C_16  and  O_17 
REMARK   16  A    between atoms: O_17  and  P_18 
REMARK   17  A    between atoms: P_18  and  O_20 
REMARK   18  A    between atoms: P_18  and  O_21 
ROOT
HETATM    1  C   UNL     1     -20.892  -4.177  -9.122  1.00  0.00     0.000 C 
ENDROOT
BRANCH   1   2
HETATM    2  C   UNL     1     -20.054  -4.105  -7.859  1.00  0.00     0.000 C 
BRANCH   2   3
HETATM    3  C   UNL     1     -20.146  -5.407  -7.082  1.00  0.00     0.000 C 
BRANCH   3   4
HETATM    4  C   UNL     1     -20.477  -5.129  -5.622  1.00  0.00     0.000 C 
BRANCH   4   5
HETATM    5  C   UNL     1     -21.336  -6.246  -5.049  1.00  0.00     0.000 C 
BRANCH   5   6
HETATM    6  C   UNL     1     -21.425  -6.117  -3.536  1.00  0.00     0.000 C 
BRANCH   6   7
HETATM    7  C   UNL     1     -20.833  -7.349  -2.858  1.00  0.00     0.000 C 
BRANCH   7   8
HETATM    8  C   UNL     1     -20.322  -8.335  -3.898  1.00  0.00     0.000 C 
BRANCH   8   9
HETATM    9  C   UNL     1     -19.219  -9.209  -3.314  1.00  0.00     0.000 C 
BRANCH   9  10
HETATM   10  C   UNL     1     -18.161  -9.514  -4.369  1.00  0.00    -0.000 C 
BRANCH  10  11
HETATM   11  C   UNL     1     -17.006 -10.311  -3.773  1.00  0.00    -0.005 C 
HETATM   12  C   UNL     1     -16.161  -9.443  -2.856  1.00  0.00     0.005 C 
ENDBRANCH  10  11
ENDBRANCH   9  10
ENDBRANCH   8   9
ENDBRANCH   7   8
ENDBRANCH   6   7
ENDBRANCH   5   6
ENDBRANCH   4   5
ENDBRANCH   3   4
ENDBRANCH   2   3
ENDBRANCH   1   2
BRANCH   1  13
HETATM   13  C   UNL     1     -22.350  -4.466  -8.777  1.00  0.00     0.000 C 
BRANCH  13  14
HETATM   14  C   UNL     1     -23.146  -4.729 -10.049  1.00  0.00     0.002 C 
BRANCH  14  15
HETATM   15  C   UNL     1     -24.039  -3.550 -10.432  1.00  0.00     0.027 C 
BRANCH  15  16
HETATM   16  C   UNL     1     -23.689  -3.136 -11.873  1.00  0.00     0.180 C 
BRANCH  16  17
HETATM   17  O   UNL     1     -23.167  -4.181 -12.602  1.00  0.00    -0.297 OA
BRANCH  17  18
HETATM   18  P   UNL     1     -22.833  -4.227 -14.139  1.00  0.00     0.390 P 
HETATM   19  O   UNL     1     -24.130  -4.666 -14.813  1.00  0.00    -0.632 OA
BRANCH  18  20
HETATM   20  O   UNL     1     -22.918  -2.624 -14.046  1.00  0.00    -0.307 OA
HETATM   21  H   UNL     1     -23.645  -2.286 -14.566  1.00  0.00     0.222 HD
ENDBRANCH  18  20
BRANCH  18  22
HETATM   22  O   UNL     1     -21.939  -3.898 -15.399  1.00  0.00    -0.307 OA
HETATM   23  H   UNL     1     -22.514  -4.255 -16.101  1.00  0.00     0.222 HD
ENDBRANCH  18  22
ENDBRANCH  17  18
ENDBRANCH  16  17
ENDBRANCH  15  16
ENDBRANCH  14  15
ENDBRANCH  13  14
ENDBRANCH   1  13
TORSDOF 18
BEGIN_RES ARG D 557
REMARK  4 active torsions:
REMARK  status: ('A' for Active; 'I' for Inactive)
REMARK    1  A    between atoms: CA   and  CB  
REMARK    2  A    between atoms: CB   and  CG  
REMARK    3  A    between atoms: CG   and  CD  
REMARK    4  A    between atoms: CD   and  NE  
REMARK       I    between atoms: NE   and  CZ  
REMARK       I    between atoms: CZ   and  NH1 
REMARK       I    between atoms: CZ   and  NH2 
ROOT
ATOM      1  CA  ARG D 557     -26.217   2.705 -17.014  1.00 35.49     0.159 C 
ENDROOT
BRANCH   1   2
ATOM      2  CB  ARG D 557     -26.789   1.319 -17.183  1.00 35.49     0.034 C 
BRANCH   2   3
ATOM      3  CG  ARG D 557     -28.231   1.226 -17.439  1.00 35.49     0.027 C 
BRANCH   3   4
ATOM      4  CD  ARG D 557     -28.914   0.310 -16.497  1.00 35.49     0.116 C 
BRANCH   4   5
ATOM      5  NE  ARG D 557     -29.320  -0.916 -17.131  1.00 35.49    -0.212 N 
ATOM      6  CZ  ARG D 557     -28.697  -2.070 -17.042  1.00 35.49     0.666 C 
ATOM      7  NH1 ARG D 557     -27.586  -2.224 -16.347  1.00 35.49    -0.235 N 
ATOM      8  NH2 ARG D 557     -29.221  -3.084 -17.667  1.00 35.49    -0.235 N 
ATOM      9  HH  ARG D 557     -27.225  -1.570 -15.926  1.00 35.49     0.174 HD
ATOM     10  HH  ARG D 557     -27.225  -3.001 -16.323  1.00 35.49     0.174 HD
ATOM     11  HH  ARG D 557     -29.943  -2.957 -18.102  1.00 35.49     0.174 HD
ATOM     12  HH  ARG D 557     -28.850  -3.846 -17.630  1.00 35.49     0.174 HD
ATOM     13  HE  ARG D 557     -29.987  -0.891 -17.658  1.00 35.49     0.178 HD
ENDBRANCH   4   5
ENDBRANCH   3   4
ENDBRANCH   2   3
ENDBRANCH   1   2
END_RES ARG D 557
BEGIN_RES GLU D 570
REMARK  3 active torsions:
REMARK  status: ('A' for Active; 'I' for Inactive)
REMARK    5  A    between atoms: CA   and  CB  
REMARK    6  A    between atoms: CB   and  CG  
REMARK    7  A    between atoms: CG   and  CD  
ROOT
ATOM     14  CA  GLU D 570     -18.033  -6.348 -13.375  1.00 32.92     0.160 C 
ENDROOT
BRANCH  14  15
ATOM     15  CB  GLU D 570     -19.500  -6.345 -13.794  1.00 32.92     0.043 C 
BRANCH  15  16
ATOM     16  CG  GLU D 570     -20.046  -7.594 -14.385  1.00 32.92     0.100 C 
BRANCH  16  17
ATOM     17  CD  GLU D 570     -20.787  -7.358 -15.680  1.00 32.92     0.185 C 
ATOM     18  OE1 GLU D 570     -20.544  -6.328 -16.338  1.00 32.92    -0.647 OA
ATOM     19  OE2 GLU D 570     -21.632  -8.205 -16.032  1.00 32.92    -0.647 OA
ENDBRANCH  16  17
ENDBRANCH  15  16
ENDBRANCH  14  15
END_RES GLU D 570
ENDMDL
