MODEL 1
REMARK VINA RESULT:      -5.0      0.000      0.000
REMARK  9 active torsions:
REMARK  status: ('A' for Active; 'I' for Inactive)
REMARK    1  A    between atoms: C_1  and  C_2 
REMARK    2  A    between atoms: C_1  and  N_4 
REMARK    3  A    between atoms: C_2  and  O_3 
REMARK    4  A    between atoms: N_4  and  C_5 
REMARK    5  A    between atoms: N_4  and  C_8 
REMARK    6  A    between atoms: C_5  and  C_6 
REMARK    7  A    between atoms: C_6  and  O_7 
REMARK    8  A    between atoms: C_8  and  C_9 
REMARK    9  A    between atoms: C_9  and  O_10 
ROOT
HETATM    1  N   UNL     1     -23.780  -2.815 -11.883  1.00  0.00     0.094 N 
ENDROOT
BRANCH   1   2
HETATM    2  C   UNL     1     -24.598  -3.007 -13.118  1.00  0.00     0.298 C 
BRANCH   2   3
HETATM    3  C   UNL     1     -24.206  -2.136 -14.324  1.00  0.00     0.194 C 
BRANCH   3   4
HETATM    4  O   UNL     1     -25.167  -1.111 -14.545  1.00  0.00    -0.399 OA
HETATM    5  H   UNL     1     -25.287  -1.069 -15.516  1.00  0.00     0.209 HD
ENDBRANCH   3   4
ENDBRANCH   2   3
ENDBRANCH   1   2
BRANCH   1   6
HETATM    6  C   UNL     1     -24.066  -3.923 -10.923  1.00  0.00     0.298 C 
BRANCH   6   7
HETATM    7  C   UNL     1     -24.670  -3.508  -9.567  1.00  0.00     0.194 C 
BRANCH   7   8
HETATM    8  O   UNL     1     -26.050  -3.200  -9.699  1.00  0.00    -0.399 OA
HETATM    9  H   UNL     1     -26.526  -3.881  -9.183  1.00  0.00     0.209 HD
ENDBRANCH   7   8
ENDBRANCH   6   7
ENDBRANCH   1   6
BRANCH   1  10
HETATM   10  C   UNL     1     -22.330  -2.818 -12.240  1.00  0.00     0.298 C 
BRANCH  10  11
HETATM   11  C   UNL     1     -21.458  -3.841 -11.488  1.00  0.00     0.194 C 
BRANCH  11  12
HETATM   12  O   UNL     1     -20.085  -3.676 -11.821  1.00  0.00    -0.399 OA
HETATM   13  H   UNL     1     -19.775  -4.556 -12.115  1.00  0.00     0.209 HD
ENDBRANCH  11  12
ENDBRANCH  10  11
ENDBRANCH   1  10
TORSDOF 9
BEGIN_RES ARG D 557
REMARK  4 active torsions:
REMARK  status: ('A' for Active; 'I' for Inactive)
REMARK    1  A    between atoms: CA   and  CB  
REMARK    2  A    between atoms: CB   and  CG  
REMARK    3  A    between atoms: CG   and  CD  
REMARK    4  A    between atoms: CD   and  NE  
REMARK       I    between atoms: NE   and  CZ  
REMARK       I    between atoms: CZ   and  NH1 
REMARK       I    between atoms: CZ   and  NH2 
ROOT
ATOM      1  CA  ARG D 557     -26.217   2.705 -17.014  1.00 35.49     0.159 C 
ENDROOT
BRANCH   1   2
ATOM      2  CB  ARG D 557     -26.789   1.319 -17.183  1.00 35.49     0.034 C 
BRANCH   2   3
ATOM      3  CG  ARG D 557     -28.228   1.227 -17.456  1.00 35.49     0.027 C 
BRANCH   3   4
ATOM      4  CD  ARG D 557     -28.922   0.307 -16.526  1.00 35.49     0.116 C 
BRANCH   4   5
ATOM      5  NE  ARG D 557     -29.253  -0.947 -17.150  1.00 35.49    -0.212 N 
ATOM      6  CZ  ARG D 557     -28.593  -2.075 -17.006  1.00 35.49     0.666 C 
ATOM      7  NH1 ARG D 557     -27.510  -2.172 -16.257  1.00 35.49    -0.235 N 
ATOM      8  NH2 ARG D 557     -29.049  -3.121 -17.631  1.00 35.49    -0.235 N 
ATOM      9  HH  ARG D 557     -27.193  -1.496 -15.835  1.00 35.49     0.174 HD
ATOM     10  HH  ARG D 557     -27.122  -2.934 -16.199  1.00 35.49     0.174 HD
ATOM     11  HH  ARG D 557     -29.754  -3.030 -18.101  1.00 35.49     0.174 HD
ATOM     12  HH  ARG D 557     -28.652  -3.867 -17.559  1.00 35.49     0.174 HD
ATOM     13  HE  ARG D 557     -29.895  -0.959 -17.708  1.00 35.49     0.178 HD
ENDBRANCH   4   5
ENDBRANCH   3   4
ENDBRANCH   2   3
ENDBRANCH   1   2
END_RES ARG D 557
BEGIN_RES GLU D 570
REMARK  3 active torsions:
REMARK  status: ('A' for Active; 'I' for Inactive)
REMARK    5  A    between atoms: CA   and  CB  
REMARK    6  A    between atoms: CB   and  CG  
REMARK    7  A    between atoms: CG   and  CD  
ROOT
ATOM     14  CA  GLU D 570     -18.033  -6.348 -13.375  1.00 32.92     0.160 C 
ENDROOT
BRANCH  14  15
ATOM     15  CB  GLU D 570     -19.500  -6.345 -13.794  1.00 32.92     0.043 C 
BRANCH  15  16
ATOM     16  CG  GLU D 570     -19.819  -5.878 -15.168  1.00 32.92     0.100 C 
BRANCH  16  17
ATOM     17  CD  GLU D 570     -21.248  -5.411 -15.315  1.00 32.92     0.185 C 
ATOM     18  OE1 GLU D 570     -21.569  -4.752 -16.323  1.00 32.92    -0.647 OA
ATOM     19  OE2 GLU D 570     -22.052  -5.694 -14.405  1.00 32.92    -0.647 OA
ENDBRANCH  16  17
ENDBRANCH  15  16
ENDBRANCH  14  15
END_RES GLU D 570
ENDMDL
MODEL 2
REMARK VINA RESULT:      -5.0      0.553      3.182
REMARK  9 active torsions:
REMARK  status: ('A' for Active; 'I' for Inactive)
REMARK    1  A    between atoms: C_1  and  C_2 
REMARK    2  A    between atoms: C_1  and  N_4 
REMARK    3  A    between atoms: C_2  and  O_3 
REMARK    4  A    between atoms: N_4  and  C_5 
REMARK    5  A    between atoms: N_4  and  C_8 
REMARK    6  A    between atoms: C_5  and  C_6 
REMARK    7  A    between atoms: C_6  and  O_7 
REMARK    8  A    between atoms: C_8  and  C_9 
REMARK    9  A    between atoms: C_9  and  O_10 
ROOT
HETATM    1  N   UNL     1     -23.854  -2.856 -11.871  1.00  0.00     0.094 N 
ENDROOT
BRANCH   1   2
HETATM    2  C   UNL     1     -23.936  -4.133 -11.100  1.00  0.00     0.298 C 
BRANCH   2   3
HETATM    3  C   UNL     1     -24.610  -4.041  -9.720  1.00  0.00     0.194 C 
BRANCH   3   4
HETATM    4  O   UNL     1     -25.748  -3.188  -9.765  1.00  0.00    -0.399 OA
HETATM    5  H   UNL     1     -26.442  -3.701 -10.227  1.00  0.00     0.209 HD
ENDBRANCH   3   4
ENDBRANCH   2   3
ENDBRANCH   1   2
BRANCH   1   6
HETATM    6  C   UNL     1     -22.421  -2.519 -12.121  1.00  0.00     0.298 C 
BRANCH   6   7
HETATM    7  C   UNL     1     -21.391  -3.213 -11.207  1.00  0.00     0.194 C 
BRANCH   7   8
HETATM    8  O   UNL     1     -20.336  -3.781 -11.969  1.00  0.00    -0.399 OA
HETATM    9  H   UNL     1     -20.756  -4.157 -12.768  1.00  0.00     0.209 HD
ENDBRANCH   7   8
ENDBRANCH   6   7
ENDBRANCH   1   6
BRANCH   1  10
HETATM   10  C   UNL     1     -24.570  -3.011 -13.172  1.00  0.00     0.298 C 
BRANCH  10  11
HETATM   11  C   UNL     1     -24.150  -2.037 -14.288  1.00  0.00     0.194 C 
BRANCH  11  12
HETATM   12  O   UNL     1     -25.191  -1.110 -14.569  1.00  0.00    -0.399 OA
HETATM   13  H   UNL     1     -24.980  -0.731 -15.446  1.00  0.00     0.209 HD
ENDBRANCH  11  12
ENDBRANCH  10  11
ENDBRANCH   1  10
TORSDOF 9
BEGIN_RES ARG D 557
REMARK  4 active torsions:
REMARK  status: ('A' for Active; 'I' for Inactive)
REMARK    1  A    between atoms: CA   and  CB  
REMARK    2  A    between atoms: CB   and  CG  
REMARK    3  A    between atoms: CG   and  CD  
REMARK    4  A    between atoms: CD   and  NE  
REMARK       I    between atoms: NE   and  CZ  
REMARK       I    between atoms: CZ   and  NH1 
REMARK       I    between atoms: CZ   and  NH2 
ROOT
ATOM      1  CA  ARG D 557     -26.217   2.705 -17.014  1.00 35.49     0.159 C 
ENDROOT
BRANCH   1   2
ATOM      2  CB  ARG D 557     -26.789   1.319 -17.183  1.00 35.49     0.034 C 
BRANCH   2   3
ATOM      3  CG  ARG D 557     -28.237   1.224 -17.403  1.00 35.49     0.027 C 
BRANCH   3   4
ATOM      4  CD  ARG D 557     -28.879   0.229 -16.513  1.00 35.49     0.116 C 
BRANCH   4   5
ATOM      5  NE  ARG D 557     -27.975  -0.826 -16.139  1.00 35.49    -0.212 N 
ATOM      6  CZ  ARG D 557     -28.041  -2.075 -16.544  1.00 35.49     0.666 C 
ATOM      7  NH1 ARG D 557     -28.988  -2.507 -17.356  1.00 35.49    -0.235 N 
ATOM      8  NH2 ARG D 557     -27.123  -2.893 -16.120  1.00 35.49    -0.235 N 
ATOM      9  HH  ARG D 557     -29.601  -1.985 -17.649  1.00 35.49     0.174 HD
ATOM     10  HH  ARG D 557     -28.979  -3.332 -17.589  1.00 35.49     0.174 HD
ATOM     11  HH  ARG D 557     -26.519  -2.584 -15.602  1.00 35.49     0.174 HD
ATOM     12  HH  ARG D 557     -27.130  -3.705 -16.363  1.00 35.49     0.174 HD
ATOM     13  HE  ARG D 557     -27.376  -0.652 -15.560  1.00 35.49     0.178 HD
ENDBRANCH   4   5
ENDBRANCH   3   4
ENDBRANCH   2   3
ENDBRANCH   1   2
END_RES ARG D 557
BEGIN_RES GLU D 570
REMARK  3 active torsions:
REMARK  status: ('A' for Active; 'I' for Inactive)
REMARK    5  A    between atoms: CA   and  CB  
REMARK    6  A    between atoms: CB   and  CG  
REMARK    7  A    between atoms: CG   and  CD  
ROOT
ATOM     14  CA  GLU D 570     -18.033  -6.348 -13.375  1.00 32.92     0.160 C 
ENDROOT
BRANCH  14  15
ATOM     15  CB  GLU D 570     -19.500  -6.345 -13.794  1.00 32.92     0.043 C 
BRANCH  15  16
ATOM     16  CG  GLU D 570     -19.808  -6.005 -15.207  1.00 32.92     0.100 C 
BRANCH  16  17
ATOM     17  CD  GLU D 570     -21.141  -5.314 -15.370  1.00 32.92     0.185 C 
ATOM     18  OE1 GLU D 570     -21.804  -5.029 -14.354  1.00 32.92    -0.647 OA
ATOM     19  OE2 GLU D 570     -21.535  -5.069 -16.527  1.00 32.92    -0.647 OA
ENDBRANCH  16  17
ENDBRANCH  15  16
ENDBRANCH  14  15
END_RES GLU D 570
ENDMDL
MODEL 3
REMARK VINA RESULT:      -5.0      1.165      3.295
REMARK  9 active torsions:
REMARK  status: ('A' for Active; 'I' for Inactive)
REMARK    1  A    between atoms: C_1  and  C_2 
REMARK    2  A    between atoms: C_1  and  N_4 
REMARK    3  A    between atoms: C_2  and  O_3 
REMARK    4  A    between atoms: N_4  and  C_5 
REMARK    5  A    between atoms: N_4  and  C_8 
REMARK    6  A    between atoms: C_5  and  C_6 
REMARK    7  A    between atoms: C_6  and  O_7 
REMARK    8  A    between atoms: C_8  and  C_9 
REMARK    9  A    between atoms: C_9  and  O_10 
ROOT
HETATM    1  N   UNL     1     -23.745  -2.753 -12.050  1.00  0.00     0.094 N 
ENDROOT
BRANCH   1   2
HETATM    2  C   UNL     1     -22.332  -2.951 -12.489  1.00  0.00     0.298 C 
BRANCH   2   3
HETATM    3  C   UNL     1     -21.525  -3.997 -11.702  1.00  0.00     0.194 C 
BRANCH   3   4
HETATM    4  O   UNL     1     -20.131  -3.716 -11.762  1.00  0.00    -0.399 OA
HETATM    5  H   UNL     1     -19.953  -3.471 -12.692  1.00  0.00     0.209 HD
ENDBRANCH   3   4
ENDBRANCH   2   3
ENDBRANCH   1   2
BRANCH   1   6
HETATM    6  C   UNL     1     -24.646  -2.798 -13.241  1.00  0.00     0.298 C 
BRANCH   6   7
HETATM    7  C   UNL     1     -24.206  -1.959 -14.456  1.00  0.00     0.194 C 
BRANCH   7   8
HETATM    8  O   UNL     1     -24.971  -0.766 -14.554  1.00  0.00    -0.399 OA
HETATM    9  H   UNL     1     -24.324  -0.042 -14.670  1.00  0.00     0.209 HD
ENDBRANCH   7   8
ENDBRANCH   6   7
ENDBRANCH   1   6
BRANCH   1  10
HETATM   10  C   UNL     1     -24.125  -3.832 -11.089  1.00  0.00     0.298 C 
BRANCH  10  11
HETATM   11  C   UNL     1     -24.626  -3.357  -9.712  1.00  0.00     0.194 C 
BRANCH  11  12
HETATM   12  O   UNL     1     -26.043  -3.244  -9.701  1.00  0.00    -0.399 OA
HETATM   13  H   UNL     1     -26.355  -3.726 -10.493  1.00  0.00     0.209 HD
ENDBRANCH  11  12
ENDBRANCH  10  11
ENDBRANCH   1  10
TORSDOF 9
BEGIN_RES ARG D 557
REMARK  4 active torsions:
REMARK  status: ('A' for Active; 'I' for Inactive)
REMARK    1  A    between atoms: CA   and  CB  
REMARK    2  A    between atoms: CB   and  CG  
REMARK    3  A    between atoms: CG   and  CD  
REMARK    4  A    between atoms: CD   and  NE  
REMARK       I    between atoms: NE   and  CZ  
REMARK       I    between atoms: CZ   and  NH1 
REMARK       I    between atoms: CZ   and  NH2 
ROOT
ATOM      1  CA  ARG D 557     -26.217   2.705 -17.014  1.00 35.49     0.159 C 
ENDROOT
BRANCH   1   2
ATOM      2  CB  ARG D 557     -26.789   1.319 -17.183  1.00 35.49     0.034 C 
BRANCH   2   3
ATOM      3  CG  ARG D 557     -28.228   1.227 -17.460  1.00 35.49     0.027 C 
BRANCH   3   4
ATOM      4  CD  ARG D 557     -28.926   0.318 -16.524  1.00 35.49     0.116 C 
BRANCH   4   5
ATOM      5  NE  ARG D 557     -29.228  -0.954 -17.126  1.00 35.49    -0.212 N 
ATOM      6  CZ  ARG D 557     -28.536  -2.061 -16.971  1.00 35.49     0.666 C 
ATOM      7  NH1 ARG D 557     -27.444  -2.117 -16.231  1.00 35.49    -0.235 N 
ATOM      8  NH2 ARG D 557     -28.968  -3.129 -17.577  1.00 35.49    -0.235 N 
ATOM      9  HH  ARG D 557     -27.143  -1.427 -15.822  1.00 35.49     0.174 HD
ATOM     10  HH  ARG D 557     -27.036  -2.867 -16.165  1.00 35.49     0.174 HD
ATOM     11  HH  ARG D 557     -29.680  -3.064 -18.042  1.00 35.49     0.174 HD
ATOM     12  HH  ARG D 557     -28.551  -3.862 -17.498  1.00 35.49     0.174 HD
ATOM     13  HE  ARG D 557     -29.874  -0.991 -17.678  1.00 35.49     0.178 HD
ENDBRANCH   4   5
ENDBRANCH   3   4
ENDBRANCH   2   3
ENDBRANCH   1   2
END_RES ARG D 557
BEGIN_RES GLU D 570
REMARK  3 active torsions:
REMARK  status: ('A' for Active; 'I' for Inactive)
REMARK    5  A    between atoms: CA   and  CB  
REMARK    6  A    between atoms: CB   and  CG  
REMARK    7  A    between atoms: CG   and  CD  
ROOT
ATOM     14  CA  GLU D 570     -18.033  -6.348 -13.375  1.00 32.92     0.160 C 
ENDROOT
BRANCH  14  15
ATOM     15  CB  GLU D 570     -19.500  -6.345 -13.794  1.00 32.92     0.043 C 
BRANCH  15  16
ATOM     16  CG  GLU D 570     -20.114  -7.652 -14.145  1.00 32.92     0.100 C 
BRANCH  16  17
ATOM     17  CD  GLU D 570     -20.685  -7.678 -15.543  1.00 32.92     0.185 C 
ATOM     18  OE1 GLU D 570     -20.665  -8.746 -16.185  1.00 32.92    -0.647 OA
ATOM     19  OE2 GLU D 570     -21.142  -6.615 -16.009  1.00 32.92    -0.647 OA
ENDBRANCH  16  17
ENDBRANCH  15  16
ENDBRANCH  14  15
END_RES GLU D 570
ENDMDL
MODEL 4
REMARK VINA RESULT:      -4.9      4.173      7.254
REMARK  9 active torsions:
REMARK  status: ('A' for Active; 'I' for Inactive)
REMARK    1  A    between atoms: C_1  and  C_2 
REMARK    2  A    between atoms: C_1  and  N_4 
REMARK    3  A    between atoms: C_2  and  O_3 
REMARK    4  A    between atoms: N_4  and  C_5 
REMARK    5  A    between atoms: N_4  and  C_8 
REMARK    6  A    between atoms: C_5  and  C_6 
REMARK    7  A    between atoms: C_6  and  O_7 
REMARK    8  A    between atoms: C_8  and  C_9 
REMARK    9  A    between atoms: C_9  and  O_10 
ROOT
HETATM    1  N   UNL     1     -28.692  -5.940 -18.132  1.00  0.00     0.094 N 
ENDROOT
BRANCH   1   2
HETATM    2  C   UNL     1     -27.549  -5.958 -17.169  1.00  0.00     0.298 C 
BRANCH   2   3
HETATM    3  C   UNL     1     -27.744  -6.827 -15.915  1.00  0.00     0.194 C 
BRANCH   3   4
HETATM    4  O   UNL     1     -26.530  -7.471 -15.548  1.00  0.00    -0.399 OA
HETATM    5  H   UNL     1     -26.141  -6.916 -14.843  1.00  0.00     0.209 HD
ENDBRANCH   3   4
ENDBRANCH   2   3
ENDBRANCH   1   2
BRANCH   1   6
HETATM    6  C   UNL     1     -29.810  -6.768 -17.590  1.00  0.00     0.298 C 
BRANCH   6   7
HETATM    7  C   UNL     1     -30.463  -7.756 -18.576  1.00  0.00     0.194 C 
BRANCH   7   8
HETATM    8  O   UNL     1     -29.522  -8.718 -19.029  1.00  0.00    -0.399 OA
HETATM    9  H   UNL     1     -29.238  -8.418 -19.915  1.00  0.00     0.209 HD
ENDBRANCH   7   8
ENDBRANCH   6   7
ENDBRANCH   1   6
BRANCH   1  10
HETATM   10  C   UNL     1     -29.155  -4.534 -18.329  1.00  0.00     0.298 C 
BRANCH  10  11
HETATM   11  C   UNL     1     -30.418  -4.129 -17.546  1.00  0.00     0.194 C 
BRANCH  11  12
HETATM   12  O   UNL     1     -31.086  -3.049 -18.188  1.00  0.00    -0.399 OA
HETATM   13  H   UNL     1     -31.950  -2.966 -17.737  1.00  0.00     0.209 HD
ENDBRANCH  11  12
ENDBRANCH  10  11
ENDBRANCH   1  10
TORSDOF 9
BEGIN_RES ARG D 557
REMARK  4 active torsions:
REMARK  status: ('A' for Active; 'I' for Inactive)
REMARK    1  A    between atoms: CA   and  CB  
REMARK    2  A    between atoms: CB   and  CG  
REMARK    3  A    between atoms: CG   and  CD  
REMARK    4  A    between atoms: CD   and  NE  
REMARK       I    between atoms: NE   and  CZ  
REMARK       I    between atoms: CZ   and  NH1 
REMARK       I    between atoms: CZ   and  NH2 
ROOT
ATOM      1  CA  ARG D 557     -26.217   2.705 -17.014  1.00 35.49     0.159 C 
ENDROOT
BRANCH   1   2
ATOM      2  CB  ARG D 557     -26.789   1.319 -17.183  1.00 35.49     0.034 C 
BRANCH   2   3
ATOM      3  CG  ARG D 557     -25.835   0.204 -17.166  1.00 35.49     0.027 C 
BRANCH   3   4
ATOM      4  CD  ARG D 557     -24.750   0.405 -16.178  1.00 35.49     0.116 C 
BRANCH   4   5
ATOM      5  NE  ARG D 557     -24.903  -0.442 -15.024  1.00 35.49    -0.212 N 
ATOM      6  CZ  ARG D 557     -24.091  -1.412 -14.670  1.00 35.49     0.666 C 
ATOM      7  NH1 ARG D 557     -23.019  -1.731 -15.371  1.00 35.49    -0.235 N 
ATOM      8  NH2 ARG D 557     -24.374  -2.064 -13.579  1.00 35.49    -0.235 N 
ATOM      9  HH  ARG D 557     -22.812  -1.314 -16.090  1.00 35.49     0.174 HD
ATOM     10  HH  ARG D 557     -22.525  -2.372 -15.089  1.00 35.49     0.174 HD
ATOM     11  HH  ARG D 557     -25.069  -1.831 -13.143  1.00 35.49     0.174 HD
ATOM     12  HH  ARG D 557     -23.872  -2.694 -13.317  1.00 35.49     0.174 HD
ATOM     13  HE  ARG D 557     -25.607  -0.353 -14.555  1.00 35.49     0.178 HD
ENDBRANCH   4   5
ENDBRANCH   3   4
ENDBRANCH   2   3
ENDBRANCH   1   2
END_RES ARG D 557
BEGIN_RES GLU D 570
REMARK  3 active torsions:
REMARK  status: ('A' for Active; 'I' for Inactive)
REMARK    5  A    between atoms: CA   and  CB  
REMARK    6  A    between atoms: CB   and  CG  
REMARK    7  A    between atoms: CG   and  CD  
ROOT
ATOM     14  CA  GLU D 570     -18.033  -6.348 -13.375  1.00 32.92     0.160 C 
ENDROOT
BRANCH  14  15
ATOM     15  CB  GLU D 570     -19.500  -6.345 -13.794  1.00 32.92     0.043 C 
BRANCH  15  16
ATOM     16  CG  GLU D 570     -20.441  -5.526 -12.986  1.00 32.92     0.100 C 
BRANCH  16  17
ATOM     17  CD  GLU D 570     -21.742  -5.247 -13.701  1.00 32.92     0.185 C 
ATOM     18  OE1 GLU D 570     -22.295  -4.142 -13.543  1.00 32.92    -0.647 OA
ATOM     19  OE2 GLU D 570     -22.223  -6.150 -14.415  1.00 32.92    -0.647 OA
ENDBRANCH  16  17
ENDBRANCH  15  16
ENDBRANCH  14  15
END_RES GLU D 570
ENDMDL
MODEL 5
REMARK VINA RESULT:      -4.8      0.888      2.356
REMARK  9 active torsions:
REMARK  status: ('A' for Active; 'I' for Inactive)
REMARK    1  A    between atoms: C_1  and  C_2 
REMARK    2  A    between atoms: C_1  and  N_4 
REMARK    3  A    between atoms: C_2  and  O_3 
REMARK    4  A    between atoms: N_4  and  C_5 
REMARK    5  A    between atoms: N_4  and  C_8 
REMARK    6  A    between atoms: C_5  and  C_6 
REMARK    7  A    between atoms: C_6  and  O_7 
REMARK    8  A    between atoms: C_8  and  C_9 
REMARK    9  A    between atoms: C_9  and  O_10 
ROOT
HETATM    1  N   UNL     1     -23.727  -4.209 -12.201  1.00  0.00     0.094 N 
ENDROOT
BRANCH   1   2
HETATM    2  C   UNL     1     -22.259  -4.487 -12.185  1.00  0.00     0.298 C 
BRANCH   2   3
HETATM    3  C   UNL     1     -21.393  -3.472 -11.421  1.00  0.00     0.194 C 
BRANCH   3   4
HETATM    4  O   UNL     1     -20.017  -3.629 -11.747  1.00  0.00    -0.399 OA
HETATM    5  H   UNL     1     -19.909  -4.572 -11.983  1.00  0.00     0.209 HD
ENDBRANCH   3   4
ENDBRANCH   2   3
ENDBRANCH   1   2
BRANCH   1   6
HETATM    6  C   UNL     1     -24.035  -3.117 -11.230  1.00  0.00     0.298 C 
BRANCH   6   7
HETATM    7  C   UNL     1     -24.604  -3.561  -9.868  1.00  0.00     0.194 C 
BRANCH   7   8
HETATM    8  O   UNL     1     -25.988  -3.255  -9.772  1.00  0.00    -0.399 OA
HETATM    9  H   UNL     1     -26.037  -2.357  -9.388  1.00  0.00     0.209 HD
ENDBRANCH   7   8
ENDBRANCH   6   7
ENDBRANCH   1   6
BRANCH   1  10
HETATM   10  C   UNL     1     -24.141  -3.794 -13.575  1.00  0.00     0.298 C 
BRANCH  10  11
HETATM   11  C   UNL     1     -23.680  -2.393 -14.018  1.00  0.00     0.194 C 
BRANCH  11  12
HETATM   12  O   UNL     1     -22.809  -2.479 -15.140  1.00  0.00    -0.399 OA
HETATM   13  H   UNL     1     -22.048  -3.017 -14.845  1.00  0.00     0.209 HD
ENDBRANCH  11  12
ENDBRANCH  10  11
ENDBRANCH   1  10
TORSDOF 9
BEGIN_RES ARG D 557
REMARK  4 active torsions:
REMARK  status: ('A' for Active; 'I' for Inactive)
REMARK    1  A    between atoms: CA   and  CB  
REMARK    2  A    between atoms: CB   and  CG  
REMARK    3  A    between atoms: CG   and  CD  
REMARK    4  A    between atoms: CD   and  NE  
REMARK       I    between atoms: NE   and  CZ  
REMARK       I    between atoms: CZ   and  NH1 
REMARK       I    between atoms: CZ   and  NH2 
ROOT
ATOM      1  CA  ARG D 557     -26.217   2.705 -17.014  1.00 35.49     0.159 C 
ENDROOT
BRANCH   1   2
ATOM      2  CB  ARG D 557     -26.789   1.319 -17.183  1.00 35.49     0.034 C 
BRANCH   2   3
ATOM      3  CG  ARG D 557     -28.230   1.227 -17.449  1.00 35.49     0.027 C 
BRANCH   3   4
ATOM      4  CD  ARG D 557     -28.919   0.310 -16.512  1.00 35.49     0.116 C 
BRANCH   4   5
ATOM      5  NE  ARG D 557     -29.283  -0.933 -17.139  1.00 35.49    -0.212 N 
ATOM      6  CZ  ARG D 557     -28.635  -2.071 -17.022  1.00 35.49     0.666 C 
ATOM      7  NH1 ARG D 557     -27.535  -2.190 -16.302  1.00 35.49    -0.235 N 
ATOM      8  NH2 ARG D 557     -29.121  -3.105 -17.645  1.00 35.49    -0.235 N 
ATOM      9  HH  ARG D 557     -27.198  -1.523 -15.883  1.00 35.49     0.174 HD
ATOM     10  HH  ARG D 557     -27.157  -2.957 -16.261  1.00 35.49     0.174 HD
ATOM     11  HH  ARG D 557     -29.837  -3.000 -18.096  1.00 35.49     0.174 HD
ATOM     12  HH  ARG D 557     -28.733  -3.857 -17.590  1.00 35.49     0.174 HD
ATOM     13  HE  ARG D 557     -29.939  -0.931 -17.679  1.00 35.49     0.178 HD
ENDBRANCH   4   5
ENDBRANCH   3   4
ENDBRANCH   2   3
ENDBRANCH   1   2
END_RES ARG D 557
BEGIN_RES GLU D 570
REMARK  3 active torsions:
REMARK  status: ('A' for Active; 'I' for Inactive)
REMARK    5  A    between atoms: CA   and  CB  
REMARK    6  A    between atoms: CB   and  CG  
REMARK    7  A    between atoms: CG   and  CD  
ROOT
ATOM     14  CA  GLU D 570     -18.033  -6.348 -13.375  1.00 32.92     0.160 C 
ENDROOT
BRANCH  14  15
ATOM     15  CB  GLU D 570     -19.500  -6.345 -13.794  1.00 32.92     0.043 C 
BRANCH  15  16
ATOM     16  CG  GLU D 570     -19.806  -6.021 -15.211  1.00 32.92     0.100 C 
BRANCH  16  17
ATOM     17  CD  GLU D 570     -21.282  -5.816 -15.463  1.00 32.92     0.185 C 
ATOM     18  OE1 GLU D 570     -21.651  -4.833 -16.134  1.00 32.92    -0.647 OA
ATOM     19  OE2 GLU D 570     -22.079  -6.639 -14.970  1.00 32.92    -0.647 OA
ENDBRANCH  16  17
ENDBRANCH  15  16
ENDBRANCH  14  15
END_RES GLU D 570
ENDMDL
MODEL 6
REMARK VINA RESULT:      -4.8      4.075      6.695
REMARK  9 active torsions:
REMARK  status: ('A' for Active; 'I' for Inactive)
REMARK    1  A    between atoms: C_1  and  C_2 
REMARK    2  A    between atoms: C_1  and  N_4 
REMARK    3  A    between atoms: C_2  and  O_3 
REMARK    4  A    between atoms: N_4  and  C_5 
REMARK    5  A    between atoms: N_4  and  C_8 
REMARK    6  A    between atoms: C_5  and  C_6 
REMARK    7  A    between atoms: C_6  and  O_7 
REMARK    8  A    between atoms: C_8  and  C_9 
REMARK    9  A    between atoms: C_9  and  O_10 
ROOT
HETATM    1  N   UNL     1     -28.616  -6.003 -18.082  1.00  0.00     0.094 N 
ENDROOT
BRANCH   1   2
HETATM    2  C   UNL     1     -29.653  -6.948 -17.570  1.00  0.00     0.298 C 
BRANCH   2   3
HETATM    3  C   UNL     1     -30.422  -7.742 -18.640  1.00  0.00     0.194 C 
BRANCH   3   4
HETATM    4  O   UNL     1     -29.625  -8.800 -19.159  1.00  0.00    -0.399 OA
HETATM    5  H   UNL     1     -28.709  -8.598 -18.883  1.00  0.00     0.209 HD
ENDBRANCH   3   4
ENDBRANCH   2   3
ENDBRANCH   1   2
BRANCH   1   6
HETATM    6  C   UNL     1     -29.244  -4.673 -18.344  1.00  0.00     0.298 C 
BRANCH   6   7
HETATM    7  C   UNL     1     -30.340  -4.233 -17.354  1.00  0.00     0.194 C 
BRANCH   7   8
HETATM    8  O   UNL     1     -30.764  -2.904 -17.622  1.00  0.00    -0.399 OA
HETATM    9  H   UNL     1     -31.587  -2.986 -18.142  1.00  0.00     0.209 HD
ENDBRANCH   7   8
ENDBRANCH   6   7
ENDBRANCH   1   6
BRANCH   1  10
HETATM   10  C   UNL     1     -27.530  -5.857 -17.068  1.00  0.00     0.298 C 
BRANCH  10  11
HETATM   11  C   UNL     1     -27.641  -6.769 -15.832  1.00  0.00     0.194 C 
BRANCH  11  12
HETATM   12  O   UNL     1     -26.426  -7.477 -15.615  1.00  0.00    -0.399 OA
HETATM   13  H   UNL     1     -26.687  -8.403 -15.440  1.00  0.00     0.209 HD
ENDBRANCH  11  12
ENDBRANCH  10  11
ENDBRANCH   1  10
TORSDOF 9
BEGIN_RES ARG D 557
REMARK  4 active torsions:
REMARK  status: ('A' for Active; 'I' for Inactive)
REMARK    1  A    between atoms: CA   and  CB  
REMARK    2  A    between atoms: CB   and  CG  
REMARK    3  A    between atoms: CG   and  CD  
REMARK    4  A    between atoms: CD   and  NE  
REMARK       I    between atoms: NE   and  CZ  
REMARK       I    between atoms: CZ   and  NH1 
REMARK       I    between atoms: CZ   and  NH2 
ROOT
ATOM      1  CA  ARG D 557     -26.217   2.705 -17.014  1.00 35.49     0.159 C 
ENDROOT
BRANCH   1   2
ATOM      2  CB  ARG D 557     -26.789   1.319 -17.183  1.00 35.49     0.034 C 
BRANCH   2   3
ATOM      3  CG  ARG D 557     -25.865   0.195 -16.989  1.00 35.49     0.027 C 
BRANCH   3   4
ATOM      4  CD  ARG D 557     -26.304  -0.716 -15.907  1.00 35.49     0.116 C 
BRANCH   4   5
ATOM      5  NE  ARG D 557     -25.266  -0.944 -14.936  1.00 35.49    -0.212 N 
ATOM      6  CZ  ARG D 557     -24.991  -2.094 -14.362  1.00 35.49     0.666 C 
ATOM      7  NH1 ARG D 557     -25.674  -3.195 -14.616  1.00 35.49    -0.235 N 
ATOM      8  NH2 ARG D 557     -24.000  -2.122 -13.520  1.00 35.49    -0.235 N 
ATOM      9  HH  ARG D 557     -26.329  -3.200 -15.169  1.00 35.49     0.174 HD
ATOM     10  HH  ARG D 557     -25.447  -3.917 -14.214  1.00 35.49     0.174 HD
ATOM     11  HH  ARG D 557     -23.572  -1.398 -13.381  1.00 35.49     0.174 HD
ATOM     12  HH  ARG D 557     -23.790  -2.847 -13.132  1.00 35.49     0.174 HD
ATOM     13  HE  ARG D 557     -24.823  -0.273 -14.659  1.00 35.49     0.178 HD
ENDBRANCH   4   5
ENDBRANCH   3   4
ENDBRANCH   2   3
ENDBRANCH   1   2
END_RES ARG D 557
BEGIN_RES GLU D 570
REMARK  3 active torsions:
REMARK  status: ('A' for Active; 'I' for Inactive)
REMARK    5  A    between atoms: CA   and  CB  
REMARK    6  A    between atoms: CB   and  CG  
REMARK    7  A    between atoms: CG   and  CD  
ROOT
ATOM     14  CA  GLU D 570     -18.033  -6.348 -13.375  1.00 32.92     0.160 C 
ENDROOT
BRANCH  14  15
ATOM     15  CB  GLU D 570     -19.500  -6.345 -13.794  1.00 32.92     0.043 C 
BRANCH  15  16
ATOM     16  CG  GLU D 570     -20.448  -5.557 -12.964  1.00 32.92     0.100 C 
BRANCH  16  17
ATOM     17  CD  GLU D 570     -21.683  -5.133 -13.722  1.00 32.92     0.185 C 
ATOM     18  OE1 GLU D 570     -21.626  -5.027 -14.962  1.00 32.92    -0.647 OA
ATOM     19  OE2 GLU D 570     -22.716  -4.888 -13.067  1.00 32.92    -0.647 OA
ENDBRANCH  16  17
ENDBRANCH  15  16
ENDBRANCH  14  15
END_RES GLU D 570
ENDMDL
MODEL 7
REMARK VINA RESULT:      -4.7      1.464      2.746
REMARK  9 active torsions:
REMARK  status: ('A' for Active; 'I' for Inactive)
REMARK    1  A    between atoms: C_1  and  C_2 
REMARK    2  A    between atoms: C_1  and  N_4 
REMARK    3  A    between atoms: C_2  and  O_3 
REMARK    4  A    between atoms: N_4  and  C_5 
REMARK    5  A    between atoms: N_4  and  C_8 
REMARK    6  A    between atoms: C_5  and  C_6 
REMARK    7  A    between atoms: C_6  and  O_7 
REMARK    8  A    between atoms: C_8  and  C_9 
REMARK    9  A    between atoms: C_9  and  O_10 
ROOT
HETATM    1  N   UNL     1     -24.058  -3.839 -12.544  1.00  0.00     0.094 N 
ENDROOT
BRANCH   1   2
HETATM    2  C   UNL     1     -22.723  -4.141 -13.143  1.00  0.00     0.298 C 
BRANCH   2   3
HETATM    3  C   UNL     1     -22.745  -4.800 -14.533  1.00  0.00     0.194 C 
BRANCH   3   4
HETATM    4  O   UNL     1     -21.879  -4.121 -15.433  1.00  0.00    -0.399 OA
HETATM    5  H   UNL     1     -22.350  -3.300 -15.681  1.00  0.00     0.209 HD
ENDBRANCH   3   4
ENDBRANCH   2   3
ENDBRANCH   1   2
BRANCH   1   6
HETATM    6  C   UNL     1     -23.874  -3.006 -11.318  1.00  0.00     0.298 C 
BRANCH   6   7
HETATM    7  C   UNL     1     -24.442  -3.589 -10.010  1.00  0.00     0.194 C 
BRANCH   7   8
HETATM    8  O   UNL     1     -25.815  -3.258  -9.860  1.00  0.00    -0.399 OA
HETATM    9  H   UNL     1     -26.287  -3.751 -10.560  1.00  0.00     0.209 HD
ENDBRANCH   7   8
ENDBRANCH   6   7
ENDBRANCH   1   6
BRANCH   1  10
HETATM   10  C   UNL     1     -24.894  -3.100 -13.536  1.00  0.00     0.298 C 
BRANCH  10  11
HETATM   11  C   UNL     1     -24.283  -1.800 -14.091  1.00  0.00     0.194 C 
BRANCH  11  12
HETATM   12  O   UNL     1     -25.281  -0.991 -14.701  1.00  0.00    -0.399 OA
HETATM   13  H   UNL     1     -26.138  -1.356 -14.402  1.00  0.00     0.209 HD
ENDBRANCH  11  12
ENDBRANCH  10  11
ENDBRANCH   1  10
TORSDOF 9
BEGIN_RES ARG D 557
REMARK  4 active torsions:
REMARK  status: ('A' for Active; 'I' for Inactive)
REMARK    1  A    between atoms: CA   and  CB  
REMARK    2  A    between atoms: CB   and  CG  
REMARK    3  A    between atoms: CG   and  CD  
REMARK    4  A    between atoms: CD   and  NE  
REMARK       I    between atoms: NE   and  CZ  
REMARK       I    between atoms: CZ   and  NH1 
REMARK       I    between atoms: CZ   and  NH2 
ROOT
ATOM      1  CA  ARG D 557     -26.217   2.705 -17.014  1.00 35.49     0.159 C 
ENDROOT
BRANCH   1   2
ATOM      2  CB  ARG D 557     -26.789   1.319 -17.183  1.00 35.49     0.034 C 
BRANCH   2   3
ATOM      3  CG  ARG D 557     -28.233   1.226 -17.429  1.00 35.49     0.027 C 
BRANCH   3   4
ATOM      4  CD  ARG D 557     -28.896   0.250 -16.534  1.00 35.49     0.116 C 
BRANCH   4   5
ATOM      5  NE  ARG D 557     -28.027  -0.843 -16.185  1.00 35.49    -0.212 N 
ATOM      6  CZ  ARG D 557     -28.151  -2.085 -16.598  1.00 35.49     0.666 C 
ATOM      7  NH1 ARG D 557     -29.129  -2.473 -17.394  1.00 35.49    -0.235 N 
ATOM      8  NH2 ARG D 557     -27.257  -2.942 -16.197  1.00 35.49    -0.235 N 
ATOM      9  HH  ARG D 557     -29.727  -1.925 -17.672  1.00 35.49     0.174 HD
ATOM     10  HH  ARG D 557     -29.157  -3.295 -17.633  1.00 35.49     0.174 HD
ATOM     11  HH  ARG D 557     -26.632  -2.661 -15.690  1.00 35.49     0.174 HD
ATOM     12  HH  ARG D 557     -27.301  -3.751 -16.446  1.00 35.49     0.174 HD
ATOM     13  HE  ARG D 557     -27.411  -0.698 -15.617  1.00 35.49     0.178 HD
ENDBRANCH   4   5
ENDBRANCH   3   4
ENDBRANCH   2   3
ENDBRANCH   1   2
END_RES ARG D 557
BEGIN_RES GLU D 570
REMARK  3 active torsions:
REMARK  status: ('A' for Active; 'I' for Inactive)
REMARK    5  A    between atoms: CA   and  CB  
REMARK    6  A    between atoms: CB   and  CG  
REMARK    7  A    between atoms: CG   and  CD  
ROOT
ATOM     14  CA  GLU D 570     -18.033  -6.348 -13.375  1.00 32.92     0.160 C 
ENDROOT
BRANCH  14  15
ATOM     15  CB  GLU D 570     -19.500  -6.345 -13.794  1.00 32.92     0.043 C 
BRANCH  15  16
ATOM     16  CG  GLU D 570     -20.090  -7.637 -14.230  1.00 32.92     0.100 C 
BRANCH  16  17
ATOM     17  CD  GLU D 570     -20.625  -7.593 -15.643  1.00 32.92     0.185 C 
ATOM     18  OE1 GLU D 570     -21.232  -8.585 -16.091  1.00 32.92    -0.647 OA
ATOM     19  OE2 GLU D 570     -20.419  -6.563 -16.314  1.00 32.92    -0.647 OA
ENDBRANCH  16  17
ENDBRANCH  15  16
ENDBRANCH  14  15
END_RES GLU D 570
ENDMDL
MODEL 8
REMARK VINA RESULT:      -4.7      1.746      2.126
REMARK  9 active torsions:
REMARK  status: ('A' for Active; 'I' for Inactive)
REMARK    1  A    between atoms: C_1  and  C_2 
REMARK    2  A    between atoms: C_1  and  N_4 
REMARK    3  A    between atoms: C_2  and  O_3 
REMARK    4  A    between atoms: N_4  and  C_5 
REMARK    5  A    between atoms: N_4  and  C_8 
REMARK    6  A    between atoms: C_5  and  C_6 
REMARK    7  A    between atoms: C_6  and  O_7 
REMARK    8  A    between atoms: C_8  and  C_9 
REMARK    9  A    between atoms: C_9  and  O_10 
ROOT
HETATM    1  N   UNL     1     -23.157  -3.357 -12.653  1.00  0.00     0.094 N 
ENDROOT
BRANCH   1   2
HETATM    2  C   UNL     1     -24.402  -2.737 -13.197  1.00  0.00     0.298 C 
BRANCH   2   3
HETATM    3  C   UNL     1     -24.233  -1.917 -14.488  1.00  0.00     0.194 C 
BRANCH   3   4
HETATM    4  O   UNL     1     -25.352  -1.066 -14.701  1.00  0.00    -0.399 OA
HETATM    5  H   UNL     1     -24.981  -0.221 -15.028  1.00  0.00     0.209 HD
ENDBRANCH   3   4
ENDBRANCH   2   3
ENDBRANCH   1   2
BRANCH   1   6
HETATM    6  C   UNL     1     -23.483  -4.109 -11.404  1.00  0.00     0.298 C 
BRANCH   6   7
HETATM    7  C   UNL     1     -24.450  -3.413 -10.426  1.00  0.00     0.194 C 
BRANCH   7   8
HETATM    8  O   UNL     1     -25.197  -4.367  -9.685  1.00  0.00    -0.399 OA
HETATM    9  H   UNL     1     -24.566  -5.076  -9.449  1.00  0.00     0.209 HD
ENDBRANCH   7   8
ENDBRANCH   6   7
ENDBRANCH   1   6
BRANCH   1  10
HETATM   10  C   UNL     1     -22.579  -4.290 -13.667  1.00  0.00     0.298 C 
BRANCH  10  11
HETATM   11  C   UNL     1     -23.399  -5.563 -13.949  1.00  0.00     0.194 C 
BRANCH  11  12
HETATM   12  O   UNL     1     -23.669  -5.692 -15.339  1.00  0.00    -0.399 OA
HETATM   13  H   UNL     1     -24.217  -6.497 -15.430  1.00  0.00     0.209 HD
ENDBRANCH  11  12
ENDBRANCH  10  11
ENDBRANCH   1  10
TORSDOF 9
BEGIN_RES ARG D 557
REMARK  4 active torsions:
REMARK  status: ('A' for Active; 'I' for Inactive)
REMARK    1  A    between atoms: CA   and  CB  
REMARK    2  A    between atoms: CB   and  CG  
REMARK    3  A    between atoms: CG   and  CD  
REMARK    4  A    between atoms: CD   and  NE  
REMARK       I    between atoms: NE   and  CZ  
REMARK       I    between atoms: CZ   and  NH1 
REMARK       I    between atoms: CZ   and  NH2 
ROOT
ATOM      1  CA  ARG D 557     -26.217   2.705 -17.014  1.00 35.49     0.159 C 
ENDROOT
BRANCH   1   2
ATOM      2  CB  ARG D 557     -26.789   1.319 -17.183  1.00 35.49     0.034 C 
BRANCH   2   3
ATOM      3  CG  ARG D 557     -28.217   1.153 -16.887  1.00 35.49     0.027 C 
BRANCH   3   4
ATOM      4  CD  ARG D 557     -28.699  -0.216 -17.182  1.00 35.49     0.116 C 
BRANCH   4   5
ATOM      5  NE  ARG D 557     -27.913  -1.222 -16.518  1.00 35.49    -0.212 N 
ATOM      6  CZ  ARG D 557     -28.053  -2.522 -16.657  1.00 35.49     0.666 C 
ATOM      7  NH1 ARG D 557     -28.973  -3.056 -17.439  1.00 35.49    -0.235 N 
ATOM      8  NH2 ARG D 557     -27.238  -3.288 -15.993  1.00 35.49    -0.235 N 
ATOM      9  HH  ARG D 557     -29.520  -2.571 -17.887  1.00 35.49     0.174 HD
ATOM     10  HH  ARG D 557     -29.016  -3.910 -17.492  1.00 35.49     0.174 HD
ATOM     11  HH  ARG D 557     -26.649  -2.915 -15.502  1.00 35.49     0.174 HD
ATOM     12  HH  ARG D 557     -27.295  -4.131 -16.061  1.00 35.49     0.174 HD
ATOM     13  HE  ARG D 557     -27.344  -0.968 -15.940  1.00 35.49     0.178 HD
ENDBRANCH   4   5
ENDBRANCH   3   4
ENDBRANCH   2   3
ENDBRANCH   1   2
END_RES ARG D 557
BEGIN_RES GLU D 570
REMARK  3 active torsions:
REMARK  status: ('A' for Active; 'I' for Inactive)
REMARK    5  A    between atoms: CA   and  CB  
REMARK    6  A    between atoms: CB   and  CG  
REMARK    7  A    between atoms: CG   and  CD  
ROOT
ATOM     14  CA  GLU D 570     -18.033  -6.348 -13.375  1.00 32.92     0.160 C 
ENDROOT
BRANCH  14  15
ATOM     15  CB  GLU D 570     -19.500  -6.345 -13.794  1.00 32.92     0.043 C 
BRANCH  15  16
ATOM     16  CG  GLU D 570     -20.086  -7.634 -14.243  1.00 32.92     0.100 C 
BRANCH  16  17
ATOM     17  CD  GLU D 570     -20.705  -7.552 -15.619  1.00 32.92     0.185 C 
ATOM     18  OE1 GLU D 570     -20.778  -6.445 -16.185  1.00 32.92    -0.647 OA
ATOM     19  OE2 GLU D 570     -21.136  -8.605 -16.130  1.00 32.92    -0.647 OA
ENDBRANCH  16  17
ENDBRANCH  15  16
ENDBRANCH  14  15
END_RES GLU D 570
ENDMDL
MODEL 9
REMARK VINA RESULT:      -4.7      3.952      6.873
REMARK  9 active torsions:
REMARK  status: ('A' for Active; 'I' for Inactive)
REMARK    1  A    between atoms: C_1  and  C_2 
REMARK    2  A    between atoms: C_1  and  N_4 
REMARK    3  A    between atoms: C_2  and  O_3 
REMARK    4  A    between atoms: N_4  and  C_5 
REMARK    5  A    between atoms: N_4  and  C_8 
REMARK    6  A    between atoms: C_5  and  C_6 
REMARK    7  A    between atoms: C_6  and  O_7 
REMARK    8  A    between atoms: C_8  and  C_9 
REMARK    9  A    between atoms: C_9  and  O_10 
ROOT
HETATM    1  N   UNL     1     -28.916  -5.592 -17.320  1.00  0.00     0.094 N 
ENDROOT
BRANCH   1   2
HETATM    2  C   UNL     1     -27.535  -5.249 -16.865  1.00  0.00     0.298 C 
BRANCH   2   3
HETATM    3  C   UNL     1     -27.444  -4.361 -15.612  1.00  0.00     0.194 C 
BRANCH   3   4
HETATM    4  O   UNL     1     -26.631  -3.220 -15.856  1.00  0.00    -0.399 OA
HETATM    5  H   UNL     1     -25.799  -3.566 -16.237  1.00  0.00     0.209 HD
ENDBRANCH   3   4
ENDBRANCH   2   3
ENDBRANCH   1   2
BRANCH   1   6
HETATM    6  C   UNL     1     -29.583  -4.364 -17.847  1.00  0.00     0.298 C 
BRANCH   6   7
HETATM    7  C   UNL     1     -30.987  -4.061 -17.287  1.00  0.00     0.194 C 
BRANCH   7   8
HETATM    8  O   UNL     1     -31.601  -2.999 -18.003  1.00  0.00    -0.399 OA
HETATM    9  H   UNL     1     -31.668  -2.255 -17.372  1.00  0.00     0.209 HD
ENDBRANCH   7   8
ENDBRANCH   6   7
ENDBRANCH   1   6
BRANCH   1  10
HETATM   10  C   UNL     1     -28.844  -6.627 -18.394  1.00  0.00     0.298 C 
BRANCH  10  11
HETATM   11  C   UNL     1     -29.989  -7.657 -18.409  1.00  0.00     0.194 C 
BRANCH  11  12
HETATM   12  O   UNL     1     -29.638  -8.793 -19.191  1.00  0.00    -0.399 OA
HETATM   13  H   UNL     1     -28.662  -8.846 -19.158  1.00  0.00     0.209 HD
ENDBRANCH  11  12
ENDBRANCH  10  11
ENDBRANCH   1  10
TORSDOF 9
BEGIN_RES ARG D 557
REMARK  4 active torsions:
REMARK  status: ('A' for Active; 'I' for Inactive)
REMARK    1  A    between atoms: CA   and  CB  
REMARK    2  A    between atoms: CB   and  CG  
REMARK    3  A    between atoms: CG   and  CD  
REMARK    4  A    between atoms: CD   and  NE  
REMARK       I    between atoms: NE   and  CZ  
REMARK       I    between atoms: CZ   and  NH1 
REMARK       I    between atoms: CZ   and  NH2 
ROOT
ATOM      1  CA  ARG D 557     -26.217   2.705 -17.014  1.00 35.49     0.159 C 
ENDROOT
BRANCH   1   2
ATOM      2  CB  ARG D 557     -26.789   1.319 -17.183  1.00 35.49     0.034 C 
BRANCH   2   3
ATOM      3  CG  ARG D 557     -25.835   0.204 -17.167  1.00 35.49     0.027 C 
BRANCH   3   4
ATOM      4  CD  ARG D 557     -24.788   0.372 -16.133  1.00 35.49     0.116 C 
BRANCH   4   5
ATOM      5  NE  ARG D 557     -24.980  -0.516 -15.017  1.00 35.49    -0.212 N 
ATOM      6  CZ  ARG D 557     -24.167  -1.483 -14.655  1.00 35.49     0.666 C 
ATOM      7  NH1 ARG D 557     -23.055  -1.757 -15.313  1.00 35.49    -0.235 N 
ATOM      8  NH2 ARG D 557     -24.489  -2.177 -13.603  1.00 35.49    -0.235 N 
ATOM      9  HH  ARG D 557     -22.822  -1.312 -16.007  1.00 35.49     0.174 HD
ATOM     10  HH  ARG D 557     -22.562  -2.398 -15.029  1.00 35.49     0.174 HD
ATOM     11  HH  ARG D 557     -25.209  -1.972 -13.194  1.00 35.49     0.174 HD
ATOM     12  HH  ARG D 557     -23.987  -2.806 -13.336  1.00 35.49     0.174 HD
ATOM     13  HE  ARG D 557     -25.708  -0.457 -14.580  1.00 35.49     0.178 HD
ENDBRANCH   4   5
ENDBRANCH   3   4
ENDBRANCH   2   3
ENDBRANCH   1   2
END_RES ARG D 557
BEGIN_RES GLU D 570
REMARK  3 active torsions:
REMARK  status: ('A' for Active; 'I' for Inactive)
REMARK    5  A    between atoms: CA   and  CB  
REMARK    6  A    between atoms: CB   and  CG  
REMARK    7  A    between atoms: CG   and  CD  
ROOT
ATOM     14  CA  GLU D 570     -18.033  -6.348 -13.375  1.00 32.92     0.160 C 
ENDROOT
BRANCH  14  15
ATOM     15  CB  GLU D 570     -19.500  -6.345 -13.794  1.00 32.92     0.043 C 
BRANCH  15  16
ATOM     16  CG  GLU D 570     -20.444  -5.538 -12.977  1.00 32.92     0.100 C 
BRANCH  16  17
ATOM     17  CD  GLU D 570     -21.725  -5.212 -13.708  1.00 32.92     0.185 C 
ATOM     18  OE1 GLU D 570     -22.141  -5.997 -14.581  1.00 32.92    -0.647 OA
ATOM     19  OE2 GLU D 570     -22.310  -4.150 -13.417  1.00 32.92    -0.647 OA
ENDBRANCH  16  17
ENDBRANCH  15  16
ENDBRANCH  14  15
END_RES GLU D 570
ENDMDL
