MODEL 1
REMARK VINA RESULT:      -7.2      0.000      0.000
REMARK WARNING: 32 MAX_TORS EXCEEDED!!!
REMARK  35 active torsions:
REMARK  status: ('A' for Active; 'I' for Inactive)
REMARK    1  A    between atoms: C_2  and  C_3 
REMARK    2  A    between atoms: C_3  and  C_4 
REMARK    3  A    between atoms: C_4  and  C_5 
REMARK    4  A    between atoms: C_5  and  C_6 
REMARK    5  A    between atoms: C_6  and  C_7 
REMARK    6  A    between atoms: C_10  and  C_37 
REMARK    7  A    between atoms: C_11  and  C_19 
REMARK    8  A    between atoms: C_12  and  C_13 
REMARK    9  A    between atoms: C_13  and  C_14 
REMARK   10  A    between atoms: C_14  and  C_15 
REMARK   11  A    between atoms: C_15  and  C_16 
REMARK   12  A    between atoms: C_16  and  C_17 
REMARK   13  A    between atoms: C_20  and  C_21 
REMARK   14  A    between atoms: C_21  and  C_22 
REMARK   15  A    between atoms: C_22  and  C_23 
REMARK   16  A    between atoms: C_23  and  C_24 
REMARK   17  A    between atoms: C_24  and  C_25 
REMARK   18  A    between atoms: C_25  and  C_26 
REMARK   19  A    between atoms: C_26  and  C_27 
REMARK   20  A    between atoms: C_27  and  C_28 
REMARK       I    between atoms: C_28  and  N_30 
REMARK   21  A    between atoms: N_30  and  C_31 
REMARK   22  A    between atoms: C_31  and  C_32 
REMARK   23  A    between atoms: C_32  and  C_33 
REMARK   24  A    between atoms: C_33  and  N_34 
REMARK   25  A    between atoms: C_37  and  C_38 
REMARK   26  A    between atoms: C_38  and  C_39 
REMARK   27  A    between atoms: C_39  and  C_40 
REMARK   28  A    between atoms: C_40  and  C_41 
REMARK   29  A    between atoms: C_41  and  C_42 
REMARK   30  A    between atoms: C_42  and  C_43 
REMARK   31  A    between atoms: C_43  and  C_44 
REMARK       I    between atoms: C_44  and  N_46 
REMARK   32  A    between atoms: N_46  and  C_47 
REMARK   33  A    between atoms: C_47  and  C_48 
REMARK   34  A    between atoms: C_48  and  C_49 
REMARK   35  A    between atoms: C_49  and  N_50 
ROOT
HETATM    1  C   UNL     1     -22.012 -10.583  -2.843  1.00  0.00     0.012 C 
HETATM    2  C   UNL     1     -20.626 -10.700  -2.261  1.00  0.00    -0.025 C 
HETATM    3  C   UNL     1     -19.503 -10.640  -2.977  1.00  0.00    -0.025 C 
HETATM    4  C   UNL     1     -19.457 -10.323  -4.456  1.00  0.00     0.016 C 
HETATM    5  C   UNL     1     -20.831  -9.796  -4.965  1.00  0.00     0.020 C 
HETATM    6  C   UNL     1     -21.986 -10.696  -4.406  1.00  0.00     0.001 C 
ENDROOT
BRANCH   5   7
HETATM    7  C   UNL     1     -21.059  -8.347  -4.575  1.00  0.00    -0.025 C 
HETATM    8  C   UNL     1     -21.419  -7.362  -5.407  1.00  0.00    -0.030 C 
BRANCH   8   9
HETATM    9  C   UNL     1     -21.632  -5.962  -4.917  1.00  0.00     0.027 C 
BRANCH   9  10
HETATM   10  C   UNL     1     -20.458  -5.085  -5.330  1.00  0.00     0.004 C 
BRANCH  10  11
HETATM   11  C   UNL     1     -19.838  -5.603  -6.622  1.00  0.00     0.000 C 
BRANCH  11  12
HETATM   12  C   UNL     1     -19.665  -4.467  -7.618  1.00  0.00     0.000 C 
BRANCH  12  13
HETATM   13  C   UNL     1     -20.981  -3.730  -7.827  1.00  0.00     0.000 C 
BRANCH  13  14
HETATM   14  C   UNL     1     -21.913  -4.557  -8.701  1.00  0.00     0.009 C 
BRANCH  14  15
HETATM   15  C   UNL     1     -23.368  -4.205  -8.441  1.00  0.00     0.103 C 
BRANCH  15  16
HETATM   16  C   UNL     1     -23.916  -3.472  -9.637  1.00  0.00     0.217 C 
HETATM   17  O   UNL     1     -25.001  -2.895  -9.601  1.00  0.00    -0.274 OA
HETATM   18  N   UNL     1     -23.055  -3.491 -10.764  1.00  0.00    -0.361 N 
HETATM   19  H   UNL     1     -22.131  -3.905 -10.698  1.00  0.00     0.162 HD
BRANCH  18  20
HETATM   20  C   UNL     1     -23.470  -2.801 -11.989  1.00  0.00     0.124 C 
BRANCH  20  21
HETATM   21  C   UNL     1     -22.661  -3.289 -13.158  1.00  0.00     0.050 C 
BRANCH  21  22
HETATM   22  C   UNL     1     -23.210  -2.728 -14.470  1.00  0.00     0.273 C 
BRANCH  22  23
HETATM   23  N   UNL     1     -24.534  -2.140 -14.254  1.00  0.00     0.080 N 
HETATM   24  C   UNL     1     -24.686  -0.924 -15.039  1.00  0.00     0.309 C 
HETATM   25  C   UNL     1     -25.569  -3.098 -14.658  1.00  0.00     0.309 C 
ENDBRANCH  22  23
ENDBRANCH  21  22
ENDBRANCH  20  21
ENDBRANCH  18  20
ENDBRANCH  15  16
ENDBRANCH  14  15
ENDBRANCH  13  14
ENDBRANCH  12  13
ENDBRANCH  11  12
ENDBRANCH  10  11
ENDBRANCH   9  10
ENDBRANCH   8   9
ENDBRANCH   5   7
BRANCH   4  26
HETATM   26  C   UNL     1     -18.303  -9.357  -4.780  1.00  0.00     0.009 C 
BRANCH  26  27
HETATM   27  C   UNL     1     -17.535  -9.795  -6.023  1.00  0.00     0.001 C 
BRANCH  27  28
HETATM   28  C   UNL     1     -16.055  -9.930  -5.731  1.00  0.00     0.000 C 
BRANCH  28  29
HETATM   29  C   UNL     1     -15.649 -11.387  -5.865  1.00  0.00     0.000 C 
BRANCH  29  30
HETATM   30  C   UNL     1     -15.989 -12.155  -4.597  1.00  0.00     0.000 C 
BRANCH  30  31
HETATM   31  C   UNL     1     -15.154 -11.617  -3.450  1.00  0.00     0.009 C 
BRANCH  31  32
HETATM   32  C   UNL     1     -16.010 -11.234  -2.254  1.00  0.00     0.103 C 
BRANCH  32  33
HETATM   33  C   UNL     1     -16.009 -12.359  -1.250  1.00  0.00     0.217 C 
HETATM   34  O   UNL     1     -14.988 -12.927  -0.876  1.00  0.00    -0.274 OA
HETATM   35  N   UNL     1     -17.259 -12.661  -0.770  1.00  0.00    -0.361 N 
HETATM   36  H   UNL     1     -18.047 -12.070  -0.999  1.00  0.00     0.162 HD
BRANCH  35  37
HETATM   37  C   UNL     1     -17.417 -13.647   0.272  1.00  0.00     0.124 C 
BRANCH  37  38
HETATM   38  C   UNL     1     -18.202 -14.868  -0.212  1.00  0.00     0.050 C 
BRANCH  38  39
HETATM   39  C   UNL     1     -19.464 -15.151   0.622  1.00  0.00     0.273 C 
BRANCH  39  40
HETATM   40  N   UNL     1     -20.703 -14.615   0.021  1.00  0.00     0.080 N 
HETATM   41  C   UNL     1     -20.920 -13.247   0.484  1.00  0.00     0.309 C 
HETATM   42  C   UNL     1     -20.612 -14.628  -1.432  1.00  0.00     0.309 C 
ENDBRANCH  39  40
ENDBRANCH  38  39
ENDBRANCH  37  38
ENDBRANCH  35  37
ENDBRANCH  32  33
ENDBRANCH  31  32
ENDBRANCH  30  31
ENDBRANCH  29  30
ENDBRANCH  28  29
ENDBRANCH  27  28
ENDBRANCH  26  27
ENDBRANCH   4  26
BRANCH   6  43
HETATM   43  C   UNL     1     -21.844 -12.152  -4.958  1.00  0.00     0.006 C 
BRANCH  43  44
HETATM   44  C   UNL     1     -21.400 -12.337  -6.422  1.00  0.00     0.000 C 
BRANCH  44  45
HETATM   45  C   UNL     1     -20.290 -13.364  -6.609  1.00  0.00     0.000 C 
BRANCH  45  46
HETATM   46  C   UNL     1     -19.181 -12.739  -7.429  1.00  0.00    -0.000 C 
BRANCH  46  47
HETATM   47  C   UNL     1     -19.243 -13.163  -8.881  1.00  0.00    -0.005 C 
HETATM   48  C   UNL     1     -18.047 -14.047  -9.184  1.00  0.00     0.005 C 
ENDBRANCH  46  47
ENDBRANCH  45  46
ENDBRANCH  44  45
ENDBRANCH  43  44
ENDBRANCH   6  43
BRANCH   1  49
HETATM   49  C   UNL     1     -22.920 -11.603  -2.168  1.00  0.00     0.009 C 
BRANCH  49  50
HETATM   50  C   UNL     1     -23.854 -11.031  -1.123  1.00  0.00     0.001 C 
BRANCH  50  51
HETATM   51  C   UNL     1     -23.027 -10.374  -0.028  1.00  0.00     0.000 C 
BRANCH  51  52
HETATM   52  C   UNL     1     -23.630  -9.017   0.275  1.00  0.00    -0.000 C 
BRANCH  52  53
HETATM   53  C   UNL     1     -22.562  -7.939   0.308  1.00  0.00    -0.005 C 
HETATM   54  C   UNL     1     -21.265  -8.524   0.831  1.00  0.00     0.005 C 
ENDBRANCH  52  53
ENDBRANCH  51  52
ENDBRANCH  50  51
ENDBRANCH  49  50
ENDBRANCH   1  49
TORSDOF 35
BEGIN_RES ARG D 557
REMARK  4 active torsions:
REMARK  status: ('A' for Active; 'I' for Inactive)
REMARK    1  A    between atoms: CA   and  CB  
REMARK    2  A    between atoms: CB   and  CG  
REMARK    3  A    between atoms: CG   and  CD  
REMARK    4  A    between atoms: CD   and  NE  
REMARK       I    between atoms: NE   and  CZ  
REMARK       I    between atoms: CZ   and  NH1 
REMARK       I    between atoms: CZ   and  NH2 
ROOT
ATOM      1  CA  ARG D 557     -26.217   2.705 -17.014  1.00 35.49     0.159 C 
ENDROOT
BRANCH   1   2
ATOM      2  CB  ARG D 557     -26.789   1.319 -17.183  1.00 35.49     0.034 C 
BRANCH   2   3
ATOM      3  CG  ARG D 557     -28.099   1.066 -16.571  1.00 35.49     0.027 C 
BRANCH   3   4
ATOM      4  CD  ARG D 557     -28.839  -0.022 -17.251  1.00 35.49     0.116 C 
BRANCH   4   5
ATOM      5  NE  ARG D 557     -28.296  -1.320 -16.947  1.00 35.49    -0.212 N 
ATOM      6  CZ  ARG D 557     -28.921  -2.467 -17.093  1.00 35.49     0.666 C 
ATOM      7  NH1 ARG D 557     -30.161  -2.547 -17.538  1.00 35.49    -0.235 N 
ATOM      8  NH2 ARG D 557     -28.266  -3.549 -16.787  1.00 35.49    -0.235 N 
ATOM      9  HH  ARG D 557     -30.610  -1.848 -17.747  1.00 35.49     0.174 HD
ATOM     10  HH  ARG D 557     -30.516  -3.323 -17.615  1.00 35.49     0.174 HD
ATOM     11  HH  ARG D 557     -27.464  -3.467 -16.510  1.00 35.49     0.174 HD
ATOM     12  HH  ARG D 557     -28.635  -4.308 -16.872  1.00 35.49     0.174 HD
ATOM     13  HE  ARG D 557     -27.527  -1.356 -16.587  1.00 35.49     0.178 HD
ENDBRANCH   4   5
ENDBRANCH   3   4
ENDBRANCH   2   3
ENDBRANCH   1   2
END_RES ARG D 557
BEGIN_RES GLU D 570
REMARK  3 active torsions:
REMARK  status: ('A' for Active; 'I' for Inactive)
REMARK    5  A    between atoms: CA   and  CB  
REMARK    6  A    between atoms: CB   and  CG  
REMARK    7  A    between atoms: CG   and  CD  
ROOT
ATOM     14  CA  GLU D 570     -18.033  -6.348 -13.375  1.00 32.92     0.160 C 
ENDROOT
BRANCH  14  15
ATOM     15  CB  GLU D 570     -19.500  -6.345 -13.794  1.00 32.92     0.043 C 
BRANCH  15  16
ATOM     16  CG  GLU D 570     -19.799  -6.158 -15.237  1.00 32.92     0.100 C 
BRANCH  16  17
ATOM     17  CD  GLU D 570     -21.261  -5.887 -15.506  1.00 32.92     0.185 C 
ATOM     18  OE1 GLU D 570     -21.575  -5.149 -16.459  1.00 32.92    -0.647 OA
ATOM     19  OE2 GLU D 570     -22.101  -6.404 -14.744  1.00 32.92    -0.647 OA
ENDBRANCH  16  17
ENDBRANCH  15  16
ENDBRANCH  14  15
END_RES GLU D 570
ENDMDL
MODEL 2
REMARK VINA RESULT:      -7.1      2.246      9.708
REMARK WARNING: 32 MAX_TORS EXCEEDED!!!
REMARK  35 active torsions:
REMARK  status: ('A' for Active; 'I' for Inactive)
REMARK    1  A    between atoms: C_2  and  C_3 
REMARK    2  A    between atoms: C_3  and  C_4 
REMARK    3  A    between atoms: C_4  and  C_5 
REMARK    4  A    between atoms: C_5  and  C_6 
REMARK    5  A    between atoms: C_6  and  C_7 
REMARK    6  A    between atoms: C_10  and  C_37 
REMARK    7  A    between atoms: C_11  and  C_19 
REMARK    8  A    between atoms: C_12  and  C_13 
REMARK    9  A    between atoms: C_13  and  C_14 
REMARK   10  A    between atoms: C_14  and  C_15 
REMARK   11  A    between atoms: C_15  and  C_16 
REMARK   12  A    between atoms: C_16  and  C_17 
REMARK   13  A    between atoms: C_20  and  C_21 
REMARK   14  A    between atoms: C_21  and  C_22 
REMARK   15  A    between atoms: C_22  and  C_23 
REMARK   16  A    between atoms: C_23  and  C_24 
REMARK   17  A    between atoms: C_24  and  C_25 
REMARK   18  A    between atoms: C_25  and  C_26 
REMARK   19  A    between atoms: C_26  and  C_27 
REMARK   20  A    between atoms: C_27  and  C_28 
REMARK       I    between atoms: C_28  and  N_30 
REMARK   21  A    between atoms: N_30  and  C_31 
REMARK   22  A    between atoms: C_31  and  C_32 
REMARK   23  A    between atoms: C_32  and  C_33 
REMARK   24  A    between atoms: C_33  and  N_34 
REMARK   25  A    between atoms: C_37  and  C_38 
REMARK   26  A    between atoms: C_38  and  C_39 
REMARK   27  A    between atoms: C_39  and  C_40 
REMARK   28  A    between atoms: C_40  and  C_41 
REMARK   29  A    between atoms: C_41  and  C_42 
REMARK   30  A    between atoms: C_42  and  C_43 
REMARK   31  A    between atoms: C_43  and  C_44 
REMARK       I    between atoms: C_44  and  N_46 
REMARK   32  A    between atoms: N_46  and  C_47 
REMARK   33  A    between atoms: C_47  and  C_48 
REMARK   34  A    between atoms: C_48  and  C_49 
REMARK   35  A    between atoms: C_49  and  N_50 
ROOT
HETATM    1  C   UNL     1     -21.482  -8.449  -4.568  1.00  0.00     0.012 C 
HETATM    2  C   UNL     1     -20.122  -8.551  -5.211  1.00  0.00    -0.025 C 
HETATM    3  C   UNL     1     -19.016  -8.934  -4.571  1.00  0.00    -0.025 C 
HETATM    4  C   UNL     1     -18.993  -9.437  -3.144  1.00  0.00     0.016 C 
HETATM    5  C   UNL     1     -20.431  -9.725  -2.622  1.00  0.00     0.020 C 
HETATM    6  C   UNL     1     -21.384  -8.541  -3.006  1.00  0.00     0.001 C 
ENDROOT
BRANCH   5   7
HETATM    7  C   UNL     1     -20.977 -11.034  -3.165  1.00  0.00    -0.025 C 
HETATM    8  C   UNL     1     -22.055 -11.681  -2.706  1.00  0.00    -0.030 C 
BRANCH   8   9
HETATM    9  C   UNL     1     -22.519 -12.965  -3.322  1.00  0.00     0.027 C 
BRANCH   9  10
HETATM   10  C   UNL     1     -23.027 -13.905  -2.238  1.00  0.00     0.004 C 
BRANCH  10  11
HETATM   11  C   UNL     1     -23.459 -13.114  -1.010  1.00  0.00     0.000 C 
BRANCH  11  12
HETATM   12  C   UNL     1     -22.998 -13.815   0.259  1.00  0.00     0.000 C 
BRANCH  12  13
HETATM   13  C   UNL     1     -21.883 -13.026   0.934  1.00  0.00     0.000 C 
BRANCH  13  14
HETATM   14  C   UNL     1     -20.533 -13.424   0.354  1.00  0.00     0.009 C 
BRANCH  14  15
HETATM   15  C   UNL     1     -19.646 -12.209   0.141  1.00  0.00     0.103 C 
BRANCH  15  16
HETATM   16  C   UNL     1     -18.209 -12.655   0.087  1.00  0.00     0.217 C 
HETATM   17  O   UNL     1     -17.849 -13.595  -0.619  1.00  0.00    -0.274 OA
HETATM   18  N   UNL     1     -17.337 -11.876   0.890  1.00  0.00    -0.361 N 
HETATM   19  H   UNL     1     -17.683 -11.055   1.376  1.00  0.00     0.162 HD
BRANCH  18  20
HETATM   20  C   UNL     1     -15.908 -12.203   0.915  1.00  0.00     0.124 C 
BRANCH  20  21
HETATM   21  C   UNL     1     -15.594 -13.061   2.108  1.00  0.00     0.050 C 
BRANCH  21  22
HETATM   22  C   UNL     1     -15.009 -14.404   1.672  1.00  0.00     0.273 C 
BRANCH  22  23
HETATM   23  N   UNL     1     -14.128 -14.222   0.517  1.00  0.00     0.080 N 
HETATM   24  C   UNL     1     -12.733 -14.253   0.928  1.00  0.00     0.309 C 
HETATM   25  C   UNL     1     -14.362 -15.296  -0.454  1.00  0.00     0.309 C 
ENDBRANCH  22  23
ENDBRANCH  21  22
ENDBRANCH  20  21
ENDBRANCH  18  20
ENDBRANCH  15  16
ENDBRANCH  14  15
ENDBRANCH  13  14
ENDBRANCH  12  13
ENDBRANCH  11  12
ENDBRANCH  10  11
ENDBRANCH   9  10
ENDBRANCH   8   9
ENDBRANCH   5   7
BRANCH   4  26
HETATM   26  C   UNL     1     -18.064 -10.656  -3.002  1.00  0.00     0.009 C 
BRANCH  26  27
HETATM   27  C   UNL     1     -16.734 -10.275  -2.357  1.00  0.00     0.001 C 
BRANCH  27  28
HETATM   28  C   UNL     1     -15.567 -10.848  -3.135  1.00  0.00     0.000 C 
BRANCH  28  29
HETATM   29  C   UNL     1     -15.559 -10.256  -4.534  1.00  0.00     0.000 C 
BRANCH  29  30
HETATM   30  C   UNL     1     -15.152 -11.306  -5.556  1.00  0.00     0.000 C 
BRANCH  30  31
HETATM   31  C   UNL     1     -16.259 -12.336  -5.680  1.00  0.00     0.009 C 
BRANCH  31  32
HETATM   32  C   UNL     1     -15.715 -13.725  -5.964  1.00  0.00     0.103 C 
BRANCH  32  33
HETATM   33  C   UNL     1     -16.598 -14.419  -6.971  1.00  0.00     0.217 C 
HETATM   34  O   UNL     1     -16.846 -15.620  -6.935  1.00  0.00    -0.274 OA
HETATM   35  N   UNL     1     -17.123 -13.569  -7.912  1.00  0.00    -0.361 N 
HETATM   36  H   UNL     1     -17.007 -12.569  -7.814  1.00  0.00     0.162 HD
BRANCH  35  37
HETATM   37  C   UNL     1     -18.068 -14.061  -8.887  1.00  0.00     0.124 C 
BRANCH  37  38
HETATM   38  C   UNL     1     -19.462 -13.466  -8.681  1.00  0.00     0.050 C 
BRANCH  38  39
HETATM   39  C   UNL     1     -19.491 -12.322  -7.651  1.00  0.00     0.273 C 
BRANCH  39  40
HETATM   40  N   UNL     1     -20.409 -12.569  -6.519  1.00  0.00     0.080 N 
HETATM   41  C   UNL     1     -21.642 -11.809  -6.714  1.00  0.00     0.309 C 
HETATM   42  C   UNL     1     -20.724 -13.987  -6.416  1.00  0.00     0.309 C 
ENDBRANCH  39  40
ENDBRANCH  38  39
ENDBRANCH  37  38
ENDBRANCH  35  37
ENDBRANCH  32  33
ENDBRANCH  31  32
ENDBRANCH  30  31
ENDBRANCH  29  30
ENDBRANCH  28  29
ENDBRANCH  27  28
ENDBRANCH  26  27
ENDBRANCH   4  26
BRANCH   6  43
HETATM   43  C   UNL     1     -20.916  -7.228  -2.298  1.00  0.00     0.006 C 
BRANCH  43  44
HETATM   44  C   UNL     1     -21.958  -6.418  -1.502  1.00  0.00     0.000 C 
BRANCH  44  45
HETATM   45  C   UNL     1     -22.730  -7.238  -0.476  1.00  0.00     0.000 C 
BRANCH  45  46
HETATM   46  C   UNL     1     -21.741  -7.907   0.456  1.00  0.00    -0.000 C 
BRANCH  46  47
HETATM   47  C   UNL     1     -22.009  -9.391   0.594  1.00  0.00    -0.005 C 
HETATM   48  C   UNL     1     -23.370  -9.701  -0.000  1.00  0.00     0.005 C 
ENDBRANCH  46  47
ENDBRANCH  45  46
ENDBRANCH  44  45
ENDBRANCH  43  44
ENDBRANCH   6  43
BRANCH   1  49
HETATM   49  C   UNL     1     -22.171  -7.185  -5.066  1.00  0.00     0.009 C 
BRANCH  49  50
HETATM   50  C   UNL     1     -21.411  -6.423  -6.131  1.00  0.00     0.001 C 
BRANCH  50  51
HETATM   51  C   UNL     1     -20.761  -5.203  -5.496  1.00  0.00     0.000 C 
BRANCH  51  52
HETATM   52  C   UNL     1     -19.720  -4.662  -6.457  1.00  0.00    -0.000 C 
BRANCH  52  53
HETATM   53  C   UNL     1     -19.874  -5.280  -7.834  1.00  0.00    -0.005 C 
HETATM   54  C   UNL     1     -20.125  -4.189  -8.857  1.00  0.00     0.005 C 
ENDBRANCH  52  53
ENDBRANCH  51  52
ENDBRANCH  50  51
ENDBRANCH  49  50
ENDBRANCH   1  49
TORSDOF 35
BEGIN_RES ARG D 557
REMARK  4 active torsions:
REMARK  status: ('A' for Active; 'I' for Inactive)
REMARK    1  A    between atoms: CA   and  CB  
REMARK    2  A    between atoms: CB   and  CG  
REMARK    3  A    between atoms: CG   and  CD  
REMARK    4  A    between atoms: CD   and  NE  
REMARK       I    between atoms: NE   and  CZ  
REMARK       I    between atoms: CZ   and  NH1 
REMARK       I    between atoms: CZ   and  NH2 
ROOT
ATOM      1  CA  ARG D 557     -26.217   2.705 -17.014  1.00 35.49     0.159 C 
ENDROOT
BRANCH   1   2
ATOM      2  CB  ARG D 557     -26.789   1.319 -17.183  1.00 35.49     0.034 C 
BRANCH   2   3
ATOM      3  CG  ARG D 557     -28.153   1.102 -16.685  1.00 35.49     0.027 C 
BRANCH   3   4
ATOM      4  CD  ARG D 557     -28.792  -0.089 -17.291  1.00 35.49     0.116 C 
BRANCH   4   5
ATOM      5  NE  ARG D 557     -28.179  -1.315 -16.852  1.00 35.49    -0.212 N 
ATOM      6  CZ  ARG D 557     -28.664  -2.523 -17.033  1.00 35.49     0.666 C 
ATOM      7  NH1 ARG D 557     -29.812  -2.742 -17.647  1.00 35.49    -0.235 N 
ATOM      8  NH2 ARG D 557     -27.962  -3.524 -16.586  1.00 35.49    -0.235 N 
ATOM      9  HH  ARG D 557     -30.289  -2.099 -17.951  1.00 35.49     0.174 HD
ATOM     10  HH  ARG D 557     -30.076  -3.552 -17.739  1.00 35.49     0.174 HD
ATOM     11  HH  ARG D 557     -27.221  -3.353 -16.200  1.00 35.49     0.174 HD
ATOM     12  HH  ARG D 557     -28.240  -4.319 -16.688  1.00 35.49     0.174 HD
ATOM     13  HE  ARG D 557     -27.472  -1.263 -16.383  1.00 35.49     0.178 HD
ENDBRANCH   4   5
ENDBRANCH   3   4
ENDBRANCH   2   3
ENDBRANCH   1   2
END_RES ARG D 557
BEGIN_RES GLU D 570
REMARK  3 active torsions:
REMARK  status: ('A' for Active; 'I' for Inactive)
REMARK    5  A    between atoms: CA   and  CB  
REMARK    6  A    between atoms: CB   and  CG  
REMARK    7  A    between atoms: CG   and  CD  
ROOT
ATOM     14  CA  GLU D 570     -18.033  -6.348 -13.375  1.00 32.92     0.160 C 
ENDROOT
BRANCH  14  15
ATOM     15  CB  GLU D 570     -19.500  -6.345 -13.794  1.00 32.92     0.043 C 
BRANCH  15  16
ATOM     16  CG  GLU D 570     -20.446  -5.552 -12.968  1.00 32.92     0.100 C 
BRANCH  16  17
ATOM     17  CD  GLU D 570     -21.719  -5.200 -13.703  1.00 32.92     0.185 C 
ATOM     18  OE1 GLU D 570     -21.987  -5.792 -14.766  1.00 32.92    -0.647 OA
ATOM     19  OE2 GLU D 570     -22.447  -4.311 -13.219  1.00 32.92    -0.647 OA
ENDBRANCH  16  17
ENDBRANCH  15  16
ENDBRANCH  14  15
END_RES GLU D 570
ENDMDL
MODEL 3
REMARK VINA RESULT:      -6.7      3.357      9.187
REMARK WARNING: 32 MAX_TORS EXCEEDED!!!
REMARK  35 active torsions:
REMARK  status: ('A' for Active; 'I' for Inactive)
REMARK    1  A    between atoms: C_2  and  C_3 
REMARK    2  A    between atoms: C_3  and  C_4 
REMARK    3  A    between atoms: C_4  and  C_5 
REMARK    4  A    between atoms: C_5  and  C_6 
REMARK    5  A    between atoms: C_6  and  C_7 
REMARK    6  A    between atoms: C_10  and  C_37 
REMARK    7  A    between atoms: C_11  and  C_19 
REMARK    8  A    between atoms: C_12  and  C_13 
REMARK    9  A    between atoms: C_13  and  C_14 
REMARK   10  A    between atoms: C_14  and  C_15 
REMARK   11  A    between atoms: C_15  and  C_16 
REMARK   12  A    between atoms: C_16  and  C_17 
REMARK   13  A    between atoms: C_20  and  C_21 
REMARK   14  A    between atoms: C_21  and  C_22 
REMARK   15  A    between atoms: C_22  and  C_23 
REMARK   16  A    between atoms: C_23  and  C_24 
REMARK   17  A    between atoms: C_24  and  C_25 
REMARK   18  A    between atoms: C_25  and  C_26 
REMARK   19  A    between atoms: C_26  and  C_27 
REMARK   20  A    between atoms: C_27  and  C_28 
REMARK       I    between atoms: C_28  and  N_30 
REMARK   21  A    between atoms: N_30  and  C_31 
REMARK   22  A    between atoms: C_31  and  C_32 
REMARK   23  A    between atoms: C_32  and  C_33 
REMARK   24  A    between atoms: C_33  and  N_34 
REMARK   25  A    between atoms: C_37  and  C_38 
REMARK   26  A    between atoms: C_38  and  C_39 
REMARK   27  A    between atoms: C_39  and  C_40 
REMARK   28  A    between atoms: C_40  and  C_41 
REMARK   29  A    between atoms: C_41  and  C_42 
REMARK   30  A    between atoms: C_42  and  C_43 
REMARK   31  A    between atoms: C_43  and  C_44 
REMARK       I    between atoms: C_44  and  N_46 
REMARK   32  A    between atoms: N_46  and  C_47 
REMARK   33  A    between atoms: C_47  and  C_48 
REMARK   34  A    between atoms: C_48  and  C_49 
REMARK   35  A    between atoms: C_49  and  N_50 
ROOT
HETATM    1  C   UNL     1     -21.236  -8.072  -4.892  1.00  0.00     0.012 C 
HETATM    2  C   UNL     1     -19.753  -8.224  -5.120  1.00  0.00    -0.025 C 
HETATM    3  C   UNL     1     -18.903  -8.718  -4.220  1.00  0.00    -0.025 C 
HETATM    4  C   UNL     1     -19.322  -9.308  -2.891  1.00  0.00     0.016 C 
HETATM    5  C   UNL     1     -20.862  -9.532  -2.832  1.00  0.00     0.020 C 
HETATM    6  C   UNL     1     -21.605  -8.265  -3.382  1.00  0.00     0.001 C 
ENDROOT
BRANCH   5   7
HETATM    7  C   UNL     1     -21.283 -10.766  -3.610  1.00  0.00    -0.025 C 
HETATM    8  C   UNL     1     -22.538 -11.212  -3.747  1.00  0.00    -0.030 C 
BRANCH   8   9
HETATM    9  C   UNL     1     -22.849 -12.438  -4.549  1.00  0.00     0.027 C 
BRANCH   9  10
HETATM   10  C   UNL     1     -21.569 -12.995  -5.159  1.00  0.00     0.004 C 
BRANCH  10  11
HETATM   11  C   UNL     1     -21.540 -14.513  -5.037  1.00  0.00     0.000 C 
BRANCH  11  12
HETATM   12  C   UNL     1     -20.123 -14.995  -4.769  1.00  0.00     0.000 C 
BRANCH  12  13
HETATM   13  C   UNL     1     -19.347 -13.960  -3.965  1.00  0.00     0.000 C 
BRANCH  13  14
HETATM   14  C   UNL     1     -17.997 -13.694  -4.616  1.00  0.00     0.009 C 
BRANCH  14  15
HETATM   15  C   UNL     1     -18.145 -12.829  -5.856  1.00  0.00     0.103 C 
BRANCH  15  16
HETATM   16  C   UNL     1     -16.801 -12.693  -6.522  1.00  0.00     0.217 C 
HETATM   17  O   UNL     1     -16.673 -12.768  -7.742  1.00  0.00    -0.274 OA
HETATM   18  N   UNL     1     -15.737 -12.445  -5.618  1.00  0.00    -0.361 N 
HETATM   19  H   UNL     1     -15.923 -12.302  -4.631  1.00  0.00     0.162 HD
BRANCH  18  20
HETATM   20  C   UNL     1     -14.378 -12.283  -6.145  1.00  0.00     0.124 C 
BRANCH  20  21
HETATM   21  C   UNL     1     -13.372 -12.419  -5.036  1.00  0.00     0.050 C 
BRANCH  21  22
HETATM   22  C   UNL     1     -13.374 -13.841  -4.474  1.00  0.00     0.273 C 
BRANCH  22  23
HETATM   23  N   UNL     1     -13.776 -13.828  -3.065  1.00  0.00     0.080 N 
HETATM   24  C   UNL     1     -14.885 -14.743  -2.842  1.00  0.00     0.309 C 
HETATM   25  C   UNL     1     -12.644 -14.240  -2.228  1.00  0.00     0.309 C 
ENDBRANCH  22  23
ENDBRANCH  21  22
ENDBRANCH  20  21
ENDBRANCH  18  20
ENDBRANCH  15  16
ENDBRANCH  14  15
ENDBRANCH  13  14
ENDBRANCH  12  13
ENDBRANCH  11  12
ENDBRANCH  10  11
ENDBRANCH   9  10
ENDBRANCH   8   9
ENDBRANCH   5   7
BRANCH   4  26
HETATM   26  C   UNL     1     -18.532 -10.592  -2.581  1.00  0.00     0.009 C 
BRANCH  26  27
HETATM   27  C   UNL     1     -17.082 -10.484  -3.044  1.00  0.00     0.001 C 
BRANCH  27  28
HETATM   28  C   UNL     1     -16.143 -11.149  -2.058  1.00  0.00     0.000 C 
BRANCH  28  29
HETATM   29  C   UNL     1     -16.948 -12.027  -1.115  1.00  0.00     0.000 C 
BRANCH  29  30
HETATM   30  C   UNL     1     -16.368 -11.973   0.290  1.00  0.00     0.000 C 
BRANCH  30  31
HETATM   31  C   UNL     1     -15.273 -13.014   0.418  1.00  0.00     0.009 C 
BRANCH  31  32
HETATM   32  C   UNL     1     -15.130 -13.518   1.844  1.00  0.00     0.103 C 
BRANCH  32  33
HETATM   33  C   UNL     1     -14.252 -14.745   1.862  1.00  0.00     0.217 C 
HETATM   34  O   UNL     1     -14.659 -15.860   2.170  1.00  0.00    -0.274 OA
HETATM   35  N   UNL     1     -12.961 -14.496   1.469  1.00  0.00    -0.361 N 
HETATM   36  H   UNL     1     -12.711 -13.593   1.087  1.00  0.00     0.162 HD
BRANCH  35  37
HETATM   37  C   UNL     1     -12.020 -15.583   1.337  1.00  0.00     0.124 C 
BRANCH  37  38
HETATM   38  C   UNL     1     -10.899 -15.497   2.373  1.00  0.00     0.050 C 
BRANCH  38  39
HETATM   39  C   UNL     1      -9.562 -16.075   1.875  1.00  0.00     0.273 C 
BRANCH  39  40
HETATM   40  N   UNL     1      -8.429 -15.134   1.996  1.00  0.00     0.080 N 
HETATM   41  C   UNL     1      -8.622 -14.014   1.078  1.00  0.00     0.309 C 
HETATM   42  C   UNL     1      -8.325 -14.632   3.359  1.00  0.00     0.309 C 
ENDBRANCH  39  40
ENDBRANCH  38  39
ENDBRANCH  37  38
ENDBRANCH  35  37
ENDBRANCH  32  33
ENDBRANCH  31  32
ENDBRANCH  30  31
ENDBRANCH  29  30
ENDBRANCH  28  29
ENDBRANCH  27  28
ENDBRANCH  26  27
ENDBRANCH   4  26
BRANCH   6  43
HETATM   43  C   UNL     1     -21.307  -7.032  -2.468  1.00  0.00     0.006 C 
BRANCH  43  44
HETATM   44  C   UNL     1     -22.262  -6.748  -1.292  1.00  0.00     0.000 C 
BRANCH  44  45
HETATM   45  C   UNL     1     -21.952  -7.549  -0.034  1.00  0.00     0.000 C 
BRANCH  45  46
HETATM   46  C   UNL     1     -23.116  -8.473   0.255  1.00  0.00    -0.000 C 
BRANCH  46  47
HETATM   47  C   UNL     1     -22.739  -9.929   0.089  1.00  0.00    -0.005 C 
HETATM   48  C   UNL     1     -23.972 -10.711  -0.327  1.00  0.00     0.005 C 
ENDBRANCH  46  47
ENDBRANCH  45  46
ENDBRANCH  44  45
ENDBRANCH  43  44
ENDBRANCH   6  43
BRANCH   1  49
HETATM   49  C   UNL     1     -21.690  -6.736  -5.469  1.00  0.00     0.009 C 
BRANCH  49  50
HETATM   50  C   UNL     1     -20.784  -6.162  -6.537  1.00  0.00     0.001 C 
BRANCH  50  51
HETATM   51  C   UNL     1     -20.408  -4.739  -6.154  1.00  0.00     0.000 C 
BRANCH  51  52
HETATM   52  C   UNL     1     -21.154  -3.786  -7.067  1.00  0.00    -0.000 C 
BRANCH  52  53
HETATM   53  C   UNL     1     -20.983  -4.178  -8.523  1.00  0.00    -0.005 C 
HETATM   54  C   UNL     1     -22.318  -4.083  -9.236  1.00  0.00     0.005 C 
ENDBRANCH  52  53
ENDBRANCH  51  52
ENDBRANCH  50  51
ENDBRANCH  49  50
ENDBRANCH   1  49
TORSDOF 35
BEGIN_RES ARG D 557
REMARK  4 active torsions:
REMARK  status: ('A' for Active; 'I' for Inactive)
REMARK    1  A    between atoms: CA   and  CB  
REMARK    2  A    between atoms: CB   and  CG  
REMARK    3  A    between atoms: CG   and  CD  
REMARK    4  A    between atoms: CD   and  NE  
REMARK       I    between atoms: NE   and  CZ  
REMARK       I    between atoms: CZ   and  NH1 
REMARK       I    between atoms: CZ   and  NH2 
ROOT
ATOM      1  CA  ARG D 557     -26.217   2.705 -17.014  1.00 35.49     0.159 C 
ENDROOT
BRANCH   1   2
ATOM      2  CB  ARG D 557     -26.789   1.319 -17.183  1.00 35.49     0.034 C 
BRANCH   2   3
ATOM      3  CG  ARG D 557     -25.838   0.202 -17.137  1.00 35.49     0.027 C 
BRANCH   3   4
ATOM      4  CD  ARG D 557     -24.762   0.417 -16.143  1.00 35.49     0.116 C 
BRANCH   4   5
ATOM      5  NE  ARG D 557     -24.907  -0.436 -14.994  1.00 35.49    -0.212 N 
ATOM      6  CZ  ARG D 557     -24.084  -1.400 -14.644  1.00 35.49     0.666 C 
ATOM      7  NH1 ARG D 557     -23.008  -1.704 -15.346  1.00 35.49    -0.235 N 
ATOM      8  NH2 ARG D 557     -24.361  -2.060 -13.557  1.00 35.49    -0.235 N 
ATOM      9  HH  ARG D 557     -22.806  -1.282 -16.063  1.00 35.49     0.174 HD
ATOM     10  HH  ARG D 557     -22.507  -2.341 -15.067  1.00 35.49     0.174 HD
ATOM     11  HH  ARG D 557     -25.058  -1.837 -13.119  1.00 35.49     0.174 HD
ATOM     12  HH  ARG D 557     -23.852  -2.686 -13.297  1.00 35.49     0.174 HD
ATOM     13  HE  ARG D 557     -25.612  -0.358 -14.524  1.00 35.49     0.178 HD
ENDBRANCH   4   5
ENDBRANCH   3   4
ENDBRANCH   2   3
ENDBRANCH   1   2
END_RES ARG D 557
BEGIN_RES GLU D 570
REMARK  3 active torsions:
REMARK  status: ('A' for Active; 'I' for Inactive)
REMARK    5  A    between atoms: CA   and  CB  
REMARK    6  A    between atoms: CB   and  CG  
REMARK    7  A    between atoms: CG   and  CD  
ROOT
ATOM     14  CA  GLU D 570     -18.033  -6.348 -13.375  1.00 32.92     0.160 C 
ENDROOT
BRANCH  14  15
ATOM     15  CB  GLU D 570     -19.500  -6.345 -13.794  1.00 32.92     0.043 C 
BRANCH  15  16
ATOM     16  CG  GLU D 570     -20.444  -5.539 -12.977  1.00 32.92     0.100 C 
BRANCH  16  17
ATOM     17  CD  GLU D 570     -21.724  -5.210 -13.709  1.00 32.92     0.185 C 
ATOM     18  OE1 GLU D 570     -22.171  -6.022 -14.541  1.00 32.92    -0.647 OA
ATOM     19  OE2 GLU D 570     -22.277  -4.121 -13.459  1.00 32.92    -0.647 OA
ENDBRANCH  16  17
ENDBRANCH  15  16
ENDBRANCH  14  15
END_RES GLU D 570
ENDMDL
MODEL 4
REMARK VINA RESULT:      -6.6      2.342      9.514
REMARK WARNING: 32 MAX_TORS EXCEEDED!!!
REMARK  35 active torsions:
REMARK  status: ('A' for Active; 'I' for Inactive)
REMARK    1  A    between atoms: C_2  and  C_3 
REMARK    2  A    between atoms: C_3  and  C_4 
REMARK    3  A    between atoms: C_4  and  C_5 
REMARK    4  A    between atoms: C_5  and  C_6 
REMARK    5  A    between atoms: C_6  and  C_7 
REMARK    6  A    between atoms: C_10  and  C_37 
REMARK    7  A    between atoms: C_11  and  C_19 
REMARK    8  A    between atoms: C_12  and  C_13 
REMARK    9  A    between atoms: C_13  and  C_14 
REMARK   10  A    between atoms: C_14  and  C_15 
REMARK   11  A    between atoms: C_15  and  C_16 
REMARK   12  A    between atoms: C_16  and  C_17 
REMARK   13  A    between atoms: C_20  and  C_21 
REMARK   14  A    between atoms: C_21  and  C_22 
REMARK   15  A    between atoms: C_22  and  C_23 
REMARK   16  A    between atoms: C_23  and  C_24 
REMARK   17  A    between atoms: C_24  and  C_25 
REMARK   18  A    between atoms: C_25  and  C_26 
REMARK   19  A    between atoms: C_26  and  C_27 
REMARK   20  A    between atoms: C_27  and  C_28 
REMARK       I    between atoms: C_28  and  N_30 
REMARK   21  A    between atoms: N_30  and  C_31 
REMARK   22  A    between atoms: C_31  and  C_32 
REMARK   23  A    between atoms: C_32  and  C_33 
REMARK   24  A    between atoms: C_33  and  N_34 
REMARK   25  A    between atoms: C_37  and  C_38 
REMARK   26  A    between atoms: C_38  and  C_39 
REMARK   27  A    between atoms: C_39  and  C_40 
REMARK   28  A    between atoms: C_40  and  C_41 
REMARK   29  A    between atoms: C_41  and  C_42 
REMARK   30  A    between atoms: C_42  and  C_43 
REMARK   31  A    between atoms: C_43  and  C_44 
REMARK       I    between atoms: C_44  and  N_46 
REMARK   32  A    between atoms: N_46  and  C_47 
REMARK   33  A    between atoms: C_47  and  C_48 
REMARK   34  A    between atoms: C_48  and  C_49 
REMARK   35  A    between atoms: C_49  and  N_50 
ROOT
HETATM    1  C   UNL     1     -21.462  -8.079  -4.694  1.00  0.00     0.012 C 
HETATM    2  C   UNL     1     -20.046  -8.034  -5.212  1.00  0.00    -0.025 C 
HETATM    3  C   UNL     1     -19.004  -8.592  -4.596  1.00  0.00    -0.025 C 
HETATM    4  C   UNL     1     -19.113  -9.454  -3.357  1.00  0.00     0.016 C 
HETATM    5  C   UNL     1     -20.593  -9.842  -3.066  1.00  0.00     0.020 C 
HETATM    6  C   UNL     1     -21.512  -8.580  -3.211  1.00  0.00     0.001 C 
ENDROOT
BRANCH   5   7
HETATM    7  C   UNL     1     -21.076 -10.951  -3.983  1.00  0.00    -0.025 C 
HETATM    8  C   UNL     1     -22.340 -11.376  -4.096  1.00  0.00    -0.030 C 
BRANCH   8   9
HETATM    9  C   UNL     1     -22.715 -12.474  -5.044  1.00  0.00     0.027 C 
BRANCH   9  10
HETATM   10  C   UNL     1     -22.202 -13.807  -4.519  1.00  0.00     0.004 C 
BRANCH  10  11
HETATM   11  C   UNL     1     -22.847 -14.134  -3.179  1.00  0.00     0.000 C 
BRANCH  11  12
HETATM   12  C   UNL     1     -21.792 -14.578  -2.177  1.00  0.00     0.000 C 
BRANCH  12  13
HETATM   13  C   UNL     1     -20.402 -14.513  -2.797  1.00  0.00     0.000 C 
BRANCH  13  14
HETATM   14  C   UNL     1     -19.429 -13.846  -1.837  1.00  0.00     0.009 C 
BRANCH  14  15
HETATM   15  C   UNL     1     -20.149 -12.894  -0.897  1.00  0.00     0.103 C 
BRANCH  15  16
HETATM   16  C   UNL     1     -19.128 -12.100  -0.126  1.00  0.00     0.217 C 
HETATM   17  O   UNL     1     -19.440 -11.114   0.538  1.00  0.00    -0.274 OA
HETATM   18  N   UNL     1     -17.810 -12.619  -0.220  1.00  0.00    -0.361 N 
HETATM   19  H   UNL     1     -17.634 -13.491  -0.708  1.00  0.00     0.162 HD
BRANCH  18  20
HETATM   20  C   UNL     1     -16.726 -11.941   0.496  1.00  0.00     0.124 C 
BRANCH  20  21
HETATM   21  C   UNL     1     -16.008 -12.913   1.391  1.00  0.00     0.050 C 
BRANCH  21  22
HETATM   22  C   UNL     1     -15.812 -14.255   0.686  1.00  0.00     0.273 C 
BRANCH  22  23
HETATM   23  N   UNL     1     -14.536 -14.854   1.082  1.00  0.00     0.080 N 
HETATM   24  C   UNL     1     -13.447 -13.907   0.891  1.00  0.00     0.309 C 
HETATM   25  C   UNL     1     -14.590 -15.235   2.498  1.00  0.00     0.309 C 
ENDBRANCH  22  23
ENDBRANCH  21  22
ENDBRANCH  20  21
ENDBRANCH  18  20
ENDBRANCH  15  16
ENDBRANCH  14  15
ENDBRANCH  13  14
ENDBRANCH  12  13
ENDBRANCH  11  12
ENDBRANCH  10  11
ENDBRANCH   9  10
ENDBRANCH   8   9
ENDBRANCH   5   7
BRANCH   4  26
HETATM   26  C   UNL     1     -18.194 -10.684  -3.455  1.00  0.00     0.009 C 
BRANCH  26  27
HETATM   27  C   UNL     1     -16.786 -10.375  -2.955  1.00  0.00     0.001 C 
BRANCH  27  28
HETATM   28  C   UNL     1     -15.737 -10.965  -3.875  1.00  0.00     0.000 C 
BRANCH  28  29
HETATM   29  C   UNL     1     -15.055 -12.128  -3.176  1.00  0.00     0.000 C 
BRANCH  29  30
HETATM   30  C   UNL     1     -13.746 -12.474  -3.868  1.00  0.00     0.000 C 
BRANCH  30  31
HETATM   31  C   UNL     1     -13.836 -12.079  -5.330  1.00  0.00     0.009 C 
BRANCH  31  32
HETATM   32  C   UNL     1     -13.259 -13.146  -6.245  1.00  0.00     0.103 C 
BRANCH  32  33
HETATM   33  C   UNL     1     -13.992 -14.447  -6.030  1.00  0.00     0.217 C 
HETATM   34  O   UNL     1     -13.434 -15.486  -5.690  1.00  0.00    -0.274 OA
HETATM   35  N   UNL     1     -15.347 -14.347  -6.221  1.00  0.00    -0.361 N 
HETATM   36  H   UNL     1     -15.775 -13.440  -6.358  1.00  0.00     0.162 HD
BRANCH  35  37
HETATM   37  C   UNL     1     -16.202 -15.480  -5.957  1.00  0.00     0.124 C 
BRANCH  37  38
HETATM   38  C   UNL     1     -17.560 -15.052  -5.398  1.00  0.00     0.050 C 
BRANCH  38  39
HETATM   39  C   UNL     1     -17.898 -13.576  -5.678  1.00  0.00     0.273 C 
BRANCH  39  40
HETATM   40  N   UNL     1     -19.177 -13.387  -6.393  1.00  0.00     0.080 N 
HETATM   41  C   UNL     1     -19.260 -12.018  -6.894  1.00  0.00     0.309 C 
HETATM   42  C   UNL     1     -19.283 -14.320  -7.506  1.00  0.00     0.309 C 
ENDBRANCH  39  40
ENDBRANCH  38  39
ENDBRANCH  37  38
ENDBRANCH  35  37
ENDBRANCH  32  33
ENDBRANCH  31  32
ENDBRANCH  30  31
ENDBRANCH  29  30
ENDBRANCH  28  29
ENDBRANCH  27  28
ENDBRANCH  26  27
ENDBRANCH   4  26
BRANCH   6  43
HETATM   43  C   UNL     1     -21.122  -7.509  -2.140  1.00  0.00     0.006 C 
BRANCH  43  44
HETATM   44  C   UNL     1     -22.082  -7.278  -0.957  1.00  0.00     0.000 C 
BRANCH  44  45
HETATM   45  C   UNL     1     -21.944  -8.303   0.163  1.00  0.00     0.000 C 
BRANCH  45  46
HETATM   46  C   UNL     1     -23.181  -9.175   0.180  1.00  0.00    -0.000 C 
BRANCH  46  47
HETATM   47  C   UNL     1     -22.959 -10.488  -0.539  1.00  0.00    -0.005 C 
HETATM   48  C   UNL     1     -23.935 -11.516   0.005  1.00  0.00     0.005 C 
ENDBRANCH  46  47
ENDBRANCH  45  46
ENDBRANCH  44  45
ENDBRANCH  43  44
ENDBRANCH   6  43
BRANCH   1  49
HETATM   49  C   UNL     1     -22.108  -6.715  -4.904  1.00  0.00     0.009 C 
BRANCH  49  50
HETATM   50  C   UNL     1     -21.247  -5.707  -5.634  1.00  0.00     0.001 C 
BRANCH  50  51
HETATM   51  C   UNL     1     -22.091  -5.005  -6.687  1.00  0.00     0.000 C 
BRANCH  51  52
HETATM   52  C   UNL     1     -21.298  -3.835  -7.233  1.00  0.00    -0.000 C 
BRANCH  52  53
HETATM   53  C   UNL     1     -21.251  -3.865  -8.749  1.00  0.00    -0.005 C 
HETATM   54  C   UNL     1     -20.095  -4.732  -9.207  1.00  0.00     0.005 C 
ENDBRANCH  52  53
ENDBRANCH  51  52
ENDBRANCH  50  51
ENDBRANCH  49  50
ENDBRANCH   1  49
TORSDOF 35
BEGIN_RES ARG D 557
REMARK  4 active torsions:
REMARK  status: ('A' for Active; 'I' for Inactive)
REMARK    1  A    between atoms: CA   and  CB  
REMARK    2  A    between atoms: CB   and  CG  
REMARK    3  A    between atoms: CG   and  CD  
REMARK    4  A    between atoms: CD   and  NE  
REMARK       I    between atoms: NE   and  CZ  
REMARK       I    between atoms: CZ   and  NH1 
REMARK       I    between atoms: CZ   and  NH2 
ROOT
ATOM      1  CA  ARG D 557     -26.217   2.705 -17.014  1.00 35.49     0.159 C 
ENDROOT
BRANCH   1   2
ATOM      2  CB  ARG D 557     -26.789   1.319 -17.183  1.00 35.49     0.034 C 
BRANCH   2   3
ATOM      3  CG  ARG D 557     -25.862   0.195 -17.004  1.00 35.49     0.027 C 
BRANCH   3   4
ATOM      4  CD  ARG D 557     -26.250  -0.683 -15.878  1.00 35.49     0.116 C 
BRANCH   4   5
ATOM      5  NE  ARG D 557     -25.173  -0.875 -14.943  1.00 35.49    -0.212 N 
ATOM      6  CZ  ARG D 557     -24.847  -2.012 -14.369  1.00 35.49     0.666 C 
ATOM      7  NH1 ARG D 557     -25.510  -3.133 -14.588  1.00 35.49    -0.235 N 
ATOM      8  NH2 ARG D 557     -23.826  -2.006 -13.563  1.00 35.49    -0.235 N 
ATOM      9  HH  ARG D 557     -26.184  -3.160 -15.117  1.00 35.49     0.174 HD
ATOM     10  HH  ARG D 557     -25.250  -3.844 -14.187  1.00 35.49     0.174 HD
ATOM     11  HH  ARG D 557     -23.412  -1.269 -13.446  1.00 35.49     0.174 HD
ATOM     12  HH  ARG D 557     -23.583  -2.721 -13.176  1.00 35.49     0.174 HD
ATOM     13  HE  ARG D 557     -24.738  -0.190 -14.688  1.00 35.49     0.178 HD
ENDBRANCH   4   5
ENDBRANCH   3   4
ENDBRANCH   2   3
ENDBRANCH   1   2
END_RES ARG D 557
BEGIN_RES GLU D 570
REMARK  3 active torsions:
REMARK  status: ('A' for Active; 'I' for Inactive)
REMARK    5  A    between atoms: CA   and  CB  
REMARK    6  A    between atoms: CB   and  CG  
REMARK    7  A    between atoms: CG   and  CD  
ROOT
ATOM     14  CA  GLU D 570     -18.033  -6.348 -13.375  1.00 32.92     0.160 C 
ENDROOT
BRANCH  14  15
ATOM     15  CB  GLU D 570     -19.500  -6.345 -13.794  1.00 32.92     0.043 C 
BRANCH  15  16
ATOM     16  CG  GLU D 570     -20.447  -5.556 -12.965  1.00 32.92     0.100 C 
BRANCH  16  17
ATOM     17  CD  GLU D 570     -21.686  -5.138 -13.722  1.00 32.92     0.185 C 
ATOM     18  OE1 GLU D 570     -22.720  -4.861 -13.084  1.00 32.92    -0.647 OA
ATOM     19  OE2 GLU D 570     -21.627  -5.105 -14.967  1.00 32.92    -0.647 OA
ENDBRANCH  16  17
ENDBRANCH  15  16
ENDBRANCH  14  15
END_RES GLU D 570
ENDMDL
MODEL 5
REMARK VINA RESULT:      -6.4      2.231      9.216
REMARK WARNING: 32 MAX_TORS EXCEEDED!!!
REMARK  35 active torsions:
REMARK  status: ('A' for Active; 'I' for Inactive)
REMARK    1  A    between atoms: C_2  and  C_3 
REMARK    2  A    between atoms: C_3  and  C_4 
REMARK    3  A    between atoms: C_4  and  C_5 
REMARK    4  A    between atoms: C_5  and  C_6 
REMARK    5  A    between atoms: C_6  and  C_7 
REMARK    6  A    between atoms: C_10  and  C_37 
REMARK    7  A    between atoms: C_11  and  C_19 
REMARK    8  A    between atoms: C_12  and  C_13 
REMARK    9  A    between atoms: C_13  and  C_14 
REMARK   10  A    between atoms: C_14  and  C_15 
REMARK   11  A    between atoms: C_15  and  C_16 
REMARK   12  A    between atoms: C_16  and  C_17 
REMARK   13  A    between atoms: C_20  and  C_21 
REMARK   14  A    between atoms: C_21  and  C_22 
REMARK   15  A    between atoms: C_22  and  C_23 
REMARK   16  A    between atoms: C_23  and  C_24 
REMARK   17  A    between atoms: C_24  and  C_25 
REMARK   18  A    between atoms: C_25  and  C_26 
REMARK   19  A    between atoms: C_26  and  C_27 
REMARK   20  A    between atoms: C_27  and  C_28 
REMARK       I    between atoms: C_28  and  N_30 
REMARK   21  A    between atoms: N_30  and  C_31 
REMARK   22  A    between atoms: C_31  and  C_32 
REMARK   23  A    between atoms: C_32  and  C_33 
REMARK   24  A    between atoms: C_33  and  N_34 
REMARK   25  A    between atoms: C_37  and  C_38 
REMARK   26  A    between atoms: C_38  and  C_39 
REMARK   27  A    between atoms: C_39  and  C_40 
REMARK   28  A    between atoms: C_40  and  C_41 
REMARK   29  A    between atoms: C_41  and  C_42 
REMARK   30  A    between atoms: C_42  and  C_43 
REMARK   31  A    between atoms: C_43  and  C_44 
REMARK       I    between atoms: C_44  and  N_46 
REMARK   32  A    between atoms: N_46  and  C_47 
REMARK   33  A    between atoms: C_47  and  C_48 
REMARK   34  A    between atoms: C_48  and  C_49 
REMARK   35  A    between atoms: C_49  and  N_50 
ROOT
HETATM    1  C   UNL     1     -20.273  -5.604  -5.469  1.00  0.00     0.012 C 
HETATM    2  C   UNL     1     -20.314  -5.091  -4.052  1.00  0.00    -0.025 C 
HETATM    3  C   UNL     1     -21.075  -5.611  -3.088  1.00  0.00    -0.025 C 
HETATM    4  C   UNL     1     -21.910  -6.863  -3.248  1.00  0.00     0.016 C 
HETATM    5  C   UNL     1     -21.549  -7.620  -4.560  1.00  0.00     0.020 C 
HETATM    6  C   UNL     1     -21.446  -6.604  -5.750  1.00  0.00     0.001 C 
ENDROOT
BRANCH   5   7
HETATM    7  C   UNL     1     -20.253  -8.400  -4.423  1.00  0.00    -0.025 C 
HETATM    8  C   UNL     1     -19.773  -9.277  -5.311  1.00  0.00    -0.030 C 
BRANCH   8   9
HETATM    9  C   UNL     1     -18.473  -9.987  -5.085  1.00  0.00     0.027 C 
BRANCH   9  10
HETATM   10  C   UNL     1     -18.465 -10.623  -3.702  1.00  0.00     0.004 C 
BRANCH  10  11
HETATM   11  C   UNL     1     -19.408 -11.819  -3.663  1.00  0.00     0.000 C 
BRANCH  11  12
HETATM   12  C   UNL     1     -20.284 -11.760  -2.421  1.00  0.00     0.000 C 
BRANCH  12  13
HETATM   13  C   UNL     1     -19.695 -10.804  -1.392  1.00  0.00     0.000 C 
BRANCH  13  14
HETATM   14  C   UNL     1     -19.599 -11.486  -0.035  1.00  0.00     0.009 C 
BRANCH  14  15
HETATM   15  C   UNL     1     -18.827 -12.791  -0.130  1.00  0.00     0.103 C 
BRANCH  15  16
HETATM   16  C   UNL     1     -17.360 -12.484  -0.277  1.00  0.00     0.217 C 
HETATM   17  O   UNL     1     -16.739 -11.863   0.583  1.00  0.00    -0.274 OA
HETATM   18  N   UNL     1     -16.784 -13.001  -1.466  1.00  0.00    -0.361 N 
HETATM   19  H   UNL     1     -17.330 -13.585  -2.090  1.00  0.00     0.162 HD
BRANCH  18  20
HETATM   20  C   UNL     1     -15.358 -12.778  -1.721  1.00  0.00     0.124 C 
BRANCH  20  21
HETATM   21  C   UNL     1     -15.166 -12.146  -3.072  1.00  0.00     0.050 C 
BRANCH  21  22
HETATM   22  C   UNL     1     -15.703 -13.055  -4.177  1.00  0.00     0.273 C 
BRANCH  22  23
HETATM   23  N   UNL     1     -14.922 -12.878  -5.403  1.00  0.00     0.080 N 
HETATM   24  C   UNL     1     -15.583 -11.939  -6.298  1.00  0.00     0.309 C 
HETATM   25  C   UNL     1     -13.592 -12.358  -5.068  1.00  0.00     0.309 C 
ENDBRANCH  22  23
ENDBRANCH  21  22
ENDBRANCH  20  21
ENDBRANCH  18  20
ENDBRANCH  15  16
ENDBRANCH  14  15
ENDBRANCH  13  14
ENDBRANCH  12  13
ENDBRANCH  11  12
ENDBRANCH  10  11
ENDBRANCH   9  10
ENDBRANCH   8   9
ENDBRANCH   5   7
BRANCH   4  26
HETATM   26  C   UNL     1     -21.804  -7.763  -2.005  1.00  0.00     0.009 C 
BRANCH  26  27
HETATM   27  C   UNL     1     -22.294  -7.047  -0.750  1.00  0.00     0.001 C 
BRANCH  27  28
HETATM   28  C   UNL     1     -22.968  -8.013   0.202  1.00  0.00     0.000 C 
BRANCH  28  29
HETATM   29  C   UNL     1     -22.768  -9.433  -0.300  1.00  0.00     0.000 C 
BRANCH  29  30
HETATM   30  C   UNL     1     -23.974 -10.295   0.038  1.00  0.00     0.000 C 
BRANCH  30  31
HETATM   31  C   UNL     1     -23.817 -11.652  -0.621  1.00  0.00     0.009 C 
BRANCH  31  32
HETATM   32  C   UNL     1     -23.065 -12.632   0.264  1.00  0.00     0.103 C 
BRANCH  32  33
HETATM   33  C   UNL     1     -22.734 -13.875  -0.523  1.00  0.00     0.217 C 
HETATM   34  O   UNL     1     -21.850 -14.662  -0.199  1.00  0.00    -0.274 OA
HETATM   35  N   UNL     1     -23.541 -14.057  -1.618  1.00  0.00    -0.361 N 
HETATM   36  H   UNL     1     -24.346 -13.461  -1.760  1.00  0.00     0.162 HD
BRANCH  35  37
HETATM   37  C   UNL     1     -23.419 -15.252  -2.419  1.00  0.00     0.124 C 
BRANCH  37  38
HETATM   38  C   UNL     1     -23.328 -14.931  -3.912  1.00  0.00     0.050 C 
BRANCH  38  39
HETATM   39  C   UNL     1     -21.881 -14.825  -4.427  1.00  0.00     0.273 C 
BRANCH  39  40
HETATM   40  N   UNL     1     -21.709 -13.830  -5.506  1.00  0.00     0.080 N 
HETATM   41  C   UNL     1     -21.794 -14.496  -6.803  1.00  0.00     0.309 C 
HETATM   42  C   UNL     1     -22.734 -12.800  -5.420  1.00  0.00     0.309 C 
ENDBRANCH  39  40
ENDBRANCH  38  39
ENDBRANCH  37  38
ENDBRANCH  35  37
ENDBRANCH  32  33
ENDBRANCH  31  32
ENDBRANCH  30  31
ENDBRANCH  29  30
ENDBRANCH  28  29
ENDBRANCH  27  28
ENDBRANCH  26  27
ENDBRANCH   4  26
BRANCH   6  43
HETATM   43  C   UNL     1     -22.836  -5.933  -6.001  1.00  0.00     0.006 C 
BRANCH  43  44
HETATM   44  C   UNL     1     -22.885  -4.655  -6.861  1.00  0.00     0.000 C 
BRANCH  44  45
HETATM   45  C   UNL     1     -23.322  -4.893  -8.301  1.00  0.00     0.000 C 
BRANCH  45  46
HETATM   46  C   UNL     1     -23.501  -3.553  -8.983  1.00  0.00    -0.000 C 
BRANCH  46  47
HETATM   47  C   UNL     1     -24.754  -3.512  -9.830  1.00  0.00    -0.005 C 
HETATM   48  C   UNL     1     -24.360  -3.285 -11.278  1.00  0.00     0.005 C 
ENDBRANCH  46  47
ENDBRANCH  45  46
ENDBRANCH  44  45
ENDBRANCH  43  44
ENDBRANCH   6  43
BRANCH   1  49
HETATM   49  C   UNL     1     -20.235  -4.417  -6.424  1.00  0.00     0.009 C 
BRANCH  49  50
HETATM   50  C   UNL     1     -19.253  -4.551  -7.567  1.00  0.00     0.001 C 
BRANCH  50  51
HETATM   51  C   UNL     1     -19.841  -3.890  -8.805  1.00  0.00     0.000 C 
BRANCH  51  52
HETATM   52  C   UNL     1     -19.919  -4.927  -9.908  1.00  0.00    -0.000 C 
BRANCH  52  53
HETATM   53  C   UNL     1     -20.804  -4.451 -11.044  1.00  0.00    -0.005 C 
HETATM   54  C   UNL     1     -20.605  -2.963 -11.257  1.00  0.00     0.005 C 
ENDBRANCH  52  53
ENDBRANCH  51  52
ENDBRANCH  50  51
ENDBRANCH  49  50
ENDBRANCH   1  49
TORSDOF 35
BEGIN_RES ARG D 557
REMARK  4 active torsions:
REMARK  status: ('A' for Active; 'I' for Inactive)
REMARK    1  A    between atoms: CA   and  CB  
REMARK    2  A    between atoms: CB   and  CG  
REMARK    3  A    between atoms: CG   and  CD  
REMARK    4  A    between atoms: CD   and  NE  
REMARK       I    between atoms: NE   and  CZ  
REMARK       I    between atoms: CZ   and  NH1 
REMARK       I    between atoms: CZ   and  NH2 
ROOT
ATOM      1  CA  ARG D 557     -26.217   2.705 -17.014  1.00 35.49     0.159 C 
ENDROOT
BRANCH   1   2
ATOM      2  CB  ARG D 557     -26.789   1.319 -17.183  1.00 35.49     0.034 C 
BRANCH   2   3
ATOM      3  CG  ARG D 557     -28.156   1.104 -16.692  1.00 35.49     0.027 C 
BRANCH   3   4
ATOM      4  CD  ARG D 557     -28.791  -0.089 -17.297  1.00 35.49     0.116 C 
BRANCH   4   5
ATOM      5  NE  ARG D 557     -28.178  -1.313 -16.854  1.00 35.49    -0.212 N 
ATOM      6  CZ  ARG D 557     -28.659  -2.523 -17.035  1.00 35.49     0.666 C 
ATOM      7  NH1 ARG D 557     -29.804  -2.745 -17.653  1.00 35.49    -0.235 N 
ATOM      8  NH2 ARG D 557     -27.958  -3.522 -16.584  1.00 35.49    -0.235 N 
ATOM      9  HH  ARG D 557     -30.282  -2.103 -17.960  1.00 35.49     0.174 HD
ATOM     10  HH  ARG D 557     -30.067  -3.556 -17.744  1.00 35.49     0.174 HD
ATOM     11  HH  ARG D 557     -27.218  -3.349 -16.195  1.00 35.49     0.174 HD
ATOM     12  HH  ARG D 557     -28.234  -4.317 -16.685  1.00 35.49     0.174 HD
ATOM     13  HE  ARG D 557     -27.472  -1.259 -16.382  1.00 35.49     0.178 HD
ENDBRANCH   4   5
ENDBRANCH   3   4
ENDBRANCH   2   3
ENDBRANCH   1   2
END_RES ARG D 557
BEGIN_RES GLU D 570
REMARK  3 active torsions:
REMARK  status: ('A' for Active; 'I' for Inactive)
REMARK    5  A    between atoms: CA   and  CB  
REMARK    6  A    between atoms: CB   and  CG  
REMARK    7  A    between atoms: CG   and  CD  
ROOT
ATOM     14  CA  GLU D 570     -18.033  -6.348 -13.375  1.00 32.92     0.160 C 
ENDROOT
BRANCH  14  15
ATOM     15  CB  GLU D 570     -19.500  -6.345 -13.794  1.00 32.92     0.043 C 
BRANCH  15  16
ATOM     16  CG  GLU D 570     -19.807  -6.012 -15.209  1.00 32.92     0.100 C 
BRANCH  16  17
ATOM     17  CD  GLU D 570     -21.145  -5.329 -15.377  1.00 32.92     0.185 C 
ATOM     18  OE1 GLU D 570     -21.529  -5.025 -16.522  1.00 32.92    -0.647 OA
ATOM     19  OE2 GLU D 570     -21.808  -5.082 -14.350  1.00 32.92    -0.647 OA
ENDBRANCH  16  17
ENDBRANCH  15  16
ENDBRANCH  14  15
END_RES GLU D 570
ENDMDL
MODEL 6
REMARK VINA RESULT:      -6.3      2.104      9.772
REMARK WARNING: 32 MAX_TORS EXCEEDED!!!
REMARK  35 active torsions:
REMARK  status: ('A' for Active; 'I' for Inactive)
REMARK    1  A    between atoms: C_2  and  C_3 
REMARK    2  A    between atoms: C_3  and  C_4 
REMARK    3  A    between atoms: C_4  and  C_5 
REMARK    4  A    between atoms: C_5  and  C_6 
REMARK    5  A    between atoms: C_6  and  C_7 
REMARK    6  A    between atoms: C_10  and  C_37 
REMARK    7  A    between atoms: C_11  and  C_19 
REMARK    8  A    between atoms: C_12  and  C_13 
REMARK    9  A    between atoms: C_13  and  C_14 
REMARK   10  A    between atoms: C_14  and  C_15 
REMARK   11  A    between atoms: C_15  and  C_16 
REMARK   12  A    between atoms: C_16  and  C_17 
REMARK   13  A    between atoms: C_20  and  C_21 
REMARK   14  A    between atoms: C_21  and  C_22 
REMARK   15  A    between atoms: C_22  and  C_23 
REMARK   16  A    between atoms: C_23  and  C_24 
REMARK   17  A    between atoms: C_24  and  C_25 
REMARK   18  A    between atoms: C_25  and  C_26 
REMARK   19  A    between atoms: C_26  and  C_27 
REMARK   20  A    between atoms: C_27  and  C_28 
REMARK       I    between atoms: C_28  and  N_30 
REMARK   21  A    between atoms: N_30  and  C_31 
REMARK   22  A    between atoms: C_31  and  C_32 
REMARK   23  A    between atoms: C_32  and  C_33 
REMARK   24  A    between atoms: C_33  and  N_34 
REMARK   25  A    between atoms: C_37  and  C_38 
REMARK   26  A    between atoms: C_38  and  C_39 
REMARK   27  A    between atoms: C_39  and  C_40 
REMARK   28  A    between atoms: C_40  and  C_41 
REMARK   29  A    between atoms: C_41  and  C_42 
REMARK   30  A    between atoms: C_42  and  C_43 
REMARK   31  A    between atoms: C_43  and  C_44 
REMARK       I    between atoms: C_44  and  N_46 
REMARK   32  A    between atoms: N_46  and  C_47 
REMARK   33  A    between atoms: C_47  and  C_48 
REMARK   34  A    between atoms: C_48  and  C_49 
REMARK   35  A    between atoms: C_49  and  N_50 
ROOT
HETATM    1  C   UNL     1     -20.297  -5.593  -5.635  1.00  0.00     0.012 C 
HETATM    2  C   UNL     1     -20.208  -5.122  -4.205  1.00  0.00    -0.025 C 
HETATM    3  C   UNL     1     -20.968  -5.588  -3.213  1.00  0.00    -0.025 C 
HETATM    4  C   UNL     1     -21.938  -6.741  -3.358  1.00  0.00     0.016 C 
HETATM    5  C   UNL     1     -21.728  -7.491  -4.706  1.00  0.00     0.020 C 
HETATM    6  C   UNL     1     -21.583  -6.456  -5.874  1.00  0.00     0.001 C 
ENDROOT
BRANCH   5   7
HETATM    7  C   UNL     1     -20.517  -8.405  -4.661  1.00  0.00    -0.025 C 
HETATM    8  C   UNL     1     -20.515  -9.714  -4.941  1.00  0.00    -0.030 C 
BRANCH   8   9
HETATM    9  C   UNL     1     -19.258 -10.526  -4.879  1.00  0.00     0.027 C 
BRANCH   9  10
HETATM   10  C   UNL     1     -18.046  -9.604  -4.892  1.00  0.00     0.004 C 
BRANCH  10  11
HETATM   11  C   UNL     1     -17.368  -9.599  -3.528  1.00  0.00     0.000 C 
BRANCH  11  12
HETATM   12  C   UNL     1     -15.864  -9.756  -3.685  1.00  0.00     0.000 C 
BRANCH  12  13
HETATM   13  C   UNL     1     -15.513 -10.189  -5.103  1.00  0.00     0.000 C 
BRANCH  13  14
HETATM   14  C   UNL     1     -14.805 -11.536  -5.081  1.00  0.00     0.009 C 
BRANCH  14  15
HETATM   15  C   UNL     1     -15.767 -12.668  -5.397  1.00  0.00     0.103 C 
BRANCH  15  16
HETATM   16  C   UNL     1     -15.981 -13.491  -4.154  1.00  0.00     0.217 C 
HETATM   17  O   UNL     1     -15.184 -14.361  -3.808  1.00  0.00    -0.274 OA
HETATM   18  N   UNL     1     -17.150 -13.140  -3.430  1.00  0.00    -0.361 N 
HETATM   19  H   UNL     1     -17.716 -12.350  -3.719  1.00  0.00     0.162 HD
BRANCH  18  20
HETATM   20  C   UNL     1     -17.464 -13.862  -2.193  1.00  0.00     0.124 C 
BRANCH  20  21
HETATM   21  C   UNL     1     -17.254 -12.966  -1.003  1.00  0.00     0.050 C 
BRANCH  21  22
HETATM   22  C   UNL     1     -17.078 -13.791   0.272  1.00  0.00     0.273 C 
BRANCH  22  23
HETATM   23  N   UNL     1     -16.537 -12.954   1.345  1.00  0.00     0.080 N 
HETATM   24  C   UNL     1     -15.964 -13.780   2.397  1.00  0.00     0.309 C 
HETATM   25  C   UNL     1     -15.491 -12.079   0.806  1.00  0.00     0.309 C 
ENDBRANCH  22  23
ENDBRANCH  21  22
ENDBRANCH  20  21
ENDBRANCH  18  20
ENDBRANCH  15  16
ENDBRANCH  14  15
ENDBRANCH  13  14
ENDBRANCH  12  13
ENDBRANCH  11  12
ENDBRANCH  10  11
ENDBRANCH   9  10
ENDBRANCH   8   9
ENDBRANCH   5   7
BRANCH   4  26
HETATM   26  C   UNL     1     -21.860  -7.685  -2.145  1.00  0.00     0.009 C 
BRANCH  26  27
HETATM   27  C   UNL     1     -22.422  -7.030  -0.887  1.00  0.00     0.001 C 
BRANCH  27  28
HETATM   28  C   UNL     1     -22.825  -8.071   0.138  1.00  0.00     0.000 C 
BRANCH  28  29
HETATM   29  C   UNL     1     -22.557  -9.456  -0.424  1.00  0.00     0.000 C 
BRANCH  29  30
HETATM   30  C   UNL     1     -23.723 -10.387  -0.130  1.00  0.00     0.000 C 
BRANCH  30  31
HETATM   31  C   UNL     1     -23.761 -11.484  -1.178  1.00  0.00     0.009 C 
BRANCH  31  32
HETATM   32  C   UNL     1     -23.027 -11.085  -2.447  1.00  0.00     0.103 C 
BRANCH  32  33
HETATM   33  C   UNL     1     -22.501 -12.318  -3.138  1.00  0.00     0.217 C 
HETATM   34  O   UNL     1     -21.991 -13.260  -2.539  1.00  0.00    -0.274 OA
HETATM   35  N   UNL     1     -22.680 -12.298  -4.498  1.00  0.00    -0.361 N 
HETATM   36  H   UNL     1     -23.233 -11.568  -4.927  1.00  0.00     0.162 HD
BRANCH  35  37
HETATM   37  C   UNL     1     -22.320 -13.448  -5.294  1.00  0.00     0.124 C 
BRANCH  37  38
HETATM   38  C   UNL     1     -21.561 -13.050  -6.561  1.00  0.00     0.050 C 
BRANCH  38  39
HETATM   39  C   UNL     1     -20.288 -13.884  -6.796  1.00  0.00     0.273 C 
BRANCH  39  40
HETATM   40  N   UNL     1     -19.640 -13.620  -8.097  1.00  0.00     0.080 N 
HETATM   41  C   UNL     1     -18.881 -12.374  -8.022  1.00  0.00     0.309 C 
HETATM   42  C   UNL     1     -18.746 -14.713  -8.454  1.00  0.00     0.309 C 
ENDBRANCH  39  40
ENDBRANCH  38  39
ENDBRANCH  37  38
ENDBRANCH  35  37
ENDBRANCH  32  33
ENDBRANCH  31  32
ENDBRANCH  30  31
ENDBRANCH  29  30
ENDBRANCH  28  29
ENDBRANCH  27  28
ENDBRANCH  26  27
ENDBRANCH   4  26
BRANCH   6  43
HETATM   43  C   UNL     1     -22.905  -5.637  -6.030  1.00  0.00     0.006 C 
BRANCH  43  44
HETATM   44  C   UNL     1     -22.913  -4.441  -7.003  1.00  0.00     0.000 C 
BRANCH  44  45
HETATM   45  C   UNL     1     -23.445  -4.775  -8.391  1.00  0.00     0.000 C 
BRANCH  45  46
HETATM   46  C   UNL     1     -24.063  -3.529  -8.988  1.00  0.00    -0.000 C 
BRANCH  46  47
HETATM   47  C   UNL     1     -24.351  -3.692 -10.466  1.00  0.00    -0.005 C 
HETATM   48  C   UNL     1     -23.915  -5.080 -10.899  1.00  0.00     0.005 C 
ENDBRANCH  46  47
ENDBRANCH  45  46
ENDBRANCH  44  45
ENDBRANCH  43  44
ENDBRANCH   6  43
BRANCH   1  49
HETATM   49  C   UNL     1     -20.185  -4.387  -6.560  1.00  0.00     0.009 C 
BRANCH  49  50
HETATM   50  C   UNL     1     -19.107  -4.494  -7.617  1.00  0.00     0.001 C 
BRANCH  50  51
HETATM   51  C   UNL     1     -19.730  -5.002  -8.909  1.00  0.00     0.000 C 
BRANCH  51  52
HETATM   52  C   UNL     1     -20.427  -3.842  -9.591  1.00  0.00    -0.000 C 
BRANCH  52  53
HETATM   53  C   UNL     1     -20.484  -4.045 -11.094  1.00  0.00    -0.005 C 
HETATM   54  C   UNL     1     -21.157  -2.851 -11.744  1.00  0.00     0.005 C 
ENDBRANCH  52  53
ENDBRANCH  51  52
ENDBRANCH  50  51
ENDBRANCH  49  50
ENDBRANCH   1  49
TORSDOF 35
BEGIN_RES ARG D 557
REMARK  4 active torsions:
REMARK  status: ('A' for Active; 'I' for Inactive)
REMARK    1  A    between atoms: CA   and  CB  
REMARK    2  A    between atoms: CB   and  CG  
REMARK    3  A    between atoms: CG   and  CD  
REMARK    4  A    between atoms: CD   and  NE  
REMARK       I    between atoms: NE   and  CZ  
REMARK       I    between atoms: CZ   and  NH1 
REMARK       I    between atoms: CZ   and  NH2 
ROOT
ATOM      1  CA  ARG D 557     -26.217   2.705 -17.014  1.00 35.49     0.159 C 
ENDROOT
BRANCH   1   2
ATOM      2  CB  ARG D 557     -26.789   1.319 -17.183  1.00 35.49     0.034 C 
BRANCH   2   3
ATOM      3  CG  ARG D 557     -25.929   0.197 -16.789  1.00 35.49     0.027 C 
BRANCH   3   4
ATOM      4  CD  ARG D 557     -26.682  -0.879 -16.105  1.00 35.49     0.116 C 
BRANCH   4   5
ATOM      5  NE  ARG D 557     -25.878  -1.567 -15.129  1.00 35.49    -0.212 N 
ATOM      6  CZ  ARG D 557     -25.951  -2.847 -14.840  1.00 35.49     0.666 C 
ATOM      7  NH1 ARG D 557     -26.811  -3.659 -15.426  1.00 35.49    -0.235 N 
ATOM      8  NH2 ARG D 557     -25.129  -3.307 -13.942  1.00 35.49    -0.235 N 
ATOM      9  HH  ARG D 557     -27.360  -3.378 -16.021  1.00 35.49     0.174 HD
ATOM     10  HH  ARG D 557     -26.812  -4.485 -15.198  1.00 35.49     0.174 HD
ATOM     11  HH  ARG D 557     -24.579  -2.761 -13.585  1.00 35.49     0.174 HD
ATOM     12  HH  ARG D 557     -25.143  -4.128 -13.731  1.00 35.49     0.174 HD
ATOM     13  HE  ARG D 557     -25.347  -1.106 -14.652  1.00 35.49     0.178 HD
ENDBRANCH   4   5
ENDBRANCH   3   4
ENDBRANCH   2   3
ENDBRANCH   1   2
END_RES ARG D 557
BEGIN_RES GLU D 570
REMARK  3 active torsions:
REMARK  status: ('A' for Active; 'I' for Inactive)
REMARK    5  A    between atoms: CA   and  CB  
REMARK    6  A    between atoms: CB   and  CG  
REMARK    7  A    between atoms: CG   and  CD  
ROOT
ATOM     14  CA  GLU D 570     -18.033  -6.348 -13.375  1.00 32.92     0.160 C 
ENDROOT
BRANCH  14  15
ATOM     15  CB  GLU D 570     -19.500  -6.345 -13.794  1.00 32.92     0.043 C 
BRANCH  15  16
ATOM     16  CG  GLU D 570     -19.811  -5.959 -15.195  1.00 32.92     0.100 C 
BRANCH  16  17
ATOM     17  CD  GLU D 570     -21.269  -5.623 -15.404  1.00 32.92     0.185 C 
ATOM     18  OE1 GLU D 570     -22.121  -6.125 -14.645  1.00 32.92    -0.647 OA
ATOM     19  OE2 GLU D 570     -21.565  -4.863 -16.346  1.00 32.92    -0.647 OA
ENDBRANCH  16  17
ENDBRANCH  15  16
ENDBRANCH  14  15
END_RES GLU D 570
ENDMDL
MODEL 7
REMARK VINA RESULT:      -6.3      2.191      8.467
REMARK WARNING: 32 MAX_TORS EXCEEDED!!!
REMARK  35 active torsions:
REMARK  status: ('A' for Active; 'I' for Inactive)
REMARK    1  A    between atoms: C_2  and  C_3 
REMARK    2  A    between atoms: C_3  and  C_4 
REMARK    3  A    between atoms: C_4  and  C_5 
REMARK    4  A    between atoms: C_5  and  C_6 
REMARK    5  A    between atoms: C_6  and  C_7 
REMARK    6  A    between atoms: C_10  and  C_37 
REMARK    7  A    between atoms: C_11  and  C_19 
REMARK    8  A    between atoms: C_12  and  C_13 
REMARK    9  A    between atoms: C_13  and  C_14 
REMARK   10  A    between atoms: C_14  and  C_15 
REMARK   11  A    between atoms: C_15  and  C_16 
REMARK   12  A    between atoms: C_16  and  C_17 
REMARK   13  A    between atoms: C_20  and  C_21 
REMARK   14  A    between atoms: C_21  and  C_22 
REMARK   15  A    between atoms: C_22  and  C_23 
REMARK   16  A    between atoms: C_23  and  C_24 
REMARK   17  A    between atoms: C_24  and  C_25 
REMARK   18  A    between atoms: C_25  and  C_26 
REMARK   19  A    between atoms: C_26  and  C_27 
REMARK   20  A    between atoms: C_27  and  C_28 
REMARK       I    between atoms: C_28  and  N_30 
REMARK   21  A    between atoms: N_30  and  C_31 
REMARK   22  A    between atoms: C_31  and  C_32 
REMARK   23  A    between atoms: C_32  and  C_33 
REMARK   24  A    between atoms: C_33  and  N_34 
REMARK   25  A    between atoms: C_37  and  C_38 
REMARK   26  A    between atoms: C_38  and  C_39 
REMARK   27  A    between atoms: C_39  and  C_40 
REMARK   28  A    between atoms: C_40  and  C_41 
REMARK   29  A    between atoms: C_41  and  C_42 
REMARK   30  A    between atoms: C_42  and  C_43 
REMARK   31  A    between atoms: C_43  and  C_44 
REMARK       I    between atoms: C_44  and  N_46 
REMARK   32  A    between atoms: N_46  and  C_47 
REMARK   33  A    between atoms: C_47  and  C_48 
REMARK   34  A    between atoms: C_48  and  C_49 
REMARK   35  A    between atoms: C_49  and  N_50 
ROOT
HETATM    1  C   UNL     1     -20.267  -5.241  -6.157  1.00  0.00     0.012 C 
HETATM    2  C   UNL     1     -20.115  -4.835  -4.713  1.00  0.00    -0.025 C 
HETATM    3  C   UNL     1     -20.801  -5.376  -3.706  1.00  0.00    -0.025 C 
HETATM    4  C   UNL     1     -21.737  -6.556  -3.853  1.00  0.00     0.016 C 
HETATM    5  C   UNL     1     -21.578  -7.233  -5.246  1.00  0.00     0.020 C 
HETATM    6  C   UNL     1     -21.534  -6.139  -6.368  1.00  0.00     0.001 C 
ENDROOT
BRANCH   5   7
HETATM    7  C   UNL     1     -20.335  -8.103  -5.312  1.00  0.00    -0.025 C 
HETATM    8  C   UNL     1     -20.315  -9.440  -5.277  1.00  0.00    -0.030 C 
BRANCH   8   9
HETATM    9  C   UNL     1     -19.030 -10.206  -5.362  1.00  0.00     0.027 C 
BRANCH   9  10
HETATM   10  C   UNL     1     -17.941  -9.323  -5.955  1.00  0.00     0.004 C 
BRANCH  10  11
HETATM   11  C   UNL     1     -16.572  -9.753  -5.442  1.00  0.00     0.000 C 
BRANCH  11  12
HETATM   12  C   UNL     1     -16.530  -9.682  -3.924  1.00  0.00     0.000 C 
BRANCH  12  13
HETATM   13  C   UNL     1     -15.688 -10.816  -3.356  1.00  0.00     0.000 C 
BRANCH  13  14
HETATM   14  C   UNL     1     -16.218 -12.158  -3.840  1.00  0.00     0.009 C 
BRANCH  14  15
HETATM   15  C   UNL     1     -15.104 -13.012  -4.422  1.00  0.00     0.103 C 
BRANCH  15  16
HETATM   16  C   UNL     1     -15.587 -13.642  -5.701  1.00  0.00     0.217 C 
HETATM   17  O   UNL     1     -14.903 -14.453  -6.322  1.00  0.00    -0.274 OA
HETATM   18  N   UNL     1     -16.892 -13.234  -6.083  1.00  0.00    -0.361 N 
HETATM   19  H   UNL     1     -17.440 -12.634  -5.477  1.00  0.00     0.162 HD
BRANCH  18  20
HETATM   20  C   UNL     1     -17.480 -13.787  -7.307  1.00  0.00     0.124 C 
BRANCH  20  21
HETATM   21  C   UNL     1     -18.316 -12.744  -7.996  1.00  0.00     0.050 C 
BRANCH  21  22
HETATM   22  C   UNL     1     -19.733 -13.261  -8.243  1.00  0.00     0.273 C 
BRANCH  22  23
HETATM   23  N   UNL     1     -20.461 -13.370  -6.977  1.00  0.00     0.080 N 
HETATM   24  C   UNL     1     -21.549 -12.405  -6.930  1.00  0.00     0.309 C 
HETATM   25  C   UNL     1     -21.017 -14.720  -6.845  1.00  0.00     0.309 C 
ENDBRANCH  22  23
ENDBRANCH  21  22
ENDBRANCH  20  21
ENDBRANCH  18  20
ENDBRANCH  15  16
ENDBRANCH  14  15
ENDBRANCH  13  14
ENDBRANCH  12  13
ENDBRANCH  11  12
ENDBRANCH  10  11
ENDBRANCH   9  10
ENDBRANCH   8   9
ENDBRANCH   5   7
BRANCH   4  26
HETATM   26  C   UNL     1     -21.559  -7.552  -2.694  1.00  0.00     0.009 C 
BRANCH  26  27
HETATM   27  C   UNL     1     -22.166  -7.021  -1.399  1.00  0.00     0.001 C 
BRANCH  27  28
HETATM   28  C   UNL     1     -21.694  -7.825  -0.205  1.00  0.00     0.000 C 
BRANCH  28  29
HETATM   29  C   UNL     1     -22.705  -8.919   0.094  1.00  0.00     0.000 C 
BRANCH  29  30
HETATM   30  C   UNL     1     -21.998 -10.226   0.417  1.00  0.00     0.000 C 
BRANCH  30  31
HETATM   31  C   UNL     1     -22.870 -11.386  -0.024  1.00  0.00     0.009 C 
BRANCH  31  32
HETATM   32  C   UNL     1     -23.682 -11.049  -1.264  1.00  0.00     0.103 C 
BRANCH  32  33
HETATM   33  C   UNL     1     -22.963 -11.550  -2.492  1.00  0.00     0.217 C 
HETATM   34  O   UNL     1     -22.885 -10.909  -3.535  1.00  0.00    -0.274 OA
HETATM   35  N   UNL     1     -22.378 -12.779  -2.316  1.00  0.00    -0.361 N 
HETATM   36  H   UNL     1     -22.347 -13.200  -1.397  1.00  0.00     0.162 HD
BRANCH  35  37
HETATM   37  C   UNL     1     -21.568 -13.353  -3.364  1.00  0.00     0.124 C 
BRANCH  37  38
HETATM   38  C   UNL     1     -20.079 -13.075  -3.153  1.00  0.00     0.050 C 
BRANCH  38  39
HETATM   39  C   UNL     1     -19.654 -13.119  -1.674  1.00  0.00     0.273 C 
BRANCH  39  40
HETATM   40  N   UNL     1     -18.760 -12.010  -1.282  1.00  0.00     0.080 N 
HETATM   41  C   UNL     1     -19.323 -10.742  -1.738  1.00  0.00     0.309 C 
HETATM   42  C   UNL     1     -18.591 -11.976   0.164  1.00  0.00     0.309 C 
ENDBRANCH  39  40
ENDBRANCH  38  39
ENDBRANCH  37  38
ENDBRANCH  35  37
ENDBRANCH  32  33
ENDBRANCH  31  32
ENDBRANCH  30  31
ENDBRANCH  29  30
ENDBRANCH  28  29
ENDBRANCH  27  28
ENDBRANCH  26  27
ENDBRANCH   4  26
BRANCH   6  43
HETATM   43  C   UNL     1     -22.890  -5.363  -6.412  1.00  0.00     0.006 C 
BRANCH  43  44
HETATM   44  C   UNL     1     -23.145  -4.404  -7.591  1.00  0.00     0.000 C 
BRANCH  44  45
HETATM   45  C   UNL     1     -23.142  -5.084  -8.954  1.00  0.00     0.000 C 
BRANCH  45  46
HETATM   46  C   UNL     1     -24.409  -4.703  -9.691  1.00  0.00    -0.000 C 
BRANCH  46  47
HETATM   47  C   UNL     1     -24.400  -3.252 -10.121  1.00  0.00    -0.005 C 
HETATM   48  C   UNL     1     -24.566  -3.187 -11.629  1.00  0.00     0.005 C 
ENDBRANCH  46  47
ENDBRANCH  45  46
ENDBRANCH  44  45
ENDBRANCH  43  44
ENDBRANCH   6  43
BRANCH   1  49
HETATM   49  C   UNL     1     -20.249  -3.990  -7.027  1.00  0.00     0.009 C 
BRANCH  49  50
HETATM   50  C   UNL     1     -19.352  -4.073  -8.244  1.00  0.00     0.001 C 
BRANCH  50  51
HETATM   51  C   UNL     1     -19.785  -5.256  -9.097  1.00  0.00     0.000 C 
BRANCH  51  52
HETATM   52  C   UNL     1     -19.792  -4.820 -10.549  1.00  0.00    -0.000 C 
BRANCH  52  53
HETATM   53  C   UNL     1     -20.545  -3.514 -10.725  1.00  0.00    -0.005 C 
HETATM   54  C   UNL     1     -21.293  -3.531 -12.043  1.00  0.00     0.005 C 
ENDBRANCH  52  53
ENDBRANCH  51  52
ENDBRANCH  50  51
ENDBRANCH  49  50
ENDBRANCH   1  49
TORSDOF 35
BEGIN_RES ARG D 557
REMARK  4 active torsions:
REMARK  status: ('A' for Active; 'I' for Inactive)
REMARK    1  A    between atoms: CA   and  CB  
REMARK    2  A    between atoms: CB   and  CG  
REMARK    3  A    between atoms: CG   and  CD  
REMARK    4  A    between atoms: CD   and  NE  
REMARK       I    between atoms: NE   and  CZ  
REMARK       I    between atoms: CZ   and  NH1 
REMARK       I    between atoms: CZ   and  NH2 
ROOT
ATOM      1  CA  ARG D 557     -26.217   2.705 -17.014  1.00 35.49     0.159 C 
ENDROOT
BRANCH   1   2
ATOM      2  CB  ARG D 557     -26.789   1.319 -17.183  1.00 35.49     0.034 C 
BRANCH   2   3
ATOM      3  CG  ARG D 557     -28.230   1.227 -17.450  1.00 35.49     0.027 C 
BRANCH   3   4
ATOM      4  CD  ARG D 557     -28.921   0.316 -16.509  1.00 35.49     0.116 C 
BRANCH   4   5
ATOM      5  NE  ARG D 557     -29.297  -0.925 -17.134  1.00 35.49    -0.212 N 
ATOM      6  CZ  ARG D 557     -28.651  -2.065 -17.029  1.00 35.49     0.666 C 
ATOM      7  NH1 ARG D 557     -27.541  -2.188 -16.325  1.00 35.49    -0.235 N 
ATOM      8  NH2 ARG D 557     -29.149  -3.096 -17.647  1.00 35.49    -0.235 N 
ATOM      9  HH  ARG D 557     -27.197  -1.523 -15.909  1.00 35.49     0.174 HD
ATOM     10  HH  ARG D 557     -27.164  -2.957 -16.291  1.00 35.49     0.174 HD
ATOM     11  HH  ARG D 557     -29.871  -2.988 -18.088  1.00 35.49     0.174 HD
ATOM     12  HH  ARG D 557     -28.762  -3.849 -17.600  1.00 35.49     0.174 HD
ATOM     13  HE  ARG D 557     -29.961  -0.919 -17.665  1.00 35.49     0.178 HD
ENDBRANCH   4   5
ENDBRANCH   3   4
ENDBRANCH   2   3
ENDBRANCH   1   2
END_RES ARG D 557
BEGIN_RES GLU D 570
REMARK  3 active torsions:
REMARK  status: ('A' for Active; 'I' for Inactive)
REMARK    5  A    between atoms: CA   and  CB  
REMARK    6  A    between atoms: CB   and  CG  
REMARK    7  A    between atoms: CG   and  CD  
ROOT
ATOM     14  CA  GLU D 570     -18.033  -6.348 -13.375  1.00 32.92     0.160 C 
ENDROOT
BRANCH  14  15
ATOM     15  CB  GLU D 570     -19.500  -6.345 -13.794  1.00 32.92     0.043 C 
BRANCH  15  16
ATOM     16  CG  GLU D 570     -19.811  -5.961 -15.195  1.00 32.92     0.100 C 
BRANCH  16  17
ATOM     17  CD  GLU D 570     -21.268  -5.621 -15.403  1.00 32.92     0.185 C 
ATOM     18  OE1 GLU D 570     -21.578  -4.797 -16.286  1.00 32.92    -0.647 OA
ATOM     19  OE2 GLU D 570     -22.108  -6.172 -14.665  1.00 32.92    -0.647 OA
ENDBRANCH  16  17
ENDBRANCH  15  16
ENDBRANCH  14  15
END_RES GLU D 570
ENDMDL
MODEL 8
REMARK VINA RESULT:      -6.3      2.237      8.908
REMARK WARNING: 32 MAX_TORS EXCEEDED!!!
REMARK  35 active torsions:
REMARK  status: ('A' for Active; 'I' for Inactive)
REMARK    1  A    between atoms: C_2  and  C_3 
REMARK    2  A    between atoms: C_3  and  C_4 
REMARK    3  A    between atoms: C_4  and  C_5 
REMARK    4  A    between atoms: C_5  and  C_6 
REMARK    5  A    between atoms: C_6  and  C_7 
REMARK    6  A    between atoms: C_10  and  C_37 
REMARK    7  A    between atoms: C_11  and  C_19 
REMARK    8  A    between atoms: C_12  and  C_13 
REMARK    9  A    between atoms: C_13  and  C_14 
REMARK   10  A    between atoms: C_14  and  C_15 
REMARK   11  A    between atoms: C_15  and  C_16 
REMARK   12  A    between atoms: C_16  and  C_17 
REMARK   13  A    between atoms: C_20  and  C_21 
REMARK   14  A    between atoms: C_21  and  C_22 
REMARK   15  A    between atoms: C_22  and  C_23 
REMARK   16  A    between atoms: C_23  and  C_24 
REMARK   17  A    between atoms: C_24  and  C_25 
REMARK   18  A    between atoms: C_25  and  C_26 
REMARK   19  A    between atoms: C_26  and  C_27 
REMARK   20  A    between atoms: C_27  and  C_28 
REMARK       I    between atoms: C_28  and  N_30 
REMARK   21  A    between atoms: N_30  and  C_31 
REMARK   22  A    between atoms: C_31  and  C_32 
REMARK   23  A    between atoms: C_32  and  C_33 
REMARK   24  A    between atoms: C_33  and  N_34 
REMARK   25  A    between atoms: C_37  and  C_38 
REMARK   26  A    between atoms: C_38  and  C_39 
REMARK   27  A    between atoms: C_39  and  C_40 
REMARK   28  A    between atoms: C_40  and  C_41 
REMARK   29  A    between atoms: C_41  and  C_42 
REMARK   30  A    between atoms: C_42  and  C_43 
REMARK   31  A    between atoms: C_43  and  C_44 
REMARK       I    between atoms: C_44  and  N_46 
REMARK   32  A    between atoms: N_46  and  C_47 
REMARK   33  A    between atoms: C_47  and  C_48 
REMARK   34  A    between atoms: C_48  and  C_49 
REMARK   35  A    between atoms: C_49  and  N_50 
ROOT
HETATM    1  C   UNL     1     -20.293  -5.594  -5.458  1.00  0.00     0.012 C 
HETATM    2  C   UNL     1     -20.325  -5.088  -4.038  1.00  0.00    -0.025 C 
HETATM    3  C   UNL     1     -21.089  -5.604  -3.075  1.00  0.00    -0.025 C 
HETATM    4  C   UNL     1     -21.937  -6.847  -3.239  1.00  0.00     0.016 C 
HETATM    5  C   UNL     1     -21.587  -7.600  -4.555  1.00  0.00     0.020 C 
HETATM    6  C   UNL     1     -21.478  -6.580  -5.740  1.00  0.00     0.001 C 
ENDROOT
BRANCH   5   7
HETATM    7  C   UNL     1     -20.299  -8.394  -4.426  1.00  0.00    -0.025 C 
HETATM    8  C   UNL     1     -20.162  -9.704  -4.664  1.00  0.00    -0.030 C 
BRANCH   8   9
HETATM    9  C   UNL     1     -18.839 -10.391  -4.518  1.00  0.00     0.027 C 
BRANCH   9  10
HETATM   10  C   UNL     1     -17.973  -9.639  -3.517  1.00  0.00     0.004 C 
BRANCH  10  11
HETATM   11  C   UNL     1     -16.497  -9.878  -3.807  1.00  0.00     0.000 C 
BRANCH  11  12
HETATM   12  C   UNL     1     -15.706  -9.934  -2.509  1.00  0.00     0.000 C 
BRANCH  12  13
HETATM   13  C   UNL     1     -16.022 -11.211  -1.741  1.00  0.00     0.000 C 
BRANCH  13  14
HETATM   14  C   UNL     1     -15.829 -12.425  -2.639  1.00  0.00     0.009 C 
BRANCH  14  15
HETATM   15  C   UNL     1     -14.465 -13.058  -2.421  1.00  0.00     0.103 C 
BRANCH  15  16
HETATM   16  C   UNL     1     -13.829 -13.325  -3.759  1.00  0.00     0.217 C 
HETATM   17  O   UNL     1     -13.107 -14.302  -3.950  1.00  0.00    -0.274 OA
HETATM   18  N   UNL     1     -14.171 -12.374  -4.755  1.00  0.00    -0.361 N 
HETATM   19  H   UNL     1     -14.846 -11.644  -4.558  1.00  0.00     0.162 HD
BRANCH  18  20
HETATM   20  C   UNL     1     -13.623 -12.530  -6.106  1.00  0.00     0.124 C 
BRANCH  20  21
HETATM   21  C   UNL     1     -14.602 -12.016  -7.125  1.00  0.00     0.050 C 
BRANCH  21  22
HETATM   22  C   UNL     1     -16.040 -12.213  -6.644  1.00  0.00     0.273 C 
BRANCH  22  23
HETATM   23  N   UNL     1     -16.559 -13.499  -7.115  1.00  0.00     0.080 N 
HETATM   24  C   UNL     1     -16.952 -14.334  -5.989  1.00  0.00     0.309 C 
HETATM   25  C   UNL     1     -17.729 -13.273  -7.970  1.00  0.00     0.309 C 
ENDBRANCH  22  23
ENDBRANCH  21  22
ENDBRANCH  20  21
ENDBRANCH  18  20
ENDBRANCH  15  16
ENDBRANCH  14  15
ENDBRANCH  13  14
ENDBRANCH  12  13
ENDBRANCH  11  12
ENDBRANCH  10  11
ENDBRANCH   9  10
ENDBRANCH   8   9
ENDBRANCH   5   7
BRANCH   4  26
HETATM   26  C   UNL     1     -21.837  -7.754  -2.000  1.00  0.00     0.009 C 
BRANCH  26  27
HETATM   27  C   UNL     1     -22.327  -7.043  -0.742  1.00  0.00     0.001 C 
BRANCH  27  28
HETATM   28  C   UNL     1     -23.009  -8.013   0.202  1.00  0.00     0.000 C 
BRANCH  28  29
HETATM   29  C   UNL     1     -22.560  -9.427  -0.123  1.00  0.00     0.000 C 
BRANCH  29  30
HETATM   30  C   UNL     1     -23.748 -10.377  -0.129  1.00  0.00     0.000 C 
BRANCH  30  31
HETATM   31  C   UNL     1     -23.613 -11.336  -1.297  1.00  0.00     0.009 C 
BRANCH  31  32
HETATM   32  C   UNL     1     -22.258 -11.220  -1.975  1.00  0.00     0.103 C 
BRANCH  32  33
HETATM   33  C   UNL     1     -21.496 -12.511  -1.808  1.00  0.00     0.217 C 
HETATM   34  O   UNL     1     -22.022 -13.617  -1.873  1.00  0.00    -0.274 OA
HETATM   35  N   UNL     1     -20.151 -12.326  -1.610  1.00  0.00    -0.361 N 
HETATM   36  H   UNL     1     -19.744 -11.405  -1.709  1.00  0.00     0.162 HD
BRANCH  35  37
HETATM   37  C   UNL     1     -19.266 -13.465  -1.532  1.00  0.00     0.124 C 
BRANCH  37  38
HETATM   38  C   UNL     1     -18.562 -13.548  -0.176  1.00  0.00     0.050 C 
BRANCH  38  39
HETATM   39  C   UNL     1     -17.392 -14.549  -0.158  1.00  0.00     0.273 C 
BRANCH  39  40
HETATM   40  N   UNL     1     -16.541 -14.441   1.046  1.00  0.00     0.080 N 
HETATM   41  C   UNL     1     -16.404 -13.037   1.424  1.00  0.00     0.309 C 
HETATM   42  C   UNL     1     -17.123 -15.188   2.152  1.00  0.00     0.309 C 
ENDBRANCH  39  40
ENDBRANCH  38  39
ENDBRANCH  37  38
ENDBRANCH  35  37
ENDBRANCH  32  33
ENDBRANCH  31  32
ENDBRANCH  30  31
ENDBRANCH  29  30
ENDBRANCH  28  29
ENDBRANCH  27  28
ENDBRANCH  26  27
ENDBRANCH   4  26
BRANCH   6  43
HETATM   43  C   UNL     1     -22.861  -5.894  -5.984  1.00  0.00     0.006 C 
BRANCH  43  44
HETATM   44  C   UNL     1     -22.900  -4.615  -6.844  1.00  0.00     0.000 C 
BRANCH  44  45
HETATM   45  C   UNL     1     -23.271  -4.859  -8.301  1.00  0.00     0.000 C 
BRANCH  45  46
HETATM   46  C   UNL     1     -23.528  -3.524  -8.968  1.00  0.00    -0.000 C 
BRANCH  46  47
HETATM   47  C   UNL     1     -24.273  -3.679 -10.277  1.00  0.00    -0.005 C 
HETATM   48  C   UNL     1     -23.844  -4.979 -10.934  1.00  0.00     0.005 C 
ENDBRANCH  46  47
ENDBRANCH  45  46
ENDBRANCH  44  45
ENDBRANCH  43  44
ENDBRANCH   6  43
BRANCH   1  49
HETATM   49  C   UNL     1     -20.246  -4.402  -6.407  1.00  0.00     0.009 C 
BRANCH  49  50
HETATM   50  C   UNL     1     -19.185  -4.487  -7.483  1.00  0.00     0.001 C 
BRANCH  50  51
HETATM   51  C   UNL     1     -19.725  -3.863  -8.760  1.00  0.00     0.000 C 
BRANCH  51  52
HETATM   52  C   UNL     1     -20.090  -4.978  -9.719  1.00  0.00    -0.000 C 
BRANCH  52  53
HETATM   53  C   UNL     1     -20.344  -4.439 -11.114  1.00  0.00    -0.005 C 
HETATM   54  C   UNL     1     -20.556  -2.939 -11.050  1.00  0.00     0.005 C 
ENDBRANCH  52  53
ENDBRANCH  51  52
ENDBRANCH  50  51
ENDBRANCH  49  50
ENDBRANCH   1  49
TORSDOF 35
BEGIN_RES ARG D 557
REMARK  4 active torsions:
REMARK  status: ('A' for Active; 'I' for Inactive)
REMARK    1  A    between atoms: CA   and  CB  
REMARK    2  A    between atoms: CB   and  CG  
REMARK    3  A    between atoms: CG   and  CD  
REMARK    4  A    between atoms: CD   and  NE  
REMARK       I    between atoms: NE   and  CZ  
REMARK       I    between atoms: CZ   and  NH1 
REMARK       I    between atoms: CZ   and  NH2 
ROOT
ATOM      1  CA  ARG D 557     -26.217   2.705 -17.014  1.00 35.49     0.159 C 
ENDROOT
BRANCH   1   2
ATOM      2  CB  ARG D 557     -26.789   1.319 -17.183  1.00 35.49     0.034 C 
BRANCH   2   3
ATOM      3  CG  ARG D 557     -25.864   0.195 -16.995  1.00 35.49     0.027 C 
BRANCH   3   4
ATOM      4  CD  ARG D 557     -26.263  -0.683 -15.872  1.00 35.49     0.116 C 
BRANCH   4   5
ATOM      5  NE  ARG D 557     -25.194  -0.878 -14.929  1.00 35.49    -0.212 N 
ATOM      6  CZ  ARG D 557     -24.882  -2.013 -14.345  1.00 35.49     0.666 C 
ATOM      7  NH1 ARG D 557     -25.552  -3.130 -14.561  1.00 35.49    -0.235 N 
ATOM      8  NH2 ARG D 557     -23.866  -2.010 -13.531  1.00 35.49    -0.235 N 
ATOM      9  HH  ARG D 557     -26.223  -3.155 -15.094  1.00 35.49     0.174 HD
ATOM     10  HH  ARG D 557     -25.301  -3.841 -14.154  1.00 35.49     0.174 HD
ATOM     11  HH  ARG D 557     -23.448  -1.276 -13.416  1.00 35.49     0.174 HD
ATOM     12  HH  ARG D 557     -23.632  -2.724 -13.139  1.00 35.49     0.174 HD
ATOM     13  HE  ARG D 557     -24.756  -0.194 -14.675  1.00 35.49     0.178 HD
ENDBRANCH   4   5
ENDBRANCH   3   4
ENDBRANCH   2   3
ENDBRANCH   1   2
END_RES ARG D 557
BEGIN_RES GLU D 570
REMARK  3 active torsions:
REMARK  status: ('A' for Active; 'I' for Inactive)
REMARK    5  A    between atoms: CA   and  CB  
REMARK    6  A    between atoms: CB   and  CG  
REMARK    7  A    between atoms: CG   and  CD  
ROOT
ATOM     14  CA  GLU D 570     -18.033  -6.348 -13.375  1.00 32.92     0.160 C 
ENDROOT
BRANCH  14  15
ATOM     15  CB  GLU D 570     -19.500  -6.345 -13.794  1.00 32.92     0.043 C 
BRANCH  15  16
ATOM     16  CG  GLU D 570     -20.110  -7.649 -14.161  1.00 32.92     0.100 C 
BRANCH  16  17
ATOM     17  CD  GLU D 570     -21.052  -7.549 -15.338  1.00 32.92     0.185 C 
ATOM     18  OE1 GLU D 570     -20.876  -8.296 -16.319  1.00 32.92    -0.647 OA
ATOM     19  OE2 GLU D 570     -21.965  -6.702 -15.285  1.00 32.92    -0.647 OA
ENDBRANCH  16  17
ENDBRANCH  15  16
ENDBRANCH  14  15
END_RES GLU D 570
ENDMDL
MODEL 9
REMARK VINA RESULT:      -6.3      2.479      8.677
REMARK WARNING: 32 MAX_TORS EXCEEDED!!!
REMARK  35 active torsions:
REMARK  status: ('A' for Active; 'I' for Inactive)
REMARK    1  A    between atoms: C_2  and  C_3 
REMARK    2  A    between atoms: C_3  and  C_4 
REMARK    3  A    between atoms: C_4  and  C_5 
REMARK    4  A    between atoms: C_5  and  C_6 
REMARK    5  A    between atoms: C_6  and  C_7 
REMARK    6  A    between atoms: C_10  and  C_37 
REMARK    7  A    between atoms: C_11  and  C_19 
REMARK    8  A    between atoms: C_12  and  C_13 
REMARK    9  A    between atoms: C_13  and  C_14 
REMARK   10  A    between atoms: C_14  and  C_15 
REMARK   11  A    between atoms: C_15  and  C_16 
REMARK   12  A    between atoms: C_16  and  C_17 
REMARK   13  A    between atoms: C_20  and  C_21 
REMARK   14  A    between atoms: C_21  and  C_22 
REMARK   15  A    between atoms: C_22  and  C_23 
REMARK   16  A    between atoms: C_23  and  C_24 
REMARK   17  A    between atoms: C_24  and  C_25 
REMARK   18  A    between atoms: C_25  and  C_26 
REMARK   19  A    between atoms: C_26  and  C_27 
REMARK   20  A    between atoms: C_27  and  C_28 
REMARK       I    between atoms: C_28  and  N_30 
REMARK   21  A    between atoms: N_30  and  C_31 
REMARK   22  A    between atoms: C_31  and  C_32 
REMARK   23  A    between atoms: C_32  and  C_33 
REMARK   24  A    between atoms: C_33  and  N_34 
REMARK   25  A    between atoms: C_37  and  C_38 
REMARK   26  A    between atoms: C_38  and  C_39 
REMARK   27  A    between atoms: C_39  and  C_40 
REMARK   28  A    between atoms: C_40  and  C_41 
REMARK   29  A    between atoms: C_41  and  C_42 
REMARK   30  A    between atoms: C_42  and  C_43 
REMARK   31  A    between atoms: C_43  and  C_44 
REMARK       I    between atoms: C_44  and  N_46 
REMARK   32  A    between atoms: N_46  and  C_47 
REMARK   33  A    between atoms: C_47  and  C_48 
REMARK   34  A    between atoms: C_48  and  C_49 
REMARK   35  A    between atoms: C_49  and  N_50 
ROOT
HETATM    1  C   UNL     1     -20.050  -5.325  -7.262  1.00  0.00     0.012 C 
HETATM    2  C   UNL     1     -19.388  -4.789  -6.018  1.00  0.00    -0.025 C 
HETATM    3  C   UNL     1     -19.928  -4.838  -4.800  1.00  0.00    -0.025 C 
HETATM    4  C   UNL     1     -21.225  -5.548  -4.475  1.00  0.00     0.016 C 
HETATM    5  C   UNL     1     -21.691  -6.445  -5.659  1.00  0.00     0.020 C 
HETATM    6  C   UNL     1     -21.560  -5.657  -7.008  1.00  0.00     0.001 C 
ENDROOT
BRANCH   5   7
HETATM    7  C   UNL     1     -20.901  -7.740  -5.730  1.00  0.00    -0.025 C 
HETATM    8  C   UNL     1     -21.302  -8.926  -5.255  1.00  0.00    -0.030 C 
BRANCH   8   9
HETATM    9  C   UNL     1     -20.449 -10.151  -5.388  1.00  0.00     0.027 C 
BRANCH   9  10
HETATM   10  C   UNL     1     -19.211 -10.016  -4.513  1.00  0.00     0.004 C 
BRANCH  10  11
HETATM   11  C   UNL     1     -19.445 -10.673  -3.158  1.00  0.00     0.000 C 
BRANCH  11  12
HETATM   12  C   UNL     1     -18.227 -10.493  -2.266  1.00  0.00     0.000 C 
BRANCH  12  13
HETATM   13  C   UNL     1     -17.398  -9.299  -2.722  1.00  0.00     0.000 C 
BRANCH  13  14
HETATM   14  C   UNL     1     -15.922  -9.669  -2.760  1.00  0.00     0.009 C 
BRANCH  14  15
HETATM   15  C   UNL     1     -15.732 -11.143  -3.072  1.00  0.00     0.103 C 
BRANCH  15  16
HETATM   16  C   UNL     1     -15.669 -11.325  -4.565  1.00  0.00     0.217 C 
HETATM   17  O   UNL     1     -15.379 -10.397  -5.319  1.00  0.00    -0.274 OA
HETATM   18  N   UNL     1     -15.941 -12.650  -4.993  1.00  0.00    -0.361 N 
HETATM   19  H   UNL     1     -16.082 -13.390  -4.314  1.00  0.00     0.162 HD
BRANCH  18  20
HETATM   20  C   UNL     1     -15.900 -12.958  -6.426  1.00  0.00     0.124 C 
BRANCH  20  21
HETATM   21  C   UNL     1     -16.417 -14.348  -6.672  1.00  0.00     0.050 C 
BRANCH  21  22
HETATM   22  C   UNL     1     -17.834 -14.306  -7.243  1.00  0.00     0.273 C 
BRANCH  22  23
HETATM   23  N   UNL     1     -17.801 -13.905  -8.651  1.00  0.00     0.080 N 
HETATM   24  C   UNL     1     -18.235 -15.001  -9.505  1.00  0.00     0.309 C 
HETATM   25  C   UNL     1     -18.695 -12.761  -8.857  1.00  0.00     0.309 C 
ENDBRANCH  22  23
ENDBRANCH  21  22
ENDBRANCH  20  21
ENDBRANCH  18  20
ENDBRANCH  15  16
ENDBRANCH  14  15
ENDBRANCH  13  14
ENDBRANCH  12  13
ENDBRANCH  11  12
ENDBRANCH  10  11
ENDBRANCH   9  10
ENDBRANCH   8   9
ENDBRANCH   5   7
BRANCH   4  26
HETATM   26  C   UNL     1     -21.112  -6.332  -3.155  1.00  0.00     0.009 C 
BRANCH  26  27
HETATM   27  C   UNL     1     -22.261  -6.004  -2.207  1.00  0.00     0.001 C 
BRANCH  27  28
HETATM   28  C   UNL     1     -22.298  -6.968  -1.039  1.00  0.00     0.000 C 
BRANCH  28  29
HETATM   29  C   UNL     1     -21.156  -7.961  -1.174  1.00  0.00     0.000 C 
BRANCH  29  30
HETATM   30  C   UNL     1     -20.807  -8.561   0.179  1.00  0.00     0.000 C 
BRANCH  30  31
HETATM   31  C   UNL     1     -21.544  -9.877   0.345  1.00  0.00     0.009 C 
BRANCH  31  32
HETATM   32  C   UNL     1     -20.602 -11.018   0.689  1.00  0.00     0.103 C 
BRANCH  32  33
HETATM   33  C   UNL     1     -21.298 -12.337   0.460  1.00  0.00     0.217 C 
HETATM   34  O   UNL     1     -20.702 -13.405   0.366  1.00  0.00    -0.274 OA
HETATM   35  N   UNL     1     -22.664 -12.228   0.402  1.00  0.00    -0.361 N 
HETATM   36  H   UNL     1     -23.114 -11.351   0.630  1.00  0.00     0.162 HD
BRANCH  35  37
HETATM   37  C   UNL     1     -23.482 -13.412   0.287  1.00  0.00     0.124 C 
BRANCH  37  38
HETATM   38  C   UNL     1     -24.032 -13.591  -1.129  1.00  0.00     0.050 C 
BRANCH  38  39
HETATM   39  C   UNL     1     -23.298 -14.677  -1.935  1.00  0.00     0.273 C 
BRANCH  39  40
HETATM   40  N   UNL     1     -22.350 -14.136  -2.930  1.00  0.00     0.080 N 
HETATM   41  C   UNL     1     -22.538 -14.817  -4.209  1.00  0.00     0.309 C 
HETATM   42  C   UNL     1     -22.555 -12.705  -3.107  1.00  0.00     0.309 C 
ENDBRANCH  39  40
ENDBRANCH  38  39
ENDBRANCH  37  38
ENDBRANCH  35  37
ENDBRANCH  32  33
ENDBRANCH  31  32
ENDBRANCH  30  31
ENDBRANCH  29  30
ENDBRANCH  28  29
ENDBRANCH  27  28
ENDBRANCH  26  27
ENDBRANCH   4  26
BRANCH   6  43
HETATM   43  C   UNL     1     -22.514  -4.418  -6.996  1.00  0.00     0.006 C 
BRANCH  43  44
HETATM   44  C   UNL     1     -23.228  -4.035  -8.307  1.00  0.00     0.000 C 
BRANCH  44  45
HETATM   45  C   UNL     1     -23.437  -5.203  -9.263  1.00  0.00     0.000 C 
BRANCH  45  46
HETATM   46  C   UNL     1     -24.545  -4.847 -10.232  1.00  0.00    -0.000 C 
BRANCH  46  47
HETATM   47  C   UNL     1     -24.679  -3.350 -10.414  1.00  0.00    -0.005 C 
HETATM   48  C   UNL     1     -24.787  -3.045 -11.897  1.00  0.00     0.005 C 
ENDBRANCH  46  47
ENDBRANCH  45  46
ENDBRANCH  44  45
ENDBRANCH  43  44
ENDBRANCH   6  43
BRANCH   1  49
HETATM   49  C   UNL     1     -19.821  -4.344  -8.405  1.00  0.00     0.009 C 
BRANCH  49  50
HETATM   50  C   UNL     1     -19.896  -4.951  -9.790  1.00  0.00     0.001 C 
BRANCH  50  51
HETATM   51  C   UNL     1     -20.364  -3.888 -10.772  1.00  0.00     0.000 C 
BRANCH  51  52
HETATM   52  C   UNL     1     -21.230  -4.556 -11.822  1.00  0.00    -0.000 C 
BRANCH  52  53
HETATM   53  C   UNL     1     -21.834  -3.533 -12.765  1.00  0.00    -0.005 C 
HETATM   54  C   UNL     1     -22.317  -4.224 -14.025  1.00  0.00     0.005 C 
ENDBRANCH  52  53
ENDBRANCH  51  52
ENDBRANCH  50  51
ENDBRANCH  49  50
ENDBRANCH   1  49
TORSDOF 35
BEGIN_RES ARG D 557
REMARK  4 active torsions:
REMARK  status: ('A' for Active; 'I' for Inactive)
REMARK    1  A    between atoms: CA   and  CB  
REMARK    2  A    between atoms: CB   and  CG  
REMARK    3  A    between atoms: CG   and  CD  
REMARK    4  A    between atoms: CD   and  NE  
REMARK       I    between atoms: NE   and  CZ  
REMARK       I    between atoms: CZ   and  NH1 
REMARK       I    between atoms: CZ   and  NH2 
ROOT
ATOM      1  CA  ARG D 557     -26.217   2.705 -17.014  1.00 35.49     0.159 C 
ENDROOT
BRANCH   1   2
ATOM      2  CB  ARG D 557     -26.789   1.319 -17.183  1.00 35.49     0.034 C 
BRANCH   2   3
ATOM      3  CG  ARG D 557     -28.239   1.224 -17.391  1.00 35.49     0.027 C 
BRANCH   3   4
ATOM      4  CD  ARG D 557     -28.883   0.278 -16.450  1.00 35.49     0.116 C 
BRANCH   4   5
ATOM      5  NE  ARG D 557     -29.286  -0.942 -17.099  1.00 35.49    -0.212 N 
ATOM      6  CZ  ARG D 557     -28.654  -2.092 -17.032  1.00 35.49     0.666 C 
ATOM      7  NH1 ARG D 557     -27.535  -2.248 -16.349  1.00 35.49    -0.235 N 
ATOM      8  NH2 ARG D 557     -29.176  -3.101 -17.667  1.00 35.49    -0.235 N 
ATOM      9  HH  ARG D 557     -27.175  -1.598 -15.922  1.00 35.49     0.174 HD
ATOM     10  HH  ARG D 557     -27.169  -3.022 -16.339  1.00 35.49     0.174 HD
ATOM     11  HH  ARG D 557     -29.903  -2.973 -18.093  1.00 35.49     0.174 HD
ATOM     12  HH  ARG D 557     -28.799  -3.860 -17.644  1.00 35.49     0.174 HD
ATOM     13  HE  ARG D 557     -29.958  -0.914 -17.619  1.00 35.49     0.178 HD
ENDBRANCH   4   5
ENDBRANCH   3   4
ENDBRANCH   2   3
ENDBRANCH   1   2
END_RES ARG D 557
BEGIN_RES GLU D 570
REMARK  3 active torsions:
REMARK  status: ('A' for Active; 'I' for Inactive)
REMARK    5  A    between atoms: CA   and  CB  
REMARK    6  A    between atoms: CB   and  CG  
REMARK    7  A    between atoms: CG   and  CD  
ROOT
ATOM     14  CA  GLU D 570     -18.033  -6.348 -13.375  1.00 32.92     0.160 C 
ENDROOT
BRANCH  14  15
ATOM     15  CB  GLU D 570     -19.500  -6.345 -13.794  1.00 32.92     0.043 C 
BRANCH  15  16
ATOM     16  CG  GLU D 570     -20.072  -7.622 -14.292  1.00 32.92     0.100 C 
BRANCH  16  17
ATOM     17  CD  GLU D 570     -20.727  -7.486 -15.647  1.00 32.92     0.185 C 
ATOM     18  OE1 GLU D 570     -20.553  -6.440 -16.301  1.00 32.92    -0.647 OA
ATOM     19  OE2 GLU D 570     -21.435  -8.429 -16.052  1.00 32.92    -0.647 OA
ENDBRANCH  16  17
ENDBRANCH  15  16
ENDBRANCH  14  15
END_RES GLU D 570
ENDMDL
