MODEL 1
REMARK VINA RESULT:      -7.9      0.000      0.000
REMARK  6 active torsions:
REMARK  status: ('A' for Active; 'I' for Inactive)
REMARK    1  A    between atoms: O_2  and  C_3 
REMARK    2  A    between atoms: C_4  and  S_18 
REMARK    3  A    between atoms: C_6  and  C_10 
REMARK    4  A    between atoms: C_7  and  O_9 
REMARK    5  A    between atoms: C_10  and  C_12 
REMARK    6  A    between atoms: S_18  and  O_21 
ROOT
HETATM    1  C   UNL     1     -23.597  -6.968 -18.070  1.00  0.00     0.094 A 
HETATM    2  C   UNL     1     -24.791  -7.019 -18.800  1.00  0.00     0.106 A 
HETATM    3  C   UNL     1     -26.029  -6.874 -18.131  1.00  0.00     0.046 A 
HETATM    4  C   UNL     1     -26.093  -6.647 -16.753  1.00  0.00     0.050 A 
HETATM    5  C   UNL     1     -24.911  -6.634 -16.022  1.00  0.00     0.082 A 
HETATM    6  C   UNL     1     -23.690  -6.783 -16.674  1.00  0.00     0.075 A 
ENDROOT
BRANCH   4   7
HETATM    7  C   UNL     1     -27.391  -6.446 -16.064  1.00  0.00     0.195 C 
HETATM    8  O   UNL     1     -27.595  -7.065 -15.020  1.00  0.00    -0.287 OA
BRANCH   7   9
HETATM    9  C   UNL     1     -28.411  -5.493 -16.567  1.00  0.00     0.015 A 
HETATM   10  C   UNL     1     -28.092  -4.160 -16.853  1.00  0.00     0.015 A 
HETATM   11  C   UNL     1     -29.080  -3.287 -17.311  1.00  0.00     0.001 A 
HETATM   12  C   UNL     1     -30.392  -3.740 -17.461  1.00  0.00     0.000 A 
HETATM   13  C   UNL     1     -30.719  -5.060 -17.153  1.00  0.00     0.001 A 
HETATM   14  C   UNL     1     -29.730  -5.937 -16.703  1.00  0.00     0.015 A 
ENDBRANCH   7   9
ENDBRANCH   4   7
BRANCH   5  15
HETATM   15  O   UNL     1     -24.876  -6.471 -14.666  1.00  0.00    -0.360 OA
HETATM   16  H   UNL     1     -25.110  -5.536 -14.466  1.00  0.00     0.217 HD
ENDBRANCH   5  15
BRANCH   2  17
HETATM   17  S   UNL     1     -24.903  -7.270 -20.551  1.00  0.00     0.132 S 
HETATM   18  O   UNL     1     -25.189  -5.998 -21.178  1.00  0.00    -0.597 OA
HETATM   19  O   UNL     1     -23.809  -8.117 -20.956  1.00  0.00    -0.597 OA
BRANCH  17  20
HETATM   20  O   UNL     1     -26.262  -8.112 -20.786  1.00  0.00    -0.292 OA
HETATM   21  H   UNL     1     -26.004  -8.982 -21.161  1.00  0.00     0.232 HD
ENDBRANCH  17  20
ENDBRANCH   2  17
BRANCH   1  22
HETATM   22  O   UNL     1     -22.287  -7.079 -18.418  1.00  0.00    -0.354 OA
HETATM   23  C   UNL     1     -21.258  -6.257 -17.904  1.00  0.00     0.210 C 
ENDBRANCH   1  22
TORSDOF 6
BEGIN_RES ARG D 557
REMARK  4 active torsions:
REMARK  status: ('A' for Active; 'I' for Inactive)
REMARK    1  A    between atoms: CA   and  CB  
REMARK    2  A    between atoms: CB   and  CG  
REMARK    3  A    between atoms: CG   and  CD  
REMARK    4  A    between atoms: CD   and  NE  
REMARK       I    between atoms: NE   and  CZ  
REMARK       I    between atoms: CZ   and  NH1 
REMARK       I    between atoms: CZ   and  NH2 
ROOT
ATOM      1  CA  ARG D 557     -26.217   2.705 -17.014  1.00 35.49     0.159 C 
ENDROOT
BRANCH   1   2
ATOM      2  CB  ARG D 557     -26.789   1.319 -17.183  1.00 35.49     0.034 C 
BRANCH   2   3
ATOM      3  CG  ARG D 557     -25.865   0.195 -16.989  1.00 35.49     0.027 C 
BRANCH   3   4
ATOM      4  CD  ARG D 557     -26.286  -0.697 -15.884  1.00 35.49     0.116 C 
BRANCH   4   5
ATOM      5  NE  ARG D 557     -25.228  -0.919 -14.934  1.00 35.49    -0.212 N 
ATOM      6  CZ  ARG D 557     -24.907  -2.075 -14.398  1.00 35.49     0.666 C 
ATOM      7  NH1 ARG D 557     -25.556  -3.191 -14.677  1.00 35.49    -0.235 N 
ATOM      8  NH2 ARG D 557     -23.904  -2.095 -13.569  1.00 35.49    -0.235 N 
ATOM      9  HH  ARG D 557     -26.218  -3.201 -15.221  1.00 35.49     0.174 HD
ATOM     10  HH  ARG D 557     -25.300  -3.916 -14.298  1.00 35.49     0.174 HD
ATOM     11  HH  ARG D 557     -23.499  -1.361 -13.414  1.00 35.49     0.174 HD
ATOM     12  HH  ARG D 557     -23.665  -2.823 -13.206  1.00 35.49     0.174 HD
ATOM     13  HE  ARG D 557     -24.804  -0.242 -14.643  1.00 35.49     0.178 HD
ENDBRANCH   4   5
ENDBRANCH   3   4
ENDBRANCH   2   3
ENDBRANCH   1   2
END_RES ARG D 557
BEGIN_RES GLU D 570
REMARK  3 active torsions:
REMARK  status: ('A' for Active; 'I' for Inactive)
REMARK    5  A    between atoms: CA   and  CB  
REMARK    6  A    between atoms: CB   and  CG  
REMARK    7  A    between atoms: CG   and  CD  
ROOT
ATOM     14  CA  GLU D 570     -18.033  -6.348 -13.375  1.00 32.92     0.160 C 
ENDROOT
BRANCH  14  15
ATOM     15  CB  GLU D 570     -19.500  -6.345 -13.794  1.00 32.92     0.043 C 
BRANCH  15  16
ATOM     16  CG  GLU D 570     -20.449  -5.565 -12.958  1.00 32.92     0.100 C 
BRANCH  16  17
ATOM     17  CD  GLU D 570     -21.671  -5.111 -13.722  1.00 32.92     0.185 C 
ATOM     18  OE1 GLU D 570     -21.544  -4.747 -14.907  1.00 32.92    -0.647 OA
ATOM     19  OE2 GLU D 570     -22.765  -5.103 -13.124  1.00 32.92    -0.647 OA
ENDBRANCH  16  17
ENDBRANCH  15  16
ENDBRANCH  14  15
END_RES GLU D 570
ENDMDL
MODEL 2
REMARK VINA RESULT:      -7.9      3.495      7.121
REMARK  6 active torsions:
REMARK  status: ('A' for Active; 'I' for Inactive)
REMARK    1  A    between atoms: O_2  and  C_3 
REMARK    2  A    between atoms: C_4  and  S_18 
REMARK    3  A    between atoms: C_6  and  C_10 
REMARK    4  A    between atoms: C_7  and  O_9 
REMARK    5  A    between atoms: C_10  and  C_12 
REMARK    6  A    between atoms: S_18  and  O_21 
ROOT
HETATM    1  C   UNL     1     -24.286  -3.283 -14.240  1.00  0.00     0.094 A 
HETATM    2  C   UNL     1     -23.829  -4.602 -14.136  1.00  0.00     0.106 A 
HETATM    3  C   UNL     1     -22.839  -4.928 -13.178  1.00  0.00     0.046 A 
HETATM    4  C   UNL     1     -22.325  -3.967 -12.303  1.00  0.00     0.050 A 
HETATM    5  C   UNL     1     -22.750  -2.650 -12.431  1.00  0.00     0.082 A 
HETATM    6  C   UNL     1     -23.718  -2.322 -13.377  1.00  0.00     0.075 A 
ENDROOT
BRANCH   4   7
HETATM    7  C   UNL     1     -21.324  -4.323 -11.267  1.00  0.00     0.195 C 
HETATM    8  O   UNL     1     -20.168  -4.539 -11.629  1.00  0.00    -0.287 OA
BRANCH   7   9
HETATM    9  C   UNL     1     -21.668  -4.374  -9.825  1.00  0.00     0.015 A 
HETATM   10  C   UNL     1     -22.995  -4.303  -9.384  1.00  0.00     0.015 A 
HETATM   11  C   UNL     1     -23.281  -4.338  -8.019  1.00  0.00     0.001 A 
HETATM   12  C   UNL     1     -22.240  -4.424  -7.092  1.00  0.00     0.000 A 
HETATM   13  C   UNL     1     -20.916  -4.469  -7.527  1.00  0.00     0.001 A 
HETATM   14  C   UNL     1     -20.627  -4.442  -8.893  1.00  0.00     0.015 A 
ENDBRANCH   7   9
ENDBRANCH   4   7
BRANCH   5  15
HETATM   15  O   UNL     1     -22.267  -1.632 -11.657  1.00  0.00    -0.360 OA
HETATM   16  H   UNL     1     -21.884  -0.952 -12.256  1.00  0.00     0.217 HD
ENDBRANCH   5  15
BRANCH   2  17
HETATM   17  S   UNL     1     -24.384  -5.954 -15.138  1.00  0.00     0.132 S 
HETATM   18  O   UNL     1     -24.207  -7.180 -14.391  1.00  0.00    -0.597 OA
HETATM   19  O   UNL     1     -25.637  -5.579 -15.747  1.00  0.00    -0.597 OA
BRANCH  17  20
HETATM   20  O   UNL     1     -23.302  -6.089 -16.330  1.00  0.00    -0.292 OA
HETATM   21  H   UNL     1     -23.645  -5.574 -17.093  1.00  0.00     0.232 HD
ENDBRANCH  17  20
ENDBRANCH   2  17
BRANCH   1  22
HETATM   22  O   UNL     1     -25.198  -2.673 -15.045  1.00  0.00    -0.354 OA
HETATM   23  C   UNL     1     -25.431  -1.279 -15.066  1.00  0.00     0.210 C 
ENDBRANCH   1  22
TORSDOF 6
BEGIN_RES ARG D 557
REMARK  4 active torsions:
REMARK  status: ('A' for Active; 'I' for Inactive)
REMARK    1  A    between atoms: CA   and  CB  
REMARK    2  A    between atoms: CB   and  CG  
REMARK    3  A    between atoms: CG   and  CD  
REMARK    4  A    between atoms: CD   and  NE  
REMARK       I    between atoms: NE   and  CZ  
REMARK       I    between atoms: CZ   and  NH1 
REMARK       I    between atoms: CZ   and  NH2 
ROOT
ATOM      1  CA  ARG D 557     -26.217   2.705 -17.014  1.00 35.49     0.159 C 
ENDROOT
BRANCH   1   2
ATOM      2  CB  ARG D 557     -26.789   1.319 -17.183  1.00 35.49     0.034 C 
BRANCH   2   3
ATOM      3  CG  ARG D 557     -28.161   1.108 -16.706  1.00 35.49     0.027 C 
BRANCH   3   4
ATOM      4  CD  ARG D 557     -28.782  -0.103 -17.291  1.00 35.49     0.116 C 
BRANCH   4   5
ATOM      5  NE  ARG D 557     -28.149  -1.311 -16.834  1.00 35.49    -0.212 N 
ATOM      6  CZ  ARG D 557     -28.607  -2.531 -17.007  1.00 35.49     0.666 C 
ATOM      7  NH1 ARG D 557     -29.745  -2.780 -17.630  1.00 35.49    -0.235 N 
ATOM      8  NH2 ARG D 557     -27.890  -3.513 -16.543  1.00 35.49    -0.235 N 
ATOM      9  HH  ARG D 557     -30.232  -2.149 -17.945  1.00 35.49     0.174 HD
ATOM     10  HH  ARG D 557     -29.992  -3.596 -17.715  1.00 35.49     0.174 HD
ATOM     11  HH  ARG D 557     -27.156  -3.323 -16.152  1.00 35.49     0.174 HD
ATOM     12  HH  ARG D 557     -28.151  -4.314 -16.639  1.00 35.49     0.174 HD
ATOM     13  HE  ARG D 557     -27.447  -1.240 -16.359  1.00 35.49     0.178 HD
ENDBRANCH   4   5
ENDBRANCH   3   4
ENDBRANCH   2   3
ENDBRANCH   1   2
END_RES ARG D 557
BEGIN_RES GLU D 570
REMARK  3 active torsions:
REMARK  status: ('A' for Active; 'I' for Inactive)
REMARK    5  A    between atoms: CA   and  CB  
REMARK    6  A    between atoms: CB   and  CG  
REMARK    7  A    between atoms: CG   and  CD  
ROOT
ATOM     14  CA  GLU D 570     -18.033  -6.348 -13.375  1.00 32.92     0.160 C 
ENDROOT
BRANCH  14  15
ATOM     15  CB  GLU D 570     -19.500  -6.345 -13.794  1.00 32.92     0.043 C 
BRANCH  15  16
ATOM     16  CG  GLU D 570     -20.086  -7.634 -14.244  1.00 32.92     0.100 C 
BRANCH  16  17
ATOM     17  CD  GLU D 570     -20.686  -7.557 -15.629  1.00 32.92     0.185 C 
ATOM     18  OE1 GLU D 570     -21.341  -8.525 -16.059  1.00 32.92    -0.647 OA
ATOM     19  OE2 GLU D 570     -20.485  -6.523 -16.297  1.00 32.92    -0.647 OA
ENDBRANCH  16  17
ENDBRANCH  15  16
ENDBRANCH  14  15
END_RES GLU D 570
ENDMDL
MODEL 3
REMARK VINA RESULT:      -7.7      9.938     13.803
REMARK  6 active torsions:
REMARK  status: ('A' for Active; 'I' for Inactive)
REMARK    1  A    between atoms: O_2  and  C_3 
REMARK    2  A    between atoms: C_4  and  S_18 
REMARK    3  A    between atoms: C_6  and  C_10 
REMARK    4  A    between atoms: C_7  and  O_9 
REMARK    5  A    between atoms: C_10  and  C_12 
REMARK    6  A    between atoms: S_18  and  O_21 
ROOT
HETATM    1  C   UNL     1     -20.555  -7.191  -4.531  1.00  0.00     0.094 A 
HETATM    2  C   UNL     1     -20.100  -8.381  -3.951  1.00  0.00     0.106 A 
HETATM    3  C   UNL     1     -20.499  -8.720  -2.636  1.00  0.00     0.046 A 
HETATM    4  C   UNL     1     -21.371  -7.906  -1.906  1.00  0.00     0.050 A 
HETATM    5  C   UNL     1     -21.793  -6.706  -2.466  1.00  0.00     0.082 A 
HETATM    6  C   UNL     1     -21.397  -6.365  -3.756  1.00  0.00     0.075 A 
ENDROOT
BRANCH   4   7
HETATM    7  C   UNL     1     -21.827  -8.289  -0.547  1.00  0.00     0.195 C 
HETATM    8  O   UNL     1     -21.956  -7.399   0.293  1.00  0.00    -0.287 OA
BRANCH   7   9
HETATM    9  C   UNL     1     -22.175  -9.688  -0.198  1.00  0.00     0.015 A 
HETATM   10  C   UNL     1     -23.467 -10.194  -0.394  1.00  0.00     0.015 A 
HETATM   11  C   UNL     1     -23.764 -11.511  -0.041  1.00  0.00     0.001 A 
HETATM   12  C   UNL     1     -22.776 -12.317   0.529  1.00  0.00     0.000 A 
HETATM   13  C   UNL     1     -21.496 -11.808   0.750  1.00  0.00     0.001 A 
HETATM   14  C   UNL     1     -21.195 -10.494   0.389  1.00  0.00     0.015 A 
ENDBRANCH   7   9
ENDBRANCH   4   7
BRANCH   5  15
HETATM   15  O   UNL     1     -22.603  -5.822  -1.809  1.00  0.00    -0.360 OA
HETATM   16  H   UNL     1     -22.892  -5.139  -2.455  1.00  0.00     0.217 HD
ENDBRANCH   5  15
BRANCH   2  17
HETATM   17  S   UNL     1     -19.017  -9.545  -4.734  1.00  0.00     0.132 S 
HETATM   18  O   UNL     1     -17.751  -9.534  -4.035  1.00  0.00    -0.597 OA
HETATM   19  O   UNL     1     -19.762 -10.753  -4.990  1.00  0.00    -0.597 OA
BRANCH  17  20
HETATM   20  O   UNL     1     -18.651  -8.904  -6.171  1.00  0.00    -0.292 OA
HETATM   21  H   UNL     1     -19.383  -8.295  -6.413  1.00  0.00     0.232 HD
ENDBRANCH  17  20
ENDBRANCH   2  17
BRANCH   1  22
HETATM   22  O   UNL     1     -20.346  -6.603  -5.739  1.00  0.00    -0.354 OA
HETATM   23  C   UNL     1     -20.232  -5.207  -5.933  1.00  0.00     0.210 C 
ENDBRANCH   1  22
TORSDOF 6
BEGIN_RES ARG D 557
REMARK  4 active torsions:
REMARK  status: ('A' for Active; 'I' for Inactive)
REMARK    1  A    between atoms: CA   and  CB  
REMARK    2  A    between atoms: CB   and  CG  
REMARK    3  A    between atoms: CG   and  CD  
REMARK    4  A    between atoms: CD   and  NE  
REMARK       I    between atoms: NE   and  CZ  
REMARK       I    between atoms: CZ   and  NH1 
REMARK       I    between atoms: CZ   and  NH2 
ROOT
ATOM      1  CA  ARG D 557     -26.217   2.705 -17.014  1.00 35.49     0.159 C 
ENDROOT
BRANCH   1   2
ATOM      2  CB  ARG D 557     -26.789   1.319 -17.183  1.00 35.49     0.034 C 
BRANCH   2   3
ATOM      3  CG  ARG D 557     -25.835   0.204 -17.164  1.00 35.49     0.027 C 
BRANCH   3   4
ATOM      4  CD  ARG D 557     -24.744   0.411 -16.184  1.00 35.49     0.116 C 
BRANCH   4   5
ATOM      5  NE  ARG D 557     -24.890  -0.429 -15.024  1.00 35.49    -0.212 N 
ATOM      6  CZ  ARG D 557     -24.077  -1.400 -14.672  1.00 35.49     0.666 C 
ATOM      7  NH1 ARG D 557     -23.011  -1.725 -15.381  1.00 35.49    -0.235 N 
ATOM      8  NH2 ARG D 557     -24.352  -2.045 -13.576  1.00 35.49    -0.235 N 
ATOM      9  HH  ARG D 557     -22.810  -1.312 -16.104  1.00 35.49     0.174 HD
ATOM     10  HH  ARG D 557     -22.516  -2.365 -15.100  1.00 35.49     0.174 HD
ATOM     11  HH  ARG D 557     -25.042  -1.808 -13.135  1.00 35.49     0.174 HD
ATOM     12  HH  ARG D 557     -23.848  -2.675 -13.314  1.00 35.49     0.174 HD
ATOM     13  HE  ARG D 557     -25.589  -0.337 -14.550  1.00 35.49     0.178 HD
ENDBRANCH   4   5
ENDBRANCH   3   4
ENDBRANCH   2   3
ENDBRANCH   1   2
END_RES ARG D 557
BEGIN_RES GLU D 570
REMARK  3 active torsions:
REMARK  status: ('A' for Active; 'I' for Inactive)
REMARK    5  A    between atoms: CA   and  CB  
REMARK    6  A    between atoms: CB   and  CG  
REMARK    7  A    between atoms: CG   and  CD  
ROOT
ATOM     14  CA  GLU D 570     -18.033  -6.348 -13.375  1.00 32.92     0.160 C 
ENDROOT
BRANCH  14  15
ATOM     15  CB  GLU D 570     -19.500  -6.345 -13.794  1.00 32.92     0.043 C 
BRANCH  15  16
ATOM     16  CG  GLU D 570     -20.442  -5.532 -12.982  1.00 32.92     0.100 C 
BRANCH  16  17
ATOM     17  CD  GLU D 570     -21.741  -5.246 -13.699  1.00 32.92     0.185 C 
ATOM     18  OE1 GLU D 570     -22.311  -4.155 -13.505  1.00 32.92    -0.647 OA
ATOM     19  OE2 GLU D 570     -22.203  -6.129 -14.448  1.00 32.92    -0.647 OA
ENDBRANCH  16  17
ENDBRANCH  15  16
ENDBRANCH  14  15
END_RES GLU D 570
ENDMDL
MODEL 4
REMARK VINA RESULT:      -7.7      4.757      9.195
REMARK  6 active torsions:
REMARK  status: ('A' for Active; 'I' for Inactive)
REMARK    1  A    between atoms: O_2  and  C_3 
REMARK    2  A    between atoms: C_4  and  S_18 
REMARK    3  A    between atoms: C_6  and  C_10 
REMARK    4  A    between atoms: C_7  and  O_9 
REMARK    5  A    between atoms: C_10  and  C_12 
REMARK    6  A    between atoms: S_18  and  O_21 
ROOT
HETATM    1  C   UNL     1     -22.401  -4.304 -11.596  1.00  0.00     0.094 A 
HETATM    2  C   UNL     1     -23.001  -3.985 -10.372  1.00  0.00     0.106 A 
HETATM    3  C   UNL     1     -22.235  -4.028  -9.183  1.00  0.00     0.046 A 
HETATM    4  C   UNL     1     -20.875  -4.352  -9.201  1.00  0.00     0.050 A 
HETATM    5  C   UNL     1     -20.289  -4.706 -10.410  1.00  0.00     0.082 A 
HETATM    6  C   UNL     1     -21.039  -4.673 -11.582  1.00  0.00     0.075 A 
ENDROOT
BRANCH   4   7
HETATM    7  C   UNL     1     -20.064  -4.348  -7.959  1.00  0.00     0.195 C 
HETATM    8  O   UNL     1     -19.068  -3.627  -7.920  1.00  0.00    -0.287 OA
BRANCH   7   9
HETATM    9  C   UNL     1     -20.448  -5.139  -6.765  1.00  0.00     0.015 A 
HETATM   10  C   UNL     1     -20.273  -4.642  -5.467  1.00  0.00     0.015 A 
HETATM   11  C   UNL     1     -20.631  -5.419  -4.365  1.00  0.00     0.001 A 
HETATM   12  C   UNL     1     -21.145  -6.703  -4.558  1.00  0.00     0.000 A 
HETATM   13  C   UNL     1     -21.296  -7.212  -5.848  1.00  0.00     0.001 A 
HETATM   14  C   UNL     1     -20.946  -6.433  -6.952  1.00  0.00     0.015 A 
ENDBRANCH   7   9
ENDBRANCH   4   7
BRANCH   5  15
HETATM   15  O   UNL     1     -18.981  -5.088 -10.520  1.00  0.00    -0.360 OA
HETATM   16  H   UNL     1     -18.679  -5.393  -9.634  1.00  0.00     0.217 HD
ENDBRANCH   5  15
BRANCH   2  17
HETATM   17  S   UNL     1     -24.699  -3.524 -10.160  1.00  0.00     0.132 S 
HETATM   18  O   UNL     1     -24.787  -2.595  -9.056  1.00  0.00    -0.597 OA
HETATM   19  O   UNL     1     -25.259  -3.254 -11.461  1.00  0.00    -0.597 OA
BRANCH  17  20
HETATM   20  O   UNL     1     -25.442  -4.843  -9.593  1.00  0.00    -0.292 OA
HETATM   21  H   UNL     1     -25.244  -5.578 -10.213  1.00  0.00     0.232 HD
ENDBRANCH  17  20
ENDBRANCH   2  17
BRANCH   1  22
HETATM   22  O   UNL     1     -22.864  -4.360 -12.874  1.00  0.00    -0.354 OA
HETATM   23  C   UNL     1     -23.218  -5.557 -13.537  1.00  0.00     0.210 C 
ENDBRANCH   1  22
TORSDOF 6
BEGIN_RES ARG D 557
REMARK  4 active torsions:
REMARK  status: ('A' for Active; 'I' for Inactive)
REMARK    1  A    between atoms: CA   and  CB  
REMARK    2  A    between atoms: CB   and  CG  
REMARK    3  A    between atoms: CG   and  CD  
REMARK    4  A    between atoms: CD   and  NE  
REMARK       I    between atoms: NE   and  CZ  
REMARK       I    between atoms: CZ   and  NH1 
REMARK       I    between atoms: CZ   and  NH2 
ROOT
ATOM      1  CA  ARG D 557     -26.217   2.705 -17.014  1.00 35.49     0.159 C 
ENDROOT
BRANCH   1   2
ATOM      2  CB  ARG D 557     -26.789   1.319 -17.183  1.00 35.49     0.034 C 
BRANCH   2   3
ATOM      3  CG  ARG D 557     -25.848   0.198 -17.069  1.00 35.49     0.027 C 
BRANCH   3   4
ATOM      4  CD  ARG D 557     -26.181  -0.706 -15.945  1.00 35.49     0.116 C 
BRANCH   4   5
ATOM      5  NE  ARG D 557     -25.116  -0.788 -14.981  1.00 35.49    -0.212 N 
ATOM      6  CZ  ARG D 557     -24.732  -1.875 -14.350  1.00 35.49     0.666 C 
ATOM      7  NH1 ARG D 557     -25.317  -3.044 -14.532  1.00 35.49    -0.235 N 
ATOM      8  NH2 ARG D 557     -23.732  -1.768 -13.524  1.00 35.49    -0.235 N 
ATOM      9  HH  ARG D 557     -25.976  -3.138 -15.073  1.00 35.49     0.174 HD
ATOM     10  HH  ARG D 557     -25.022  -3.720 -14.095  1.00 35.49     0.174 HD
ATOM     11  HH  ARG D 557     -23.369  -1.002 -13.431  1.00 35.49     0.174 HD
ATOM     12  HH  ARG D 557     -23.454  -2.449 -13.101  1.00 35.49     0.174 HD
ATOM     13  HE  ARG D 557     -24.732  -0.066 -14.748  1.00 35.49     0.178 HD
ENDBRANCH   4   5
ENDBRANCH   3   4
ENDBRANCH   2   3
ENDBRANCH   1   2
END_RES ARG D 557
BEGIN_RES GLU D 570
REMARK  3 active torsions:
REMARK  status: ('A' for Active; 'I' for Inactive)
REMARK    5  A    between atoms: CA   and  CB  
REMARK    6  A    between atoms: CB   and  CG  
REMARK    7  A    between atoms: CG   and  CD  
ROOT
ATOM     14  CA  GLU D 570     -18.033  -6.348 -13.375  1.00 32.92     0.160 C 
ENDROOT
BRANCH  14  15
ATOM     15  CB  GLU D 570     -19.500  -6.345 -13.794  1.00 32.92     0.043 C 
BRANCH  15  16
ATOM     16  CG  GLU D 570     -20.080  -7.630 -14.264  1.00 32.92     0.100 C 
BRANCH  16  17
ATOM     17  CD  GLU D 570     -20.717  -7.524 -15.630  1.00 32.92     0.185 C 
ATOM     18  OE1 GLU D 570     -20.599  -6.463 -16.272  1.00 32.92    -0.647 OA
ATOM     19  OE2 GLU D 570     -21.355  -8.507 -16.055  1.00 32.92    -0.647 OA
ENDBRANCH  16  17
ENDBRANCH  15  16
ENDBRANCH  14  15
END_RES GLU D 570
ENDMDL
MODEL 5
REMARK VINA RESULT:      -7.5      3.061      6.294
REMARK  6 active torsions:
REMARK  status: ('A' for Active; 'I' for Inactive)
REMARK    1  A    between atoms: O_2  and  C_3 
REMARK    2  A    between atoms: C_4  and  S_18 
REMARK    3  A    between atoms: C_6  and  C_10 
REMARK    4  A    between atoms: C_7  and  O_9 
REMARK    5  A    between atoms: C_10  and  C_12 
REMARK    6  A    between atoms: S_18  and  O_21 
ROOT
HETATM    1  C   UNL     1     -25.694  -4.418 -15.164  1.00  0.00     0.094 A 
HETATM    2  C   UNL     1     -24.900  -5.562 -15.020  1.00  0.00     0.106 A 
HETATM    3  C   UNL     1     -23.788  -5.539 -14.145  1.00  0.00     0.046 A 
HETATM    4  C   UNL     1     -23.477  -4.404 -13.390  1.00  0.00     0.050 A 
HETATM    5  C   UNL     1     -24.241  -3.257 -13.560  1.00  0.00     0.082 A 
HETATM    6  C   UNL     1     -25.332  -3.271 -14.425  1.00  0.00     0.075 A 
ENDROOT
BRANCH   4   7
HETATM    7  C   UNL     1     -22.339  -4.401 -12.436  1.00  0.00     0.195 C 
HETATM    8  O   UNL     1     -21.198  -4.400 -12.897  1.00  0.00    -0.287 OA
BRANCH   7   9
HETATM    9  C   UNL     1     -22.542  -4.347 -10.968  1.00  0.00     0.015 A 
HETATM   10  C   UNL     1     -23.818  -4.454 -10.399  1.00  0.00     0.015 A 
HETATM   11  C   UNL     1     -23.974  -4.384  -9.015  1.00  0.00     0.001 A 
HETATM   12  C   UNL     1     -22.859  -4.185  -8.199  1.00  0.00     0.000 A 
HETATM   13  C   UNL     1     -21.591  -4.053  -8.763  1.00  0.00     0.001 A 
HETATM   14  C   UNL     1     -21.431  -4.131 -10.148  1.00  0.00     0.015 A 
ENDBRANCH   7   9
ENDBRANCH   4   7
BRANCH   5  15
HETATM   15  O   UNL     1     -23.982  -2.085 -12.905  1.00  0.00    -0.360 OA
HETATM   16  H   UNL     1     -23.085  -1.781 -13.171  1.00  0.00     0.217 HD
ENDBRANCH   5  15
BRANCH   2  17
HETATM   17  S   UNL     1     -25.159  -7.094 -15.872  1.00  0.00     0.132 S 
HETATM   18  O   UNL     1     -23.899  -7.802 -15.934  1.00  0.00    -0.597 OA
HETATM   19  O   UNL     1     -26.372  -7.690 -15.369  1.00  0.00    -0.597 OA
BRANCH  17  20
HETATM   20  O   UNL     1     -25.435  -6.696 -17.414  1.00  0.00    -0.292 OA
HETATM   21  H   UNL     1     -25.039  -5.809 -17.561  1.00  0.00     0.232 HD
ENDBRANCH  17  20
ENDBRANCH   2  17
BRANCH   1  22
HETATM   22  O   UNL     1     -26.794  -4.135 -15.913  1.00  0.00    -0.354 OA
HETATM   23  C   UNL     1     -28.037  -4.796 -15.778  1.00  0.00     0.210 C 
ENDBRANCH   1  22
TORSDOF 6
BEGIN_RES ARG D 557
REMARK  4 active torsions:
REMARK  status: ('A' for Active; 'I' for Inactive)
REMARK    1  A    between atoms: CA   and  CB  
REMARK    2  A    between atoms: CB   and  CG  
REMARK    3  A    between atoms: CG   and  CD  
REMARK    4  A    between atoms: CD   and  NE  
REMARK       I    between atoms: NE   and  CZ  
REMARK       I    between atoms: CZ   and  NH1 
REMARK       I    between atoms: CZ   and  NH2 
ROOT
ATOM      1  CA  ARG D 557     -26.217   2.705 -17.014  1.00 35.49     0.159 C 
ENDROOT
BRANCH   1   2
ATOM      2  CB  ARG D 557     -26.789   1.319 -17.183  1.00 35.49     0.034 C 
BRANCH   2   3
ATOM      3  CG  ARG D 557     -25.988   0.206 -16.659  1.00 35.49     0.027 C 
BRANCH   3   4
ATOM      4  CD  ARG D 557     -26.779  -0.699 -15.793  1.00 35.49     0.116 C 
BRANCH   4   5
ATOM      5  NE  ARG D 557     -27.661  -1.545 -16.554  1.00 35.49    -0.212 N 
ATOM      6  CZ  ARG D 557     -28.911  -1.275 -16.858  1.00 35.49     0.666 C 
ATOM      7  NH1 ARG D 557     -29.511  -0.166 -16.469  1.00 35.49    -0.235 N 
ATOM      8  NH2 ARG D 557     -29.556  -2.149 -17.575  1.00 35.49    -0.235 N 
ATOM      9  HH  ARG D 557     -29.105   0.424 -15.998  1.00 35.49     0.174 HD
ATOM     10  HH  ARG D 557     -30.327  -0.042 -16.699  1.00 35.49     0.174 HD
ATOM     11  HH  ARG D 557     -29.140  -2.853 -17.818  1.00 35.49     0.174 HD
ATOM     12  HH  ARG D 557     -30.363  -2.008 -17.794  1.00 35.49     0.174 HD
ATOM     13  HE  ARG D 557     -27.378  -2.313 -16.783  1.00 35.49     0.178 HD
ENDBRANCH   4   5
ENDBRANCH   3   4
ENDBRANCH   2   3
ENDBRANCH   1   2
END_RES ARG D 557
BEGIN_RES GLU D 570
REMARK  3 active torsions:
REMARK  status: ('A' for Active; 'I' for Inactive)
REMARK    5  A    between atoms: CA   and  CB  
REMARK    6  A    between atoms: CB   and  CG  
REMARK    7  A    between atoms: CG   and  CD  
ROOT
ATOM     14  CA  GLU D 570     -18.033  -6.348 -13.375  1.00 32.92     0.160 C 
ENDROOT
BRANCH  14  15
ATOM     15  CB  GLU D 570     -19.500  -6.345 -13.794  1.00 32.92     0.043 C 
BRANCH  15  16
ATOM     16  CG  GLU D 570     -20.102  -7.645 -14.189  1.00 32.92     0.100 C 
BRANCH  16  17
ATOM     17  CD  GLU D 570     -20.556  -7.671 -15.630  1.00 32.92     0.185 C 
ATOM     18  OE1 GLU D 570     -20.684  -8.769 -16.204  1.00 32.92    -0.647 OA
ATOM     19  OE2 GLU D 570     -20.769  -6.580 -16.195  1.00 32.92    -0.647 OA
ENDBRANCH  16  17
ENDBRANCH  15  16
ENDBRANCH  14  15
END_RES GLU D 570
ENDMDL
MODEL 6
REMARK VINA RESULT:      -7.3      8.000     12.087
REMARK  6 active torsions:
REMARK  status: ('A' for Active; 'I' for Inactive)
REMARK    1  A    between atoms: O_2  and  C_3 
REMARK    2  A    between atoms: C_4  and  S_18 
REMARK    3  A    between atoms: C_6  and  C_10 
REMARK    4  A    between atoms: C_7  and  O_9 
REMARK    5  A    between atoms: C_10  and  C_12 
REMARK    6  A    between atoms: S_18  and  O_21 
ROOT
HETATM    1  C   UNL     1     -20.192  -9.000  -2.749  1.00  0.00     0.094 A 
HETATM    2  C   UNL     1     -20.106  -9.162  -4.137  1.00  0.00     0.106 A 
HETATM    3  C   UNL     1     -20.745  -8.234  -4.993  1.00  0.00     0.046 A 
HETATM    4  C   UNL     1     -21.440  -7.132  -4.486  1.00  0.00     0.050 A 
HETATM    5  C   UNL     1     -21.559  -6.992  -3.109  1.00  0.00     0.082 A 
HETATM    6  C   UNL     1     -20.939  -7.906  -2.262  1.00  0.00     0.075 A 
ENDROOT
BRANCH   4   7
HETATM    7  C   UNL     1     -22.067  -6.134  -5.388  1.00  0.00     0.195 C 
HETATM    8  O   UNL     1     -23.262  -5.886  -5.236  1.00  0.00    -0.287 OA
BRANCH   7   9
HETATM    9  C   UNL     1     -21.287  -5.403  -6.417  1.00  0.00     0.015 A 
HETATM   10  C   UNL     1     -19.905  -5.209  -6.291  1.00  0.00     0.015 A 
HETATM   11  C   UNL     1     -19.206  -4.504  -7.270  1.00  0.00     0.001 A 
HETATM   12  C   UNL     1     -19.890  -3.972  -8.365  1.00  0.00     0.000 A 
HETATM   13  C   UNL     1     -21.269  -4.140  -8.481  1.00  0.00     0.001 A 
HETATM   14  C   UNL     1     -21.970  -4.853  -7.507  1.00  0.00     0.015 A 
ENDBRANCH   7   9
ENDBRANCH   4   7
BRANCH   5  15
HETATM   15  O   UNL     1     -22.263  -5.977  -2.521  1.00  0.00    -0.360 OA
HETATM   16  H   UNL     1     -21.792  -5.720  -1.696  1.00  0.00     0.217 HD
ENDBRANCH   5  15
BRANCH   2  17
HETATM   17  S   UNL     1     -19.246 -10.477  -4.957  1.00  0.00     0.132 S 
HETATM   18  O   UNL     1     -19.982 -10.830  -6.151  1.00  0.00    -0.597 OA
HETATM   19  O   UNL     1     -17.840 -10.160  -4.966  1.00  0.00    -0.597 OA
BRANCH  17  20
HETATM   20  O   UNL     1     -19.430 -11.775  -4.012  1.00  0.00    -0.292 OA
HETATM   21  H   UNL     1     -18.891 -11.627  -3.205  1.00  0.00     0.232 HD
ENDBRANCH  17  20
ENDBRANCH   2  17
BRANCH   1  22
HETATM   22  O   UNL     1     -19.706  -9.711  -1.696  1.00  0.00    -0.354 OA
HETATM   23  C   UNL     1     -20.506 -10.493  -0.831  1.00  0.00     0.210 C 
ENDBRANCH   1  22
TORSDOF 6
BEGIN_RES ARG D 557
REMARK  4 active torsions:
REMARK  status: ('A' for Active; 'I' for Inactive)
REMARK    1  A    between atoms: CA   and  CB  
REMARK    2  A    between atoms: CB   and  CG  
REMARK    3  A    between atoms: CG   and  CD  
REMARK    4  A    between atoms: CD   and  NE  
REMARK       I    between atoms: NE   and  CZ  
REMARK       I    between atoms: CZ   and  NH1 
REMARK       I    between atoms: CZ   and  NH2 
ROOT
ATOM      1  CA  ARG D 557     -26.217   2.705 -17.014  1.00 35.49     0.159 C 
ENDROOT
BRANCH   1   2
ATOM      2  CB  ARG D 557     -26.789   1.319 -17.183  1.00 35.49     0.034 C 
BRANCH   2   3
ATOM      3  CG  ARG D 557     -25.839   0.201 -17.132  1.00 35.49     0.027 C 
BRANCH   3   4
ATOM      4  CD  ARG D 557     -24.759   0.423 -16.144  1.00 35.49     0.116 C 
BRANCH   4   5
ATOM      5  NE  ARG D 557     -24.881  -0.446 -15.003  1.00 35.49    -0.212 N 
ATOM      6  CZ  ARG D 557     -24.051  -1.414 -14.683  1.00 35.49     0.666 C 
ATOM      7  NH1 ARG D 557     -22.989  -1.707 -15.410  1.00 35.49    -0.235 N 
ATOM      8  NH2 ARG D 557     -24.306  -2.088 -13.599  1.00 35.49    -0.235 N 
ATOM      9  HH  ARG D 557     -22.801  -1.275 -16.125  1.00 35.49     0.174 HD
ATOM     10  HH  ARG D 557     -22.483  -2.348 -15.150  1.00 35.49     0.174 HD
ATOM     11  HH  ARG D 557     -24.995  -1.872 -13.145  1.00 35.49     0.174 HD
ATOM     12  HH  ARG D 557     -23.792  -2.718 -13.358  1.00 35.49     0.174 HD
ATOM     13  HE  ARG D 557     -25.576  -0.374 -14.519  1.00 35.49     0.178 HD
ENDBRANCH   4   5
ENDBRANCH   3   4
ENDBRANCH   2   3
ENDBRANCH   1   2
END_RES ARG D 557
BEGIN_RES GLU D 570
REMARK  3 active torsions:
REMARK  status: ('A' for Active; 'I' for Inactive)
REMARK    5  A    between atoms: CA   and  CB  
REMARK    6  A    between atoms: CB   and  CG  
REMARK    7  A    between atoms: CG   and  CD  
ROOT
ATOM     14  CA  GLU D 570     -18.033  -6.348 -13.375  1.00 32.92     0.160 C 
ENDROOT
BRANCH  14  15
ATOM     15  CB  GLU D 570     -19.500  -6.345 -13.794  1.00 32.92     0.043 C 
BRANCH  15  16
ATOM     16  CG  GLU D 570     -20.450  -5.569 -12.956  1.00 32.92     0.100 C 
BRANCH  16  17
ATOM     17  CD  GLU D 570     -21.660  -5.091 -13.724  1.00 32.92     0.185 C 
ATOM     18  OE1 GLU D 570     -21.697  -5.258 -14.958  1.00 32.92    -0.647 OA
ATOM     19  OE2 GLU D 570     -22.572  -4.528 -13.088  1.00 32.92    -0.647 OA
ENDBRANCH  16  17
ENDBRANCH  15  16
ENDBRANCH  14  15
END_RES GLU D 570
ENDMDL
MODEL 7
REMARK VINA RESULT:      -7.2      4.834      9.269
REMARK  6 active torsions:
REMARK  status: ('A' for Active; 'I' for Inactive)
REMARK    1  A    between atoms: O_2  and  C_3 
REMARK    2  A    between atoms: C_4  and  S_18 
REMARK    3  A    between atoms: C_6  and  C_10 
REMARK    4  A    between atoms: C_7  and  O_9 
REMARK    5  A    between atoms: C_10  and  C_12 
REMARK    6  A    between atoms: S_18  and  O_21 
ROOT
HETATM    1  C   UNL     1     -22.454  -4.191 -11.629  1.00  0.00     0.094 A 
HETATM    2  C   UNL     1     -23.060  -4.020 -10.379  1.00  0.00     0.106 A 
HETATM    3  C   UNL     1     -22.281  -4.123  -9.201  1.00  0.00     0.046 A 
HETATM    4  C   UNL     1     -20.905  -4.362  -9.254  1.00  0.00     0.050 A 
HETATM    5  C   UNL     1     -20.310  -4.570 -10.493  1.00  0.00     0.082 A 
HETATM    6  C   UNL     1     -21.072  -4.477 -11.654  1.00  0.00     0.075 A 
ENDROOT
BRANCH   4   7
HETATM    7  C   UNL     1     -20.083  -4.420  -8.020  1.00  0.00     0.195 C 
HETATM    8  O   UNL     1     -19.064  -3.733  -7.969  1.00  0.00    -0.287 OA
BRANCH   7   9
HETATM    9  C   UNL     1     -20.482  -5.234  -6.846  1.00  0.00     0.015 A 
HETATM   10  C   UNL     1     -21.030  -6.516  -6.993  1.00  0.00     0.015 A 
HETATM   11  C   UNL     1     -21.408  -7.248  -5.868  1.00  0.00     0.001 A 
HETATM   12  C   UNL     1     -21.260  -6.692  -4.595  1.00  0.00     0.000 A 
HETATM   13  C   UNL     1     -20.739  -5.407  -4.446  1.00  0.00     0.001 A 
HETATM   14  C   UNL     1     -20.352  -4.676  -5.570  1.00  0.00     0.015 A 
ENDBRANCH   7   9
ENDBRANCH   4   7
BRANCH   5  15
HETATM   15  O   UNL     1     -18.982  -4.862 -10.642  1.00  0.00    -0.360 OA
HETATM   16  H   UNL     1     -18.912  -5.719 -11.120  1.00  0.00     0.217 HD
ENDBRANCH   5  15
BRANCH   2  17
HETATM   17  S   UNL     1     -24.780  -3.683 -10.119  1.00  0.00     0.132 S 
HETATM   18  O   UNL     1     -25.308  -3.054 -11.309  1.00  0.00    -0.597 OA
HETATM   19  O   UNL     1     -25.380  -4.846  -9.513  1.00  0.00    -0.597 OA
BRANCH  17  20
HETATM   20  O   UNL     1     -24.833  -2.500  -9.020  1.00  0.00    -0.292 OA
HETATM   21  H   UNL     1     -25.165  -1.695  -9.475  1.00  0.00     0.232 HD
ENDBRANCH  17  20
ENDBRANCH   2  17
BRANCH   1  22
HETATM   22  O   UNL     1     -22.924  -4.160 -12.905  1.00  0.00    -0.354 OA
HETATM   23  C   UNL     1     -22.879  -3.020 -13.739  1.00  0.00     0.210 C 
ENDBRANCH   1  22
TORSDOF 6
BEGIN_RES ARG D 557
REMARK  4 active torsions:
REMARK  status: ('A' for Active; 'I' for Inactive)
REMARK    1  A    between atoms: CA   and  CB  
REMARK    2  A    between atoms: CB   and  CG  
REMARK    3  A    between atoms: CG   and  CD  
REMARK    4  A    between atoms: CD   and  NE  
REMARK       I    between atoms: NE   and  CZ  
REMARK       I    between atoms: CZ   and  NH1 
REMARK       I    between atoms: CZ   and  NH2 
ROOT
ATOM      1  CA  ARG D 557     -26.217   2.705 -17.014  1.00 35.49     0.159 C 
ENDROOT
BRANCH   1   2
ATOM      2  CB  ARG D 557     -26.789   1.319 -17.183  1.00 35.49     0.034 C 
BRANCH   2   3
ATOM      3  CG  ARG D 557     -28.222   1.157 -16.907  1.00 35.49     0.027 C 
BRANCH   3   4
ATOM      4  CD  ARG D 557     -28.607  -0.262 -16.736  1.00 35.49     0.116 C 
BRANCH   4   5
ATOM      5  NE  ARG D 557     -27.601  -1.016 -16.036  1.00 35.49    -0.212 N 
ATOM      6  CZ  ARG D 557     -27.431  -2.318 -16.104  1.00 35.49     0.666 C 
ATOM      7  NH1 ARG D 557     -28.203  -3.097 -16.839  1.00 35.49    -0.235 N 
ATOM      8  NH2 ARG D 557     -26.452  -2.832 -15.416  1.00 35.49    -0.235 N 
ATOM      9  HH  ARG D 557     -28.851  -2.780 -17.301  1.00 35.49     0.174 HD
ATOM     10  HH  ARG D 557     -28.042  -3.938 -16.847  1.00 35.49     0.174 HD
ATOM     11  HH  ARG D 557     -25.966  -2.304 -14.956  1.00 35.49     0.174 HD
ATOM     12  HH  ARG D 557     -26.309  -3.667 -15.438  1.00 35.49     0.174 HD
ATOM     13  HE  ARG D 557     -27.105  -0.603 -15.482  1.00 35.49     0.178 HD
ENDBRANCH   4   5
ENDBRANCH   3   4
ENDBRANCH   2   3
ENDBRANCH   1   2
END_RES ARG D 557
BEGIN_RES GLU D 570
REMARK  3 active torsions:
REMARK  status: ('A' for Active; 'I' for Inactive)
REMARK    5  A    between atoms: CA   and  CB  
REMARK    6  A    between atoms: CB   and  CG  
REMARK    7  A    between atoms: CG   and  CD  
ROOT
ATOM     14  CA  GLU D 570     -18.033  -6.348 -13.375  1.00 32.92     0.160 C 
ENDROOT
BRANCH  14  15
ATOM     15  CB  GLU D 570     -19.500  -6.345 -13.794  1.00 32.92     0.043 C 
BRANCH  15  16
ATOM     16  CG  GLU D 570     -19.804  -6.065 -15.221  1.00 32.92     0.100 C 
BRANCH  16  17
ATOM     17  CD  GLU D 570     -21.281  -5.896 -15.487  1.00 32.92     0.185 C 
ATOM     18  OE1 GLU D 570     -22.093  -6.618 -14.877  1.00 32.92    -0.647 OA
ATOM     19  OE2 GLU D 570     -21.630  -5.044 -16.328  1.00 32.92    -0.647 OA
ENDBRANCH  16  17
ENDBRANCH  15  16
ENDBRANCH  14  15
END_RES GLU D 570
ENDMDL
MODEL 8
REMARK VINA RESULT:      -7.1      9.944     13.766
REMARK  6 active torsions:
REMARK  status: ('A' for Active; 'I' for Inactive)
REMARK    1  A    between atoms: O_2  and  C_3 
REMARK    2  A    between atoms: C_4  and  S_18 
REMARK    3  A    between atoms: C_6  and  C_10 
REMARK    4  A    between atoms: C_7  and  O_9 
REMARK    5  A    between atoms: C_10  and  C_12 
REMARK    6  A    between atoms: S_18  and  O_21 
ROOT
HETATM    1  C   UNL     1     -21.038  -7.218  -4.677  1.00  0.00     0.094 A 
HETATM    2  C   UNL     1     -20.650  -8.479  -4.208  1.00  0.00     0.106 A 
HETATM    3  C   UNL     1     -20.893  -8.832  -2.859  1.00  0.00     0.046 A 
HETATM    4  C   UNL     1     -21.545  -7.959  -1.982  1.00  0.00     0.050 A 
HETATM    5  C   UNL     1     -21.896  -6.694  -2.436  1.00  0.00     0.082 A 
HETATM    6  C   UNL     1     -21.653  -6.339  -3.760  1.00  0.00     0.075 A 
ENDROOT
BRANCH   4   7
HETATM    7  C   UNL     1     -21.843  -8.352  -0.583  1.00  0.00     0.195 C 
HETATM    8  O   UNL     1     -21.819  -7.477   0.282  1.00  0.00    -0.287 OA
BRANCH   7   9
HETATM    9  C   UNL     1     -22.213  -9.741  -0.216  1.00  0.00     0.015 A 
HETATM   10  C   UNL     1     -23.520 -10.219  -0.375  1.00  0.00     0.015 A 
HETATM   11  C   UNL     1     -23.837 -11.526  -0.006  1.00  0.00     0.001 A 
HETATM   12  C   UNL     1     -22.853 -12.350   0.544  1.00  0.00     0.000 A 
HETATM   13  C   UNL     1     -21.557 -11.870   0.728  1.00  0.00     0.001 A 
HETATM   14  C   UNL     1     -21.235 -10.565   0.351  1.00  0.00     0.015 A 
ENDBRANCH   7   9
ENDBRANCH   4   7
BRANCH   5  15
HETATM   15  O   UNL     1     -22.489  -5.754  -1.639  1.00  0.00    -0.360 OA
HETATM   16  H   UNL     1     -23.383  -5.567  -2.006  1.00  0.00     0.217 HD
ENDBRANCH   5  15
BRANCH   2  17
HETATM   17  S   UNL     1     -19.841  -9.721  -5.179  1.00  0.00     0.132 S 
HETATM   18  O   UNL     1     -20.843 -10.426  -5.947  1.00  0.00    -0.597 OA
HETATM   19  O   UNL     1     -18.665  -9.134  -5.772  1.00  0.00    -0.597 OA
BRANCH  17  20
HETATM   20  O   UNL     1     -19.330 -10.836  -4.126  1.00  0.00    -0.292 OA
HETATM   21  H   UNL     1     -19.725 -10.615  -3.254  1.00  0.00     0.232 HD
ENDBRANCH  17  20
ENDBRANCH   2  17
BRANCH   1  22
HETATM   22  O   UNL     1     -20.936  -6.601  -5.885  1.00  0.00    -0.354 OA
HETATM   23  C   UNL     1     -20.111  -5.481  -6.136  1.00  0.00     0.210 C 
ENDBRANCH   1  22
TORSDOF 6
BEGIN_RES ARG D 557
REMARK  4 active torsions:
REMARK  status: ('A' for Active; 'I' for Inactive)
REMARK    1  A    between atoms: CA   and  CB  
REMARK    2  A    between atoms: CB   and  CG  
REMARK    3  A    between atoms: CG   and  CD  
REMARK    4  A    between atoms: CD   and  NE  
REMARK       I    between atoms: NE   and  CZ  
REMARK       I    between atoms: CZ   and  NH1 
REMARK       I    between atoms: CZ   and  NH2 
ROOT
ATOM      1  CA  ARG D 557     -26.217   2.705 -17.014  1.00 35.49     0.159 C 
ENDROOT
BRANCH   1   2
ATOM      2  CB  ARG D 557     -26.789   1.319 -17.183  1.00 35.49     0.034 C 
BRANCH   2   3
ATOM      3  CG  ARG D 557     -28.157   1.105 -16.696  1.00 35.49     0.027 C 
BRANCH   3   4
ATOM      4  CD  ARG D 557     -28.791  -0.089 -17.300  1.00 35.49     0.116 C 
BRANCH   4   5
ATOM      5  NE  ARG D 557     -28.176  -1.312 -16.858  1.00 35.49    -0.212 N 
ATOM      6  CZ  ARG D 557     -28.661  -2.522 -17.029  1.00 35.49     0.666 C 
ATOM      7  NH1 ARG D 557     -29.813  -2.745 -17.634  1.00 35.49    -0.235 N 
ATOM      8  NH2 ARG D 557     -27.956  -3.520 -16.580  1.00 35.49    -0.235 N 
ATOM      9  HH  ARG D 557     -30.292  -2.103 -17.938  1.00 35.49     0.174 HD
ATOM     10  HH  ARG D 557     -30.078  -3.555 -17.719  1.00 35.49     0.174 HD
ATOM     11  HH  ARG D 557     -27.213  -3.347 -16.201  1.00 35.49     0.174 HD
ATOM     12  HH  ARG D 557     -28.235  -4.315 -16.676  1.00 35.49     0.174 HD
ATOM     13  HE  ARG D 557     -27.465  -1.257 -16.394  1.00 35.49     0.178 HD
ENDBRANCH   4   5
ENDBRANCH   3   4
ENDBRANCH   2   3
ENDBRANCH   1   2
END_RES ARG D 557
BEGIN_RES GLU D 570
REMARK  3 active torsions:
REMARK  status: ('A' for Active; 'I' for Inactive)
REMARK    5  A    between atoms: CA   and  CB  
REMARK    6  A    between atoms: CB   and  CG  
REMARK    7  A    between atoms: CG   and  CD  
ROOT
ATOM     14  CA  GLU D 570     -18.033  -6.348 -13.375  1.00 32.92     0.160 C 
ENDROOT
BRANCH  14  15
ATOM     15  CB  GLU D 570     -19.500  -6.345 -13.794  1.00 32.92     0.043 C 
BRANCH  15  16
ATOM     16  CG  GLU D 570     -20.444  -5.542 -12.975  1.00 32.92     0.100 C 
BRANCH  16  17
ATOM     17  CD  GLU D 570     -21.710  -5.183 -13.717  1.00 32.92     0.185 C 
ATOM     18  OE1 GLU D 570     -21.651  -4.958 -14.941  1.00 32.92    -0.647 OA
ATOM     19  OE2 GLU D 570     -22.770  -5.109 -13.065  1.00 32.92    -0.647 OA
ENDBRANCH  16  17
ENDBRANCH  15  16
ENDBRANCH  14  15
END_RES GLU D 570
ENDMDL
MODEL 9
REMARK VINA RESULT:      -6.9      9.860     13.699
REMARK  6 active torsions:
REMARK  status: ('A' for Active; 'I' for Inactive)
REMARK    1  A    between atoms: O_2  and  C_3 
REMARK    2  A    between atoms: C_4  and  S_18 
REMARK    3  A    between atoms: C_6  and  C_10 
REMARK    4  A    between atoms: C_7  and  O_9 
REMARK    5  A    between atoms: C_10  and  C_12 
REMARK    6  A    between atoms: S_18  and  O_21 
ROOT
HETATM    1  C   UNL     1     -19.543  -8.550  -4.679  1.00  0.00     0.094 A 
HETATM    2  C   UNL     1     -20.582  -7.727  -4.228  1.00  0.00     0.106 A 
HETATM    3  C   UNL     1     -21.119  -7.921  -2.933  1.00  0.00     0.046 A 
HETATM    4  C   UNL     1     -20.614  -8.900  -2.072  1.00  0.00     0.050 A 
HETATM    5  C   UNL     1     -19.609  -9.742  -2.533  1.00  0.00     0.082 A 
HETATM    6  C   UNL     1     -19.082  -9.561  -3.809  1.00  0.00     0.075 A 
ENDROOT
BRANCH   4   7
HETATM    7  C   UNL     1     -21.146  -9.067  -0.697  1.00  0.00     0.195 C 
HETATM    8  O   UNL     1     -20.915  -8.181   0.125  1.00  0.00    -0.287 OA
BRANCH   7   9
HETATM    9  C   UNL     1     -21.979 -10.231  -0.311  1.00  0.00     0.015 A 
HETATM   10  C   UNL     1     -23.332 -10.316  -0.665  1.00  0.00     0.015 A 
HETATM   11  C   UNL     1     -24.090 -11.419  -0.272  1.00  0.00     0.001 A 
HETATM   12  C   UNL     1     -23.503 -12.429   0.494  1.00  0.00     0.000 A 
HETATM   13  C   UNL     1     -22.163 -12.335   0.870  1.00  0.00     0.001 A 
HETATM   14  C   UNL     1     -21.401 -11.237   0.471  1.00  0.00     0.015 A 
ENDBRANCH   7   9
ENDBRANCH   4   7
BRANCH   5  15
HETATM   15  O   UNL     1     -19.088 -10.760  -1.784  1.00  0.00    -0.360 OA
HETATM   16  H   UNL     1     -19.008 -11.552  -2.362  1.00  0.00     0.217 HD
ENDBRANCH   5  15
BRANCH   2  17
HETATM   17  S   UNL     1     -21.326  -6.421  -5.167  1.00  0.00     0.132 S 
HETATM   18  O   UNL     1     -22.755  -6.458  -4.948  1.00  0.00    -0.597 OA
HETATM   19  O   UNL     1     -20.534  -5.230  -4.988  1.00  0.00    -0.597 OA
BRANCH  17  20
HETATM   20  O   UNL     1     -21.179  -6.857  -6.716  1.00  0.00    -0.292 OA
HETATM   21  H   UNL     1     -20.247  -7.133  -6.853  1.00  0.00     0.232 HD
ENDBRANCH  17  20
ENDBRANCH   2  17
BRANCH   1  22
HETATM   22  O   UNL     1     -18.844  -8.614  -5.845  1.00  0.00    -0.354 OA
HETATM   23  C   UNL     1     -17.818  -9.552  -6.103  1.00  0.00     0.210 C 
ENDBRANCH   1  22
TORSDOF 6
BEGIN_RES ARG D 557
REMARK  4 active torsions:
REMARK  status: ('A' for Active; 'I' for Inactive)
REMARK    1  A    between atoms: CA   and  CB  
REMARK    2  A    between atoms: CB   and  CG  
REMARK    3  A    between atoms: CG   and  CD  
REMARK    4  A    between atoms: CD   and  NE  
REMARK       I    between atoms: NE   and  CZ  
REMARK       I    between atoms: CZ   and  NH1 
REMARK       I    between atoms: CZ   and  NH2 
ROOT
ATOM      1  CA  ARG D 557     -26.217   2.705 -17.014  1.00 35.49     0.159 C 
ENDROOT
BRANCH   1   2
ATOM      2  CB  ARG D 557     -26.789   1.319 -17.183  1.00 35.49     0.034 C 
BRANCH   2   3
ATOM      3  CG  ARG D 557     -25.836   0.203 -17.155  1.00 35.49     0.027 C 
BRANCH   3   4
ATOM      4  CD  ARG D 557     -24.753   0.410 -16.167  1.00 35.49     0.116 C 
BRANCH   4   5
ATOM      5  NE  ARG D 557     -24.900  -0.440 -15.015  1.00 35.49    -0.212 N 
ATOM      6  CZ  ARG D 557     -24.085  -1.410 -14.668  1.00 35.49     0.666 C 
ATOM      7  NH1 ARG D 557     -23.016  -1.726 -15.375  1.00 35.49    -0.235 N 
ATOM      8  NH2 ARG D 557     -24.361  -2.066 -13.578  1.00 35.49    -0.235 N 
ATOM      9  HH  ARG D 557     -22.813  -1.307 -16.095  1.00 35.49     0.174 HD
ATOM     10  HH  ARG D 557     -22.519  -2.367 -15.099  1.00 35.49     0.174 HD
ATOM     11  HH  ARG D 557     -25.054  -1.835 -13.137  1.00 35.49     0.174 HD
ATOM     12  HH  ARG D 557     -23.857  -2.696 -13.320  1.00 35.49     0.174 HD
ATOM     13  HE  ARG D 557     -25.601  -0.354 -14.542  1.00 35.49     0.178 HD
ENDBRANCH   4   5
ENDBRANCH   3   4
ENDBRANCH   2   3
ENDBRANCH   1   2
END_RES ARG D 557
BEGIN_RES GLU D 570
REMARK  3 active torsions:
REMARK  status: ('A' for Active; 'I' for Inactive)
REMARK    5  A    between atoms: CA   and  CB  
REMARK    6  A    between atoms: CB   and  CG  
REMARK    7  A    between atoms: CG   and  CD  
ROOT
ATOM     14  CA  GLU D 570     -18.033  -6.348 -13.375  1.00 32.92     0.160 C 
ENDROOT
BRANCH  14  15
ATOM     15  CB  GLU D 570     -19.500  -6.345 -13.794  1.00 32.92     0.043 C 
BRANCH  15  16
ATOM     16  CG  GLU D 570     -20.442  -5.530 -12.983  1.00 32.92     0.100 C 
BRANCH  16  17
ATOM     17  CD  GLU D 570     -21.739  -5.240 -13.702  1.00 32.92     0.185 C 
ATOM     18  OE1 GLU D 570     -22.200  -6.091 -14.486  1.00 32.92    -0.647 OA
ATOM     19  OE2 GLU D 570     -22.291  -4.142 -13.491  1.00 32.92    -0.647 OA
ENDBRANCH  16  17
ENDBRANCH  15  16
ENDBRANCH  14  15
END_RES GLU D 570
ENDMDL
