MODEL 1
REMARK VINA RESULT:     -10.8      0.000      0.000
REMARK  1 active torsions:
REMARK  status: ('A' for Active; 'I' for Inactive)
REMARK    1  A    between atoms: C_9  and  C_12 
ROOT
HETATM    1  C   UNL     1     -21.432  -8.624  -1.511  1.00  0.00     0.001 A 
HETATM    2  C   UNL     1     -21.997  -7.397  -1.182  1.00  0.00     0.002 A 
HETATM    3  C   UNL     1     -21.970  -6.345  -2.106  1.00  0.00     0.030 A 
HETATM    4  C   UNL     1     -21.392  -6.487  -3.362  1.00  0.00     0.042 A 
HETATM    5  C   UNL     1     -20.820  -7.734  -3.684  1.00  0.00    -0.009 A 
HETATM    6  C   UNL     1     -20.841  -8.794  -2.760  1.00  0.00     0.013 A 
HETATM    7  C   UNL     1     -20.246  -7.885  -4.949  1.00  0.00     0.015 A 
HETATM    8  C   UNL     1     -20.275  -6.827  -5.850  1.00  0.00     0.027 A 
HETATM    9  C   UNL     1     -20.878  -5.634  -5.466  1.00  0.00     0.029 A 
HETATM   10  N   UNL     1     -21.412  -5.454  -4.230  1.00  0.00    -0.358 N 
ATOM     11  HN  UNL     1     -21.820  -4.557  -3.964  1.00  0.00     0.166 HD
ENDROOT
BRANCH   9  12
HETATM   12  C   UNL     1     -21.032  -4.526  -6.469  1.00  0.00     0.185 A 
HETATM   13  C   UNL     1     -22.324  -4.559  -7.260  1.00  0.00     0.177 A 
HETATM   14  O   UNL     1     -23.464  -4.531  -6.831  1.00  0.00    -0.291 OA
HETATM   15  C   UNL     1     -21.989  -4.517  -8.686  1.00  0.00     0.025 A 
HETATM   16  C   UNL     1     -22.838  -4.402  -9.773  1.00  0.00     0.016 A 
HETATM   17  C   UNL     1     -20.610  -4.544  -8.847  1.00  0.00     0.025 A 
HETATM   18  C   UNL     1     -22.258  -4.329 -11.045  1.00  0.00     0.001 A 
HETATM   19  C   UNL     1     -20.859  -4.380 -11.205  1.00  0.00     0.001 A 
HETATM   20  C   UNL     1     -20.017  -4.487 -10.095  1.00  0.00     0.016 A 
HETATM   21  C   UNL     1     -19.959  -4.563  -7.538  1.00  0.00     0.177 A 
HETATM   22  O   UNL     1     -18.751  -4.529  -7.390  1.00  0.00    -0.291 OA
ENDBRANCH   9  12
TORSDOF 1
BEGIN_RES ARG D 557
REMARK  4 active torsions:
REMARK  status: ('A' for Active; 'I' for Inactive)
REMARK    1  A    between atoms: CA   and  CB  
REMARK    2  A    between atoms: CB   and  CG  
REMARK    3  A    between atoms: CG   and  CD  
REMARK    4  A    between atoms: CD   and  NE  
REMARK       I    between atoms: NE   and  CZ  
REMARK       I    between atoms: CZ   and  NH1 
REMARK       I    between atoms: CZ   and  NH2 
ROOT
ATOM      1  CA  ARG D 557     -26.217   2.705 -17.014  1.00 35.49     0.159 C 
ENDROOT
BRANCH   1   2
ATOM      2  CB  ARG D 557     -26.789   1.319 -17.183  1.00 35.49     0.034 C 
BRANCH   2   3
ATOM      3  CG  ARG D 557     -25.873   0.194 -16.960  1.00 35.49     0.027 C 
BRANCH   3   4
ATOM      4  CD  ARG D 557     -26.320  -0.688 -15.857  1.00 35.49     0.116 C 
BRANCH   4   5
ATOM      5  NE  ARG D 557     -25.270  -0.943 -14.907  1.00 35.49    -0.212 N 
ATOM      6  CZ  ARG D 557     -24.983  -2.109 -14.373  1.00 35.49     0.666 C 
ATOM      7  NH1 ARG D 557     -25.664  -3.205 -14.656  1.00 35.49    -0.235 N 
ATOM      8  NH2 ARG D 557     -23.982  -2.160 -13.544  1.00 35.49    -0.235 N 
ATOM      9  HH  ARG D 557     -26.326  -3.195 -15.200  1.00 35.49     0.174 HD
ATOM     10  HH  ARG D 557     -25.430  -3.938 -14.279  1.00 35.49     0.174 HD
ATOM     11  HH  ARG D 557     -23.555  -1.439 -13.386  1.00 35.49     0.174 HD
ATOM     12  HH  ARG D 557     -23.764  -2.896 -13.183  1.00 35.49     0.174 HD
ATOM     13  HE  ARG D 557     -24.827  -0.279 -14.613  1.00 35.49     0.178 HD
ENDBRANCH   4   5
ENDBRANCH   3   4
ENDBRANCH   2   3
ENDBRANCH   1   2
END_RES ARG D 557
BEGIN_RES GLU D 570
REMARK  3 active torsions:
REMARK  status: ('A' for Active; 'I' for Inactive)
REMARK    5  A    between atoms: CA   and  CB  
REMARK    6  A    between atoms: CB   and  CG  
REMARK    7  A    between atoms: CG   and  CD  
ROOT
ATOM     14  CA  GLU D 570     -18.033  -6.348 -13.375  1.00 32.92     0.160 C 
ENDROOT
BRANCH  14  15
ATOM     15  CB  GLU D 570     -19.500  -6.345 -13.794  1.00 32.92     0.043 C 
BRANCH  15  16
ATOM     16  CG  GLU D 570     -19.804  -6.064 -15.221  1.00 32.92     0.100 C 
BRANCH  16  17
ATOM     17  CD  GLU D 570     -21.164  -5.437 -15.422  1.00 32.92     0.185 C 
ATOM     18  OE1 GLU D 570     -21.886  -5.227 -14.428  1.00 32.92    -0.647 OA
ATOM     19  OE2 GLU D 570     -21.518  -5.168 -16.586  1.00 32.92    -0.647 OA
ENDBRANCH  16  17
ENDBRANCH  15  16
ENDBRANCH  14  15
END_RES GLU D 570
ENDMDL
MODEL 2
REMARK VINA RESULT:     -10.2      1.719      3.245
REMARK  1 active torsions:
REMARK  status: ('A' for Active; 'I' for Inactive)
REMARK    1  A    between atoms: C_9  and  C_12 
ROOT
HETATM    1  C   UNL     1     -21.135  -9.189   1.181  1.00  0.00     0.001 A 
HETATM    2  C   UNL     1     -20.870 -10.258   0.334  1.00  0.00     0.002 A 
HETATM    3  C   UNL     1     -21.005 -10.103  -1.051  1.00  0.00     0.030 A 
HETATM    4  C   UNL     1     -21.398  -8.897  -1.618  1.00  0.00     0.042 A 
HETATM    5  C   UNL     1     -21.667  -7.819  -0.750  1.00  0.00    -0.009 A 
HETATM    6  C   UNL     1     -21.537  -7.970   0.642  1.00  0.00     0.013 A 
HETATM    7  C   UNL     1     -22.054  -6.601  -1.316  1.00  0.00     0.015 A 
HETATM    8  C   UNL     1     -22.138  -6.480  -2.698  1.00  0.00     0.027 A 
HETATM    9  C   UNL     1     -21.834  -7.582  -3.490  1.00  0.00     0.029 A 
HETATM   10  N   UNL     1     -21.490  -8.785  -2.960  1.00  0.00    -0.358 N 
ATOM     11  HN  UNL     1     -21.303  -9.586  -3.564  1.00  0.00     0.166 HD
ENDROOT
BRANCH   9  12
HETATM   12  C   UNL     1     -21.796  -7.432  -4.984  1.00  0.00     0.185 A 
HETATM   13  C   UNL     1     -20.411  -7.250  -5.570  1.00  0.00     0.177 A 
HETATM   14  O   UNL     1     -19.453  -7.997  -5.470  1.00  0.00    -0.291 OA
HETATM   15  C   UNL     1     -20.419  -6.045  -6.402  1.00  0.00     0.025 A 
HETATM   16  C   UNL     1     -19.424  -5.555  -7.230  1.00  0.00     0.016 A 
HETATM   17  C   UNL     1     -21.658  -5.424  -6.318  1.00  0.00     0.025 A 
HETATM   18  C   UNL     1     -19.705  -4.400  -7.969  1.00  0.00     0.001 A 
HETATM   19  C   UNL     1     -20.955  -3.760  -7.863  1.00  0.00     0.001 A 
HETATM   20  C   UNL     1     -21.951  -4.274  -7.029  1.00  0.00     0.016 A 
HETATM   21  C   UNL     1     -22.547  -6.205  -5.460  1.00  0.00     0.177 A 
HETATM   22  O   UNL     1     -23.714  -5.916  -5.263  1.00  0.00    -0.291 OA
ENDBRANCH   9  12
TORSDOF 1
BEGIN_RES ARG D 557
REMARK  4 active torsions:
REMARK  status: ('A' for Active; 'I' for Inactive)
REMARK    1  A    between atoms: CA   and  CB  
REMARK    2  A    between atoms: CB   and  CG  
REMARK    3  A    between atoms: CG   and  CD  
REMARK    4  A    between atoms: CD   and  NE  
REMARK       I    between atoms: NE   and  CZ  
REMARK       I    between atoms: CZ   and  NH1 
REMARK       I    between atoms: CZ   and  NH2 
ROOT
ATOM      1  CA  ARG D 557     -26.217   2.705 -17.014  1.00 35.49     0.159 C 
ENDROOT
BRANCH   1   2
ATOM      2  CB  ARG D 557     -26.789   1.319 -17.183  1.00 35.49     0.034 C 
BRANCH   2   3
ATOM      3  CG  ARG D 557     -25.836   0.203 -17.156  1.00 35.49     0.027 C 
BRANCH   3   4
ATOM      4  CD  ARG D 557     -24.766   0.399 -16.151  1.00 35.49     0.116 C 
BRANCH   4   5
ATOM      5  NE  ARG D 557     -24.934  -0.457 -15.007  1.00 35.49    -0.212 N 
ATOM      6  CZ  ARG D 557     -24.129  -1.434 -14.653  1.00 35.49     0.666 C 
ATOM      7  NH1 ARG D 557     -23.051  -1.751 -15.347  1.00 35.49    -0.235 N 
ATOM      8  NH2 ARG D 557     -24.425  -2.094 -13.572  1.00 35.49    -0.235 N 
ATOM      9  HH  ARG D 557     -22.836  -1.328 -16.061  1.00 35.49     0.174 HD
ATOM     10  HH  ARG D 557     -22.562  -2.396 -15.067  1.00 35.49     0.174 HD
ATOM     11  HH  ARG D 557     -25.123  -1.863 -13.140  1.00 35.49     0.174 HD
ATOM     12  HH  ARG D 557     -23.927  -2.729 -13.310  1.00 35.49     0.174 HD
ATOM     13  HE  ARG D 557     -25.642  -0.371 -14.544  1.00 35.49     0.178 HD
ENDBRANCH   4   5
ENDBRANCH   3   4
ENDBRANCH   2   3
ENDBRANCH   1   2
END_RES ARG D 557
BEGIN_RES GLU D 570
REMARK  3 active torsions:
REMARK  status: ('A' for Active; 'I' for Inactive)
REMARK    5  A    between atoms: CA   and  CB  
REMARK    6  A    between atoms: CB   and  CG  
REMARK    7  A    between atoms: CG   and  CD  
ROOT
ATOM     14  CA  GLU D 570     -18.033  -6.348 -13.375  1.00 32.92     0.160 C 
ENDROOT
BRANCH  14  15
ATOM     15  CB  GLU D 570     -19.500  -6.345 -13.794  1.00 32.92     0.043 C 
BRANCH  15  16
ATOM     16  CG  GLU D 570     -20.439  -5.517 -12.994  1.00 32.92     0.100 C 
BRANCH  16  17
ATOM     17  CD  GLU D 570     -21.593  -4.981 -13.808  1.00 32.92     0.185 C 
ATOM     18  OE1 GLU D 570     -22.413  -4.215 -13.266  1.00 32.92    -0.647 OA
ATOM     19  OE2 GLU D 570     -21.688  -5.344 -14.997  1.00 32.92    -0.647 OA
ENDBRANCH  16  17
ENDBRANCH  15  16
ENDBRANCH  14  15
END_RES GLU D 570
ENDMDL
MODEL 3
REMARK VINA RESULT:     -10.0      2.233      3.717
REMARK  1 active torsions:
REMARK  status: ('A' for Active; 'I' for Inactive)
REMARK    1  A    between atoms: C_9  and  C_12 
ROOT
HETATM    1  C   UNL     1     -21.208  -9.215   1.180  1.00  0.00     0.001 A 
HETATM    2  C   UNL     1     -21.006 -10.298   0.333  1.00  0.00     0.002 A 
HETATM    3  C   UNL     1     -21.141 -10.138  -1.051  1.00  0.00     0.030 A 
HETATM    4  C   UNL     1     -21.470  -8.914  -1.619  1.00  0.00     0.042 A 
HETATM    5  C   UNL     1     -21.675  -7.821  -0.751  1.00  0.00    -0.009 A 
HETATM    6  C   UNL     1     -21.545  -7.976   0.641  1.00  0.00     0.013 A 
HETATM    7  C   UNL     1     -21.998  -6.585  -1.317  1.00  0.00     0.015 A 
HETATM    8  C   UNL     1     -22.083  -6.462  -2.699  1.00  0.00     0.027 A 
HETATM    9  C   UNL     1     -21.845  -7.580  -3.490  1.00  0.00     0.029 A 
HETATM   10  N   UNL     1     -21.563  -8.799  -2.960  1.00  0.00    -0.358 N 
ATOM     11  HN  UNL     1     -21.424  -9.610  -3.563  1.00  0.00     0.166 HD
ENDROOT
BRANCH   9  12
HETATM   12  C   UNL     1     -21.806  -7.436  -4.985  1.00  0.00     0.185 A 
HETATM   13  C   UNL     1     -20.421  -7.265  -5.573  1.00  0.00     0.177 A 
HETATM   14  O   UNL     1     -19.468  -8.017  -5.471  1.00  0.00    -0.291 OA
HETATM   15  C   UNL     1     -20.422  -6.062  -6.409  1.00  0.00     0.025 A 
HETATM   16  C   UNL     1     -19.424  -5.581  -7.239  1.00  0.00     0.016 A 
HETATM   17  C   UNL     1     -21.657  -5.432  -6.326  1.00  0.00     0.025 A 
HETATM   18  C   UNL     1     -19.698  -4.426  -7.982  1.00  0.00     0.001 A 
HETATM   19  C   UNL     1     -20.945  -3.778  -7.877  1.00  0.00     0.001 A 
HETATM   20  C   UNL     1     -21.944  -4.283  -7.040  1.00  0.00     0.016 A 
HETATM   21  C   UNL     1     -22.550  -6.205  -5.464  1.00  0.00     0.177 A 
HETATM   22  O   UNL     1     -23.715  -5.908  -5.267  1.00  0.00    -0.291 OA
ENDBRANCH   9  12
TORSDOF 1
BEGIN_RES ARG D 557
REMARK  4 active torsions:
REMARK  status: ('A' for Active; 'I' for Inactive)
REMARK    1  A    between atoms: CA   and  CB  
REMARK    2  A    between atoms: CB   and  CG  
REMARK    3  A    between atoms: CG   and  CD  
REMARK    4  A    between atoms: CD   and  NE  
REMARK       I    between atoms: NE   and  CZ  
REMARK       I    between atoms: CZ   and  NH1 
REMARK       I    between atoms: CZ   and  NH2 
ROOT
ATOM      1  CA  ARG D 557     -26.217   2.705 -17.014  1.00 35.49     0.159 C 
ENDROOT
BRANCH   1   2
ATOM      2  CB  ARG D 557     -26.789   1.319 -17.183  1.00 35.49     0.034 C 
BRANCH   2   3
ATOM      3  CG  ARG D 557     -28.235   1.225 -17.417  1.00 35.49     0.027 C 
BRANCH   3   4
ATOM      4  CD  ARG D 557     -28.896   0.277 -16.490  1.00 35.49     0.116 C 
BRANCH   4   5
ATOM      5  NE  ARG D 557     -29.260  -0.953 -17.142  1.00 35.49    -0.212 N 
ATOM      6  CZ  ARG D 557     -28.623  -2.098 -17.032  1.00 35.49     0.666 C 
ATOM      7  NH1 ARG D 557     -27.537  -2.237 -16.295  1.00 35.49    -0.235 N 
ATOM      8  NH2 ARG D 557     -29.107  -3.119 -17.678  1.00 35.49    -0.235 N 
ATOM      9  HH  ARG D 557     -27.202  -1.580 -15.859  1.00 35.49     0.174 HD
ATOM     10  HH  ARG D 557     -27.166  -3.009 -16.258  1.00 35.49     0.174 HD
ATOM     11  HH  ARG D 557     -29.814  -3.001 -18.140  1.00 35.49     0.174 HD
ATOM     12  HH  ARG D 557     -28.727  -3.875 -17.628  1.00 35.49     0.174 HD
ATOM     13  HE  ARG D 557     -29.906  -0.937 -17.694  1.00 35.49     0.178 HD
ENDBRANCH   4   5
ENDBRANCH   3   4
ENDBRANCH   2   3
ENDBRANCH   1   2
END_RES ARG D 557
BEGIN_RES GLU D 570
REMARK  3 active torsions:
REMARK  status: ('A' for Active; 'I' for Inactive)
REMARK    5  A    between atoms: CA   and  CB  
REMARK    6  A    between atoms: CB   and  CG  
REMARK    7  A    between atoms: CG   and  CD  
ROOT
ATOM     14  CA  GLU D 570     -18.033  -6.348 -13.375  1.00 32.92     0.160 C 
ENDROOT
BRANCH  14  15
ATOM     15  CB  GLU D 570     -19.500  -6.345 -13.794  1.00 32.92     0.043 C 
BRANCH  15  16
ATOM     16  CG  GLU D 570     -20.446  -5.550 -12.969  1.00 32.92     0.100 C 
BRANCH  16  17
ATOM     17  CD  GLU D 570     -21.711  -5.184 -13.710  1.00 32.92     0.185 C 
ATOM     18  OE1 GLU D 570     -21.682  -5.104 -14.953  1.00 32.92    -0.647 OA
ATOM     19  OE2 GLU D 570     -22.737  -4.958 -13.040  1.00 32.92    -0.647 OA
ENDBRANCH  16  17
ENDBRANCH  15  16
ENDBRANCH  14  15
END_RES GLU D 570
ENDMDL
MODEL 4
REMARK VINA RESULT:      -9.4      1.738      1.967
REMARK  1 active torsions:
REMARK  status: ('A' for Active; 'I' for Inactive)
REMARK    1  A    between atoms: C_9  and  C_12 
ROOT
HETATM    1  C   UNL     1     -20.572  -8.870  -2.156  1.00  0.00     0.001 A 
HETATM    2  C   UNL     1     -21.296  -7.786  -1.675  1.00  0.00     0.002 A 
HETATM    3  C   UNL     1     -21.505  -6.667  -2.489  1.00  0.00     0.030 A 
HETATM    4  C   UNL     1     -21.008  -6.601  -3.785  1.00  0.00     0.042 A 
HETATM    5  C   UNL     1     -20.272  -7.705  -4.264  1.00  0.00    -0.009 A 
HETATM    6  C   UNL     1     -20.057  -8.831  -3.449  1.00  0.00     0.013 A 
HETATM    7  C   UNL     1     -19.779  -7.648  -5.570  1.00  0.00     0.015 A 
HETATM    8  C   UNL     1     -20.042  -6.534  -6.358  1.00  0.00     0.027 A 
HETATM    9  C   UNL     1     -20.795  -5.494  -5.822  1.00  0.00     0.029 A 
HETATM   10  N   UNL     1     -21.256  -5.513  -4.545  1.00  0.00    -0.358 N 
ATOM     11  HN  UNL     1     -21.778  -4.723  -4.167  1.00  0.00     0.166 HD
ENDROOT
BRANCH   9  12
HETATM   12  C   UNL     1     -21.196  -4.343  -6.700  1.00  0.00     0.185 A 
HETATM   13  C   UNL     1     -22.550  -4.490  -7.363  1.00  0.00     0.177 A 
HETATM   14  O   UNL     1     -23.631  -4.653  -6.826  1.00  0.00    -0.291 OA
HETATM   15  C   UNL     1     -22.379  -4.291  -8.805  1.00  0.00     0.025 A 
HETATM   16  C   UNL     1     -23.347  -4.208  -9.790  1.00  0.00     0.016 A 
HETATM   17  C   UNL     1     -21.033  -4.116  -9.099  1.00  0.00     0.025 A 
HETATM   18  C   UNL     1     -22.920  -3.957 -11.100  1.00  0.00     0.001 A 
HETATM   19  C   UNL     1     -21.552  -3.803 -11.397  1.00  0.00     0.001 A 
HETATM   20  C   UNL     1     -20.589  -3.880 -10.387  1.00  0.00     0.016 A 
HETATM   21  C   UNL     1     -20.248  -4.149  -7.866  1.00  0.00     0.177 A 
HETATM   22  O   UNL     1     -19.045  -3.961  -7.831  1.00  0.00    -0.291 OA
ENDBRANCH   9  12
TORSDOF 1
BEGIN_RES ARG D 557
REMARK  4 active torsions:
REMARK  status: ('A' for Active; 'I' for Inactive)
REMARK    1  A    between atoms: CA   and  CB  
REMARK    2  A    between atoms: CB   and  CG  
REMARK    3  A    between atoms: CG   and  CD  
REMARK    4  A    between atoms: CD   and  NE  
REMARK       I    between atoms: NE   and  CZ  
REMARK       I    between atoms: CZ   and  NH1 
REMARK       I    between atoms: CZ   and  NH2 
ROOT
ATOM      1  CA  ARG D 557     -26.217   2.705 -17.014  1.00 35.49     0.159 C 
ENDROOT
BRANCH   1   2
ATOM      2  CB  ARG D 557     -26.789   1.319 -17.183  1.00 35.49     0.034 C 
BRANCH   2   3
ATOM      3  CG  ARG D 557     -28.204   1.142 -16.836  1.00 35.49     0.027 C 
BRANCH   3   4
ATOM      4  CD  ARG D 557     -28.724  -0.183 -17.246  1.00 35.49     0.116 C 
BRANCH   4   5
ATOM      5  NE  ARG D 557     -28.065  -1.261 -16.557  1.00 35.49    -0.212 N 
ATOM      6  CZ  ARG D 557     -28.255  -2.543 -16.777  1.00 35.49     0.666 C 
ATOM      7  NH1 ARG D 557     -29.112  -2.989 -17.677  1.00 35.49    -0.235 N 
ATOM      8  NH2 ARG D 557     -27.554  -3.383 -16.072  1.00 35.49    -0.235 N 
ATOM      9  HH  ARG D 557     -29.582  -2.454 -18.153  1.00 35.49     0.174 HD
ATOM     10  HH  ARG D 557     -29.192  -3.836 -17.778  1.00 35.49     0.174 HD
ATOM     11  HH  ARG D 557     -27.003  -3.066 -15.503  1.00 35.49     0.174 HD
ATOM     12  HH  ARG D 557     -27.646  -4.218 -16.188  1.00 35.49     0.174 HD
ATOM     13  HE  ARG D 557     -27.549  -1.065 -15.910  1.00 35.49     0.178 HD
ENDBRANCH   4   5
ENDBRANCH   3   4
ENDBRANCH   2   3
ENDBRANCH   1   2
END_RES ARG D 557
BEGIN_RES GLU D 570
REMARK  3 active torsions:
REMARK  status: ('A' for Active; 'I' for Inactive)
REMARK    5  A    between atoms: CA   and  CB  
REMARK    6  A    between atoms: CB   and  CG  
REMARK    7  A    between atoms: CG   and  CD  
ROOT
ATOM     14  CA  GLU D 570     -18.033  -6.348 -13.375  1.00 32.92     0.160 C 
ENDROOT
BRANCH  14  15
ATOM     15  CB  GLU D 570     -19.500  -6.345 -13.794  1.00 32.92     0.043 C 
BRANCH  15  16
ATOM     16  CG  GLU D 570     -20.069  -7.620 -14.302  1.00 32.92     0.100 C 
BRANCH  16  17
ATOM     17  CD  GLU D 570     -20.558  -7.520 -15.729  1.00 32.92     0.185 C 
ATOM     18  OE1 GLU D 570     -20.924  -8.555 -16.317  1.00 32.92    -0.647 OA
ATOM     19  OE2 GLU D 570     -20.559  -6.396 -16.269  1.00 32.92    -0.647 OA
ENDBRANCH  16  17
ENDBRANCH  15  16
ENDBRANCH  14  15
END_RES GLU D 570
ENDMDL
MODEL 5
REMARK VINA RESULT:      -9.3      2.014      6.091
REMARK  1 active torsions:
REMARK  status: ('A' for Active; 'I' for Inactive)
REMARK    1  A    between atoms: C_9  and  C_12 
ROOT
HETATM    1  C   UNL     1     -21.035  -4.171  -8.848  1.00  0.00     0.001 A 
HETATM    2  C   UNL     1     -19.754  -4.098  -8.313  1.00  0.00     0.002 A 
HETATM    3  C   UNL     1     -19.499  -4.616  -7.037  1.00  0.00     0.030 A 
HETATM    4  C   UNL     1     -20.496  -5.214  -6.276  1.00  0.00     0.042 A 
HETATM    5  C   UNL     1     -21.792  -5.281  -6.827  1.00  0.00    -0.009 A 
HETATM    6  C   UNL     1     -22.056  -4.760  -8.106  1.00  0.00     0.013 A 
HETATM    7  C   UNL     1     -22.796  -5.890  -6.069  1.00  0.00     0.015 A 
HETATM    8  C   UNL     1     -22.490  -6.426  -4.824  1.00  0.00     0.027 A 
HETATM    9  C   UNL     1     -21.183  -6.341  -4.358  1.00  0.00     0.029 A 
HETATM   10  N   UNL     1     -20.199  -5.724  -5.062  1.00  0.00    -0.358 N 
ATOM     11  HN  UNL     1     -19.255  -5.648  -4.682  1.00  0.00     0.166 HD
ENDROOT
BRANCH   9  12
HETATM   12  C   UNL     1     -20.808  -7.027  -3.075  1.00  0.00     0.185 A 
HETATM   13  C   UNL     1     -20.972  -8.532  -3.086  1.00  0.00     0.177 A 
HETATM   14  O   UNL     1     -20.453  -9.335  -3.841  1.00  0.00    -0.291 OA
HETATM   15  C   UNL     1     -21.799  -8.912  -1.937  1.00  0.00     0.025 A 
HETATM   16  C   UNL     1     -22.108 -10.179  -1.472  1.00  0.00     0.016 A 
HETATM   17  C   UNL     1     -22.226  -7.773  -1.267  1.00  0.00     0.025 A 
HETATM   18  C   UNL     1     -22.882 -10.272  -0.309  1.00  0.00     0.001 A 
HETATM   19  C   UNL     1     -23.332  -9.114   0.354  1.00  0.00     0.001 A 
HETATM   20  C   UNL     1     -23.002  -7.843  -0.125  1.00  0.00     0.016 A 
HETATM   21  C   UNL     1     -21.672  -6.584  -1.911  1.00  0.00     0.177 A 
HETATM   22  O   UNL     1     -21.841  -5.453  -1.490  1.00  0.00    -0.291 OA
ENDBRANCH   9  12
TORSDOF 1
BEGIN_RES ARG D 557
REMARK  4 active torsions:
REMARK  status: ('A' for Active; 'I' for Inactive)
REMARK    1  A    between atoms: CA   and  CB  
REMARK    2  A    between atoms: CB   and  CG  
REMARK    3  A    between atoms: CG   and  CD  
REMARK    4  A    between atoms: CD   and  NE  
REMARK       I    between atoms: NE   and  CZ  
REMARK       I    between atoms: CZ   and  NH1 
REMARK       I    between atoms: CZ   and  NH2 
ROOT
ATOM      1  CA  ARG D 557     -26.217   2.705 -17.014  1.00 35.49     0.159 C 
ENDROOT
BRANCH   1   2
ATOM      2  CB  ARG D 557     -26.789   1.319 -17.183  1.00 35.49     0.034 C 
BRANCH   2   3
ATOM      3  CG  ARG D 557     -25.835   0.204 -17.165  1.00 35.49     0.027 C 
BRANCH   3   4
ATOM      4  CD  ARG D 557     -24.755   0.401 -16.171  1.00 35.49     0.116 C 
BRANCH   4   5
ATOM      5  NE  ARG D 557     -24.913  -0.452 -15.022  1.00 35.49    -0.212 N 
ATOM      6  CZ  ARG D 557     -24.097  -1.418 -14.665  1.00 35.49     0.666 C 
ATOM      7  NH1 ARG D 557     -23.016  -1.726 -15.357  1.00 35.49    -0.235 N 
ATOM      8  NH2 ARG D 557     -24.386  -2.076 -13.580  1.00 35.49    -0.235 N 
ATOM      9  HH  ARG D 557     -22.806  -1.304 -16.073  1.00 35.49     0.174 HD
ATOM     10  HH  ARG D 557     -22.520  -2.364 -15.073  1.00 35.49     0.174 HD
ATOM     11  HH  ARG D 557     -25.087  -1.850 -13.149  1.00 35.49     0.174 HD
ATOM     12  HH  ARG D 557     -23.881  -2.704 -13.315  1.00 35.49     0.174 HD
ATOM     13  HE  ARG D 557     -25.622  -0.371 -14.560  1.00 35.49     0.178 HD
ENDBRANCH   4   5
ENDBRANCH   3   4
ENDBRANCH   2   3
ENDBRANCH   1   2
END_RES ARG D 557
BEGIN_RES GLU D 570
REMARK  3 active torsions:
REMARK  status: ('A' for Active; 'I' for Inactive)
REMARK    5  A    between atoms: CA   and  CB  
REMARK    6  A    between atoms: CB   and  CG  
REMARK    7  A    between atoms: CG   and  CD  
ROOT
ATOM     14  CA  GLU D 570     -18.033  -6.348 -13.375  1.00 32.92     0.160 C 
ENDROOT
BRANCH  14  15
ATOM     15  CB  GLU D 570     -19.500  -6.345 -13.794  1.00 32.92     0.043 C 
BRANCH  15  16
ATOM     16  CG  GLU D 570     -20.443  -5.535 -12.980  1.00 32.92     0.100 C 
BRANCH  16  17
ATOM     17  CD  GLU D 570     -21.705  -5.173 -13.727  1.00 32.92     0.185 C 
ATOM     18  OE1 GLU D 570     -22.332  -4.148 -13.395  1.00 32.92    -0.647 OA
ATOM     19  OE2 GLU D 570     -22.080  -5.930 -14.643  1.00 32.92    -0.647 OA
ENDBRANCH  16  17
ENDBRANCH  15  16
ENDBRANCH  14  15
END_RES GLU D 570
ENDMDL
MODEL 6
REMARK VINA RESULT:      -9.0      1.981      6.003
REMARK  1 active torsions:
REMARK  status: ('A' for Active; 'I' for Inactive)
REMARK    1  A    between atoms: C_9  and  C_12 
ROOT
HETATM    1  C   UNL     1     -20.290  -3.985  -8.292  1.00  0.00     0.001 A 
HETATM    2  C   UNL     1     -21.599  -3.673  -7.943  1.00  0.00     0.002 A 
HETATM    3  C   UNL     1     -22.256  -4.417  -6.956  1.00  0.00     0.030 A 
HETATM    4  C   UNL     1     -21.635  -5.473  -6.299  1.00  0.00     0.042 A 
HETATM    5  C   UNL     1     -20.309  -5.784  -6.662  1.00  0.00    -0.009 A 
HETATM    6  C   UNL     1     -19.644  -5.041  -7.655  1.00  0.00     0.013 A 
HETATM    7  C   UNL     1     -19.676  -6.838  -5.998  1.00  0.00     0.015 A 
HETATM    8  C   UNL     1     -20.353  -7.526  -4.997  1.00  0.00     0.027 A 
HETATM    9  C   UNL     1     -21.652  -7.146  -4.680  1.00  0.00     0.029 A 
HETATM   10  N   UNL     1     -22.298  -6.146  -5.335  1.00  0.00    -0.358 N 
ATOM     11  HN  UNL     1     -23.263  -5.909  -5.104  1.00  0.00     0.166 HD
ENDROOT
BRANCH   9  12
HETATM   12  C   UNL     1     -22.350  -7.792  -3.517  1.00  0.00     0.185 A 
HETATM   13  C   UNL     1     -22.202  -7.060  -2.199  1.00  0.00     0.177 A 
HETATM   14  O   UNL     1     -22.518  -5.911  -1.943  1.00  0.00    -0.291 OA
HETATM   15  C   UNL     1     -21.701  -8.008  -1.201  1.00  0.00     0.025 A 
HETATM   16  C   UNL     1     -21.533  -7.826   0.161  1.00  0.00     0.016 A 
HETATM   17  C   UNL     1     -21.450  -9.235  -1.801  1.00  0.00     0.025 A 
HETATM   18  C   UNL     1     -21.085  -8.920   0.912  1.00  0.00     0.001 A 
HETATM   19  C   UNL     1     -20.809 -10.155   0.294  1.00  0.00     0.001 A 
HETATM   20  C   UNL     1     -20.994 -10.323  -1.081  1.00  0.00     0.016 A 
HETATM   21  C   UNL     1     -21.809  -9.175  -3.217  1.00  0.00     0.177 A 
HETATM   22  O   UNL     1     -21.744 -10.134  -3.966  1.00  0.00    -0.291 OA
ENDBRANCH   9  12
TORSDOF 1
BEGIN_RES ARG D 557
REMARK  4 active torsions:
REMARK  status: ('A' for Active; 'I' for Inactive)
REMARK    1  A    between atoms: CA   and  CB  
REMARK    2  A    between atoms: CB   and  CG  
REMARK    3  A    between atoms: CG   and  CD  
REMARK    4  A    between atoms: CD   and  NE  
REMARK       I    between atoms: NE   and  CZ  
REMARK       I    between atoms: CZ   and  NH1 
REMARK       I    between atoms: CZ   and  NH2 
ROOT
ATOM      1  CA  ARG D 557     -26.217   2.705 -17.014  1.00 35.49     0.159 C 
ENDROOT
BRANCH   1   2
ATOM      2  CB  ARG D 557     -26.789   1.319 -17.183  1.00 35.49     0.034 C 
BRANCH   2   3
ATOM      3  CG  ARG D 557     -25.860   0.195 -17.011  1.00 35.49     0.027 C 
BRANCH   3   4
ATOM      4  CD  ARG D 557     -26.252  -0.694 -15.894  1.00 35.49     0.116 C 
BRANCH   4   5
ATOM      5  NE  ARG D 557     -25.182  -0.883 -14.950  1.00 35.49    -0.212 N 
ATOM      6  CZ  ARG D 557     -24.871  -2.015 -14.357  1.00 35.49     0.666 C 
ATOM      7  NH1 ARG D 557     -25.544  -3.132 -14.565  1.00 35.49    -0.235 N 
ATOM      8  NH2 ARG D 557     -23.855  -2.007 -13.545  1.00 35.49    -0.235 N 
ATOM      9  HH  ARG D 557     -26.215  -3.160 -15.097  1.00 35.49     0.174 HD
ATOM     10  HH  ARG D 557     -25.294  -3.840 -14.152  1.00 35.49     0.174 HD
ATOM     11  HH  ARG D 557     -23.435  -1.273 -13.436  1.00 35.49     0.174 HD
ATOM     12  HH  ARG D 557     -23.622  -2.719 -13.147  1.00 35.49     0.174 HD
ATOM     13  HE  ARG D 557     -24.742  -0.199 -14.703  1.00 35.49     0.178 HD
ENDBRANCH   4   5
ENDBRANCH   3   4
ENDBRANCH   2   3
ENDBRANCH   1   2
END_RES ARG D 557
BEGIN_RES GLU D 570
REMARK  3 active torsions:
REMARK  status: ('A' for Active; 'I' for Inactive)
REMARK    5  A    between atoms: CA   and  CB  
REMARK    6  A    between atoms: CB   and  CG  
REMARK    7  A    between atoms: CG   and  CD  
ROOT
ATOM     14  CA  GLU D 570     -18.033  -6.348 -13.375  1.00 32.92     0.160 C 
ENDROOT
BRANCH  14  15
ATOM     15  CB  GLU D 570     -19.500  -6.345 -13.794  1.00 32.92     0.043 C 
BRANCH  15  16
ATOM     16  CG  GLU D 570     -20.448  -5.559 -12.963  1.00 32.92     0.100 C 
BRANCH  16  17
ATOM     17  CD  GLU D 570     -21.668  -5.105 -13.729  1.00 32.92     0.185 C 
ATOM     18  OE1 GLU D 570     -22.710  -4.834 -13.103  1.00 32.92    -0.647 OA
ATOM     19  OE2 GLU D 570     -21.586  -5.037 -14.972  1.00 32.92    -0.647 OA
ENDBRANCH  16  17
ENDBRANCH  15  16
ENDBRANCH  14  15
END_RES GLU D 570
ENDMDL
MODEL 7
REMARK VINA RESULT:      -8.8      2.867      5.872
REMARK  1 active torsions:
REMARK  status: ('A' for Active; 'I' for Inactive)
REMARK    1  A    between atoms: C_9  and  C_12 
ROOT
HETATM    1  C   UNL     1     -21.524  -4.081  -7.781  1.00  0.00     0.001 A 
HETATM    2  C   UNL     1     -20.254  -4.520  -8.135  1.00  0.00     0.002 A 
HETATM    3  C   UNL     1     -19.684  -5.617  -7.477  1.00  0.00     0.030 A 
HETATM    4  C   UNL     1     -20.356  -6.297  -6.469  1.00  0.00     0.042 A 
HETATM    5  C   UNL     1     -21.644  -5.843  -6.116  1.00  0.00    -0.009 A 
HETATM    6  C   UNL     1     -22.220  -4.739  -6.770  1.00  0.00     0.013 A 
HETATM    7  C   UNL     1     -22.328  -6.529  -5.109  1.00  0.00     0.015 A 
HETATM    8  C   UNL     1     -21.741  -7.637  -4.509  1.00  0.00     0.027 A 
HETATM    9  C   UNL     1     -20.477  -8.038  -4.928  1.00  0.00     0.029 A 
HETATM   10  N   UNL     1     -19.780  -7.366  -5.881  1.00  0.00    -0.358 N 
ATOM     11  HN  UNL     1     -18.840  -7.663  -6.146  1.00  0.00     0.166 HD
ENDROOT
BRANCH   9  12
HETATM   12  C   UNL     1     -19.883  -9.306  -4.383  1.00  0.00     0.185 A 
HETATM   13  C   UNL     1     -19.072  -9.135  -3.115  1.00  0.00     0.177 A 
HETATM   14  O   UNL     1     -19.440  -8.672  -2.049  1.00  0.00    -0.291 OA
HETATM   15  C   UNL     1     -17.752  -9.733  -3.330  1.00  0.00     0.025 A 
HETATM   16  C   UNL     1     -16.728  -9.926  -2.420  1.00  0.00     0.016 A 
HETATM   17  C   UNL     1     -17.648 -10.184  -4.640  1.00  0.00     0.025 A 
HETATM   18  C   UNL     1     -15.574 -10.578  -2.870  1.00  0.00     0.001 A 
HETATM   19  C   UNL     1     -15.464 -11.013  -4.205  1.00  0.00     0.001 A 
HETATM   20  C   UNL     1     -16.512 -10.818  -5.108  1.00  0.00     0.016 A 
HETATM   21  C   UNL     1     -18.905  -9.945  -5.347  1.00  0.00     0.177 A 
HETATM   22  O   UNL     1     -19.106 -10.299  -6.495  1.00  0.00    -0.291 OA
ENDBRANCH   9  12
TORSDOF 1
BEGIN_RES ARG D 557
REMARK  4 active torsions:
REMARK  status: ('A' for Active; 'I' for Inactive)
REMARK    1  A    between atoms: CA   and  CB  
REMARK    2  A    between atoms: CB   and  CG  
REMARK    3  A    between atoms: CG   and  CD  
REMARK    4  A    between atoms: CD   and  NE  
REMARK       I    between atoms: NE   and  CZ  
REMARK       I    between atoms: CZ   and  NH1 
REMARK       I    between atoms: CZ   and  NH2 
ROOT
ATOM      1  CA  ARG D 557     -26.217   2.705 -17.014  1.00 35.49     0.159 C 
ENDROOT
BRANCH   1   2
ATOM      2  CB  ARG D 557     -26.789   1.319 -17.183  1.00 35.49     0.034 C 
BRANCH   2   3
ATOM      3  CG  ARG D 557     -25.922   0.196 -16.807  1.00 35.49     0.027 C 
BRANCH   3   4
ATOM      4  CD  ARG D 557     -26.659  -0.873 -16.095  1.00 35.49     0.116 C 
BRANCH   4   5
ATOM      5  NE  ARG D 557     -25.907  -1.405 -14.989  1.00 35.49    -0.212 N 
ATOM      6  CZ  ARG D 557     -25.902  -2.660 -14.597  1.00 35.49     0.666 C 
ATOM      7  NH1 ARG D 557     -26.624  -3.592 -15.192  1.00 35.49    -0.235 N 
ATOM      8  NH2 ARG D 557     -25.143  -2.970 -13.586  1.00 35.49    -0.235 N 
ATOM      9  HH  ARG D 557     -27.129  -3.410 -15.860  1.00 35.49     0.174 HD
ATOM     10  HH  ARG D 557     -26.579  -4.394 -14.894  1.00 35.49     0.174 HD
ATOM     11  HH  ARG D 557     -24.683  -2.349 -13.227  1.00 35.49     0.174 HD
ATOM     12  HH  ARG D 557     -25.111  -3.770 -13.307  1.00 35.49     0.174 HD
ATOM     13  HE  ARG D 557     -25.470  -0.861 -14.504  1.00 35.49     0.178 HD
ENDBRANCH   4   5
ENDBRANCH   3   4
ENDBRANCH   2   3
ENDBRANCH   1   2
END_RES ARG D 557
BEGIN_RES GLU D 570
REMARK  3 active torsions:
REMARK  status: ('A' for Active; 'I' for Inactive)
REMARK    5  A    between atoms: CA   and  CB  
REMARK    6  A    between atoms: CB   and  CG  
REMARK    7  A    between atoms: CG   and  CD  
ROOT
ATOM     14  CA  GLU D 570     -18.033  -6.348 -13.375  1.00 32.92     0.160 C 
ENDROOT
BRANCH  14  15
ATOM     15  CB  GLU D 570     -19.500  -6.345 -13.794  1.00 32.92     0.043 C 
BRANCH  15  16
ATOM     16  CG  GLU D 570     -20.446  -5.551 -12.968  1.00 32.92     0.100 C 
BRANCH  16  17
ATOM     17  CD  GLU D 570     -21.726  -5.214 -13.698  1.00 32.92     0.185 C 
ATOM     18  OE1 GLU D 570     -22.164  -6.011 -14.550  1.00 32.92    -0.647 OA
ATOM     19  OE2 GLU D 570     -22.287  -4.135 -13.425  1.00 32.92    -0.647 OA
ENDBRANCH  16  17
ENDBRANCH  15  16
ENDBRANCH  14  15
END_RES GLU D 570
ENDMDL
MODEL 8
REMARK VINA RESULT:      -8.7      1.559      5.487
REMARK  1 active torsions:
REMARK  status: ('A' for Active; 'I' for Inactive)
REMARK    1  A    between atoms: C_9  and  C_12 
ROOT
HETATM    1  C   UNL     1     -23.355  -3.267 -10.322  1.00  0.00     0.001 A 
HETATM    2  C   UNL     1     -24.187  -3.519  -9.237  1.00  0.00     0.002 A 
HETATM    3  C   UNL     1     -23.694  -4.209  -8.124  1.00  0.00     0.030 A 
HETATM    4  C   UNL     1     -22.380  -4.657  -8.061  1.00  0.00     0.042 A 
HETATM    5  C   UNL     1     -21.545  -4.399  -9.167  1.00  0.00    -0.009 A 
HETATM    6  C   UNL     1     -22.035  -3.709 -10.290  1.00  0.00     0.013 A 
HETATM    7  C   UNL     1     -20.220  -4.838  -9.105  1.00  0.00     0.015 A 
HETATM    8  C   UNL     1     -19.762  -5.486  -7.963  1.00  0.00     0.027 A 
HETATM    9  C   UNL     1     -20.640  -5.683  -6.904  1.00  0.00     0.029 A 
HETATM   10  N   UNL     1     -21.941  -5.295  -6.955  1.00  0.00    -0.358 N 
ATOM     11  HN  UNL     1     -22.572  -5.481  -6.176  1.00  0.00     0.166 HD
ENDROOT
BRANCH   9  12
HETATM   12  C   UNL     1     -20.129  -6.265  -5.616  1.00  0.00     0.185 A 
HETATM   13  C   UNL     1     -20.662  -7.643  -5.284  1.00  0.00     0.177 A 
HETATM   14  O   UNL     1     -20.576  -8.659  -5.951  1.00  0.00    -0.291 OA
HETATM   15  C   UNL     1     -21.230  -7.602  -3.934  1.00  0.00     0.025 A 
HETATM   16  C   UNL     1     -21.715  -8.646  -3.165  1.00  0.00     0.016 A 
HETATM   17  C   UNL     1     -21.167  -6.307  -3.436  1.00  0.00     0.025 A 
HETATM   18  C   UNL     1     -22.157  -8.347  -1.870  1.00  0.00     0.001 A 
HETATM   19  C   UNL     1     -22.113  -7.028  -1.378  1.00  0.00     0.001 A 
HETATM   20  C   UNL     1     -21.611  -5.988  -2.166  1.00  0.00     0.016 A 
HETATM   21  C   UNL     1     -20.520  -5.432  -4.412  1.00  0.00     0.177 A 
HETATM   22  O   UNL     1     -20.284  -4.255  -4.205  1.00  0.00    -0.291 OA
ENDBRANCH   9  12
TORSDOF 1
BEGIN_RES ARG D 557
REMARK  4 active torsions:
REMARK  status: ('A' for Active; 'I' for Inactive)
REMARK    1  A    between atoms: CA   and  CB  
REMARK    2  A    between atoms: CB   and  CG  
REMARK    3  A    between atoms: CG   and  CD  
REMARK    4  A    between atoms: CD   and  NE  
REMARK       I    between atoms: NE   and  CZ  
REMARK       I    between atoms: CZ   and  NH1 
REMARK       I    between atoms: CZ   and  NH2 
ROOT
ATOM      1  CA  ARG D 557     -26.217   2.705 -17.014  1.00 35.49     0.159 C 
ENDROOT
BRANCH   1   2
ATOM      2  CB  ARG D 557     -26.789   1.319 -17.183  1.00 35.49     0.034 C 
BRANCH   2   3
ATOM      3  CG  ARG D 557     -25.933   0.197 -16.779  1.00 35.49     0.027 C 
BRANCH   3   4
ATOM      4  CD  ARG D 557     -26.680  -0.845 -16.038  1.00 35.49     0.116 C 
BRANCH   4   5
ATOM      5  NE  ARG D 557     -25.910  -1.396 -14.954  1.00 35.49    -0.212 N 
ATOM      6  CZ  ARG D 557     -25.882  -2.661 -14.598  1.00 35.49     0.666 C 
ATOM      7  NH1 ARG D 557     -26.594  -3.587 -15.213  1.00 35.49    -0.235 N 
ATOM      8  NH2 ARG D 557     -25.109  -2.987 -13.603  1.00 35.49    -0.235 N 
ATOM      9  HH  ARG D 557     -27.107  -3.395 -15.872  1.00 35.49     0.174 HD
ATOM     10  HH  ARG D 557     -26.533  -4.396 -14.939  1.00 35.49     0.174 HD
ATOM     11  HH  ARG D 557     -24.655  -2.369 -13.229  1.00 35.49     0.174 HD
ATOM     12  HH  ARG D 557     -25.061  -3.794 -13.347  1.00 35.49     0.174 HD
ATOM     13  HE  ARG D 557     -25.478  -0.858 -14.457  1.00 35.49     0.178 HD
ENDBRANCH   4   5
ENDBRANCH   3   4
ENDBRANCH   2   3
ENDBRANCH   1   2
END_RES ARG D 557
BEGIN_RES GLU D 570
REMARK  3 active torsions:
REMARK  status: ('A' for Active; 'I' for Inactive)
REMARK    5  A    between atoms: CA   and  CB  
REMARK    6  A    between atoms: CB   and  CG  
REMARK    7  A    between atoms: CG   and  CD  
ROOT
ATOM     14  CA  GLU D 570     -18.033  -6.348 -13.375  1.00 32.92     0.160 C 
ENDROOT
BRANCH  14  15
ATOM     15  CB  GLU D 570     -19.500  -6.345 -13.794  1.00 32.92     0.043 C 
BRANCH  15  16
ATOM     16  CG  GLU D 570     -20.437  -5.511 -12.998  1.00 32.92     0.100 C 
BRANCH  16  17
ATOM     17  CD  GLU D 570     -21.675  -5.116 -13.770  1.00 32.92     0.185 C 
ATOM     18  OE1 GLU D 570     -21.563  -4.787 -14.966  1.00 32.92    -0.647 OA
ATOM     19  OE2 GLU D 570     -22.766  -5.121 -13.166  1.00 32.92    -0.647 OA
ENDBRANCH  16  17
ENDBRANCH  15  16
ENDBRANCH  14  15
END_RES GLU D 570
ENDMDL
MODEL 9
REMARK VINA RESULT:      -8.5      3.434      5.621
REMARK  1 active torsions:
REMARK  status: ('A' for Active; 'I' for Inactive)
REMARK    1  A    between atoms: C_9  and  C_12 
ROOT
HETATM    1  C   UNL     1     -23.164 -14.178   1.718  1.00  0.00     0.001 A 
HETATM    2  C   UNL     1     -21.780 -14.259   1.623  1.00  0.00     0.002 A 
HETATM    3  C   UNL     1     -21.064 -13.248   0.971  1.00  0.00     0.030 A 
HETATM    4  C   UNL     1     -21.697 -12.146   0.409  1.00  0.00     0.042 A 
HETATM    5  C   UNL     1     -23.102 -12.075   0.508  1.00  0.00    -0.009 A 
HETATM    6  C   UNL     1     -23.827 -13.089   1.160  1.00  0.00     0.013 A 
HETATM    7  C   UNL     1     -23.744 -10.964  -0.046  1.00  0.00     0.015 A 
HETATM    8  C   UNL     1     -22.990  -9.965  -0.651  1.00  0.00     0.027 A 
HETATM    9  C   UNL     1     -21.607 -10.096  -0.690  1.00  0.00     0.029 A 
HETATM   10  N   UNL     1     -20.965 -11.182  -0.187  1.00  0.00    -0.358 N 
ATOM     11  HN  UNL     1     -19.950 -11.268  -0.258  1.00  0.00     0.166 HD
ENDROOT
BRANCH   9  12
HETATM   12  C   UNL     1     -20.771  -8.967  -1.223  1.00  0.00     0.185 A 
HETATM   13  C   UNL     1     -21.540  -7.705  -1.551  1.00  0.00     0.177 A 
HETATM   14  O   UNL     1     -22.233  -7.037  -0.804  1.00  0.00    -0.291 OA
HETATM   15  C   UNL     1     -21.231  -7.324  -2.932  1.00  0.00     0.025 A 
HETATM   16  C   UNL     1     -21.600  -6.181  -3.620  1.00  0.00     0.016 A 
HETATM   17  C   UNL     1     -20.406  -8.280  -3.510  1.00  0.00     0.025 A 
HETATM   18  C   UNL     1     -21.124  -6.029  -4.928  1.00  0.00     0.001 A 
HETATM   19  C   UNL     1     -20.306  -7.013  -5.518  1.00  0.00     0.001 A 
HETATM   20  C   UNL     1     -19.937  -8.156  -4.805  1.00  0.00     0.016 A 
HETATM   21  C   UNL     1     -20.093  -9.320  -2.532  1.00  0.00     0.177 A 
HETATM   22  O   UNL     1     -19.339 -10.250  -2.760  1.00  0.00    -0.291 OA
ENDBRANCH   9  12
TORSDOF 1
BEGIN_RES ARG D 557
REMARK  4 active torsions:
REMARK  status: ('A' for Active; 'I' for Inactive)
REMARK    1  A    between atoms: CA   and  CB  
REMARK    2  A    between atoms: CB   and  CG  
REMARK    3  A    between atoms: CG   and  CD  
REMARK    4  A    between atoms: CD   and  NE  
REMARK       I    between atoms: NE   and  CZ  
REMARK       I    between atoms: CZ   and  NH1 
REMARK       I    between atoms: CZ   and  NH2 
ROOT
ATOM      1  CA  ARG D 557     -26.217   2.705 -17.014  1.00 35.49     0.159 C 
ENDROOT
BRANCH   1   2
ATOM      2  CB  ARG D 557     -26.789   1.319 -17.183  1.00 35.49     0.034 C 
BRANCH   2   3
ATOM      3  CG  ARG D 557     -25.865   0.195 -16.991  1.00 35.49     0.027 C 
BRANCH   3   4
ATOM      4  CD  ARG D 557     -26.292  -0.707 -15.898  1.00 35.49     0.116 C 
BRANCH   4   5
ATOM      5  NE  ARG D 557     -25.243  -0.932 -14.938  1.00 35.49    -0.212 N 
ATOM      6  CZ  ARG D 557     -24.966  -2.077 -14.357  1.00 35.49     0.666 C 
ATOM      7  NH1 ARG D 557     -25.657  -3.178 -14.593  1.00 35.49    -0.235 N 
ATOM      8  NH2 ARG D 557     -23.964  -2.103 -13.527  1.00 35.49    -0.235 N 
ATOM      9  HH  ARG D 557     -26.319  -3.184 -15.137  1.00 35.49     0.174 HD
ATOM     10  HH  ARG D 557     -25.429  -3.897 -14.187  1.00 35.49     0.174 HD
ATOM     11  HH  ARG D 557     -23.531  -1.379 -13.400  1.00 35.49     0.174 HD
ATOM     12  HH  ARG D 557     -23.753  -2.825 -13.136  1.00 35.49     0.174 HD
ATOM     13  HE  ARG D 557     -24.794  -0.260 -14.673  1.00 35.49     0.178 HD
ENDBRANCH   4   5
ENDBRANCH   3   4
ENDBRANCH   2   3
ENDBRANCH   1   2
END_RES ARG D 557
BEGIN_RES GLU D 570
REMARK  3 active torsions:
REMARK  status: ('A' for Active; 'I' for Inactive)
REMARK    5  A    between atoms: CA   and  CB  
REMARK    6  A    between atoms: CB   and  CG  
REMARK    7  A    between atoms: CG   and  CD  
ROOT
ATOM     14  CA  GLU D 570     -18.033  -6.348 -13.375  1.00 32.92     0.160 C 
ENDROOT
BRANCH  14  15
ATOM     15  CB  GLU D 570     -19.500  -6.345 -13.794  1.00 32.92     0.043 C 
BRANCH  15  16
ATOM     16  CG  GLU D 570     -20.444  -5.542 -12.975  1.00 32.92     0.100 C 
BRANCH  16  17
ATOM     17  CD  GLU D 570     -21.683  -5.132 -13.736  1.00 32.92     0.185 C 
ATOM     18  OE1 GLU D 570     -21.617  -5.000 -14.974  1.00 32.92    -0.647 OA
ATOM     19  OE2 GLU D 570     -22.727  -4.923 -13.087  1.00 32.92    -0.647 OA
ENDBRANCH  16  17
ENDBRANCH  15  16
ENDBRANCH  14  15
END_RES GLU D 570
ENDMDL
