MODEL 1
REMARK VINA RESULT:      -7.0      0.000      0.000
REMARK  12 active torsions:
REMARK  status: ('A' for Active; 'I' for Inactive)
REMARK    1  A    between atoms: C_1  and  C_2 
REMARK    2  A    between atoms: C_1  and  O_23 
REMARK    3  A    between atoms: C_3  and  O_22 
REMARK    4  A    between atoms: C_4  and  O_21 
REMARK    5  A    between atoms: C_5  and  O_20 
REMARK    6  A    between atoms: C_6  and  O_8 
REMARK    7  A    between atoms: O_8  and  C_9 
REMARK    8  A    between atoms: C_10  and  O_19 
REMARK    9  A    between atoms: C_11  and  O_18 
REMARK   10  A    between atoms: C_12  and  O_17 
REMARK   11  A    between atoms: C_13  and  C_15 
REMARK   12  A    between atoms: C_15  and  O_16 
ROOT
HETATM    1  O   UNL     1     -23.855  -4.511 -13.779  1.00  0.00    -0.326 OA
ENDROOT
BRANCH   1   2
HETATM    2  C   UNL     1     -24.786  -5.357 -14.485  1.00  0.00     0.294 C 
HETATM    3  C   UNL     1     -23.983  -6.486 -15.165  1.00  0.00     0.204 C 
HETATM    4  C   UNL     1     -24.950  -7.465 -15.833  1.00  0.00     0.183 C 
HETATM    5  C   UNL     1     -25.876  -6.726 -16.830  1.00  0.00     0.180 C 
HETATM    6  C   UNL     1     -26.485  -5.453 -16.206  1.00  0.00     0.179 C 
HETATM    7  O   UNL     1     -25.512  -4.650 -15.493  1.00  0.00    -0.348 OA
BRANCH   3   8
HETATM    8  O   UNL     1     -23.122  -5.944 -16.201  1.00  0.00    -0.388 OA
HETATM    9  H   UNL     1     -23.722  -5.607 -16.895  1.00  0.00     0.210 HD
ENDBRANCH   3   8
BRANCH   4  10
HETATM   10  O   UNL     1     -24.203  -8.495 -16.504  1.00  0.00    -0.390 OA
HETATM   11  H   UNL     1     -23.697  -8.947 -15.801  1.00  0.00     0.210 HD
ENDBRANCH   4  10
BRANCH   5  12
HETATM   12  O   UNL     1     -25.124  -6.357 -18.001  1.00  0.00    -0.390 OA
HETATM   13  H   UNL     1     -24.735  -5.478 -17.816  1.00  0.00     0.210 HD
ENDBRANCH   5  12
BRANCH   6  14
HETATM   14  C   UNL     1     -27.722  -5.748 -15.346  1.00  0.00     0.198 C 
BRANCH  14  15
HETATM   15  O   UNL     1     -28.928  -5.611 -16.091  1.00  0.00    -0.398 OA
HETATM   16  H   UNL     1     -29.591  -5.198 -15.507  1.00  0.00     0.209 HD
ENDBRANCH  14  15
ENDBRANCH   6  14
ENDBRANCH   1   2
BRANCH   1  17
HETATM   17  C   UNL     1     -23.418  -5.061 -12.530  1.00  0.00     0.294 C 
HETATM   18  C   UNL     1     -24.383  -4.657 -11.386  1.00  0.00     0.204 C 
HETATM   19  C   UNL     1     -24.182  -3.203 -10.932  1.00  0.00     0.183 C 
HETATM   20  C   UNL     1     -22.702  -2.860 -10.707  1.00  0.00     0.180 C 
HETATM   21  C   UNL     1     -21.836  -3.353 -11.873  1.00  0.00     0.179 C 
HETATM   22  O   UNL     1     -22.070  -4.735 -12.187  1.00  0.00    -0.348 OA
BRANCH  18  23
HETATM   23  O   UNL     1     -24.163  -5.500 -10.235  1.00  0.00    -0.388 OA
HETATM   24  H   UNL     1     -24.715  -6.292 -10.406  1.00  0.00     0.210 HD
ENDBRANCH  18  23
BRANCH  19  25
HETATM   25  O   UNL     1     -24.929  -3.011  -9.709  1.00  0.00    -0.390 OA
HETATM   26  H   UNL     1     -24.357  -3.304  -8.970  1.00  0.00     0.210 HD
ENDBRANCH  19  25
BRANCH  20  27
HETATM   27  O   UNL     1     -22.277  -3.414  -9.453  1.00  0.00    -0.390 OA
HETATM   28  H   UNL     1     -22.994  -3.248  -8.808  1.00  0.00     0.210 HD
ENDBRANCH  20  27
BRANCH  21  29
HETATM   29  C   UNL     1     -20.339  -3.247 -11.552  1.00  0.00     0.198 C 
BRANCH  29  30
HETATM   30  O   UNL     1     -19.911  -4.441 -10.889  1.00  0.00    -0.398 OA
HETATM   31  H   UNL     1     -18.936  -4.408 -10.933  1.00  0.00     0.209 HD
ENDBRANCH  29  30
ENDBRANCH  21  29
ENDBRANCH   1  17
TORSDOF 12
BEGIN_RES ARG D 557
REMARK  4 active torsions:
REMARK  status: ('A' for Active; 'I' for Inactive)
REMARK    1  A    between atoms: CA   and  CB  
REMARK    2  A    between atoms: CB   and  CG  
REMARK    3  A    between atoms: CG   and  CD  
REMARK    4  A    between atoms: CD   and  NE  
REMARK       I    between atoms: NE   and  CZ  
REMARK       I    between atoms: CZ   and  NH1 
REMARK       I    between atoms: CZ   and  NH2 
ROOT
ATOM      1  CA  ARG D 557     -26.217   2.705 -17.014  1.00 35.49     0.159 C 
ENDROOT
BRANCH   1   2
ATOM      2  CB  ARG D 557     -26.789   1.319 -17.183  1.00 35.49     0.034 C 
BRANCH   2   3
ATOM      3  CG  ARG D 557     -28.233   1.226 -17.431  1.00 35.49     0.027 C 
BRANCH   3   4
ATOM      4  CD  ARG D 557     -28.908   0.298 -16.495  1.00 35.49     0.116 C 
BRANCH   4   5
ATOM      5  NE  ARG D 557     -29.250  -0.952 -17.122  1.00 35.49    -0.212 N 
ATOM      6  CZ  ARG D 557     -28.587  -2.080 -16.999  1.00 35.49     0.666 C 
ATOM      7  NH1 ARG D 557     -27.490  -2.182 -16.272  1.00 35.49    -0.235 N 
ATOM      8  NH2 ARG D 557     -29.054  -3.122 -17.623  1.00 35.49    -0.235 N 
ATOM      9  HH  ARG D 557     -27.166  -1.509 -15.850  1.00 35.49     0.174 HD
ATOM     10  HH  ARG D 557     -27.101  -2.944 -16.226  1.00 35.49     0.174 HD
ATOM     11  HH  ARG D 557     -29.768  -3.028 -18.080  1.00 35.49     0.174 HD
ATOM     12  HH  ARG D 557     -28.655  -3.868 -17.565  1.00 35.49     0.174 HD
ATOM     13  HE  ARG D 557     -29.902  -0.959 -17.668  1.00 35.49     0.178 HD
ENDBRANCH   4   5
ENDBRANCH   3   4
ENDBRANCH   2   3
ENDBRANCH   1   2
END_RES ARG D 557
BEGIN_RES GLU D 570
REMARK  3 active torsions:
REMARK  status: ('A' for Active; 'I' for Inactive)
REMARK    5  A    between atoms: CA   and  CB  
REMARK    6  A    between atoms: CB   and  CG  
REMARK    7  A    between atoms: CG   and  CD  
ROOT
ATOM     14  CA  GLU D 570     -18.033  -6.348 -13.375  1.00 32.92     0.160 C 
ENDROOT
BRANCH  14  15
ATOM     15  CB  GLU D 570     -19.500  -6.345 -13.794  1.00 32.92     0.043 C 
BRANCH  15  16
ATOM     16  CG  GLU D 570     -20.087  -7.634 -14.242  1.00 32.92     0.100 C 
BRANCH  16  17
ATOM     17  CD  GLU D 570     -20.601  -7.586 -15.662  1.00 32.92     0.185 C 
ATOM     18  OE1 GLU D 570     -21.250  -8.554 -16.104  1.00 32.92    -0.647 OA
ATOM     19  OE2 GLU D 570     -20.337  -6.577 -16.345  1.00 32.92    -0.647 OA
ENDBRANCH  16  17
ENDBRANCH  15  16
ENDBRANCH  14  15
END_RES GLU D 570
ENDMDL
MODEL 2
REMARK VINA RESULT:      -6.8      2.138      6.282
REMARK  12 active torsions:
REMARK  status: ('A' for Active; 'I' for Inactive)
REMARK    1  A    between atoms: C_1  and  C_2 
REMARK    2  A    between atoms: C_1  and  O_23 
REMARK    3  A    between atoms: C_3  and  O_22 
REMARK    4  A    between atoms: C_4  and  O_21 
REMARK    5  A    between atoms: C_5  and  O_20 
REMARK    6  A    between atoms: C_6  and  O_8 
REMARK    7  A    between atoms: O_8  and  C_9 
REMARK    8  A    between atoms: C_10  and  O_19 
REMARK    9  A    between atoms: C_11  and  O_18 
REMARK   10  A    between atoms: C_12  and  O_17 
REMARK   11  A    between atoms: C_13  and  C_15 
REMARK   12  A    between atoms: C_15  and  O_16 
ROOT
HETATM    1  O   UNL     1     -22.397  -3.924 -11.440  1.00  0.00    -0.326 OA
ENDROOT
BRANCH   1   2
HETATM    2  C   UNL     1     -22.010  -4.387 -10.129  1.00  0.00     0.294 C 
HETATM    3  C   UNL     1     -23.180  -4.110  -9.161  1.00  0.00     0.204 C 
HETATM    4  C   UNL     1     -22.847  -4.687  -7.784  1.00  0.00     0.183 C 
HETATM    5  C   UNL     1     -21.509  -4.113  -7.260  1.00  0.00     0.180 C 
HETATM    6  C   UNL     1     -20.402  -4.174  -8.333  1.00  0.00     0.179 C 
HETATM    7  O   UNL     1     -20.848  -3.717  -9.634  1.00  0.00    -0.348 OA
BRANCH   3   8
HETATM    8  O   UNL     1     -23.381  -2.681  -9.002  1.00  0.00    -0.388 OA
HETATM    9  H   UNL     1     -22.524  -2.266  -9.225  1.00  0.00     0.210 HD
ENDBRANCH   3   8
BRANCH   4  10
HETATM   10  O   UNL     1     -23.917  -4.394  -6.869  1.00  0.00    -0.390 OA
HETATM   11  H   UNL     1     -24.649  -4.987  -7.127  1.00  0.00     0.210 HD
ENDBRANCH   4  10
BRANCH   5  12
HETATM   12  O   UNL     1     -21.697  -2.742  -6.862  1.00  0.00    -0.390 OA
HETATM   13  H   UNL     1     -22.197  -2.310  -7.583  1.00  0.00     0.210 HD
ENDBRANCH   5  12
BRANCH   6  14
HETATM   14  C   UNL     1     -19.728  -5.552  -8.412  1.00  0.00     0.198 C 
BRANCH  14  15
HETATM   15  O   UNL     1     -19.824  -6.258  -7.179  1.00  0.00    -0.398 OA
HETATM   16  H   UNL     1     -18.934  -6.588  -6.957  1.00  0.00     0.209 HD
ENDBRANCH  14  15
ENDBRANCH   6  14
ENDBRANCH   1   2
BRANCH   1  17
HETATM   17  C   UNL     1     -23.468  -4.681 -12.018  1.00  0.00     0.294 C 
HETATM   18  C   UNL     1     -22.978  -5.455 -13.269  1.00  0.00     0.204 C 
HETATM   19  C   UNL     1     -22.819  -4.548 -14.498  1.00  0.00     0.183 C 
HETATM   20  C   UNL     1     -24.036  -3.636 -14.713  1.00  0.00     0.180 C 
HETATM   21  C   UNL     1     -24.465  -2.966 -13.403  1.00  0.00     0.179 C 
HETATM   22  O   UNL     1     -24.628  -3.907 -12.330  1.00  0.00    -0.348 OA
BRANCH  18  23
HETATM   23  O   UNL     1     -23.930  -6.484 -13.615  1.00  0.00    -0.388 OA
HETATM   24  H   UNL     1     -24.552  -6.040 -14.229  1.00  0.00     0.210 HD
ENDBRANCH  18  23
BRANCH  19  25
HETATM   25  O   UNL     1     -22.621  -5.394 -15.654  1.00  0.00    -0.390 OA
HETATM   26  H   UNL     1     -21.677  -5.653 -15.667  1.00  0.00     0.210 HD
ENDBRANCH  19  25
BRANCH  20  27
HETATM   27  O   UNL     1     -25.101  -4.404 -15.295  1.00  0.00    -0.390 OA
HETATM   28  H   UNL     1     -25.265  -5.163 -14.700  1.00  0.00     0.210 HD
ENDBRANCH  20  27
BRANCH  21  29
HETATM   29  C   UNL     1     -25.819  -2.258 -13.543  1.00  0.00     0.198 C 
BRANCH  29  30
HETATM   30  O   UNL     1     -25.847  -1.529 -14.775  1.00  0.00    -0.398 OA
HETATM   31  H   UNL     1     -25.388  -0.690 -14.572  1.00  0.00     0.209 HD
ENDBRANCH  29  30
ENDBRANCH  21  29
ENDBRANCH   1  17
TORSDOF 12
BEGIN_RES ARG D 557
REMARK  4 active torsions:
REMARK  status: ('A' for Active; 'I' for Inactive)
REMARK    1  A    between atoms: CA   and  CB  
REMARK    2  A    between atoms: CB   and  CG  
REMARK    3  A    between atoms: CG   and  CD  
REMARK    4  A    between atoms: CD   and  NE  
REMARK       I    between atoms: NE   and  CZ  
REMARK       I    between atoms: CZ   and  NH1 
REMARK       I    between atoms: CZ   and  NH2 
ROOT
ATOM      1  CA  ARG D 557     -26.217   2.705 -17.014  1.00 35.49     0.159 C 
ENDROOT
BRANCH   1   2
ATOM      2  CB  ARG D 557     -26.789   1.319 -17.183  1.00 35.49     0.034 C 
BRANCH   2   3
ATOM      3  CG  ARG D 557     -28.183   1.124 -16.765  1.00 35.49     0.027 C 
BRANCH   3   4
ATOM      4  CD  ARG D 557     -28.747  -0.152 -17.262  1.00 35.49     0.116 C 
BRANCH   4   5
ATOM      5  NE  ARG D 557     -28.060  -1.295 -16.723  1.00 35.49    -0.212 N 
ATOM      6  CZ  ARG D 557     -28.399  -2.552 -16.906  1.00 35.49     0.666 C 
ATOM      7  NH1 ARG D 557     -29.452  -2.906 -17.618  1.00 35.49    -0.235 N 
ATOM      8  NH2 ARG D 557     -27.647  -3.462 -16.359  1.00 35.49    -0.235 N 
ATOM      9  HH  ARG D 557     -29.960  -2.323 -17.989  1.00 35.49     0.174 HD
ATOM     10  HH  ARG D 557     -29.623  -3.741 -17.706  1.00 35.49     0.174 HD
ATOM     11  HH  ARG D 557     -26.969  -3.205 -15.910  1.00 35.49     0.174 HD
ATOM     12  HH  ARG D 557     -27.831  -4.284 -16.458  1.00 35.49     0.174 HD
ATOM     13  HE  ARG D 557     -27.411  -1.157 -16.191  1.00 35.49     0.178 HD
ENDBRANCH   4   5
ENDBRANCH   3   4
ENDBRANCH   2   3
ENDBRANCH   1   2
END_RES ARG D 557
BEGIN_RES GLU D 570
REMARK  3 active torsions:
REMARK  status: ('A' for Active; 'I' for Inactive)
REMARK    5  A    between atoms: CA   and  CB  
REMARK    6  A    between atoms: CB   and  CG  
REMARK    7  A    between atoms: CG   and  CD  
ROOT
ATOM     14  CA  GLU D 570     -18.033  -6.348 -13.375  1.00 32.92     0.160 C 
ENDROOT
BRANCH  14  15
ATOM     15  CB  GLU D 570     -19.500  -6.345 -13.794  1.00 32.92     0.043 C 
BRANCH  15  16
ATOM     16  CG  GLU D 570     -20.090  -7.637 -14.228  1.00 32.92     0.100 C 
BRANCH  16  17
ATOM     17  CD  GLU D 570     -20.414  -7.671 -15.704  1.00 32.92     0.185 C 
ATOM     18  OE1 GLU D 570     -20.321  -6.621 -16.368  1.00 32.92    -0.647 OA
ATOM     19  OE2 GLU D 570     -20.780  -8.756 -16.198  1.00 32.92    -0.647 OA
ENDBRANCH  16  17
ENDBRANCH  15  16
ENDBRANCH  14  15
END_RES GLU D 570
ENDMDL
MODEL 3
REMARK VINA RESULT:      -6.8      2.728      6.600
REMARK  12 active torsions:
REMARK  status: ('A' for Active; 'I' for Inactive)
REMARK    1  A    between atoms: C_1  and  C_2 
REMARK    2  A    between atoms: C_1  and  O_23 
REMARK    3  A    between atoms: C_3  and  O_22 
REMARK    4  A    between atoms: C_4  and  O_21 
REMARK    5  A    between atoms: C_5  and  O_20 
REMARK    6  A    between atoms: C_6  and  O_8 
REMARK    7  A    between atoms: O_8  and  C_9 
REMARK    8  A    between atoms: C_10  and  O_19 
REMARK    9  A    between atoms: C_11  and  O_18 
REMARK   10  A    between atoms: C_12  and  O_17 
REMARK   11  A    between atoms: C_13  and  C_15 
REMARK   12  A    between atoms: C_15  and  O_16 
ROOT
HETATM    1  O   UNL     1     -26.801  -6.475 -16.506  1.00  0.00    -0.326 OA
ENDROOT
BRANCH   1   2
HETATM    2  C   UNL     1     -25.676  -7.023 -17.225  1.00  0.00     0.294 C 
HETATM    3  C   UNL     1     -24.502  -7.168 -16.233  1.00  0.00     0.204 C 
HETATM    4  C   UNL     1     -23.326  -7.849 -16.936  1.00  0.00     0.183 C 
HETATM    5  C   UNL     1     -22.921  -7.065 -18.208  1.00  0.00     0.180 C 
HETATM    6  C   UNL     1     -24.147  -6.711 -19.075  1.00  0.00     0.179 C 
HETATM    7  O   UNL     1     -25.254  -6.184 -18.302  1.00  0.00    -0.348 OA
BRANCH   3   8
HETATM    8  O   UNL     1     -24.050  -5.864 -15.785  1.00  0.00    -0.388 OA
HETATM    9  H   UNL     1     -24.033  -5.300 -16.583  1.00  0.00     0.210 HD
ENDBRANCH   3   8
BRANCH   4  10
HETATM   10  O   UNL     1     -22.216  -7.948 -16.027  1.00  0.00    -0.390 OA
HETATM   11  H   UNL     1     -22.557  -7.638 -15.166  1.00  0.00     0.210 HD
ENDBRANCH   4  10
BRANCH   5  12
HETATM   12  O   UNL     1     -22.251  -5.849 -17.829  1.00  0.00    -0.390 OA
HETATM   13  H   UNL     1     -21.868  -6.006 -16.943  1.00  0.00     0.210 HD
ENDBRANCH   5  12
BRANCH   6  14
HETATM   14  C   UNL     1     -24.585  -7.869 -19.983  1.00  0.00     0.198 C 
BRANCH  14  15
HETATM   15  O   UNL     1     -23.471  -8.512 -20.594  1.00  0.00    -0.398 OA
HETATM   16  H   UNL     1     -23.814  -9.245 -21.139  1.00  0.00     0.209 HD
ENDBRANCH  14  15
ENDBRANCH   6  14
ENDBRANCH   1   2
BRANCH   1  17
HETATM   17  C   UNL     1     -27.682  -5.701 -17.330  1.00  0.00     0.294 C 
HETATM   18  C   UNL     1     -28.662  -4.874 -16.459  1.00  0.00     0.204 C 
HETATM   19  C   UNL     1     -29.795  -5.729 -15.874  1.00  0.00     0.183 C 
HETATM   20  C   UNL     1     -30.445  -6.638 -16.928  1.00  0.00     0.180 C 
HETATM   21  C   UNL     1     -29.385  -7.364 -17.764  1.00  0.00     0.179 C 
HETATM   22  O   UNL     1     -28.398  -6.468 -18.300  1.00  0.00    -0.348 OA
BRANCH  18  23
HETATM   23  O   UNL     1     -29.274  -3.837 -17.256  1.00  0.00    -0.388 OA
HETATM   24  H   UNL     1     -28.606  -3.636 -17.945  1.00  0.00     0.210 HD
ENDBRANCH  18  23
BRANCH  19  25
HETATM   25  O   UNL     1     -30.782  -4.836 -15.311  1.00  0.00    -0.390 OA
HETATM   26  H   UNL     1     -31.618  -4.979 -15.800  1.00  0.00     0.210 HD
ENDBRANCH  19  25
BRANCH  20  27
HETATM   27  O   UNL     1     -31.327  -5.853 -17.745  1.00  0.00    -0.390 OA
HETATM   28  H   UNL     1     -30.767  -5.239 -18.262  1.00  0.00     0.210 HD
ENDBRANCH  20  27
BRANCH  21  29
HETATM   29  C   UNL     1     -30.004  -8.073 -18.976  1.00  0.00     0.198 C 
BRANCH  29  30
HETATM   30  O   UNL     1     -29.120  -9.106 -19.424  1.00  0.00    -0.398 OA
HETATM   31  H   UNL     1     -29.183  -9.796 -18.735  1.00  0.00     0.209 HD
ENDBRANCH  29  30
ENDBRANCH  21  29
ENDBRANCH   1  17
TORSDOF 12
BEGIN_RES ARG D 557
REMARK  4 active torsions:
REMARK  status: ('A' for Active; 'I' for Inactive)
REMARK    1  A    between atoms: CA   and  CB  
REMARK    2  A    between atoms: CB   and  CG  
REMARK    3  A    between atoms: CG   and  CD  
REMARK    4  A    between atoms: CD   and  NE  
REMARK       I    between atoms: NE   and  CZ  
REMARK       I    between atoms: CZ   and  NH1 
REMARK       I    between atoms: CZ   and  NH2 
ROOT
ATOM      1  CA  ARG D 557     -26.217   2.705 -17.014  1.00 35.49     0.159 C 
ENDROOT
BRANCH   1   2
ATOM      2  CB  ARG D 557     -26.789   1.319 -17.183  1.00 35.49     0.034 C 
BRANCH   2   3
ATOM      3  CG  ARG D 557     -25.866   0.195 -16.987  1.00 35.49     0.027 C 
BRANCH   3   4
ATOM      4  CD  ARG D 557     -26.326  -0.736 -15.932  1.00 35.49     0.116 C 
BRANCH   4   5
ATOM      5  NE  ARG D 557     -25.319  -0.960 -14.928  1.00 35.49    -0.212 N 
ATOM      6  CZ  ARG D 557     -25.010  -2.121 -14.396  1.00 35.49     0.666 C 
ATOM      7  NH1 ARG D 557     -25.624  -3.240 -14.729  1.00 35.49    -0.235 N 
ATOM      8  NH2 ARG D 557     -24.053  -2.141 -13.513  1.00 35.49    -0.235 N 
ATOM      9  HH  ARG D 557     -26.255  -3.251 -15.309  1.00 35.49     0.174 HD
ATOM     10  HH  ARG D 557     -25.378  -3.968 -14.351  1.00 35.49     0.174 HD
ATOM     11  HH  ARG D 557     -23.669  -1.403 -13.323  1.00 35.49     0.174 HD
ATOM     12  HH  ARG D 557     -23.823  -2.872 -13.150  1.00 35.49     0.174 HD
ATOM     13  HE  ARG D 557     -24.923  -0.282 -14.602  1.00 35.49     0.178 HD
ENDBRANCH   4   5
ENDBRANCH   3   4
ENDBRANCH   2   3
ENDBRANCH   1   2
END_RES ARG D 557
BEGIN_RES GLU D 570
REMARK  3 active torsions:
REMARK  status: ('A' for Active; 'I' for Inactive)
REMARK    5  A    between atoms: CA   and  CB  
REMARK    6  A    between atoms: CB   and  CG  
REMARK    7  A    between atoms: CG   and  CD  
ROOT
ATOM     14  CA  GLU D 570     -18.033  -6.348 -13.375  1.00 32.92     0.160 C 
ENDROOT
BRANCH  14  15
ATOM     15  CB  GLU D 570     -19.500  -6.345 -13.794  1.00 32.92     0.043 C 
BRANCH  15  16
ATOM     16  CG  GLU D 570     -20.438  -5.515 -12.995  1.00 32.92     0.100 C 
BRANCH  16  17
ATOM     17  CD  GLU D 570     -21.672  -5.111 -13.768  1.00 32.92     0.185 C 
ATOM     18  OE1 GLU D 570     -22.724  -4.869 -13.146  1.00 32.92    -0.647 OA
ATOM     19  OE2 GLU D 570     -21.590  -5.052 -15.011  1.00 32.92    -0.647 OA
ENDBRANCH  16  17
ENDBRANCH  15  16
ENDBRANCH  14  15
END_RES GLU D 570
ENDMDL
MODEL 4
REMARK VINA RESULT:      -6.6      2.667      6.803
REMARK  12 active torsions:
REMARK  status: ('A' for Active; 'I' for Inactive)
REMARK    1  A    between atoms: C_1  and  C_2 
REMARK    2  A    between atoms: C_1  and  O_23 
REMARK    3  A    between atoms: C_3  and  O_22 
REMARK    4  A    between atoms: C_4  and  O_21 
REMARK    5  A    between atoms: C_5  and  O_20 
REMARK    6  A    between atoms: C_6  and  O_8 
REMARK    7  A    between atoms: O_8  and  C_9 
REMARK    8  A    between atoms: C_10  and  O_19 
REMARK    9  A    between atoms: C_11  and  O_18 
REMARK   10  A    between atoms: C_12  and  O_17 
REMARK   11  A    between atoms: C_13  and  C_15 
REMARK   12  A    between atoms: C_15  and  O_16 
ROOT
HETATM    1  O   UNL     1     -27.209  -5.857 -17.125  1.00  0.00    -0.326 OA
ENDROOT
BRANCH   1   2
HETATM    2  C   UNL     1     -26.115  -6.655 -17.623  1.00  0.00     0.294 C 
HETATM    3  C   UNL     1     -25.187  -6.986 -16.434  1.00  0.00     0.204 C 
HETATM    4  C   UNL     1     -24.074  -7.924 -16.906  1.00  0.00     0.183 C 
HETATM    5  C   UNL     1     -23.300  -7.300 -18.093  1.00  0.00     0.180 C 
HETATM    6  C   UNL     1     -24.256  -6.748 -19.170  1.00  0.00     0.179 C 
HETATM    7  O   UNL     1     -25.347  -5.971 -18.616  1.00  0.00    -0.348 OA
BRANCH   3   8
HETATM    8  O   UNL     1     -24.560  -5.779 -15.927  1.00  0.00    -0.388 OA
HETATM    9  H   UNL     1     -24.776  -5.077 -16.572  1.00  0.00     0.210 HD
ENDBRANCH   3   8
BRANCH   4  10
HETATM   10  O   UNL     1     -23.184  -8.201 -15.810  1.00  0.00    -0.390 OA
HETATM   11  H   UNL     1     -23.700  -8.011 -15.003  1.00  0.00     0.210 HD
ENDBRANCH   4  10
BRANCH   5  12
HETATM   12  O   UNL     1     -22.469  -6.227 -17.614  1.00  0.00    -0.390 OA
HETATM   13  H   UNL     1     -22.946  -5.396 -17.813  1.00  0.00     0.210 HD
ENDBRANCH   5  12
BRANCH   6  14
HETATM   14  C   UNL     1     -24.761  -7.837 -20.129  1.00  0.00     0.198 C 
BRANCH  14  15
HETATM   15  O   UNL     1     -23.686  -8.573 -20.704  1.00  0.00    -0.398 OA
HETATM   16  H   UNL     1     -23.709  -8.427 -21.668  1.00  0.00     0.209 HD
ENDBRANCH  14  15
ENDBRANCH   6  14
ENDBRANCH   1   2
BRANCH   1  17
HETATM   17  C   UNL     1     -28.218  -6.625 -16.458  1.00  0.00     0.294 C 
HETATM   18  C   UNL     1     -28.724  -7.773 -17.370  1.00  0.00     0.204 C 
HETATM   19  C   UNL     1     -29.681  -7.277 -18.465  1.00  0.00     0.183 C 
HETATM   20  C   UNL     1     -30.764  -6.337 -17.913  1.00  0.00     0.180 C 
HETATM   21  C   UNL     1     -30.158  -5.278 -16.984  1.00  0.00     0.179 C 
HETATM   22  O   UNL     1     -29.316  -5.851 -15.971  1.00  0.00    -0.348 OA
BRANCH  18  23
HETATM   23  O   UNL     1     -29.442  -8.747 -16.582  1.00  0.00    -0.388 OA
HETATM   24  H   UNL     1     -30.170  -8.236 -16.170  1.00  0.00     0.210 HD
ENDBRANCH  18  23
BRANCH  19  25
HETATM   25  O   UNL     1     -30.292  -8.434 -19.079  1.00  0.00    -0.390 OA
HETATM   26  H   UNL     1     -29.781  -8.638 -19.888  1.00  0.00     0.210 HD
ENDBRANCH  19  25
BRANCH  20  27
HETATM   27  O   UNL     1     -31.770  -7.118 -17.250  1.00  0.00    -0.390 OA
HETATM   28  H   UNL     1     -31.323  -7.904 -16.877  1.00  0.00     0.210 HD
ENDBRANCH  20  27
BRANCH  21  29
HETATM   29  C   UNL     1     -31.242  -4.496 -16.231  1.00  0.00     0.198 C 
BRANCH  29  30
HETATM   30  O   UNL     1     -32.132  -3.891 -17.175  1.00  0.00    -0.398 OA
HETATM   31  H   UNL     1     -31.554  -3.614 -17.912  1.00  0.00     0.209 HD
ENDBRANCH  29  30
ENDBRANCH  21  29
ENDBRANCH   1  17
TORSDOF 12
BEGIN_RES ARG D 557
REMARK  4 active torsions:
REMARK  status: ('A' for Active; 'I' for Inactive)
REMARK    1  A    between atoms: CA   and  CB  
REMARK    2  A    between atoms: CB   and  CG  
REMARK    3  A    between atoms: CG   and  CD  
REMARK    4  A    between atoms: CD   and  NE  
REMARK       I    between atoms: NE   and  CZ  
REMARK       I    between atoms: CZ   and  NH1 
REMARK       I    between atoms: CZ   and  NH2 
ROOT
ATOM      1  CA  ARG D 557     -26.217   2.705 -17.014  1.00 35.49     0.159 C 
ENDROOT
BRANCH   1   2
ATOM      2  CB  ARG D 557     -26.789   1.319 -17.183  1.00 35.49     0.034 C 
BRANCH   2   3
ATOM      3  CG  ARG D 557     -25.938   0.198 -16.767  1.00 35.49     0.027 C 
BRANCH   3   4
ATOM      4  CD  ARG D 557     -26.700  -0.860 -16.065  1.00 35.49     0.116 C 
BRANCH   4   5
ATOM      5  NE  ARG D 557     -25.884  -1.586 -15.129  1.00 35.49    -0.212 N 
ATOM      6  CZ  ARG D 557     -25.985  -2.868 -14.854  1.00 35.49     0.666 C 
ATOM      7  NH1 ARG D 557     -26.889  -3.645 -15.421  1.00 35.49    -0.235 N 
ATOM      8  NH2 ARG D 557     -25.145  -3.365 -13.993  1.00 35.49    -0.235 N 
ATOM      9  HH  ARG D 557     -27.450  -3.339 -15.992  1.00 35.49     0.174 HD
ATOM     10  HH  ARG D 557     -26.906  -4.474 -15.204  1.00 35.49     0.174 HD
ATOM     11  HH  ARG D 557     -24.567  -2.841 -13.649  1.00 35.49     0.174 HD
ATOM     12  HH  ARG D 557     -25.177  -4.189 -13.794  1.00 35.49     0.174 HD
ATOM     13  HE  ARG D 557     -25.322  -1.148 -14.665  1.00 35.49     0.178 HD
ENDBRANCH   4   5
ENDBRANCH   3   4
ENDBRANCH   2   3
ENDBRANCH   1   2
END_RES ARG D 557
BEGIN_RES GLU D 570
REMARK  3 active torsions:
REMARK  status: ('A' for Active; 'I' for Inactive)
REMARK    5  A    between atoms: CA   and  CB  
REMARK    6  A    between atoms: CB   and  CG  
REMARK    7  A    between atoms: CG   and  CD  
ROOT
ATOM     14  CA  GLU D 570     -18.033  -6.348 -13.375  1.00 32.92     0.160 C 
ENDROOT
BRANCH  14  15
ATOM     15  CB  GLU D 570     -19.500  -6.345 -13.794  1.00 32.92     0.043 C 
BRANCH  15  16
ATOM     16  CG  GLU D 570     -20.445  -5.545 -12.972  1.00 32.92     0.100 C 
BRANCH  16  17
ATOM     17  CD  GLU D 570     -21.707  -5.177 -13.717  1.00 32.92     0.185 C 
ATOM     18  OE1 GLU D 570     -22.034  -5.841 -14.719  1.00 32.92    -0.647 OA
ATOM     19  OE2 GLU D 570     -22.367  -4.204 -13.303  1.00 32.92    -0.647 OA
ENDBRANCH  16  17
ENDBRANCH  15  16
ENDBRANCH  14  15
END_RES GLU D 570
ENDMDL
MODEL 5
REMARK VINA RESULT:      -6.5      2.113      5.959
REMARK  12 active torsions:
REMARK  status: ('A' for Active; 'I' for Inactive)
REMARK    1  A    between atoms: C_1  and  C_2 
REMARK    2  A    between atoms: C_1  and  O_23 
REMARK    3  A    between atoms: C_3  and  O_22 
REMARK    4  A    between atoms: C_4  and  O_21 
REMARK    5  A    between atoms: C_5  and  O_20 
REMARK    6  A    between atoms: C_6  and  O_8 
REMARK    7  A    between atoms: O_8  and  C_9 
REMARK    8  A    between atoms: C_10  and  O_19 
REMARK    9  A    between atoms: C_11  and  O_18 
REMARK   10  A    between atoms: C_12  and  O_17 
REMARK   11  A    between atoms: C_13  and  C_15 
REMARK   12  A    between atoms: C_15  and  O_16 
ROOT
HETATM    1  O   UNL     1     -22.105  -3.813 -11.624  1.00  0.00    -0.326 OA
ENDROOT
BRANCH   1   2
HETATM    2  C   UNL     1     -21.925  -3.871 -10.194  1.00  0.00     0.294 C 
HETATM    3  C   UNL     1     -20.409  -3.839  -9.903  1.00  0.00     0.204 C 
HETATM    4  C   UNL     1     -20.185  -3.790  -8.390  1.00  0.00     0.183 C 
HETATM    5  C   UNL     1     -20.887  -4.981  -7.693  1.00  0.00     0.180 C 
HETATM    6  C   UNL     1     -22.340  -5.151  -8.182  1.00  0.00     0.179 C 
HETATM    7  O   UNL     1     -22.468  -5.064  -9.623  1.00  0.00    -0.348 OA
BRANCH   3   8
HETATM    8  O   UNL     1     -19.770  -5.043 -10.403  1.00  0.00    -0.388 OA
HETATM    9  H   UNL     1     -19.445  -5.518  -9.613  1.00  0.00     0.210 HD
ENDBRANCH   3   8
BRANCH   4  10
HETATM   10  O   UNL     1     -18.773  -3.802  -8.114  1.00  0.00    -0.390 OA
HETATM   11  H   UNL     1     -18.373  -4.326  -8.835  1.00  0.00     0.210 HD
ENDBRANCH   4  10
BRANCH   5  12
HETATM   12  O   UNL     1     -20.159  -6.193  -7.965  1.00  0.00    -0.390 OA
HETATM   13  H   UNL     1     -19.423  -5.948  -8.560  1.00  0.00     0.210 HD
ENDBRANCH   5  12
BRANCH   6  14
HETATM   14  C   UNL     1     -23.321  -4.212  -7.464  1.00  0.00     0.198 C 
BRANCH  14  15
HETATM   15  O   UNL     1     -23.975  -4.861  -6.378  1.00  0.00    -0.398 OA
HETATM   16  H   UNL     1     -24.823  -5.210  -6.709  1.00  0.00     0.209 HD
ENDBRANCH  14  15
ENDBRANCH   6  14
ENDBRANCH   1   2
BRANCH   1  17
HETATM   17  C   UNL     1     -23.234  -4.563 -12.088  1.00  0.00     0.294 C 
HETATM   18  C   UNL     1     -22.857  -5.408 -13.332  1.00  0.00     0.204 C 
HETATM   19  C   UNL     1     -22.763  -4.564 -14.611  1.00  0.00     0.183 C 
HETATM   20  C   UNL     1     -23.969  -3.627 -14.783  1.00  0.00     0.180 C 
HETATM   21  C   UNL     1     -24.284  -2.884 -13.479  1.00  0.00     0.179 C 
HETATM   22  O   UNL     1     -24.393  -3.770 -12.353  1.00  0.00    -0.348 OA
BRANCH  18  23
HETATM   23  O   UNL     1     -23.859  -6.423 -13.559  1.00  0.00    -0.388 OA
HETATM   24  H   UNL     1     -23.365  -7.268 -13.501  1.00  0.00     0.210 HD
ENDBRANCH  18  23
BRANCH  19  25
HETATM   25  O   UNL     1     -22.672  -5.468 -15.736  1.00  0.00    -0.390 OA
HETATM   26  H   UNL     1     -22.174  -6.256 -15.436  1.00  0.00     0.210 HD
ENDBRANCH  19  25
BRANCH  20  27
HETATM   27  O   UNL     1     -25.093  -4.389 -15.250  1.00  0.00    -0.390 OA
HETATM   28  H   UNL     1     -25.770  -3.748 -15.547  1.00  0.00     0.210 HD
ENDBRANCH  20  27
BRANCH  21  29
HETATM   29  C   UNL     1     -25.625  -2.144 -13.557  1.00  0.00     0.198 C 
BRANCH  29  30
HETATM   30  O   UNL     1     -25.681  -1.391 -14.773  1.00  0.00    -0.398 OA
HETATM   31  H   UNL     1     -25.473  -0.475 -14.503  1.00  0.00     0.209 HD
ENDBRANCH  29  30
ENDBRANCH  21  29
ENDBRANCH   1  17
TORSDOF 12
BEGIN_RES ARG D 557
REMARK  4 active torsions:
REMARK  status: ('A' for Active; 'I' for Inactive)
REMARK    1  A    between atoms: CA   and  CB  
REMARK    2  A    between atoms: CB   and  CG  
REMARK    3  A    between atoms: CG   and  CD  
REMARK    4  A    between atoms: CD   and  NE  
REMARK       I    between atoms: NE   and  CZ  
REMARK       I    between atoms: CZ   and  NH1 
REMARK       I    between atoms: CZ   and  NH2 
ROOT
ATOM      1  CA  ARG D 557     -26.217   2.705 -17.014  1.00 35.49     0.159 C 
ENDROOT
BRANCH   1   2
ATOM      2  CB  ARG D 557     -26.789   1.319 -17.183  1.00 35.49     0.034 C 
BRANCH   2   3
ATOM      3  CG  ARG D 557     -28.231   1.226 -17.444  1.00 35.49     0.027 C 
BRANCH   3   4
ATOM      4  CD  ARG D 557     -28.915   0.305 -16.508  1.00 35.49     0.116 C 
BRANCH   4   5
ATOM      5  NE  ARG D 557     -28.155  -0.895 -16.276  1.00 35.49    -0.212 N 
ATOM      6  CZ  ARG D 557     -28.434  -2.086 -16.757  1.00 35.49     0.666 C 
ATOM      7  NH1 ARG D 557     -29.488  -2.314 -17.519  1.00 35.49    -0.235 N 
ATOM      8  NH2 ARG D 557     -27.622  -3.058 -16.460  1.00 35.49    -0.235 N 
ATOM      9  HH  ARG D 557     -30.034  -1.689 -17.729  1.00 35.49     0.174 HD
ATOM     10  HH  ARG D 557     -29.617  -3.111 -17.806  1.00 35.49     0.174 HD
ATOM     11  HH  ARG D 557     -26.945  -2.880 -15.972  1.00 35.49     0.174 HD
ATOM     12  HH  ARG D 557     -27.766  -3.840 -16.755  1.00 35.49     0.174 HD
ATOM     13  HE  ARG D 557     -27.500  -0.854 -15.736  1.00 35.49     0.178 HD
ENDBRANCH   4   5
ENDBRANCH   3   4
ENDBRANCH   2   3
ENDBRANCH   1   2
END_RES ARG D 557
BEGIN_RES GLU D 570
REMARK  3 active torsions:
REMARK  status: ('A' for Active; 'I' for Inactive)
REMARK    5  A    between atoms: CA   and  CB  
REMARK    6  A    between atoms: CB   and  CG  
REMARK    7  A    between atoms: CG   and  CD  
ROOT
ATOM     14  CA  GLU D 570     -18.033  -6.348 -13.375  1.00 32.92     0.160 C 
ENDROOT
BRANCH  14  15
ATOM     15  CB  GLU D 570     -19.500  -6.345 -13.794  1.00 32.92     0.043 C 
BRANCH  15  16
ATOM     16  CG  GLU D 570     -20.096  -7.641 -14.209  1.00 32.92     0.100 C 
BRANCH  16  17
ATOM     17  CD  GLU D 570     -20.425  -7.694 -15.682  1.00 32.92     0.185 C 
ATOM     18  OE1 GLU D 570     -20.778  -8.778 -16.185  1.00 32.92    -0.647 OA
ATOM     19  OE2 GLU D 570     -20.312  -6.644 -16.345  1.00 32.92    -0.647 OA
ENDBRANCH  16  17
ENDBRANCH  15  16
ENDBRANCH  14  15
END_RES GLU D 570
ENDMDL
MODEL 6
REMARK VINA RESULT:      -6.2      2.848      6.102
REMARK  12 active torsions:
REMARK  status: ('A' for Active; 'I' for Inactive)
REMARK    1  A    between atoms: C_1  and  C_2 
REMARK    2  A    between atoms: C_1  and  O_23 
REMARK    3  A    between atoms: C_3  and  O_22 
REMARK    4  A    between atoms: C_4  and  O_21 
REMARK    5  A    between atoms: C_5  and  O_20 
REMARK    6  A    between atoms: C_6  and  O_8 
REMARK    7  A    between atoms: O_8  and  C_9 
REMARK    8  A    between atoms: C_10  and  O_19 
REMARK    9  A    between atoms: C_11  and  O_18 
REMARK   10  A    between atoms: C_12  and  O_17 
REMARK   11  A    between atoms: C_13  and  C_15 
REMARK   12  A    between atoms: C_15  and  O_16 
ROOT
HETATM    1  O   UNL     1     -25.996  -5.891 -16.892  1.00  0.00    -0.326 OA
ENDROOT
BRANCH   1   2
HETATM    2  C   UNL     1     -27.326  -5.857 -17.452  1.00  0.00     0.294 C 
HETATM    3  C   UNL     1     -27.934  -4.470 -17.149  1.00  0.00     0.204 C 
HETATM    4  C   UNL     1     -29.303  -4.359 -17.822  1.00  0.00     0.183 C 
HETATM    5  C   UNL     1     -30.231  -5.513 -17.371  1.00  0.00     0.180 C 
HETATM    6  C   UNL     1     -29.519  -6.880 -17.448  1.00  0.00     0.179 C 
HETATM    7  O   UNL     1     -28.181  -6.855 -16.891  1.00  0.00    -0.348 OA
BRANCH   3   8
HETATM    8  O   UNL     1     -28.132  -4.302 -15.721  1.00  0.00    -0.388 OA
HETATM    9  H   UNL     1     -28.456  -5.165 -15.395  1.00  0.00     0.210 HD
ENDBRANCH   3   8
BRANCH   4  10
HETATM   10  O   UNL     1     -29.891  -3.085 -17.508  1.00  0.00    -0.390 OA
HETATM   11  H   UNL     1     -30.854  -3.246 -17.466  1.00  0.00     0.210 HD
ENDBRANCH   4  10
BRANCH   5  12
HETATM   12  O   UNL     1     -30.656  -5.285 -16.014  1.00  0.00    -0.390 OA
HETATM   13  H   UNL     1     -30.064  -4.597 -15.649  1.00  0.00     0.210 HD
ENDBRANCH   5  12
BRANCH   6  14
HETATM   14  C   UNL     1     -29.538  -7.479 -18.862  1.00  0.00     0.198 C 
BRANCH  14  15
HETATM   15  O   UNL     1     -29.455  -8.901 -18.834  1.00  0.00    -0.398 OA
HETATM   16  H   UNL     1     -30.304  -9.240 -18.495  1.00  0.00     0.209 HD
ENDBRANCH  14  15
ENDBRANCH   6  14
ENDBRANCH   1   2
BRANCH   1  17
HETATM   17  C   UNL     1     -25.321  -7.137 -17.106  1.00  0.00     0.294 C 
HETATM   18  C   UNL     1     -23.953  -7.150 -16.375  1.00  0.00     0.204 C 
HETATM   19  C   UNL     1     -22.885  -6.327 -17.110  1.00  0.00     0.183 C 
HETATM   20  C   UNL     1     -22.840  -6.638 -18.614  1.00  0.00     0.180 C 
HETATM   21  C   UNL     1     -24.248  -6.651 -19.219  1.00  0.00     0.179 C 
HETATM   22  O   UNL     1     -25.157  -7.484 -18.482  1.00  0.00    -0.348 OA
BRANCH  18  23
HETATM   23  O   UNL     1     -23.461  -8.503 -16.277  1.00  0.00    -0.388 OA
HETATM   24  H   UNL     1     -23.798  -8.822 -15.413  1.00  0.00     0.210 HD
ENDBRANCH  18  23
BRANCH  19  25
HETATM   25  O   UNL     1     -21.604  -6.617 -16.503  1.00  0.00    -0.390 OA
HETATM   26  H   UNL     1     -21.697  -7.461 -16.017  1.00  0.00     0.210 HD
ENDBRANCH  19  25
BRANCH  20  27
HETATM   27  O   UNL     1     -22.159  -7.885 -18.815  1.00  0.00    -0.390 OA
HETATM   28  H   UNL     1     -22.419  -8.476 -18.080  1.00  0.00     0.210 HD
ENDBRANCH  20  27
BRANCH  21  29
HETATM   29  C   UNL     1     -24.246  -7.204 -20.651  1.00  0.00     0.198 C 
BRANCH  29  30
HETATM   30  O   UNL     1     -24.042  -8.620 -20.611  1.00  0.00    -0.398 OA
HETATM   31  H   UNL     1     -23.086  -8.734 -20.773  1.00  0.00     0.209 HD
ENDBRANCH  29  30
ENDBRANCH  21  29
ENDBRANCH   1  17
TORSDOF 12
BEGIN_RES ARG D 557
REMARK  4 active torsions:
REMARK  status: ('A' for Active; 'I' for Inactive)
REMARK    1  A    between atoms: CA   and  CB  
REMARK    2  A    between atoms: CB   and  CG  
REMARK    3  A    between atoms: CG   and  CD  
REMARK    4  A    between atoms: CD   and  NE  
REMARK       I    between atoms: NE   and  CZ  
REMARK       I    between atoms: CZ   and  NH1 
REMARK       I    between atoms: CZ   and  NH2 
ROOT
ATOM      1  CA  ARG D 557     -26.217   2.705 -17.014  1.00 35.49     0.159 C 
ENDROOT
BRANCH   1   2
ATOM      2  CB  ARG D 557     -26.789   1.319 -17.183  1.00 35.49     0.034 C 
BRANCH   2   3
ATOM      3  CG  ARG D 557     -25.866   0.195 -16.986  1.00 35.49     0.027 C 
BRANCH   3   4
ATOM      4  CD  ARG D 557     -26.308  -0.715 -15.904  1.00 35.49     0.116 C 
BRANCH   4   5
ATOM      5  NE  ARG D 557     -25.271  -0.949 -14.934  1.00 35.49    -0.212 N 
ATOM      6  CZ  ARG D 557     -24.932  -2.118 -14.438  1.00 35.49     0.666 C 
ATOM      7  NH1 ARG D 557     -25.541  -3.237 -14.782  1.00 35.49    -0.235 N 
ATOM      8  NH2 ARG D 557     -23.952  -2.145 -13.583  1.00 35.49    -0.235 N 
ATOM      9  HH  ARG D 557     -26.187  -3.243 -15.345  1.00 35.49     0.174 HD
ATOM     10  HH  ARG D 557     -25.275  -3.971 -14.428  1.00 35.49     0.174 HD
ATOM     11  HH  ARG D 557     -23.572  -1.408 -13.385  1.00 35.49     0.174 HD
ATOM     12  HH  ARG D 557     -23.702  -2.882 -13.244  1.00 35.49     0.174 HD
ATOM     13  HE  ARG D 557     -24.875  -0.273 -14.603  1.00 35.49     0.178 HD
ENDBRANCH   4   5
ENDBRANCH   3   4
ENDBRANCH   2   3
ENDBRANCH   1   2
END_RES ARG D 557
BEGIN_RES GLU D 570
REMARK  3 active torsions:
REMARK  status: ('A' for Active; 'I' for Inactive)
REMARK    5  A    between atoms: CA   and  CB  
REMARK    6  A    between atoms: CB   and  CG  
REMARK    7  A    between atoms: CG   and  CD  
ROOT
ATOM     14  CA  GLU D 570     -18.033  -6.348 -13.375  1.00 32.92     0.160 C 
ENDROOT
BRANCH  14  15
ATOM     15  CB  GLU D 570     -19.500  -6.345 -13.794  1.00 32.92     0.043 C 
BRANCH  15  16
ATOM     16  CG  GLU D 570     -20.440  -5.521 -12.991  1.00 32.92     0.100 C 
BRANCH  16  17
ATOM     17  CD  GLU D 570     -21.722  -5.206 -13.724  1.00 32.92     0.185 C 
ATOM     18  OE1 GLU D 570     -22.728  -5.912 -13.517  1.00 32.92    -0.647 OA
ATOM     19  OE2 GLU D 570     -21.717  -4.253 -14.528  1.00 32.92    -0.647 OA
ENDBRANCH  16  17
ENDBRANCH  15  16
ENDBRANCH  14  15
END_RES GLU D 570
ENDMDL
MODEL 7
REMARK VINA RESULT:      -6.0      1.503      5.293
REMARK  12 active torsions:
REMARK  status: ('A' for Active; 'I' for Inactive)
REMARK    1  A    between atoms: C_1  and  C_2 
REMARK    2  A    between atoms: C_1  and  O_23 
REMARK    3  A    between atoms: C_3  and  O_22 
REMARK    4  A    between atoms: C_4  and  O_21 
REMARK    5  A    between atoms: C_5  and  O_20 
REMARK    6  A    between atoms: C_6  and  O_8 
REMARK    7  A    between atoms: O_8  and  C_9 
REMARK    8  A    between atoms: C_10  and  O_19 
REMARK    9  A    between atoms: C_11  and  O_18 
REMARK   10  A    between atoms: C_12  and  O_17 
REMARK   11  A    between atoms: C_13  and  C_15 
REMARK   12  A    between atoms: C_15  and  O_16 
ROOT
HETATM    1  O   UNL     1     -22.052  -5.069 -12.983  1.00  0.00    -0.326 OA
ENDROOT
BRANCH   1   2
HETATM    2  C   UNL     1     -22.293  -4.337 -11.763  1.00  0.00     0.294 C 
HETATM    3  C   UNL     1     -20.943  -4.168 -11.034  1.00  0.00     0.204 C 
HETATM    4  C   UNL     1     -21.144  -3.301  -9.789  1.00  0.00     0.183 C 
HETATM    5  C   UNL     1     -22.230  -3.910  -8.869  1.00  0.00     0.180 C 
HETATM    6  C   UNL     1     -23.494  -4.304  -9.662  1.00  0.00     0.179 C 
HETATM    7  O   UNL     1     -23.195  -5.018 -10.887  1.00  0.00    -0.348 OA
BRANCH   3   8
HETATM    8  O   UNL     1     -20.436  -5.455 -10.596  1.00  0.00    -0.388 OA
HETATM    9  H   UNL     1     -19.481  -5.450 -10.809  1.00  0.00     0.210 HD
ENDBRANCH   3   8
BRANCH   4  10
HETATM   10  O   UNL     1     -19.896  -3.176  -9.085  1.00  0.00    -0.390 OA
HETATM   11  H   UNL     1     -19.207  -3.416  -9.734  1.00  0.00     0.210 HD
ENDBRANCH   4  10
BRANCH   5  12
HETATM   12  O   UNL     1     -21.706  -5.080  -8.216  1.00  0.00    -0.390 OA
HETATM   13  H   UNL     1     -21.157  -4.761  -7.471  1.00  0.00     0.210 HD
ENDBRANCH   5  12
BRANCH   6  14
HETATM   14  C   UNL     1     -24.434  -3.115  -9.909  1.00  0.00     0.198 C 
BRANCH  14  15
HETATM   15  O   UNL     1     -25.800  -3.476  -9.732  1.00  0.00    -0.398 OA
HETATM   16  H   UNL     1     -25.993  -4.209 -10.345  1.00  0.00     0.209 HD
ENDBRANCH  14  15
ENDBRANCH   6  14
ENDBRANCH   1   2
BRANCH   1  17
HETATM   17  C   UNL     1     -22.420  -4.345 -14.164  1.00  0.00     0.294 C 
HETATM   18  C   UNL     1     -23.173  -3.041 -13.794  1.00  0.00     0.204 C 
HETATM   19  C   UNL     1     -24.628  -3.300 -13.376  1.00  0.00     0.183 C 
HETATM   20  C   UNL     1     -25.358  -4.238 -14.349  1.00  0.00     0.180 C 
HETATM   21  C   UNL     1     -24.501  -5.464 -14.685  1.00  0.00     0.179 C 
HETATM   22  O   UNL     1     -23.173  -5.109 -15.107  1.00  0.00    -0.348 OA
BRANCH  18  23
HETATM   23  O   UNL     1     -23.205  -2.152 -14.932  1.00  0.00    -0.388 OA
HETATM   24  H   UNL     1     -22.962  -1.277 -14.562  1.00  0.00     0.210 HD
ENDBRANCH  18  23
BRANCH  19  25
HETATM   25  O   UNL     1     -25.306  -2.024 -13.312  1.00  0.00    -0.390 OA
HETATM   26  H   UNL     1     -26.204  -2.153 -13.680  1.00  0.00     0.210 HD
ENDBRANCH  19  25
BRANCH  20  27
HETATM   27  O   UNL     1     -25.724  -3.502 -15.526  1.00  0.00    -0.390 OA
HETATM   28  H   UNL     1     -26.477  -3.972 -15.936  1.00  0.00     0.210 HD
ENDBRANCH  20  27
BRANCH  21  29
HETATM   29  C   UNL     1     -25.100  -6.277 -15.840  1.00  0.00     0.198 C 
BRANCH  29  30
HETATM   30  O   UNL     1     -24.062  -6.630 -16.760  1.00  0.00    -0.398 OA
HETATM   31  H   UNL     1     -23.730  -5.774 -17.094  1.00  0.00     0.209 HD
ENDBRANCH  29  30
ENDBRANCH  21  29
ENDBRANCH   1  17
TORSDOF 12
BEGIN_RES ARG D 557
REMARK  4 active torsions:
REMARK  status: ('A' for Active; 'I' for Inactive)
REMARK    1  A    between atoms: CA   and  CB  
REMARK    2  A    between atoms: CB   and  CG  
REMARK    3  A    between atoms: CG   and  CD  
REMARK    4  A    between atoms: CD   and  NE  
REMARK       I    between atoms: NE   and  CZ  
REMARK       I    between atoms: CZ   and  NH1 
REMARK       I    between atoms: CZ   and  NH2 
ROOT
ATOM      1  CA  ARG D 557     -26.217   2.705 -17.014  1.00 35.49     0.159 C 
ENDROOT
BRANCH   1   2
ATOM      2  CB  ARG D 557     -26.789   1.319 -17.183  1.00 35.49     0.034 C 
BRANCH   2   3
ATOM      3  CG  ARG D 557     -28.126   1.083 -16.624  1.00 35.49     0.027 C 
BRANCH   3   4
ATOM      4  CD  ARG D 557     -28.834  -0.026 -17.303  1.00 35.49     0.116 C 
BRANCH   4   5
ATOM      5  NE  ARG D 557     -28.292  -1.312 -16.949  1.00 35.49    -0.212 N 
ATOM      6  CZ  ARG D 557     -28.880  -2.472 -17.138  1.00 35.49     0.666 C 
ATOM      7  NH1 ARG D 557     -30.080  -2.579 -17.679  1.00 35.49    -0.235 N 
ATOM      8  NH2 ARG D 557     -28.231  -3.540 -16.776  1.00 35.49    -0.235 N 
ATOM      9  HH  ARG D 557     -30.524  -1.889 -17.927  1.00 35.49     0.174 HD
ATOM     10  HH  ARG D 557     -30.413  -3.362 -17.780  1.00 35.49     0.174 HD
ATOM     11  HH  ARG D 557     -27.455  -3.441 -16.436  1.00 35.49     0.174 HD
ATOM     12  HH  ARG D 557     -28.577  -4.307 -16.885  1.00 35.49     0.174 HD
ATOM     13  HE  ARG D 557     -27.552  -1.332 -16.529  1.00 35.49     0.178 HD
ENDBRANCH   4   5
ENDBRANCH   3   4
ENDBRANCH   2   3
ENDBRANCH   1   2
END_RES ARG D 557
BEGIN_RES GLU D 570
REMARK  3 active torsions:
REMARK  status: ('A' for Active; 'I' for Inactive)
REMARK    5  A    between atoms: CA   and  CB  
REMARK    6  A    between atoms: CB   and  CG  
REMARK    7  A    between atoms: CG   and  CD  
ROOT
ATOM     14  CA  GLU D 570     -18.033  -6.348 -13.375  1.00 32.92     0.160 C 
ENDROOT
BRANCH  14  15
ATOM     15  CB  GLU D 570     -19.500  -6.345 -13.794  1.00 32.92     0.043 C 
BRANCH  15  16
ATOM     16  CG  GLU D 570     -20.049  -7.598 -14.373  1.00 32.92     0.100 C 
BRANCH  16  17
ATOM     17  CD  GLU D 570     -20.756  -7.379 -15.690  1.00 32.92     0.185 C 
ATOM     18  OE1 GLU D 570     -21.629  -8.191 -16.051  1.00 32.92    -0.647 OA
ATOM     19  OE2 GLU D 570     -20.420  -6.394 -16.377  1.00 32.92    -0.647 OA
ENDBRANCH  16  17
ENDBRANCH  15  16
ENDBRANCH  14  15
END_RES GLU D 570
ENDMDL
MODEL 8
REMARK VINA RESULT:      -6.0      1.300      5.546
REMARK  12 active torsions:
REMARK  status: ('A' for Active; 'I' for Inactive)
REMARK    1  A    between atoms: C_1  and  C_2 
REMARK    2  A    between atoms: C_1  and  O_23 
REMARK    3  A    between atoms: C_3  and  O_22 
REMARK    4  A    between atoms: C_4  and  O_21 
REMARK    5  A    between atoms: C_5  and  O_20 
REMARK    6  A    between atoms: C_6  and  O_8 
REMARK    7  A    between atoms: O_8  and  C_9 
REMARK    8  A    between atoms: C_10  and  O_19 
REMARK    9  A    between atoms: C_11  and  O_18 
REMARK   10  A    between atoms: C_12  and  O_17 
REMARK   11  A    between atoms: C_13  and  C_15 
REMARK   12  A    between atoms: C_15  and  O_16 
ROOT
HETATM    1  O   UNL     1     -23.979  -5.782 -13.417  1.00  0.00    -0.326 OA
ENDROOT
BRANCH   1   2
HETATM    2  C   UNL     1     -23.805  -4.864 -12.317  1.00  0.00     0.294 C 
HETATM    3  C   UNL     1     -22.482  -4.099 -12.541  1.00  0.00     0.204 C 
HETATM    4  C   UNL     1     -22.320  -3.039 -11.450  1.00  0.00     0.183 C 
HETATM    5  C   UNL     1     -22.389  -3.685 -10.044  1.00  0.00     0.180 C 
HETATM    6  C   UNL     1     -23.590  -4.645  -9.916  1.00  0.00     0.179 C 
HETATM    7  O   UNL     1     -23.731  -5.531 -11.055  1.00  0.00    -0.348 OA
BRANCH   3   8
HETATM    8  O   UNL     1     -21.350  -5.002 -12.447  1.00  0.00    -0.388 OA
HETATM    9  H   UNL     1     -21.031  -4.934 -11.526  1.00  0.00     0.210 HD
ENDBRANCH   3   8
BRANCH   4  10
HETATM   10  O   UNL     1     -21.069  -2.352 -11.630  1.00  0.00    -0.390 OA
HETATM   11  H   UNL     1     -20.404  -3.056 -11.766  1.00  0.00     0.210 HD
ENDBRANCH   4  10
BRANCH   5  12
HETATM   12  O   UNL     1     -21.177  -4.419  -9.792  1.00  0.00    -0.390 OA
HETATM   13  H   UNL     1     -20.517  -3.767  -9.479  1.00  0.00     0.210 HD
ENDBRANCH   5  12
BRANCH   6  14
HETATM   14  C   UNL     1     -24.902  -3.914  -9.596  1.00  0.00     0.198 C 
BRANCH  14  15
HETATM   15  O   UNL     1     -24.667  -2.596  -9.110  1.00  0.00    -0.398 OA
HETATM   16  H   UNL     1     -25.227  -1.987  -9.627  1.00  0.00     0.209 HD
ENDBRANCH  14  15
ENDBRANCH   6  14
ENDBRANCH   1   2
BRANCH   1  17
HETATM   17  C   UNL     1     -24.275  -5.134 -14.660  1.00  0.00     0.294 C 
HETATM   18  C   UNL     1     -25.805  -4.946 -14.829  1.00  0.00     0.204 C 
HETATM   19  C   UNL     1     -26.518  -6.248 -15.221  1.00  0.00     0.183 C 
HETATM   20  C   UNL     1     -25.806  -6.982 -16.368  1.00  0.00     0.180 C 
HETATM   21  C   UNL     1     -24.295  -7.062 -16.121  1.00  0.00     0.179 C 
HETATM   22  O   UNL     1     -23.720  -5.783 -15.805  1.00  0.00    -0.348 OA
BRANCH  18  23
HETATM   23  O   UNL     1     -26.070  -3.981 -15.869  1.00  0.00    -0.388 OA
HETATM   24  H   UNL     1     -25.210  -3.878 -16.328  1.00  0.00     0.210 HD
ENDBRANCH  18  23
BRANCH  19  25
HETATM   25  O   UNL     1     -27.871  -5.916 -15.608  1.00  0.00    -0.390 OA
HETATM   26  H   UNL     1     -28.299  -6.743 -15.909  1.00  0.00     0.210 HD
ENDBRANCH  19  25
BRANCH  20  27
HETATM   27  O   UNL     1     -26.112  -6.325 -17.607  1.00  0.00    -0.390 OA
HETATM   28  H   UNL     1     -26.876  -6.794 -18.000  1.00  0.00     0.210 HD
ENDBRANCH  20  27
BRANCH  21  29
HETATM   29  C   UNL     1     -23.542  -7.560 -17.362  1.00  0.00     0.198 C 
BRANCH  29  30
HETATM   30  O   UNL     1     -23.196  -6.443 -18.187  1.00  0.00    -0.398 OA
HETATM   31  H   UNL     1     -22.842  -6.844 -19.004  1.00  0.00     0.209 HD
ENDBRANCH  29  30
ENDBRANCH  21  29
ENDBRANCH   1  17
TORSDOF 12
BEGIN_RES ARG D 557
REMARK  4 active torsions:
REMARK  status: ('A' for Active; 'I' for Inactive)
REMARK    1  A    between atoms: CA   and  CB  
REMARK    2  A    between atoms: CB   and  CG  
REMARK    3  A    between atoms: CG   and  CD  
REMARK    4  A    between atoms: CD   and  NE  
REMARK       I    between atoms: NE   and  CZ  
REMARK       I    between atoms: CZ   and  NH1 
REMARK       I    between atoms: CZ   and  NH2 
ROOT
ATOM      1  CA  ARG D 557     -26.217   2.705 -17.014  1.00 35.49     0.159 C 
ENDROOT
BRANCH   1   2
ATOM      2  CB  ARG D 557     -26.789   1.319 -17.183  1.00 35.49     0.034 C 
BRANCH   2   3
ATOM      3  CG  ARG D 557     -28.089   1.059 -16.552  1.00 35.49     0.027 C 
BRANCH   3   4
ATOM      4  CD  ARG D 557     -28.882   0.049 -17.289  1.00 35.49     0.116 C 
BRANCH   4   5
ATOM      5  NE  ARG D 557     -28.393  -1.287 -17.072  1.00 35.49    -0.212 N 
ATOM      6  CZ  ARG D 557     -29.089  -2.393 -17.218  1.00 35.49     0.666 C 
ATOM      7  NH1 ARG D 557     -30.359  -2.389 -17.577  1.00 35.49    -0.235 N 
ATOM      8  NH2 ARG D 557     -28.477  -3.520 -16.999  1.00 35.49    -0.235 N 
ATOM      9  HH  ARG D 557     -30.781  -1.659 -17.729  1.00 35.49     0.174 HD
ATOM     10  HH  ARG D 557     -30.761  -3.141 -17.659  1.00 35.49     0.174 HD
ATOM     11  HH  ARG D 557     -27.654  -3.493 -16.775  1.00 35.49     0.174 HD
ATOM     12  HH  ARG D 557     -28.892  -4.255 -17.086  1.00 35.49     0.174 HD
ATOM     13  HE  ARG D 557     -27.604  -1.380 -16.768  1.00 35.49     0.178 HD
ENDBRANCH   4   5
ENDBRANCH   3   4
ENDBRANCH   2   3
ENDBRANCH   1   2
END_RES ARG D 557
BEGIN_RES GLU D 570
REMARK  3 active torsions:
REMARK  status: ('A' for Active; 'I' for Inactive)
REMARK    5  A    between atoms: CA   and  CB  
REMARK    6  A    between atoms: CB   and  CG  
REMARK    7  A    between atoms: CG   and  CD  
ROOT
ATOM     14  CA  GLU D 570     -18.033  -6.348 -13.375  1.00 32.92     0.160 C 
ENDROOT
BRANCH  14  15
ATOM     15  CB  GLU D 570     -19.500  -6.345 -13.794  1.00 32.92     0.043 C 
BRANCH  15  16
ATOM     16  CG  GLU D 570     -19.821  -6.819 -15.165  1.00 32.92     0.100 C 
BRANCH  16  17
ATOM     17  CD  GLU D 570     -20.452  -5.749 -16.026  1.00 32.92     0.185 C 
ATOM     18  OE1 GLU D 570     -20.969  -4.757 -15.476  1.00 32.92    -0.647 OA
ATOM     19  OE2 GLU D 570     -20.443  -5.912 -17.262  1.00 32.92    -0.647 OA
ENDBRANCH  16  17
ENDBRANCH  15  16
ENDBRANCH  14  15
END_RES GLU D 570
ENDMDL
MODEL 9
REMARK VINA RESULT:      -5.3      1.296      5.553
REMARK  12 active torsions:
REMARK  status: ('A' for Active; 'I' for Inactive)
REMARK    1  A    between atoms: C_1  and  C_2 
REMARK    2  A    between atoms: C_1  and  O_23 
REMARK    3  A    between atoms: C_3  and  O_22 
REMARK    4  A    between atoms: C_4  and  O_21 
REMARK    5  A    between atoms: C_5  and  O_20 
REMARK    6  A    between atoms: C_6  and  O_8 
REMARK    7  A    between atoms: O_8  and  C_9 
REMARK    8  A    between atoms: C_10  and  O_19 
REMARK    9  A    between atoms: C_11  and  O_18 
REMARK   10  A    between atoms: C_12  and  O_17 
REMARK   11  A    between atoms: C_13  and  C_15 
REMARK   12  A    between atoms: C_15  and  O_16 
ROOT
HETATM    1  O   UNL     1     -23.713  -6.177 -13.674  1.00  0.00    -0.326 OA
ENDROOT
BRANCH   1   2
HETATM    2  C   UNL     1     -23.135  -5.357 -12.636  1.00  0.00     0.294 C 
HETATM    3  C   UNL     1     -24.260  -4.488 -12.034  1.00  0.00     0.204 C 
HETATM    4  C   UNL     1     -23.705  -3.685 -10.856  1.00  0.00     0.183 C 
HETATM    5  C   UNL     1     -22.486  -2.839 -11.296  1.00  0.00     0.180 C 
HETATM    6  C   UNL     1     -21.478  -3.672 -12.114  1.00  0.00     0.179 C 
HETATM    7  O   UNL     1     -22.111  -4.491 -13.129  1.00  0.00    -0.348 OA
BRANCH   3   8
HETATM    8  O   UNL     1     -24.752  -3.541 -13.018  1.00  0.00    -0.388 OA
HETATM    9  H   UNL     1     -25.032  -4.077 -13.785  1.00  0.00     0.210 HD
ENDBRANCH   3   8
BRANCH   4  10
HETATM   10  O   UNL     1     -24.740  -2.843 -10.319  1.00  0.00    -0.390 OA
HETATM   11  H   UNL     1     -24.678  -2.006 -10.819  1.00  0.00     0.210 HD
ENDBRANCH   4  10
BRANCH   5  12
HETATM   12  O   UNL     1     -22.935  -1.731 -12.099  1.00  0.00    -0.390 OA
HETATM   13  H   UNL     1     -23.676  -2.065 -12.644  1.00  0.00     0.210 HD
ENDBRANCH   5  12
BRANCH   6  14
HETATM   14  C   UNL     1     -20.530  -4.493 -11.228  1.00  0.00     0.198 C 
BRANCH  14  15
HETATM   15  O   UNL     1     -20.342  -3.887  -9.953  1.00  0.00    -0.398 OA
HETATM   16  H   UNL     1     -21.192  -3.492  -9.685  1.00  0.00     0.209 HD
ENDBRANCH  14  15
ENDBRANCH   6  14
ENDBRANCH   1   2
BRANCH   1  17
HETATM   17  C   UNL     1     -24.156  -5.426 -14.811  1.00  0.00     0.294 C 
HETATM   18  C   UNL     1     -25.630  -5.765 -15.150  1.00  0.00     0.204 C 
HETATM   19  C   UNL     1     -25.775  -7.120 -15.859  1.00  0.00     0.183 C 
HETATM   20  C   UNL     1     -24.771  -7.288 -17.010  1.00  0.00     0.180 C 
HETATM   21  C   UNL     1     -23.359  -6.874 -16.579  1.00  0.00     0.179 C 
HETATM   22  O   UNL     1     -23.329  -5.574 -15.967  1.00  0.00    -0.348 OA
BRANCH  18  23
HETATM   23  O   UNL     1     -26.176  -4.759 -16.030  1.00  0.00    -0.388 OA
HETATM   24  H   UNL     1     -25.392  -4.261 -16.344  1.00  0.00     0.210 HD
ENDBRANCH  18  23
BRANCH  19  25
HETATM   25  O   UNL     1     -27.128  -7.217 -16.361  1.00  0.00    -0.390 OA
HETATM   26  H   UNL     1     -27.145  -6.786 -17.239  1.00  0.00     0.210 HD
ENDBRANCH  19  25
BRANCH  20  27
HETATM   27  O   UNL     1     -25.227  -6.534 -18.144  1.00  0.00    -0.390 OA
HETATM   28  H   UNL     1     -25.899  -7.080 -18.600  1.00  0.00     0.210 HD
ENDBRANCH  20  27
BRANCH  21  29
HETATM   29  C   UNL     1     -22.401  -6.794 -17.774  1.00  0.00     0.198 C 
BRANCH  29  30
HETATM   30  O   UNL     1     -21.691  -5.551 -17.730  1.00  0.00    -0.398 OA
HETATM   31  H   UNL     1     -20.755  -5.809 -17.626  1.00  0.00     0.209 HD
ENDBRANCH  29  30
ENDBRANCH  21  29
ENDBRANCH   1  17
TORSDOF 12
BEGIN_RES ARG D 557
REMARK  4 active torsions:
REMARK  status: ('A' for Active; 'I' for Inactive)
REMARK    1  A    between atoms: CA   and  CB  
REMARK    2  A    between atoms: CB   and  CG  
REMARK    3  A    between atoms: CG   and  CD  
REMARK    4  A    between atoms: CD   and  NE  
REMARK       I    between atoms: NE   and  CZ  
REMARK       I    between atoms: CZ   and  NH1 
REMARK       I    between atoms: CZ   and  NH2 
ROOT
ATOM      1  CA  ARG D 557     -26.217   2.705 -17.014  1.00 35.49     0.159 C 
ENDROOT
BRANCH   1   2
ATOM      2  CB  ARG D 557     -26.789   1.319 -17.183  1.00 35.49     0.034 C 
BRANCH   2   3
ATOM      3  CG  ARG D 557     -28.231   1.226 -17.444  1.00 35.49     0.027 C 
BRANCH   3   4
ATOM      4  CD  ARG D 557     -28.913   0.295 -16.517  1.00 35.49     0.116 C 
BRANCH   4   5
ATOM      5  NE  ARG D 557     -29.150  -0.991 -17.117  1.00 35.49    -0.212 N 
ATOM      6  CZ  ARG D 557     -28.433  -2.075 -16.921  1.00 35.49     0.666 C 
ATOM      7  NH1 ARG D 557     -27.373  -2.091 -16.133  1.00 35.49    -0.235 N 
ATOM      8  NH2 ARG D 557     -28.806  -3.161 -17.532  1.00 35.49    -0.235 N 
ATOM      9  HH  ARG D 557     -27.111  -1.388 -15.719  1.00 35.49     0.174 HD
ATOM     10  HH  ARG D 557     -26.945  -2.827 -16.041  1.00 35.49     0.174 HD
ATOM     11  HH  ARG D 557     -29.499  -3.123 -18.029  1.00 35.49     0.174 HD
ATOM     12  HH  ARG D 557     -28.371  -3.881 -17.427  1.00 35.49     0.174 HD
ATOM     13  HE  ARG D 557     -29.770  -1.054 -17.696  1.00 35.49     0.178 HD
ENDBRANCH   4   5
ENDBRANCH   3   4
ENDBRANCH   2   3
ENDBRANCH   1   2
END_RES ARG D 557
BEGIN_RES GLU D 570
REMARK  3 active torsions:
REMARK  status: ('A' for Active; 'I' for Inactive)
REMARK    5  A    between atoms: CA   and  CB  
REMARK    6  A    between atoms: CB   and  CG  
REMARK    7  A    between atoms: CG   and  CD  
ROOT
ATOM     14  CA  GLU D 570     -18.033  -6.348 -13.375  1.00 32.92     0.160 C 
ENDROOT
BRANCH  14  15
ATOM     15  CB  GLU D 570     -19.500  -6.345 -13.794  1.00 32.92     0.043 C 
BRANCH  15  16
ATOM     16  CG  GLU D 570     -19.822  -6.828 -15.162  1.00 32.92     0.100 C 
BRANCH  16  17
ATOM     17  CD  GLU D 570     -20.272  -8.270 -15.187  1.00 32.92     0.185 C 
ATOM     18  OE1 GLU D 570     -20.338  -8.902 -14.115  1.00 32.92    -0.647 OA
ATOM     19  OE2 GLU D 570     -20.544  -8.779 -16.292  1.00 32.92    -0.647 OA
ENDBRANCH  16  17
ENDBRANCH  15  16
ENDBRANCH  14  15
END_RES GLU D 570
ENDMDL
