MODEL 1
REMARK VINA RESULT:      -1.0      0.000      0.000
REMARK WARNING: 32 MAX_TORS EXCEEDED!!!
REMARK  72 active torsions:
REMARK  status: ('A' for Active; 'I' for Inactive)
REMARK    1  A    between atoms: C_2  and  C_3 
REMARK    2  A    between atoms: C_3  and  C_4 
REMARK    3  A    between atoms: C_4  and  C_5 
REMARK    4  A    between atoms: C_5  and  C_6 
REMARK    5  A    between atoms: C_7  and  C_8 
REMARK    6  A    between atoms: C_8  and  C_9 
REMARK    7  A    between atoms: C_10  and  C_11 
REMARK    8  A    between atoms: C_11  and  C_12 
REMARK    9  A    between atoms: C_12  and  C_13 
REMARK   10  A    between atoms: C_13  and  C_14 
REMARK   11  A    between atoms: C_14  and  C_15 
REMARK   12  A    between atoms: C_15  and  C_16 
REMARK   13  A    between atoms: C_16  and  C_17 
REMARK   14  A    between atoms: C_17  and  C_18 
REMARK       I    between atoms: C_18  and  N_20 
REMARK   15  A    between atoms: N_20  and  C_21 
REMARK   16  A    between atoms: C_21  and  C_22 
REMARK   17  A    between atoms: C_22  and  C_23 
REMARK   18  A    between atoms: C_23  and  N_24 
REMARK   19  A    between atoms: N_24  and  C_27 
REMARK   20  A    between atoms: C_27  and  C_28 
REMARK   21  A    between atoms: C_28  and  C_29 
REMARK   22  A    between atoms: C_28  and  O_95 
REMARK   23  A    between atoms: C_29  and  O_30 
REMARK   24  A    between atoms: O_30  and  P_31 
REMARK   25  A    between atoms: P_31  and  O_33 
REMARK   26  A    between atoms: P_31  and  O_64 
REMARK   27  A    between atoms: O_33  and  C_34 
REMARK   28  A    between atoms: C_34  and  C_35 
REMARK   29  A    between atoms: C_35  and  C_36 
REMARK   30  A    between atoms: C_35  and  O_63 
REMARK   31  A    between atoms: C_36  and  N_37 
REMARK   32  A    between atoms: N_37  and  C_40 
REMARK   33  A    between atoms: C_40  and  C_41 
REMARK   34  A    between atoms: C_41  and  C_42 
REMARK   35  A    between atoms: C_42  and  N_43 
REMARK       I    between atoms: N_43  and  C_44 
REMARK   36  A    between atoms: C_44  and  C_46 
REMARK   37  A    between atoms: C_46  and  C_47 
REMARK   38  A    between atoms: C_47  and  C_48 
REMARK   39  A    between atoms: C_48  and  C_49 
REMARK   40  A    between atoms: C_49  and  C_50 
REMARK   41  A    between atoms: C_50  and  C_51 
REMARK   42  A    between atoms: C_51  and  C_52 
REMARK   43  A    between atoms: C_52  and  C_53 
REMARK   44  A    between atoms: C_54  and  C_55 
REMARK   45  A    between atoms: C_55  and  C_56 
REMARK   46  A    between atoms: C_57  and  C_58 
REMARK   47  A    between atoms: C_58  and  C_59 
REMARK   48  A    between atoms: C_59  and  C_60 
REMARK   49  A    between atoms: C_60  and  C_61 
REMARK   50  A    between atoms: O_64  and  C_65 
REMARK   51  A    between atoms: C_65  and  C_66 
REMARK   52  A    between atoms: C_66  and  C_67 
REMARK   53  A    between atoms: C_66  and  O_94 
REMARK   54  A    between atoms: C_67  and  N_68 
REMARK   55  A    between atoms: N_68  and  C_71 
REMARK   56  A    between atoms: C_71  and  C_72 
REMARK   57  A    between atoms: C_72  and  C_73 
REMARK   58  A    between atoms: C_73  and  N_74 
REMARK       I    between atoms: N_74  and  C_75 
REMARK   59  A    between atoms: C_75  and  C_77 
REMARK   60  A    between atoms: C_77  and  C_78 
REMARK   61  A    between atoms: C_78  and  C_79 
REMARK   62  A    between atoms: C_79  and  C_80 
REMARK   63  A    between atoms: C_80  and  C_81 
REMARK   64  A    between atoms: C_81  and  C_82 
REMARK   65  A    between atoms: C_82  and  C_83 
REMARK   66  A    between atoms: C_83  and  C_84 
REMARK   67  A    between atoms: C_85  and  C_86 
REMARK   68  A    between atoms: C_86  and  C_87 
REMARK   69  A    between atoms: C_88  and  C_89 
REMARK   70  A    between atoms: C_89  and  C_90 
REMARK   71  A    between atoms: C_90  and  C_91 
REMARK   72  A    between atoms: C_91  and  C_92 
ROOT
HETATM    1 CL   UNL     2     -33.076  -2.999 -11.200  1.00  0.00     0.000 Cl
ENDROOT
TORSDOF 72
BEGIN_RES ARG D 557
REMARK  4 active torsions:
REMARK  status: ('A' for Active; 'I' for Inactive)
REMARK    1  A    between atoms: CA   and  CB  
REMARK    2  A    between atoms: CB   and  CG  
REMARK    3  A    between atoms: CG   and  CD  
REMARK    4  A    between atoms: CD   and  NE  
REMARK       I    between atoms: NE   and  CZ  
REMARK       I    between atoms: CZ   and  NH1 
REMARK       I    between atoms: CZ   and  NH2 
ROOT
ATOM      1  CA  ARG D 557     -26.217   2.705 -17.014  1.00 35.49     0.159 C 
ENDROOT
BRANCH   1   2
ATOM      2  CB  ARG D 557     -26.789   1.319 -17.183  1.00 35.49     0.034 C 
BRANCH   2   3
ATOM      3  CG  ARG D 557     -25.835   0.204 -17.163  1.00 35.49     0.027 C 
BRANCH   3   4
ATOM      4  CD  ARG D 557     -24.747   0.409 -16.179  1.00 35.49     0.116 C 
BRANCH   4   5
ATOM      5  NE  ARG D 557     -24.896  -0.435 -15.023  1.00 35.49    -0.212 N 
ATOM      6  CZ  ARG D 557     -24.084  -1.406 -14.671  1.00 35.49     0.666 C 
ATOM      7  NH1 ARG D 557     -23.017  -1.729 -15.378  1.00 35.49    -0.235 N 
ATOM      8  NH2 ARG D 557     -24.362  -2.055 -13.578  1.00 35.49    -0.235 N 
ATOM      9  HH  ARG D 557     -22.813  -1.314 -16.100  1.00 35.49     0.174 HD
ATOM     10  HH  ARG D 557     -22.522  -2.371 -15.099  1.00 35.49     0.174 HD
ATOM     11  HH  ARG D 557     -25.053  -1.820 -13.138  1.00 35.49     0.174 HD
ATOM     12  HH  ARG D 557     -23.859  -2.686 -13.317  1.00 35.49     0.174 HD
ATOM     13  HE  ARG D 557     -25.597  -0.344 -14.549  1.00 35.49     0.178 HD
ENDBRANCH   4   5
ENDBRANCH   3   4
ENDBRANCH   2   3
ENDBRANCH   1   2
END_RES ARG D 557
BEGIN_RES GLU D 570
REMARK  3 active torsions:
REMARK  status: ('A' for Active; 'I' for Inactive)
REMARK    5  A    between atoms: CA   and  CB  
REMARK    6  A    between atoms: CB   and  CG  
REMARK    7  A    between atoms: CG   and  CD  
ROOT
ATOM     14  CA  GLU D 570     -18.033  -6.348 -13.375  1.00 32.92     0.160 C 
ENDROOT
BRANCH  14  15
ATOM     15  CB  GLU D 570     -19.500  -6.345 -13.794  1.00 32.92     0.043 C 
BRANCH  15  16
ATOM     16  CG  GLU D 570     -20.441  -5.526 -12.987  1.00 32.92     0.100 C 
BRANCH  16  17
ATOM     17  CD  GLU D 570     -21.748  -5.260 -13.696  1.00 32.92     0.185 C 
ATOM     18  OE1 GLU D 570     -22.225  -6.141 -14.437  1.00 32.92    -0.647 OA
ATOM     19  OE2 GLU D 570     -22.294  -4.153 -13.521  1.00 32.92    -0.647 OA
ENDBRANCH  16  17
ENDBRANCH  15  16
ENDBRANCH  14  15
END_RES GLU D 570
ENDMDL
MODEL 2
REMARK VINA RESULT:      -1.0      2.471      2.471
REMARK WARNING: 32 MAX_TORS EXCEEDED!!!
REMARK  72 active torsions:
REMARK  status: ('A' for Active; 'I' for Inactive)
REMARK    1  A    between atoms: C_2  and  C_3 
REMARK    2  A    between atoms: C_3  and  C_4 
REMARK    3  A    between atoms: C_4  and  C_5 
REMARK    4  A    between atoms: C_5  and  C_6 
REMARK    5  A    between atoms: C_7  and  C_8 
REMARK    6  A    between atoms: C_8  and  C_9 
REMARK    7  A    between atoms: C_10  and  C_11 
REMARK    8  A    between atoms: C_11  and  C_12 
REMARK    9  A    between atoms: C_12  and  C_13 
REMARK   10  A    between atoms: C_13  and  C_14 
REMARK   11  A    between atoms: C_14  and  C_15 
REMARK   12  A    between atoms: C_15  and  C_16 
REMARK   13  A    between atoms: C_16  and  C_17 
REMARK   14  A    between atoms: C_17  and  C_18 
REMARK       I    between atoms: C_18  and  N_20 
REMARK   15  A    between atoms: N_20  and  C_21 
REMARK   16  A    between atoms: C_21  and  C_22 
REMARK   17  A    between atoms: C_22  and  C_23 
REMARK   18  A    between atoms: C_23  and  N_24 
REMARK   19  A    between atoms: N_24  and  C_27 
REMARK   20  A    between atoms: C_27  and  C_28 
REMARK   21  A    between atoms: C_28  and  C_29 
REMARK   22  A    between atoms: C_28  and  O_95 
REMARK   23  A    between atoms: C_29  and  O_30 
REMARK   24  A    between atoms: O_30  and  P_31 
REMARK   25  A    between atoms: P_31  and  O_33 
REMARK   26  A    between atoms: P_31  and  O_64 
REMARK   27  A    between atoms: O_33  and  C_34 
REMARK   28  A    between atoms: C_34  and  C_35 
REMARK   29  A    between atoms: C_35  and  C_36 
REMARK   30  A    between atoms: C_35  and  O_63 
REMARK   31  A    between atoms: C_36  and  N_37 
REMARK   32  A    between atoms: N_37  and  C_40 
REMARK   33  A    between atoms: C_40  and  C_41 
REMARK   34  A    between atoms: C_41  and  C_42 
REMARK   35  A    between atoms: C_42  and  N_43 
REMARK       I    between atoms: N_43  and  C_44 
REMARK   36  A    between atoms: C_44  and  C_46 
REMARK   37  A    between atoms: C_46  and  C_47 
REMARK   38  A    between atoms: C_47  and  C_48 
REMARK   39  A    between atoms: C_48  and  C_49 
REMARK   40  A    between atoms: C_49  and  C_50 
REMARK   41  A    between atoms: C_50  and  C_51 
REMARK   42  A    between atoms: C_51  and  C_52 
REMARK   43  A    between atoms: C_52  and  C_53 
REMARK   44  A    between atoms: C_54  and  C_55 
REMARK   45  A    between atoms: C_55  and  C_56 
REMARK   46  A    between atoms: C_57  and  C_58 
REMARK   47  A    between atoms: C_58  and  C_59 
REMARK   48  A    between atoms: C_59  and  C_60 
REMARK   49  A    between atoms: C_60  and  C_61 
REMARK   50  A    between atoms: O_64  and  C_65 
REMARK   51  A    between atoms: C_65  and  C_66 
REMARK   52  A    between atoms: C_66  and  C_67 
REMARK   53  A    between atoms: C_66  and  O_94 
REMARK   54  A    between atoms: C_67  and  N_68 
REMARK   55  A    between atoms: N_68  and  C_71 
REMARK   56  A    between atoms: C_71  and  C_72 
REMARK   57  A    between atoms: C_72  and  C_73 
REMARK   58  A    between atoms: C_73  and  N_74 
REMARK       I    between atoms: N_74  and  C_75 
REMARK   59  A    between atoms: C_75  and  C_77 
REMARK   60  A    between atoms: C_77  and  C_78 
REMARK   61  A    between atoms: C_78  and  C_79 
REMARK   62  A    between atoms: C_79  and  C_80 
REMARK   63  A    between atoms: C_80  and  C_81 
REMARK   64  A    between atoms: C_81  and  C_82 
REMARK   65  A    between atoms: C_82  and  C_83 
REMARK   66  A    between atoms: C_83  and  C_84 
REMARK   67  A    between atoms: C_85  and  C_86 
REMARK   68  A    between atoms: C_86  and  C_87 
REMARK   69  A    between atoms: C_88  and  C_89 
REMARK   70  A    between atoms: C_89  and  C_90 
REMARK   71  A    between atoms: C_90  and  C_91 
REMARK   72  A    between atoms: C_91  and  C_92 
ROOT
HETATM    1 CL   UNL     2     -37.009   0.583  -4.968  1.00  0.00     0.000 Cl
ENDROOT
TORSDOF 72
BEGIN_RES ARG D 557
REMARK  4 active torsions:
REMARK  status: ('A' for Active; 'I' for Inactive)
REMARK    1  A    between atoms: CA   and  CB  
REMARK    2  A    between atoms: CB   and  CG  
REMARK    3  A    between atoms: CG   and  CD  
REMARK    4  A    between atoms: CD   and  NE  
REMARK       I    between atoms: NE   and  CZ  
REMARK       I    between atoms: CZ   and  NH1 
REMARK       I    between atoms: CZ   and  NH2 
ROOT
ATOM      1  CA  ARG D 557     -26.217   2.705 -17.014  1.00 35.49     0.159 C 
ENDROOT
BRANCH   1   2
ATOM      2  CB  ARG D 557     -26.789   1.319 -17.183  1.00 35.49     0.034 C 
BRANCH   2   3
ATOM      3  CG  ARG D 557     -25.835   0.204 -17.165  1.00 35.49     0.027 C 
BRANCH   3   4
ATOM      4  CD  ARG D 557     -24.762   0.395 -16.162  1.00 35.49     0.116 C 
BRANCH   4   5
ATOM      5  NE  ARG D 557     -24.933  -0.459 -15.016  1.00 35.49    -0.212 N 
ATOM      6  CZ  ARG D 557     -24.125  -1.430 -14.654  1.00 35.49     0.666 C 
ATOM      7  NH1 ARG D 557     -23.041  -1.743 -15.339  1.00 35.49    -0.235 N 
ATOM      8  NH2 ARG D 557     -24.425  -2.089 -13.573  1.00 35.49    -0.235 N 
ATOM      9  HH  ARG D 557     -22.823  -1.321 -16.053  1.00 35.49     0.174 HD
ATOM     10  HH  ARG D 557     -22.550  -2.384 -15.054  1.00 35.49     0.174 HD
ATOM     11  HH  ARG D 557     -25.128  -1.860 -13.147  1.00 35.49     0.174 HD
ATOM     12  HH  ARG D 557     -23.926  -2.720 -13.305  1.00 35.49     0.174 HD
ATOM     13  HE  ARG D 557     -25.645  -0.375 -14.558  1.00 35.49     0.178 HD
ENDBRANCH   4   5
ENDBRANCH   3   4
ENDBRANCH   2   3
ENDBRANCH   1   2
END_RES ARG D 557
BEGIN_RES GLU D 570
REMARK  3 active torsions:
REMARK  status: ('A' for Active; 'I' for Inactive)
REMARK    5  A    between atoms: CA   and  CB  
REMARK    6  A    between atoms: CB   and  CG  
REMARK    7  A    between atoms: CG   and  CD  
ROOT
ATOM     14  CA  GLU D 570     -18.033  -6.348 -13.375  1.00 32.92     0.160 C 
ENDROOT
BRANCH  14  15
ATOM     15  CB  GLU D 570     -19.500  -6.345 -13.794  1.00 32.92     0.043 C 
BRANCH  15  16
ATOM     16  CG  GLU D 570     -20.438  -5.515 -12.995  1.00 32.92     0.100 C 
BRANCH  16  17
ATOM     17  CD  GLU D 570     -21.739  -5.239 -13.713  1.00 32.92     0.185 C 
ATOM     18  OE1 GLU D 570     -22.187  -6.091 -14.504  1.00 32.92    -0.647 OA
ATOM     19  OE2 GLU D 570     -22.306  -4.150 -13.496  1.00 32.92    -0.647 OA
ENDBRANCH  16  17
ENDBRANCH  15  16
ENDBRANCH  14  15
END_RES GLU D 570
ENDMDL
MODEL 3
REMARK VINA RESULT:      -1.0      6.854      6.854
REMARK WARNING: 32 MAX_TORS EXCEEDED!!!
REMARK  72 active torsions:
REMARK  status: ('A' for Active; 'I' for Inactive)
REMARK    1  A    between atoms: C_2  and  C_3 
REMARK    2  A    between atoms: C_3  and  C_4 
REMARK    3  A    between atoms: C_4  and  C_5 
REMARK    4  A    between atoms: C_5  and  C_6 
REMARK    5  A    between atoms: C_7  and  C_8 
REMARK    6  A    between atoms: C_8  and  C_9 
REMARK    7  A    between atoms: C_10  and  C_11 
REMARK    8  A    between atoms: C_11  and  C_12 
REMARK    9  A    between atoms: C_12  and  C_13 
REMARK   10  A    between atoms: C_13  and  C_14 
REMARK   11  A    between atoms: C_14  and  C_15 
REMARK   12  A    between atoms: C_15  and  C_16 
REMARK   13  A    between atoms: C_16  and  C_17 
REMARK   14  A    between atoms: C_17  and  C_18 
REMARK       I    between atoms: C_18  and  N_20 
REMARK   15  A    between atoms: N_20  and  C_21 
REMARK   16  A    between atoms: C_21  and  C_22 
REMARK   17  A    between atoms: C_22  and  C_23 
REMARK   18  A    between atoms: C_23  and  N_24 
REMARK   19  A    between atoms: N_24  and  C_27 
REMARK   20  A    between atoms: C_27  and  C_28 
REMARK   21  A    between atoms: C_28  and  C_29 
REMARK   22  A    between atoms: C_28  and  O_95 
REMARK   23  A    between atoms: C_29  and  O_30 
REMARK   24  A    between atoms: O_30  and  P_31 
REMARK   25  A    between atoms: P_31  and  O_33 
REMARK   26  A    between atoms: P_31  and  O_64 
REMARK   27  A    between atoms: O_33  and  C_34 
REMARK   28  A    between atoms: C_34  and  C_35 
REMARK   29  A    between atoms: C_35  and  C_36 
REMARK   30  A    between atoms: C_35  and  O_63 
REMARK   31  A    between atoms: C_36  and  N_37 
REMARK   32  A    between atoms: N_37  and  C_40 
REMARK   33  A    between atoms: C_40  and  C_41 
REMARK   34  A    between atoms: C_41  and  C_42 
REMARK   35  A    between atoms: C_42  and  N_43 
REMARK       I    between atoms: N_43  and  C_44 
REMARK   36  A    between atoms: C_44  and  C_46 
REMARK   37  A    between atoms: C_46  and  C_47 
REMARK   38  A    between atoms: C_47  and  C_48 
REMARK   39  A    between atoms: C_48  and  C_49 
REMARK   40  A    between atoms: C_49  and  C_50 
REMARK   41  A    between atoms: C_50  and  C_51 
REMARK   42  A    between atoms: C_51  and  C_52 
REMARK   43  A    between atoms: C_52  and  C_53 
REMARK   44  A    between atoms: C_54  and  C_55 
REMARK   45  A    between atoms: C_55  and  C_56 
REMARK   46  A    between atoms: C_57  and  C_58 
REMARK   47  A    between atoms: C_58  and  C_59 
REMARK   48  A    between atoms: C_59  and  C_60 
REMARK   49  A    between atoms: C_60  and  C_61 
REMARK   50  A    between atoms: O_64  and  C_65 
REMARK   51  A    between atoms: C_65  and  C_66 
REMARK   52  A    between atoms: C_66  and  C_67 
REMARK   53  A    between atoms: C_66  and  O_94 
REMARK   54  A    between atoms: C_67  and  N_68 
REMARK   55  A    between atoms: N_68  and  C_71 
REMARK   56  A    between atoms: C_71  and  C_72 
REMARK   57  A    between atoms: C_72  and  C_73 
REMARK   58  A    between atoms: C_73  and  N_74 
REMARK       I    between atoms: N_74  and  C_75 
REMARK   59  A    between atoms: C_75  and  C_77 
REMARK   60  A    between atoms: C_77  and  C_78 
REMARK   61  A    between atoms: C_78  and  C_79 
REMARK   62  A    between atoms: C_79  and  C_80 
REMARK   63  A    between atoms: C_80  and  C_81 
REMARK   64  A    between atoms: C_81  and  C_82 
REMARK   65  A    between atoms: C_82  and  C_83 
REMARK   66  A    between atoms: C_83  and  C_84 
REMARK   67  A    between atoms: C_85  and  C_86 
REMARK   68  A    between atoms: C_86  and  C_87 
REMARK   69  A    between atoms: C_88  and  C_89 
REMARK   70  A    between atoms: C_89  and  C_90 
REMARK   71  A    between atoms: C_90  and  C_91 
REMARK   72  A    between atoms: C_91  and  C_92 
ROOT
HETATM    1 CL   UNL     2     -17.572  -3.649   5.412  1.00  0.00     0.000 Cl
ENDROOT
TORSDOF 72
BEGIN_RES ARG D 557
REMARK  4 active torsions:
REMARK  status: ('A' for Active; 'I' for Inactive)
REMARK    1  A    between atoms: CA   and  CB  
REMARK    2  A    between atoms: CB   and  CG  
REMARK    3  A    between atoms: CG   and  CD  
REMARK    4  A    between atoms: CD   and  NE  
REMARK       I    between atoms: NE   and  CZ  
REMARK       I    between atoms: CZ   and  NH1 
REMARK       I    between atoms: CZ   and  NH2 
ROOT
ATOM      1  CA  ARG D 557     -26.217   2.705 -17.014  1.00 35.49     0.159 C 
ENDROOT
BRANCH   1   2
ATOM      2  CB  ARG D 557     -26.789   1.319 -17.183  1.00 35.49     0.034 C 
BRANCH   2   3
ATOM      3  CG  ARG D 557     -25.840   0.201 -17.121  1.00 35.49     0.027 C 
BRANCH   3   4
ATOM      4  CD  ARG D 557     -24.763   0.429 -16.131  1.00 35.49     0.116 C 
BRANCH   4   5
ATOM      5  NE  ARG D 557     -24.900  -0.417 -14.975  1.00 35.49    -0.212 N 
ATOM      6  CZ  ARG D 557     -24.103  -1.410 -14.651  1.00 35.49     0.666 C 
ATOM      7  NH1 ARG D 557     -23.065  -1.756 -15.389  1.00 35.49    -0.235 N 
ATOM      8  NH2 ARG D 557     -24.367  -2.058 -13.553  1.00 35.49    -0.235 N 
ATOM      9  HH  ARG D 557     -22.871  -1.342 -16.114  1.00 35.49     0.174 HD
ATOM     10  HH  ARG D 557     -22.579  -2.411 -15.126  1.00 35.49     0.174 HD
ATOM     11  HH  ARG D 557     -25.040  -1.808 -13.092  1.00 35.49     0.174 HD
ATOM     12  HH  ARG D 557     -23.873  -2.702 -13.309  1.00 35.49     0.174 HD
ATOM     13  HE  ARG D 557     -25.585  -0.311 -14.482  1.00 35.49     0.178 HD
ENDBRANCH   4   5
ENDBRANCH   3   4
ENDBRANCH   2   3
ENDBRANCH   1   2
END_RES ARG D 557
BEGIN_RES GLU D 570
REMARK  3 active torsions:
REMARK  status: ('A' for Active; 'I' for Inactive)
REMARK    5  A    between atoms: CA   and  CB  
REMARK    6  A    between atoms: CB   and  CG  
REMARK    7  A    between atoms: CG   and  CD  
ROOT
ATOM     14  CA  GLU D 570     -18.033  -6.348 -13.375  1.00 32.92     0.160 C 
ENDROOT
BRANCH  14  15
ATOM     15  CB  GLU D 570     -19.500  -6.345 -13.794  1.00 32.92     0.043 C 
BRANCH  15  16
ATOM     16  CG  GLU D 570     -20.437  -5.511 -12.999  1.00 32.92     0.100 C 
BRANCH  16  17
ATOM     17  CD  GLU D 570     -21.728  -5.216 -13.728  1.00 32.92     0.185 C 
ATOM     18  OE1 GLU D 570     -22.172  -6.054 -14.535  1.00 32.92    -0.647 OA
ATOM     19  OE2 GLU D 570     -22.292  -4.127 -13.501  1.00 32.92    -0.647 OA
ENDBRANCH  16  17
ENDBRANCH  15  16
ENDBRANCH  14  15
END_RES GLU D 570
ENDMDL
MODEL 4
REMARK VINA RESULT:      -1.0      4.426      4.524
REMARK WARNING: 32 MAX_TORS EXCEEDED!!!
REMARK  72 active torsions:
REMARK  status: ('A' for Active; 'I' for Inactive)
REMARK    1  A    between atoms: C_2  and  C_3 
REMARK    2  A    between atoms: C_3  and  C_4 
REMARK    3  A    between atoms: C_4  and  C_5 
REMARK    4  A    between atoms: C_5  and  C_6 
REMARK    5  A    between atoms: C_7  and  C_8 
REMARK    6  A    between atoms: C_8  and  C_9 
REMARK    7  A    between atoms: C_10  and  C_11 
REMARK    8  A    between atoms: C_11  and  C_12 
REMARK    9  A    between atoms: C_12  and  C_13 
REMARK   10  A    between atoms: C_13  and  C_14 
REMARK   11  A    between atoms: C_14  and  C_15 
REMARK   12  A    between atoms: C_15  and  C_16 
REMARK   13  A    between atoms: C_16  and  C_17 
REMARK   14  A    between atoms: C_17  and  C_18 
REMARK       I    between atoms: C_18  and  N_20 
REMARK   15  A    between atoms: N_20  and  C_21 
REMARK   16  A    between atoms: C_21  and  C_22 
REMARK   17  A    between atoms: C_22  and  C_23 
REMARK   18  A    between atoms: C_23  and  N_24 
REMARK   19  A    between atoms: N_24  and  C_27 
REMARK   20  A    between atoms: C_27  and  C_28 
REMARK   21  A    between atoms: C_28  and  C_29 
REMARK   22  A    between atoms: C_28  and  O_95 
REMARK   23  A    between atoms: C_29  and  O_30 
REMARK   24  A    between atoms: O_30  and  P_31 
REMARK   25  A    between atoms: P_31  and  O_33 
REMARK   26  A    between atoms: P_31  and  O_64 
REMARK   27  A    between atoms: O_33  and  C_34 
REMARK   28  A    between atoms: C_34  and  C_35 
REMARK   29  A    between atoms: C_35  and  C_36 
REMARK   30  A    between atoms: C_35  and  O_63 
REMARK   31  A    between atoms: C_36  and  N_37 
REMARK   32  A    between atoms: N_37  and  C_40 
REMARK   33  A    between atoms: C_40  and  C_41 
REMARK   34  A    between atoms: C_41  and  C_42 
REMARK   35  A    between atoms: C_42  and  N_43 
REMARK       I    between atoms: N_43  and  C_44 
REMARK   36  A    between atoms: C_44  and  C_46 
REMARK   37  A    between atoms: C_46  and  C_47 
REMARK   38  A    between atoms: C_47  and  C_48 
REMARK   39  A    between atoms: C_48  and  C_49 
REMARK   40  A    between atoms: C_49  and  C_50 
REMARK   41  A    between atoms: C_50  and  C_51 
REMARK   42  A    between atoms: C_51  and  C_52 
REMARK   43  A    between atoms: C_52  and  C_53 
REMARK   44  A    between atoms: C_54  and  C_55 
REMARK   45  A    between atoms: C_55  and  C_56 
REMARK   46  A    between atoms: C_57  and  C_58 
REMARK   47  A    between atoms: C_58  and  C_59 
REMARK   48  A    between atoms: C_59  and  C_60 
REMARK   49  A    between atoms: C_60  and  C_61 
REMARK   50  A    between atoms: O_64  and  C_65 
REMARK   51  A    between atoms: C_65  and  C_66 
REMARK   52  A    between atoms: C_66  and  C_67 
REMARK   53  A    between atoms: C_66  and  O_94 
REMARK   54  A    between atoms: C_67  and  N_68 
REMARK   55  A    between atoms: N_68  and  C_71 
REMARK   56  A    between atoms: C_71  and  C_72 
REMARK   57  A    between atoms: C_72  and  C_73 
REMARK   58  A    between atoms: C_73  and  N_74 
REMARK       I    between atoms: N_74  and  C_75 
REMARK   59  A    between atoms: C_75  and  C_77 
REMARK   60  A    between atoms: C_77  and  C_78 
REMARK   61  A    between atoms: C_78  and  C_79 
REMARK   62  A    between atoms: C_79  and  C_80 
REMARK   63  A    between atoms: C_80  and  C_81 
REMARK   64  A    between atoms: C_81  and  C_82 
REMARK   65  A    between atoms: C_82  and  C_83 
REMARK   66  A    between atoms: C_83  and  C_84 
REMARK   67  A    between atoms: C_85  and  C_86 
REMARK   68  A    between atoms: C_86  and  C_87 
REMARK   69  A    between atoms: C_88  and  C_89 
REMARK   70  A    between atoms: C_89  and  C_90 
REMARK   71  A    between atoms: C_90  and  C_91 
REMARK   72  A    between atoms: C_91  and  C_92 
ROOT
HETATM    1 CL   UNL     2     -22.263  -6.192  -1.798  1.00  0.00     0.000 Cl
ENDROOT
TORSDOF 72
BEGIN_RES ARG D 557
REMARK  4 active torsions:
REMARK  status: ('A' for Active; 'I' for Inactive)
REMARK    1  A    between atoms: CA   and  CB  
REMARK    2  A    between atoms: CB   and  CG  
REMARK    3  A    between atoms: CG   and  CD  
REMARK    4  A    between atoms: CD   and  NE  
REMARK       I    between atoms: NE   and  CZ  
REMARK       I    between atoms: CZ   and  NH1 
REMARK       I    between atoms: CZ   and  NH2 
ROOT
ATOM      1  CA  ARG D 557     -26.217   2.705 -17.014  1.00 35.49     0.159 C 
ENDROOT
BRANCH   1   2
ATOM      2  CB  ARG D 557     -26.789   1.319 -17.183  1.00 35.49     0.034 C 
BRANCH   2   3
ATOM      3  CG  ARG D 557     -25.835   0.203 -17.160  1.00 35.49     0.027 C 
BRANCH   3   4
ATOM      4  CD  ARG D 557     -24.747   0.411 -16.178  1.00 35.49     0.116 C 
BRANCH   4   5
ATOM      5  NE  ARG D 557     -24.891  -0.433 -15.022  1.00 35.49    -0.212 N 
ATOM      6  CZ  ARG D 557     -24.080  -1.408 -14.677  1.00 35.49     0.666 C 
ATOM      7  NH1 ARG D 557     -23.018  -1.733 -15.391  1.00 35.49    -0.235 N 
ATOM      8  NH2 ARG D 557     -24.353  -2.058 -13.583  1.00 35.49    -0.235 N 
ATOM      9  HH  ARG D 557     -22.818  -1.318 -16.113  1.00 35.49     0.174 HD
ATOM     10  HH  ARG D 557     -22.524  -2.377 -15.115  1.00 35.49     0.174 HD
ATOM     11  HH  ARG D 557     -25.042  -1.821 -13.138  1.00 35.49     0.174 HD
ATOM     12  HH  ARG D 557     -23.851  -2.691 -13.326  1.00 35.49     0.174 HD
ATOM     13  HE  ARG D 557     -25.589  -0.341 -14.544  1.00 35.49     0.178 HD
ENDBRANCH   4   5
ENDBRANCH   3   4
ENDBRANCH   2   3
ENDBRANCH   1   2
END_RES ARG D 557
BEGIN_RES GLU D 570
REMARK  3 active torsions:
REMARK  status: ('A' for Active; 'I' for Inactive)
REMARK    5  A    between atoms: CA   and  CB  
REMARK    6  A    between atoms: CB   and  CG  
REMARK    7  A    between atoms: CG   and  CD  
ROOT
ATOM     14  CA  GLU D 570     -18.033  -6.348 -13.375  1.00 32.92     0.160 C 
ENDROOT
BRANCH  14  15
ATOM     15  CB  GLU D 570     -19.500  -6.345 -13.794  1.00 32.92     0.043 C 
BRANCH  15  16
ATOM     16  CG  GLU D 570     -20.445  -5.545 -12.973  1.00 32.92     0.100 C 
BRANCH  16  17
ATOM     17  CD  GLU D 570     -21.744  -5.252 -13.686  1.00 32.92     0.185 C 
ATOM     18  OE1 GLU D 570     -22.298  -4.151 -13.507  1.00 32.92    -0.647 OA
ATOM     19  OE2 GLU D 570     -22.222  -6.141 -14.419  1.00 32.92    -0.647 OA
ENDBRANCH  16  17
ENDBRANCH  15  16
ENDBRANCH  14  15
END_RES GLU D 570
ENDMDL
MODEL 5
REMARK VINA RESULT:      -0.9      6.929      6.929
REMARK WARNING: 32 MAX_TORS EXCEEDED!!!
REMARK  72 active torsions:
REMARK  status: ('A' for Active; 'I' for Inactive)
REMARK    1  A    between atoms: C_2  and  C_3 
REMARK    2  A    between atoms: C_3  and  C_4 
REMARK    3  A    between atoms: C_4  and  C_5 
REMARK    4  A    between atoms: C_5  and  C_6 
REMARK    5  A    between atoms: C_7  and  C_8 
REMARK    6  A    between atoms: C_8  and  C_9 
REMARK    7  A    between atoms: C_10  and  C_11 
REMARK    8  A    between atoms: C_11  and  C_12 
REMARK    9  A    between atoms: C_12  and  C_13 
REMARK   10  A    between atoms: C_13  and  C_14 
REMARK   11  A    between atoms: C_14  and  C_15 
REMARK   12  A    between atoms: C_15  and  C_16 
REMARK   13  A    between atoms: C_16  and  C_17 
REMARK   14  A    between atoms: C_17  and  C_18 
REMARK       I    between atoms: C_18  and  N_20 
REMARK   15  A    between atoms: N_20  and  C_21 
REMARK   16  A    between atoms: C_21  and  C_22 
REMARK   17  A    between atoms: C_22  and  C_23 
REMARK   18  A    between atoms: C_23  and  N_24 
REMARK   19  A    between atoms: N_24  and  C_27 
REMARK   20  A    between atoms: C_27  and  C_28 
REMARK   21  A    between atoms: C_28  and  C_29 
REMARK   22  A    between atoms: C_28  and  O_95 
REMARK   23  A    between atoms: C_29  and  O_30 
REMARK   24  A    between atoms: O_30  and  P_31 
REMARK   25  A    between atoms: P_31  and  O_33 
REMARK   26  A    between atoms: P_31  and  O_64 
REMARK   27  A    between atoms: O_33  and  C_34 
REMARK   28  A    between atoms: C_34  and  C_35 
REMARK   29  A    between atoms: C_35  and  C_36 
REMARK   30  A    between atoms: C_35  and  O_63 
REMARK   31  A    between atoms: C_36  and  N_37 
REMARK   32  A    between atoms: N_37  and  C_40 
REMARK   33  A    between atoms: C_40  and  C_41 
REMARK   34  A    between atoms: C_41  and  C_42 
REMARK   35  A    between atoms: C_42  and  N_43 
REMARK       I    between atoms: N_43  and  C_44 
REMARK   36  A    between atoms: C_44  and  C_46 
REMARK   37  A    between atoms: C_46  and  C_47 
REMARK   38  A    between atoms: C_47  and  C_48 
REMARK   39  A    between atoms: C_48  and  C_49 
REMARK   40  A    between atoms: C_49  and  C_50 
REMARK   41  A    between atoms: C_50  and  C_51 
REMARK   42  A    between atoms: C_51  and  C_52 
REMARK   43  A    between atoms: C_52  and  C_53 
REMARK   44  A    between atoms: C_54  and  C_55 
REMARK   45  A    between atoms: C_55  and  C_56 
REMARK   46  A    between atoms: C_57  and  C_58 
REMARK   47  A    between atoms: C_58  and  C_59 
REMARK   48  A    between atoms: C_59  and  C_60 
REMARK   49  A    between atoms: C_60  and  C_61 
REMARK   50  A    between atoms: O_64  and  C_65 
REMARK   51  A    between atoms: C_65  and  C_66 
REMARK   52  A    between atoms: C_66  and  C_67 
REMARK   53  A    between atoms: C_66  and  O_94 
REMARK   54  A    between atoms: C_67  and  N_68 
REMARK   55  A    between atoms: N_68  and  C_71 
REMARK   56  A    between atoms: C_71  and  C_72 
REMARK   57  A    between atoms: C_72  and  C_73 
REMARK   58  A    between atoms: C_73  and  N_74 
REMARK       I    between atoms: N_74  and  C_75 
REMARK   59  A    between atoms: C_75  and  C_77 
REMARK   60  A    between atoms: C_77  and  C_78 
REMARK   61  A    between atoms: C_78  and  C_79 
REMARK   62  A    between atoms: C_79  and  C_80 
REMARK   63  A    between atoms: C_80  and  C_81 
REMARK   64  A    between atoms: C_81  and  C_82 
REMARK   65  A    between atoms: C_82  and  C_83 
REMARK   66  A    between atoms: C_83  and  C_84 
REMARK   67  A    between atoms: C_85  and  C_86 
REMARK   68  A    between atoms: C_86  and  C_87 
REMARK   69  A    between atoms: C_88  and  C_89 
REMARK   70  A    between atoms: C_89  and  C_90 
REMARK   71  A    between atoms: C_90  and  C_91 
REMARK   72  A    between atoms: C_91  and  C_92 
ROOT
HETATM    1 CL   UNL     2     -11.833   5.543 -13.166  1.00  0.00     0.000 Cl
ENDROOT
TORSDOF 72
BEGIN_RES ARG D 557
REMARK  4 active torsions:
REMARK  status: ('A' for Active; 'I' for Inactive)
REMARK    1  A    between atoms: CA   and  CB  
REMARK    2  A    between atoms: CB   and  CG  
REMARK    3  A    between atoms: CG   and  CD  
REMARK    4  A    between atoms: CD   and  NE  
REMARK       I    between atoms: NE   and  CZ  
REMARK       I    between atoms: CZ   and  NH1 
REMARK       I    between atoms: CZ   and  NH2 
ROOT
ATOM      1  CA  ARG D 557     -26.217   2.705 -17.014  1.00 35.49     0.159 C 
ENDROOT
BRANCH   1   2
ATOM      2  CB  ARG D 557     -26.789   1.319 -17.183  1.00 35.49     0.034 C 
BRANCH   2   3
ATOM      3  CG  ARG D 557     -25.835   0.203 -17.158  1.00 35.49     0.027 C 
BRANCH   3   4
ATOM      4  CD  ARG D 557     -24.754   0.406 -16.167  1.00 35.49     0.116 C 
BRANCH   4   5
ATOM      5  NE  ARG D 557     -24.909  -0.442 -15.015  1.00 35.49    -0.212 N 
ATOM      6  CZ  ARG D 557     -24.100  -1.417 -14.664  1.00 35.49     0.666 C 
ATOM      7  NH1 ARG D 557     -23.031  -1.738 -15.369  1.00 35.49    -0.235 N 
ATOM      8  NH2 ARG D 557     -24.384  -2.069 -13.575  1.00 35.49    -0.235 N 
ATOM      9  HH  ARG D 557     -22.824  -1.321 -16.088  1.00 35.49     0.174 HD
ATOM     10  HH  ARG D 557     -22.539  -2.382 -15.090  1.00 35.49     0.174 HD
ATOM     11  HH  ARG D 557     -25.076  -1.835 -13.136  1.00 35.49     0.174 HD
ATOM     12  HH  ARG D 557     -23.883  -2.702 -13.315  1.00 35.49     0.174 HD
ATOM     13  HE  ARG D 557     -25.611  -0.352 -14.544  1.00 35.49     0.178 HD
ENDBRANCH   4   5
ENDBRANCH   3   4
ENDBRANCH   2   3
ENDBRANCH   1   2
END_RES ARG D 557
BEGIN_RES GLU D 570
REMARK  3 active torsions:
REMARK  status: ('A' for Active; 'I' for Inactive)
REMARK    5  A    between atoms: CA   and  CB  
REMARK    6  A    between atoms: CB   and  CG  
REMARK    7  A    between atoms: CG   and  CD  
ROOT
ATOM     14  CA  GLU D 570     -18.033  -6.348 -13.375  1.00 32.92     0.160 C 
ENDROOT
BRANCH  14  15
ATOM     15  CB  GLU D 570     -19.500  -6.345 -13.794  1.00 32.92     0.043 C 
BRANCH  15  16
ATOM     16  CG  GLU D 570     -20.441  -5.528 -12.985  1.00 32.92     0.100 C 
BRANCH  16  17
ATOM     17  CD  GLU D 570     -21.726  -5.213 -13.716  1.00 32.92     0.185 C 
ATOM     18  OE1 GLU D 570     -22.150  -6.017 -14.568  1.00 32.92    -0.647 OA
ATOM     19  OE2 GLU D 570     -22.305  -4.143 -13.445  1.00 32.92    -0.647 OA
ENDBRANCH  16  17
ENDBRANCH  15  16
ENDBRANCH  14  15
END_RES GLU D 570
ENDMDL
MODEL 6
REMARK VINA RESULT:      -0.8      4.175      4.175
REMARK WARNING: 32 MAX_TORS EXCEEDED!!!
REMARK  72 active torsions:
REMARK  status: ('A' for Active; 'I' for Inactive)
REMARK    1  A    between atoms: C_2  and  C_3 
REMARK    2  A    between atoms: C_3  and  C_4 
REMARK    3  A    between atoms: C_4  and  C_5 
REMARK    4  A    between atoms: C_5  and  C_6 
REMARK    5  A    between atoms: C_7  and  C_8 
REMARK    6  A    between atoms: C_8  and  C_9 
REMARK    7  A    between atoms: C_10  and  C_11 
REMARK    8  A    between atoms: C_11  and  C_12 
REMARK    9  A    between atoms: C_12  and  C_13 
REMARK   10  A    between atoms: C_13  and  C_14 
REMARK   11  A    between atoms: C_14  and  C_15 
REMARK   12  A    between atoms: C_15  and  C_16 
REMARK   13  A    between atoms: C_16  and  C_17 
REMARK   14  A    between atoms: C_17  and  C_18 
REMARK       I    between atoms: C_18  and  N_20 
REMARK   15  A    between atoms: N_20  and  C_21 
REMARK   16  A    between atoms: C_21  and  C_22 
REMARK   17  A    between atoms: C_22  and  C_23 
REMARK   18  A    between atoms: C_23  and  N_24 
REMARK   19  A    between atoms: N_24  and  C_27 
REMARK   20  A    between atoms: C_27  and  C_28 
REMARK   21  A    between atoms: C_28  and  C_29 
REMARK   22  A    between atoms: C_28  and  O_95 
REMARK   23  A    between atoms: C_29  and  O_30 
REMARK   24  A    between atoms: O_30  and  P_31 
REMARK   25  A    between atoms: P_31  and  O_33 
REMARK   26  A    between atoms: P_31  and  O_64 
REMARK   27  A    between atoms: O_33  and  C_34 
REMARK   28  A    between atoms: C_34  and  C_35 
REMARK   29  A    between atoms: C_35  and  C_36 
REMARK   30  A    between atoms: C_35  and  O_63 
REMARK   31  A    between atoms: C_36  and  N_37 
REMARK   32  A    between atoms: N_37  and  C_40 
REMARK   33  A    between atoms: C_40  and  C_41 
REMARK   34  A    between atoms: C_41  and  C_42 
REMARK   35  A    between atoms: C_42  and  N_43 
REMARK       I    between atoms: N_43  and  C_44 
REMARK   36  A    between atoms: C_44  and  C_46 
REMARK   37  A    between atoms: C_46  and  C_47 
REMARK   38  A    between atoms: C_47  and  C_48 
REMARK   39  A    between atoms: C_48  and  C_49 
REMARK   40  A    between atoms: C_49  and  C_50 
REMARK   41  A    between atoms: C_50  and  C_51 
REMARK   42  A    between atoms: C_51  and  C_52 
REMARK   43  A    between atoms: C_52  and  C_53 
REMARK   44  A    between atoms: C_54  and  C_55 
REMARK   45  A    between atoms: C_55  and  C_56 
REMARK   46  A    between atoms: C_57  and  C_58 
REMARK   47  A    between atoms: C_58  and  C_59 
REMARK   48  A    between atoms: C_59  and  C_60 
REMARK   49  A    between atoms: C_60  and  C_61 
REMARK   50  A    between atoms: O_64  and  C_65 
REMARK   51  A    between atoms: C_65  and  C_66 
REMARK   52  A    between atoms: C_66  and  C_67 
REMARK   53  A    between atoms: C_66  and  O_94 
REMARK   54  A    between atoms: C_67  and  N_68 
REMARK   55  A    between atoms: N_68  and  C_71 
REMARK   56  A    between atoms: C_71  and  C_72 
REMARK   57  A    between atoms: C_72  and  C_73 
REMARK   58  A    between atoms: C_73  and  N_74 
REMARK       I    between atoms: N_74  and  C_75 
REMARK   59  A    between atoms: C_75  and  C_77 
REMARK   60  A    between atoms: C_77  and  C_78 
REMARK   61  A    between atoms: C_78  and  C_79 
REMARK   62  A    between atoms: C_79  and  C_80 
REMARK   63  A    between atoms: C_80  and  C_81 
REMARK   64  A    between atoms: C_81  and  C_82 
REMARK   65  A    between atoms: C_82  and  C_83 
REMARK   66  A    between atoms: C_83  and  C_84 
REMARK   67  A    between atoms: C_85  and  C_86 
REMARK   68  A    between atoms: C_86  and  C_87 
REMARK   69  A    between atoms: C_88  and  C_89 
REMARK   70  A    between atoms: C_89  and  C_90 
REMARK   71  A    between atoms: C_90  and  C_91 
REMARK   72  A    between atoms: C_91  and  C_92 
ROOT
HETATM    1 CL   UNL     2     -30.394 -14.239 -18.827  1.00  0.00     0.000 Cl
ENDROOT
TORSDOF 72
BEGIN_RES ARG D 557
REMARK  4 active torsions:
REMARK  status: ('A' for Active; 'I' for Inactive)
REMARK    1  A    between atoms: CA   and  CB  
REMARK    2  A    between atoms: CB   and  CG  
REMARK    3  A    between atoms: CG   and  CD  
REMARK    4  A    between atoms: CD   and  NE  
REMARK       I    between atoms: NE   and  CZ  
REMARK       I    between atoms: CZ   and  NH1 
REMARK       I    between atoms: CZ   and  NH2 
ROOT
ATOM      1  CA  ARG D 557     -26.217   2.705 -17.014  1.00 35.49     0.159 C 
ENDROOT
BRANCH   1   2
ATOM      2  CB  ARG D 557     -26.789   1.319 -17.183  1.00 35.49     0.034 C 
BRANCH   2   3
ATOM      3  CG  ARG D 557     -25.834   0.204 -17.173  1.00 35.49     0.027 C 
BRANCH   3   4
ATOM      4  CD  ARG D 557     -24.745   0.403 -16.190  1.00 35.49     0.116 C 
BRANCH   4   5
ATOM      5  NE  ARG D 557     -24.899  -0.440 -15.033  1.00 35.49    -0.212 N 
ATOM      6  CZ  ARG D 557     -24.084  -1.406 -14.673  1.00 35.49     0.666 C 
ATOM      7  NH1 ARG D 557     -23.009  -1.724 -15.370  1.00 35.49    -0.235 N 
ATOM      8  NH2 ARG D 557     -24.368  -2.055 -13.581  1.00 35.49    -0.235 N 
ATOM      9  HH  ARG D 557     -22.802  -1.310 -16.091  1.00 35.49     0.174 HD
ATOM     10  HH  ARG D 557     -22.513  -2.362 -15.086  1.00 35.49     0.174 HD
ATOM     11  HH  ARG D 557     -25.065  -1.822 -13.147  1.00 35.49     0.174 HD
ATOM     12  HH  ARG D 557     -23.864  -2.682 -13.315  1.00 35.49     0.174 HD
ATOM     13  HE  ARG D 557     -25.604  -0.352 -14.566  1.00 35.49     0.178 HD
ENDBRANCH   4   5
ENDBRANCH   3   4
ENDBRANCH   2   3
ENDBRANCH   1   2
END_RES ARG D 557
BEGIN_RES GLU D 570
REMARK  3 active torsions:
REMARK  status: ('A' for Active; 'I' for Inactive)
REMARK    5  A    between atoms: CA   and  CB  
REMARK    6  A    between atoms: CB   and  CG  
REMARK    7  A    between atoms: CG   and  CD  
ROOT
ATOM     14  CA  GLU D 570     -18.033  -6.348 -13.375  1.00 32.92     0.160 C 
ENDROOT
BRANCH  14  15
ATOM     15  CB  GLU D 570     -19.500  -6.345 -13.794  1.00 32.92     0.043 C 
BRANCH  15  16
ATOM     16  CG  GLU D 570     -20.440  -5.521 -12.991  1.00 32.92     0.100 C 
BRANCH  16  17
ATOM     17  CD  GLU D 570     -21.750  -5.263 -13.698  1.00 32.92     0.185 C 
ATOM     18  OE1 GLU D 570     -22.213  -6.140 -14.452  1.00 32.92    -0.647 OA
ATOM     19  OE2 GLU D 570     -22.310  -4.165 -13.508  1.00 32.92    -0.647 OA
ENDBRANCH  16  17
ENDBRANCH  15  16
ENDBRANCH  14  15
END_RES GLU D 570
ENDMDL
MODEL 7
REMARK VINA RESULT:      -0.8      3.479      3.602
REMARK WARNING: 32 MAX_TORS EXCEEDED!!!
REMARK  72 active torsions:
REMARK  status: ('A' for Active; 'I' for Inactive)
REMARK    1  A    between atoms: C_2  and  C_3 
REMARK    2  A    between atoms: C_3  and  C_4 
REMARK    3  A    between atoms: C_4  and  C_5 
REMARK    4  A    between atoms: C_5  and  C_6 
REMARK    5  A    between atoms: C_7  and  C_8 
REMARK    6  A    between atoms: C_8  and  C_9 
REMARK    7  A    between atoms: C_10  and  C_11 
REMARK    8  A    between atoms: C_11  and  C_12 
REMARK    9  A    between atoms: C_12  and  C_13 
REMARK   10  A    between atoms: C_13  and  C_14 
REMARK   11  A    between atoms: C_14  and  C_15 
REMARK   12  A    between atoms: C_15  and  C_16 
REMARK   13  A    between atoms: C_16  and  C_17 
REMARK   14  A    between atoms: C_17  and  C_18 
REMARK       I    between atoms: C_18  and  N_20 
REMARK   15  A    between atoms: N_20  and  C_21 
REMARK   16  A    between atoms: C_21  and  C_22 
REMARK   17  A    between atoms: C_22  and  C_23 
REMARK   18  A    between atoms: C_23  and  N_24 
REMARK   19  A    between atoms: N_24  and  C_27 
REMARK   20  A    between atoms: C_27  and  C_28 
REMARK   21  A    between atoms: C_28  and  C_29 
REMARK   22  A    between atoms: C_28  and  O_95 
REMARK   23  A    between atoms: C_29  and  O_30 
REMARK   24  A    between atoms: O_30  and  P_31 
REMARK   25  A    between atoms: P_31  and  O_33 
REMARK   26  A    between atoms: P_31  and  O_64 
REMARK   27  A    between atoms: O_33  and  C_34 
REMARK   28  A    between atoms: C_34  and  C_35 
REMARK   29  A    between atoms: C_35  and  C_36 
REMARK   30  A    between atoms: C_35  and  O_63 
REMARK   31  A    between atoms: C_36  and  N_37 
REMARK   32  A    between atoms: N_37  and  C_40 
REMARK   33  A    between atoms: C_40  and  C_41 
REMARK   34  A    between atoms: C_41  and  C_42 
REMARK   35  A    between atoms: C_42  and  N_43 
REMARK       I    between atoms: N_43  and  C_44 
REMARK   36  A    between atoms: C_44  and  C_46 
REMARK   37  A    between atoms: C_46  and  C_47 
REMARK   38  A    between atoms: C_47  and  C_48 
REMARK   39  A    between atoms: C_48  and  C_49 
REMARK   40  A    between atoms: C_49  and  C_50 
REMARK   41  A    between atoms: C_50  and  C_51 
REMARK   42  A    between atoms: C_51  and  C_52 
REMARK   43  A    between atoms: C_52  and  C_53 
REMARK   44  A    between atoms: C_54  and  C_55 
REMARK   45  A    between atoms: C_55  and  C_56 
REMARK   46  A    between atoms: C_57  and  C_58 
REMARK   47  A    between atoms: C_58  and  C_59 
REMARK   48  A    between atoms: C_59  and  C_60 
REMARK   49  A    between atoms: C_60  and  C_61 
REMARK   50  A    between atoms: O_64  and  C_65 
REMARK   51  A    between atoms: C_65  and  C_66 
REMARK   52  A    between atoms: C_66  and  C_67 
REMARK   53  A    between atoms: C_66  and  O_94 
REMARK   54  A    between atoms: C_67  and  N_68 
REMARK   55  A    between atoms: N_68  and  C_71 
REMARK   56  A    between atoms: C_71  and  C_72 
REMARK   57  A    between atoms: C_72  and  C_73 
REMARK   58  A    between atoms: C_73  and  N_74 
REMARK       I    between atoms: N_74  and  C_75 
REMARK   59  A    between atoms: C_75  and  C_77 
REMARK   60  A    between atoms: C_77  and  C_78 
REMARK   61  A    between atoms: C_78  and  C_79 
REMARK   62  A    between atoms: C_79  and  C_80 
REMARK   63  A    between atoms: C_80  and  C_81 
REMARK   64  A    between atoms: C_81  and  C_82 
REMARK   65  A    between atoms: C_82  and  C_83 
REMARK   66  A    between atoms: C_83  and  C_84 
REMARK   67  A    between atoms: C_85  and  C_86 
REMARK   68  A    between atoms: C_86  and  C_87 
REMARK   69  A    between atoms: C_88  and  C_89 
REMARK   70  A    between atoms: C_89  and  C_90 
REMARK   71  A    between atoms: C_90  and  C_91 
REMARK   72  A    between atoms: C_91  and  C_92 
ROOT
HETATM    1 CL   UNL     2     -25.782   5.795  -9.584  1.00  0.00     0.000 Cl
ENDROOT
TORSDOF 72
BEGIN_RES ARG D 557
REMARK  4 active torsions:
REMARK  status: ('A' for Active; 'I' for Inactive)
REMARK    1  A    between atoms: CA   and  CB  
REMARK    2  A    between atoms: CB   and  CG  
REMARK    3  A    between atoms: CG   and  CD  
REMARK    4  A    between atoms: CD   and  NE  
REMARK       I    between atoms: NE   and  CZ  
REMARK       I    between atoms: CZ   and  NH1 
REMARK       I    between atoms: CZ   and  NH2 
ROOT
ATOM      1  CA  ARG D 557     -26.217   2.705 -17.014  1.00 35.49     0.159 C 
ENDROOT
BRANCH   1   2
ATOM      2  CB  ARG D 557     -26.789   1.319 -17.183  1.00 35.49     0.034 C 
BRANCH   2   3
ATOM      3  CG  ARG D 557     -25.835   0.204 -17.165  1.00 35.49     0.027 C 
BRANCH   3   4
ATOM      4  CD  ARG D 557     -24.742   0.411 -16.187  1.00 35.49     0.116 C 
BRANCH   4   5
ATOM      5  NE  ARG D 557     -24.889  -0.426 -15.026  1.00 35.49    -0.212 N 
ATOM      6  CZ  ARG D 557     -24.077  -1.397 -14.672  1.00 35.49     0.666 C 
ATOM      7  NH1 ARG D 557     -23.012  -1.725 -15.380  1.00 35.49    -0.235 N 
ATOM      8  NH2 ARG D 557     -24.352  -2.040 -13.574  1.00 35.49    -0.235 N 
ATOM      9  HH  ARG D 557     -22.811  -1.314 -16.105  1.00 35.49     0.174 HD
ATOM     10  HH  ARG D 557     -22.518  -2.366 -15.099  1.00 35.49     0.174 HD
ATOM     11  HH  ARG D 557     -25.042  -1.801 -13.133  1.00 35.49     0.174 HD
ATOM     12  HH  ARG D 557     -23.849  -2.670 -13.311  1.00 35.49     0.174 HD
ATOM     13  HE  ARG D 557     -25.588  -0.332 -14.551  1.00 35.49     0.178 HD
ENDBRANCH   4   5
ENDBRANCH   3   4
ENDBRANCH   2   3
ENDBRANCH   1   2
END_RES ARG D 557
BEGIN_RES GLU D 570
REMARK  3 active torsions:
REMARK  status: ('A' for Active; 'I' for Inactive)
REMARK    5  A    between atoms: CA   and  CB  
REMARK    6  A    between atoms: CB   and  CG  
REMARK    7  A    between atoms: CG   and  CD  
ROOT
ATOM     14  CA  GLU D 570     -18.033  -6.348 -13.375  1.00 32.92     0.160 C 
ENDROOT
BRANCH  14  15
ATOM     15  CB  GLU D 570     -19.500  -6.345 -13.794  1.00 32.92     0.043 C 
BRANCH  15  16
ATOM     16  CG  GLU D 570     -20.438  -5.512 -12.997  1.00 32.92     0.100 C 
BRANCH  16  17
ATOM     17  CD  GLU D 570     -21.744  -5.250 -13.710  1.00 32.92     0.185 C 
ATOM     18  OE1 GLU D 570     -22.317  -4.157 -13.539  1.00 32.92    -0.647 OA
ATOM     19  OE2 GLU D 570     -22.207  -6.153 -14.434  1.00 32.92    -0.647 OA
ENDBRANCH  16  17
ENDBRANCH  15  16
ENDBRANCH  14  15
END_RES GLU D 570
ENDMDL
MODEL 8
REMARK VINA RESULT:      -0.8      3.487      3.573
REMARK WARNING: 32 MAX_TORS EXCEEDED!!!
REMARK  72 active torsions:
REMARK  status: ('A' for Active; 'I' for Inactive)
REMARK    1  A    between atoms: C_2  and  C_3 
REMARK    2  A    between atoms: C_3  and  C_4 
REMARK    3  A    between atoms: C_4  and  C_5 
REMARK    4  A    between atoms: C_5  and  C_6 
REMARK    5  A    between atoms: C_7  and  C_8 
REMARK    6  A    between atoms: C_8  and  C_9 
REMARK    7  A    between atoms: C_10  and  C_11 
REMARK    8  A    between atoms: C_11  and  C_12 
REMARK    9  A    between atoms: C_12  and  C_13 
REMARK   10  A    between atoms: C_13  and  C_14 
REMARK   11  A    between atoms: C_14  and  C_15 
REMARK   12  A    between atoms: C_15  and  C_16 
REMARK   13  A    between atoms: C_16  and  C_17 
REMARK   14  A    between atoms: C_17  and  C_18 
REMARK       I    between atoms: C_18  and  N_20 
REMARK   15  A    between atoms: N_20  and  C_21 
REMARK   16  A    between atoms: C_21  and  C_22 
REMARK   17  A    between atoms: C_22  and  C_23 
REMARK   18  A    between atoms: C_23  and  N_24 
REMARK   19  A    between atoms: N_24  and  C_27 
REMARK   20  A    between atoms: C_27  and  C_28 
REMARK   21  A    between atoms: C_28  and  C_29 
REMARK   22  A    between atoms: C_28  and  O_95 
REMARK   23  A    between atoms: C_29  and  O_30 
REMARK   24  A    between atoms: O_30  and  P_31 
REMARK   25  A    between atoms: P_31  and  O_33 
REMARK   26  A    between atoms: P_31  and  O_64 
REMARK   27  A    between atoms: O_33  and  C_34 
REMARK   28  A    between atoms: C_34  and  C_35 
REMARK   29  A    between atoms: C_35  and  C_36 
REMARK   30  A    between atoms: C_35  and  O_63 
REMARK   31  A    between atoms: C_36  and  N_37 
REMARK   32  A    between atoms: N_37  and  C_40 
REMARK   33  A    between atoms: C_40  and  C_41 
REMARK   34  A    between atoms: C_41  and  C_42 
REMARK   35  A    between atoms: C_42  and  N_43 
REMARK       I    between atoms: N_43  and  C_44 
REMARK   36  A    between atoms: C_44  and  C_46 
REMARK   37  A    between atoms: C_46  and  C_47 
REMARK   38  A    between atoms: C_47  and  C_48 
REMARK   39  A    between atoms: C_48  and  C_49 
REMARK   40  A    between atoms: C_49  and  C_50 
REMARK   41  A    between atoms: C_50  and  C_51 
REMARK   42  A    between atoms: C_51  and  C_52 
REMARK   43  A    between atoms: C_52  and  C_53 
REMARK   44  A    between atoms: C_54  and  C_55 
REMARK   45  A    between atoms: C_55  and  C_56 
REMARK   46  A    between atoms: C_57  and  C_58 
REMARK   47  A    between atoms: C_58  and  C_59 
REMARK   48  A    between atoms: C_59  and  C_60 
REMARK   49  A    between atoms: C_60  and  C_61 
REMARK   50  A    between atoms: O_64  and  C_65 
REMARK   51  A    between atoms: C_65  and  C_66 
REMARK   52  A    between atoms: C_66  and  C_67 
REMARK   53  A    between atoms: C_66  and  O_94 
REMARK   54  A    between atoms: C_67  and  N_68 
REMARK   55  A    between atoms: N_68  and  C_71 
REMARK   56  A    between atoms: C_71  and  C_72 
REMARK   57  A    between atoms: C_72  and  C_73 
REMARK   58  A    between atoms: C_73  and  N_74 
REMARK       I    between atoms: N_74  and  C_75 
REMARK   59  A    between atoms: C_75  and  C_77 
REMARK   60  A    between atoms: C_77  and  C_78 
REMARK   61  A    between atoms: C_78  and  C_79 
REMARK   62  A    between atoms: C_79  and  C_80 
REMARK   63  A    between atoms: C_80  and  C_81 
REMARK   64  A    between atoms: C_81  and  C_82 
REMARK   65  A    between atoms: C_82  and  C_83 
REMARK   66  A    between atoms: C_83  and  C_84 
REMARK   67  A    between atoms: C_85  and  C_86 
REMARK   68  A    between atoms: C_86  and  C_87 
REMARK   69  A    between atoms: C_88  and  C_89 
REMARK   70  A    between atoms: C_89  and  C_90 
REMARK   71  A    between atoms: C_90  and  C_91 
REMARK   72  A    between atoms: C_91  and  C_92 
ROOT
HETATM    1 CL   UNL     2     -29.853   7.479 -12.758  1.00  0.00     0.000 Cl
ENDROOT
TORSDOF 72
BEGIN_RES ARG D 557
REMARK  4 active torsions:
REMARK  status: ('A' for Active; 'I' for Inactive)
REMARK    1  A    between atoms: CA   and  CB  
REMARK    2  A    between atoms: CB   and  CG  
REMARK    3  A    between atoms: CG   and  CD  
REMARK    4  A    between atoms: CD   and  NE  
REMARK       I    between atoms: NE   and  CZ  
REMARK       I    between atoms: CZ   and  NH1 
REMARK       I    between atoms: CZ   and  NH2 
ROOT
ATOM      1  CA  ARG D 557     -26.217   2.705 -17.014  1.00 35.49     0.159 C 
ENDROOT
BRANCH   1   2
ATOM      2  CB  ARG D 557     -26.789   1.319 -17.183  1.00 35.49     0.034 C 
BRANCH   2   3
ATOM      3  CG  ARG D 557     -25.864   0.195 -16.995  1.00 35.49     0.027 C 
BRANCH   3   4
ATOM      4  CD  ARG D 557     -26.285  -0.704 -15.896  1.00 35.49     0.116 C 
BRANCH   4   5
ATOM      5  NE  ARG D 557     -25.233  -0.918 -14.937  1.00 35.49    -0.212 N 
ATOM      6  CZ  ARG D 557     -24.942  -2.062 -14.358  1.00 35.49     0.666 C 
ATOM      7  NH1 ARG D 557     -25.620  -3.169 -14.596  1.00 35.49    -0.235 N 
ATOM      8  NH2 ARG D 557     -23.939  -2.077 -13.529  1.00 35.49    -0.235 N 
ATOM      9  HH  ARG D 557     -26.282  -3.183 -15.140  1.00 35.49     0.174 HD
ATOM     10  HH  ARG D 557     -25.383  -3.886 -14.191  1.00 35.49     0.174 HD
ATOM     11  HH  ARG D 557     -23.515  -1.348 -13.401  1.00 35.49     0.174 HD
ATOM     12  HH  ARG D 557     -23.719  -2.797 -13.139  1.00 35.49     0.174 HD
ATOM     13  HE  ARG D 557     -24.791  -0.242 -14.671  1.00 35.49     0.178 HD
ENDBRANCH   4   5
ENDBRANCH   3   4
ENDBRANCH   2   3
ENDBRANCH   1   2
END_RES ARG D 557
BEGIN_RES GLU D 570
REMARK  3 active torsions:
REMARK  status: ('A' for Active; 'I' for Inactive)
REMARK    5  A    between atoms: CA   and  CB  
REMARK    6  A    between atoms: CB   and  CG  
REMARK    7  A    between atoms: CG   and  CD  
ROOT
ATOM     14  CA  GLU D 570     -18.033  -6.348 -13.375  1.00 32.92     0.160 C 
ENDROOT
BRANCH  14  15
ATOM     15  CB  GLU D 570     -19.500  -6.345 -13.794  1.00 32.92     0.043 C 
BRANCH  15  16
ATOM     16  CG  GLU D 570     -20.448  -5.561 -12.961  1.00 32.92     0.100 C 
BRANCH  16  17
ATOM     17  CD  GLU D 570     -21.674  -5.117 -13.724  1.00 32.92     0.185 C 
ATOM     18  OE1 GLU D 570     -21.608  -5.002 -14.963  1.00 32.92    -0.647 OA
ATOM     19  OE2 GLU D 570     -22.708  -4.864 -13.073  1.00 32.92    -0.647 OA
ENDBRANCH  16  17
ENDBRANCH  15  16
ENDBRANCH  14  15
END_RES GLU D 570
ENDMDL
MODEL 9
REMARK VINA RESULT:      -0.7      8.770      8.770
REMARK WARNING: 32 MAX_TORS EXCEEDED!!!
REMARK  72 active torsions:
REMARK  status: ('A' for Active; 'I' for Inactive)
REMARK    1  A    between atoms: C_2  and  C_3 
REMARK    2  A    between atoms: C_3  and  C_4 
REMARK    3  A    between atoms: C_4  and  C_5 
REMARK    4  A    between atoms: C_5  and  C_6 
REMARK    5  A    between atoms: C_7  and  C_8 
REMARK    6  A    between atoms: C_8  and  C_9 
REMARK    7  A    between atoms: C_10  and  C_11 
REMARK    8  A    between atoms: C_11  and  C_12 
REMARK    9  A    between atoms: C_12  and  C_13 
REMARK   10  A    between atoms: C_13  and  C_14 
REMARK   11  A    between atoms: C_14  and  C_15 
REMARK   12  A    between atoms: C_15  and  C_16 
REMARK   13  A    between atoms: C_16  and  C_17 
REMARK   14  A    between atoms: C_17  and  C_18 
REMARK       I    between atoms: C_18  and  N_20 
REMARK   15  A    between atoms: N_20  and  C_21 
REMARK   16  A    between atoms: C_21  and  C_22 
REMARK   17  A    between atoms: C_22  and  C_23 
REMARK   18  A    between atoms: C_23  and  N_24 
REMARK   19  A    between atoms: N_24  and  C_27 
REMARK   20  A    between atoms: C_27  and  C_28 
REMARK   21  A    between atoms: C_28  and  C_29 
REMARK   22  A    between atoms: C_28  and  O_95 
REMARK   23  A    between atoms: C_29  and  O_30 
REMARK   24  A    between atoms: O_30  and  P_31 
REMARK   25  A    between atoms: P_31  and  O_33 
REMARK   26  A    between atoms: P_31  and  O_64 
REMARK   27  A    between atoms: O_33  and  C_34 
REMARK   28  A    between atoms: C_34  and  C_35 
REMARK   29  A    between atoms: C_35  and  C_36 
REMARK   30  A    between atoms: C_35  and  O_63 
REMARK   31  A    between atoms: C_36  and  N_37 
REMARK   32  A    between atoms: N_37  and  C_40 
REMARK   33  A    between atoms: C_40  and  C_41 
REMARK   34  A    between atoms: C_41  and  C_42 
REMARK   35  A    between atoms: C_42  and  N_43 
REMARK       I    between atoms: N_43  and  C_44 
REMARK   36  A    between atoms: C_44  and  C_46 
REMARK   37  A    between atoms: C_46  and  C_47 
REMARK   38  A    between atoms: C_47  and  C_48 
REMARK   39  A    between atoms: C_48  and  C_49 
REMARK   40  A    between atoms: C_49  and  C_50 
REMARK   41  A    between atoms: C_50  and  C_51 
REMARK   42  A    between atoms: C_51  and  C_52 
REMARK   43  A    between atoms: C_52  and  C_53 
REMARK   44  A    between atoms: C_54  and  C_55 
REMARK   45  A    between atoms: C_55  and  C_56 
REMARK   46  A    between atoms: C_57  and  C_58 
REMARK   47  A    between atoms: C_58  and  C_59 
REMARK   48  A    between atoms: C_59  and  C_60 
REMARK   49  A    between atoms: C_60  and  C_61 
REMARK   50  A    between atoms: O_64  and  C_65 
REMARK   51  A    between atoms: C_65  and  C_66 
REMARK   52  A    between atoms: C_66  and  C_67 
REMARK   53  A    between atoms: C_66  and  O_94 
REMARK   54  A    between atoms: C_67  and  N_68 
REMARK   55  A    between atoms: N_68  and  C_71 
REMARK   56  A    between atoms: C_71  and  C_72 
REMARK   57  A    between atoms: C_72  and  C_73 
REMARK   58  A    between atoms: C_73  and  N_74 
REMARK       I    between atoms: N_74  and  C_75 
REMARK   59  A    between atoms: C_75  and  C_77 
REMARK   60  A    between atoms: C_77  and  C_78 
REMARK   61  A    between atoms: C_78  and  C_79 
REMARK   62  A    between atoms: C_79  and  C_80 
REMARK   63  A    between atoms: C_80  and  C_81 
REMARK   64  A    between atoms: C_81  and  C_82 
REMARK   65  A    between atoms: C_82  and  C_83 
REMARK   66  A    between atoms: C_83  and  C_84 
REMARK   67  A    between atoms: C_85  and  C_86 
REMARK   68  A    between atoms: C_86  and  C_87 
REMARK   69  A    between atoms: C_88  and  C_89 
REMARK   70  A    between atoms: C_89  and  C_90 
REMARK   71  A    between atoms: C_90  and  C_91 
REMARK   72  A    between atoms: C_91  and  C_92 
ROOT
HETATM    1 CL   UNL     2     -12.910   9.080   5.908  1.00  0.00     0.000 Cl
ENDROOT
TORSDOF 72
BEGIN_RES ARG D 557
REMARK  4 active torsions:
REMARK  status: ('A' for Active; 'I' for Inactive)
REMARK    1  A    between atoms: CA   and  CB  
REMARK    2  A    between atoms: CB   and  CG  
REMARK    3  A    between atoms: CG   and  CD  
REMARK    4  A    between atoms: CD   and  NE  
REMARK       I    between atoms: NE   and  CZ  
REMARK       I    between atoms: CZ   and  NH1 
REMARK       I    between atoms: CZ   and  NH2 
ROOT
ATOM      1  CA  ARG D 557     -26.217   2.705 -17.014  1.00 35.49     0.159 C 
ENDROOT
BRANCH   1   2
ATOM      2  CB  ARG D 557     -26.789   1.319 -17.183  1.00 35.49     0.034 C 
BRANCH   2   3
ATOM      3  CG  ARG D 557     -25.834   0.204 -17.168  1.00 35.49     0.027 C 
BRANCH   3   4
ATOM      4  CD  ARG D 557     -24.770   0.386 -16.155  1.00 35.49     0.116 C 
BRANCH   4   5
ATOM      5  NE  ARG D 557     -24.952  -0.476 -15.017  1.00 35.49    -0.212 N 
ATOM      6  CZ  ARG D 557     -24.150  -1.453 -14.657  1.00 35.49     0.666 C 
ATOM      7  NH1 ARG D 557     -23.062  -1.764 -15.337  1.00 35.49    -0.235 N 
ATOM      8  NH2 ARG D 557     -24.459  -2.119 -13.582  1.00 35.49    -0.235 N 
ATOM      9  HH  ARG D 557     -22.838  -1.338 -16.046  1.00 35.49     0.174 HD
ATOM     10  HH  ARG D 557     -22.575  -2.409 -15.053  1.00 35.49     0.174 HD
ATOM     11  HH  ARG D 557     -25.164  -1.891 -13.159  1.00 35.49     0.174 HD
ATOM     12  HH  ARG D 557     -23.964  -2.753 -13.317  1.00 35.49     0.174 HD
ATOM     13  HE  ARG D 557     -25.667  -0.393 -14.563  1.00 35.49     0.178 HD
ENDBRANCH   4   5
ENDBRANCH   3   4
ENDBRANCH   2   3
ENDBRANCH   1   2
END_RES ARG D 557
BEGIN_RES GLU D 570
REMARK  3 active torsions:
REMARK  status: ('A' for Active; 'I' for Inactive)
REMARK    5  A    between atoms: CA   and  CB  
REMARK    6  A    between atoms: CB   and  CG  
REMARK    7  A    between atoms: CG   and  CD  
ROOT
ATOM     14  CA  GLU D 570     -18.033  -6.348 -13.375  1.00 32.92     0.160 C 
ENDROOT
BRANCH  14  15
ATOM     15  CB  GLU D 570     -19.500  -6.345 -13.794  1.00 32.92     0.043 C 
BRANCH  15  16
ATOM     16  CG  GLU D 570     -20.442  -5.532 -12.982  1.00 32.92     0.100 C 
BRANCH  16  17
ATOM     17  CD  GLU D 570     -21.631  -5.042 -13.775  1.00 32.92     0.185 C 
ATOM     18  OE1 GLU D 570     -21.867  -5.549 -14.888  1.00 32.92    -0.647 OA
ATOM     19  OE2 GLU D 570     -22.325  -4.129 -13.284  1.00 32.92    -0.647 OA
ENDBRANCH  16  17
ENDBRANCH  15  16
ENDBRANCH  14  15
END_RES GLU D 570
ENDMDL
