MODEL 1
REMARK VINA RESULT:      -1.3      0.000      0.000
REMARK  16 active torsions:
REMARK  status: ('A' for Active; 'I' for Inactive)
REMARK    1  A    between atoms: C_2  and  C_3 
REMARK    2  A    between atoms: C_3  and  C_4 
REMARK    3  A    between atoms: C_4  and  C_5 
REMARK    4  A    between atoms: C_5  and  C_6 
REMARK    5  A    between atoms: C_6  and  C_7 
REMARK    6  A    between atoms: C_7  and  C_8 
REMARK    7  A    between atoms: C_8  and  C_9 
REMARK    8  A    between atoms: C_9  and  C_10 
REMARK    9  A    between atoms: C_10  and  C_11 
REMARK   10  A    between atoms: C_11  and  C_12 
REMARK   11  A    between atoms: C_12  and  O_14 
REMARK   12  A    between atoms: O_14  and  C_15 
REMARK   13  A    between atoms: C_15  and  C_17 
REMARK   14  A    between atoms: C_17  and  O_19 
REMARK   15  A    between atoms: O_19  and  C_20 
REMARK   16  A    between atoms: C_20  and  C_22 
ROOT
HETATM    1 NA   UNL     2     -32.349  -8.545   4.538  1.00  0.00     0.000 Na
ENDROOT
TORSDOF 16
BEGIN_RES ARG D 557
REMARK  4 active torsions:
REMARK  status: ('A' for Active; 'I' for Inactive)
REMARK    1  A    between atoms: CA   and  CB  
REMARK    2  A    between atoms: CB   and  CG  
REMARK    3  A    between atoms: CG   and  CD  
REMARK    4  A    between atoms: CD   and  NE  
REMARK       I    between atoms: NE   and  CZ  
REMARK       I    between atoms: CZ   and  NH1 
REMARK       I    between atoms: CZ   and  NH2 
ROOT
ATOM      1  CA  ARG D 557     -26.217   2.705 -17.014  1.00 35.49     0.159 C 
ENDROOT
BRANCH   1   2
ATOM      2  CB  ARG D 557     -26.789   1.319 -17.183  1.00 35.49     0.034 C 
BRANCH   2   3
ATOM      3  CG  ARG D 557     -25.836   0.203 -17.152  1.00 35.49     0.027 C 
BRANCH   3   4
ATOM      4  CD  ARG D 557     -24.754   0.413 -16.163  1.00 35.49     0.116 C 
BRANCH   4   5
ATOM      5  NE  ARG D 557     -24.897  -0.440 -15.012  1.00 35.49    -0.212 N 
ATOM      6  CZ  ARG D 557     -24.081  -1.411 -14.669  1.00 35.49     0.666 C 
ATOM      7  NH1 ARG D 557     -23.013  -1.724 -15.380  1.00 35.49    -0.235 N 
ATOM      8  NH2 ARG D 557     -24.354  -2.068 -13.580  1.00 35.49    -0.235 N 
ATOM      9  HH  ARG D 557     -22.813  -1.303 -16.099  1.00 35.49     0.174 HD
ATOM     10  HH  ARG D 557     -22.515  -2.365 -15.106  1.00 35.49     0.174 HD
ATOM     11  HH  ARG D 557     -25.046  -1.839 -13.137  1.00 35.49     0.174 HD
ATOM     12  HH  ARG D 557     -23.848  -2.699 -13.324  1.00 35.49     0.174 HD
ATOM     13  HE  ARG D 557     -25.597  -0.355 -14.538  1.00 35.49     0.178 HD
ENDBRANCH   4   5
ENDBRANCH   3   4
ENDBRANCH   2   3
ENDBRANCH   1   2
END_RES ARG D 557
BEGIN_RES GLU D 570
REMARK  3 active torsions:
REMARK  status: ('A' for Active; 'I' for Inactive)
REMARK    5  A    between atoms: CA   and  CB  
REMARK    6  A    between atoms: CB   and  CG  
REMARK    7  A    between atoms: CG   and  CD  
ROOT
ATOM     14  CA  GLU D 570     -18.033  -6.348 -13.375  1.00 32.92     0.160 C 
ENDROOT
BRANCH  14  15
ATOM     15  CB  GLU D 570     -19.500  -6.345 -13.794  1.00 32.92     0.043 C 
BRANCH  15  16
ATOM     16  CG  GLU D 570     -20.446  -5.549 -12.970  1.00 32.92     0.100 C 
BRANCH  16  17
ATOM     17  CD  GLU D 570     -21.740  -5.244 -13.687  1.00 32.92     0.185 C 
ATOM     18  OE1 GLU D 570     -22.268  -4.126 -13.533  1.00 32.92    -0.647 OA
ATOM     19  OE2 GLU D 570     -22.240  -6.138 -14.397  1.00 32.92    -0.647 OA
ENDBRANCH  16  17
ENDBRANCH  15  16
ENDBRANCH  14  15
END_RES GLU D 570
ENDMDL
MODEL 2
REMARK VINA RESULT:      -1.1      3.693      3.809
REMARK  16 active torsions:
REMARK  status: ('A' for Active; 'I' for Inactive)
REMARK    1  A    between atoms: C_2  and  C_3 
REMARK    2  A    between atoms: C_3  and  C_4 
REMARK    3  A    between atoms: C_4  and  C_5 
REMARK    4  A    between atoms: C_5  and  C_6 
REMARK    5  A    between atoms: C_6  and  C_7 
REMARK    6  A    between atoms: C_7  and  C_8 
REMARK    7  A    between atoms: C_8  and  C_9 
REMARK    8  A    between atoms: C_9  and  C_10 
REMARK    9  A    between atoms: C_10  and  C_11 
REMARK   10  A    between atoms: C_11  and  C_12 
REMARK   11  A    between atoms: C_12  and  O_14 
REMARK   12  A    between atoms: O_14  and  C_15 
REMARK   13  A    between atoms: C_15  and  C_17 
REMARK   14  A    between atoms: C_17  and  O_19 
REMARK   15  A    between atoms: O_19  and  C_20 
REMARK   16  A    between atoms: C_20  and  C_22 
ROOT
HETATM    1 NA   UNL     2     -25.282  -5.283  -4.920  1.00  0.00     0.000 Na
ENDROOT
TORSDOF 16
BEGIN_RES ARG D 557
REMARK  4 active torsions:
REMARK  status: ('A' for Active; 'I' for Inactive)
REMARK    1  A    between atoms: CA   and  CB  
REMARK    2  A    between atoms: CB   and  CG  
REMARK    3  A    between atoms: CG   and  CD  
REMARK    4  A    between atoms: CD   and  NE  
REMARK       I    between atoms: NE   and  CZ  
REMARK       I    between atoms: CZ   and  NH1 
REMARK       I    between atoms: CZ   and  NH2 
ROOT
ATOM      1  CA  ARG D 557     -26.217   2.705 -17.014  1.00 35.49     0.159 C 
ENDROOT
BRANCH   1   2
ATOM      2  CB  ARG D 557     -26.789   1.319 -17.183  1.00 35.49     0.034 C 
BRANCH   2   3
ATOM      3  CG  ARG D 557     -25.837   0.203 -17.149  1.00 35.49     0.027 C 
BRANCH   3   4
ATOM      4  CD  ARG D 557     -24.758   0.411 -16.155  1.00 35.49     0.116 C 
BRANCH   4   5
ATOM      5  NE  ARG D 557     -24.906  -0.445 -15.007  1.00 35.49    -0.212 N 
ATOM      6  CZ  ARG D 557     -24.092  -1.417 -14.664  1.00 35.49     0.666 C 
ATOM      7  NH1 ARG D 557     -23.021  -1.729 -15.371  1.00 35.49    -0.235 N 
ATOM      8  NH2 ARG D 557     -24.370  -2.077 -13.577  1.00 35.49    -0.235 N 
ATOM      9  HH  ARG D 557     -22.818  -1.306 -16.088  1.00 35.49     0.174 HD
ATOM     10  HH  ARG D 557     -22.525  -2.371 -15.097  1.00 35.49     0.174 HD
ATOM     11  HH  ARG D 557     -25.063  -1.849 -13.136  1.00 35.49     0.174 HD
ATOM     12  HH  ARG D 557     -23.865  -2.708 -13.321  1.00 35.49     0.174 HD
ATOM     13  HE  ARG D 557     -25.609  -0.361 -14.535  1.00 35.49     0.178 HD
ENDBRANCH   4   5
ENDBRANCH   3   4
ENDBRANCH   2   3
ENDBRANCH   1   2
END_RES ARG D 557
BEGIN_RES GLU D 570
REMARK  3 active torsions:
REMARK  status: ('A' for Active; 'I' for Inactive)
REMARK    5  A    between atoms: CA   and  CB  
REMARK    6  A    between atoms: CB   and  CG  
REMARK    7  A    between atoms: CG   and  CD  
ROOT
ATOM     14  CA  GLU D 570     -18.033  -6.348 -13.375  1.00 32.92     0.160 C 
ENDROOT
BRANCH  14  15
ATOM     15  CB  GLU D 570     -19.500  -6.345 -13.794  1.00 32.92     0.043 C 
BRANCH  15  16
ATOM     16  CG  GLU D 570     -20.444  -5.539 -12.977  1.00 32.92     0.100 C 
BRANCH  16  17
ATOM     17  CD  GLU D 570     -21.745  -5.255 -13.689  1.00 32.92     0.185 C 
ATOM     18  OE1 GLU D 570     -22.248  -6.140 -14.408  1.00 32.92    -0.647 OA
ATOM     19  OE2 GLU D 570     -22.259  -4.129 -13.540  1.00 32.92    -0.647 OA
ENDBRANCH  16  17
ENDBRANCH  15  16
ENDBRANCH  14  15
END_RES GLU D 570
ENDMDL
MODEL 3
REMARK VINA RESULT:      -1.1      7.155      7.199
REMARK  16 active torsions:
REMARK  status: ('A' for Active; 'I' for Inactive)
REMARK    1  A    between atoms: C_2  and  C_3 
REMARK    2  A    between atoms: C_3  and  C_4 
REMARK    3  A    between atoms: C_4  and  C_5 
REMARK    4  A    between atoms: C_5  and  C_6 
REMARK    5  A    between atoms: C_6  and  C_7 
REMARK    6  A    between atoms: C_7  and  C_8 
REMARK    7  A    between atoms: C_8  and  C_9 
REMARK    8  A    between atoms: C_9  and  C_10 
REMARK    9  A    between atoms: C_10  and  C_11 
REMARK   10  A    between atoms: C_11  and  C_12 
REMARK   11  A    between atoms: C_12  and  O_14 
REMARK   12  A    between atoms: O_14  and  C_15 
REMARK   13  A    between atoms: C_15  and  C_17 
REMARK   14  A    between atoms: C_17  and  O_19 
REMARK   15  A    between atoms: O_19  and  C_20 
REMARK   16  A    between atoms: C_20  and  C_22 
ROOT
HETATM    1 NA   UNL     2     -11.270   1.613   2.421  1.00  0.00     0.000 Na
ENDROOT
TORSDOF 16
BEGIN_RES ARG D 557
REMARK  4 active torsions:
REMARK  status: ('A' for Active; 'I' for Inactive)
REMARK    1  A    between atoms: CA   and  CB  
REMARK    2  A    between atoms: CB   and  CG  
REMARK    3  A    between atoms: CG   and  CD  
REMARK    4  A    between atoms: CD   and  NE  
REMARK       I    between atoms: NE   and  CZ  
REMARK       I    between atoms: CZ   and  NH1 
REMARK       I    between atoms: CZ   and  NH2 
ROOT
ATOM      1  CA  ARG D 557     -26.217   2.705 -17.014  1.00 35.49     0.159 C 
ENDROOT
BRANCH   1   2
ATOM      2  CB  ARG D 557     -26.789   1.319 -17.183  1.00 35.49     0.034 C 
BRANCH   2   3
ATOM      3  CG  ARG D 557     -25.865   0.195 -16.989  1.00 35.49     0.027 C 
BRANCH   3   4
ATOM      4  CD  ARG D 557     -26.290  -0.701 -15.889  1.00 35.49     0.116 C 
BRANCH   4   5
ATOM      5  NE  ARG D 557     -25.236  -0.925 -14.934  1.00 35.49    -0.212 N 
ATOM      6  CZ  ARG D 557     -24.955  -2.070 -14.354  1.00 35.49     0.666 C 
ATOM      7  NH1 ARG D 557     -25.647  -3.171 -14.586  1.00 35.49    -0.235 N 
ATOM      8  NH2 ARG D 557     -23.949  -2.094 -13.529  1.00 35.49    -0.235 N 
ATOM      9  HH  ARG D 557     -26.311  -3.178 -15.127  1.00 35.49     0.174 HD
ATOM     10  HH  ARG D 557     -25.416  -3.889 -14.181  1.00 35.49     0.174 HD
ATOM     11  HH  ARG D 557     -23.516  -1.370 -13.404  1.00 35.49     0.174 HD
ATOM     12  HH  ARG D 557     -23.736  -2.816 -13.139  1.00 35.49     0.174 HD
ATOM     13  HE  ARG D 557     -24.786  -0.253 -14.672  1.00 35.49     0.178 HD
ENDBRANCH   4   5
ENDBRANCH   3   4
ENDBRANCH   2   3
ENDBRANCH   1   2
END_RES ARG D 557
BEGIN_RES GLU D 570
REMARK  3 active torsions:
REMARK  status: ('A' for Active; 'I' for Inactive)
REMARK    5  A    between atoms: CA   and  CB  
REMARK    6  A    between atoms: CB   and  CG  
REMARK    7  A    between atoms: CG   and  CD  
ROOT
ATOM     14  CA  GLU D 570     -18.033  -6.348 -13.375  1.00 32.92     0.160 C 
ENDROOT
BRANCH  14  15
ATOM     15  CB  GLU D 570     -19.500  -6.345 -13.794  1.00 32.92     0.043 C 
BRANCH  15  16
ATOM     16  CG  GLU D 570     -20.451  -5.575 -12.951  1.00 32.92     0.100 C 
BRANCH  16  17
ATOM     17  CD  GLU D 570     -21.677  -5.122 -13.709  1.00 32.92     0.185 C 
ATOM     18  OE1 GLU D 570     -22.716  -4.855 -13.076  1.00 32.92    -0.647 OA
ATOM     19  OE2 GLU D 570     -21.602  -5.049 -14.952  1.00 32.92    -0.647 OA
ENDBRANCH  16  17
ENDBRANCH  15  16
ENDBRANCH  14  15
END_RES GLU D 570
ENDMDL
MODEL 4
REMARK VINA RESULT:      -1.0      5.767      5.767
REMARK  16 active torsions:
REMARK  status: ('A' for Active; 'I' for Inactive)
REMARK    1  A    between atoms: C_2  and  C_3 
REMARK    2  A    between atoms: C_3  and  C_4 
REMARK    3  A    between atoms: C_4  and  C_5 
REMARK    4  A    between atoms: C_5  and  C_6 
REMARK    5  A    between atoms: C_6  and  C_7 
REMARK    6  A    between atoms: C_7  and  C_8 
REMARK    7  A    between atoms: C_8  and  C_9 
REMARK    8  A    between atoms: C_9  and  C_10 
REMARK    9  A    between atoms: C_10  and  C_11 
REMARK   10  A    between atoms: C_11  and  C_12 
REMARK   11  A    between atoms: C_12  and  O_14 
REMARK   12  A    between atoms: O_14  and  C_15 
REMARK   13  A    between atoms: C_15  and  C_17 
REMARK   14  A    between atoms: C_17  and  O_19 
REMARK   15  A    between atoms: O_19  and  C_20 
REMARK   16  A    between atoms: C_20  and  C_22 
ROOT
HETATM    1 NA   UNL     2     -27.040 -13.622 -13.045  1.00  0.00     0.000 Na
ENDROOT
TORSDOF 16
BEGIN_RES ARG D 557
REMARK  4 active torsions:
REMARK  status: ('A' for Active; 'I' for Inactive)
REMARK    1  A    between atoms: CA   and  CB  
REMARK    2  A    between atoms: CB   and  CG  
REMARK    3  A    between atoms: CG   and  CD  
REMARK    4  A    between atoms: CD   and  NE  
REMARK       I    between atoms: NE   and  CZ  
REMARK       I    between atoms: CZ   and  NH1 
REMARK       I    between atoms: CZ   and  NH2 
ROOT
ATOM      1  CA  ARG D 557     -26.217   2.705 -17.014  1.00 35.49     0.159 C 
ENDROOT
BRANCH   1   2
ATOM      2  CB  ARG D 557     -26.789   1.319 -17.183  1.00 35.49     0.034 C 
BRANCH   2   3
ATOM      3  CG  ARG D 557     -25.840   0.201 -17.125  1.00 35.49     0.027 C 
BRANCH   3   4
ATOM      4  CD  ARG D 557     -24.767   0.423 -16.129  1.00 35.49     0.116 C 
BRANCH   4   5
ATOM      5  NE  ARG D 557     -24.880  -0.465 -15.002  1.00 35.49    -0.212 N 
ATOM      6  CZ  ARG D 557     -24.037  -1.425 -14.693  1.00 35.49     0.666 C 
ATOM      7  NH1 ARG D 557     -22.967  -1.691 -15.420  1.00 35.49    -0.235 N 
ATOM      8  NH2 ARG D 557     -24.285  -2.120 -13.621  1.00 35.49    -0.235 N 
ATOM      9  HH  ARG D 557     -22.783  -1.244 -16.128  1.00 35.49     0.174 HD
ATOM     10  HH  ARG D 557     -22.452  -2.327 -15.168  1.00 35.49     0.174 HD
ATOM     11  HH  ARG D 557     -24.979  -1.921 -13.167  1.00 35.49     0.174 HD
ATOM     12  HH  ARG D 557     -23.762  -2.745 -13.387  1.00 35.49     0.174 HD
ATOM     13  HE  ARG D 557     -25.578  -0.412 -14.520  1.00 35.49     0.178 HD
ENDBRANCH   4   5
ENDBRANCH   3   4
ENDBRANCH   2   3
ENDBRANCH   1   2
END_RES ARG D 557
BEGIN_RES GLU D 570
REMARK  3 active torsions:
REMARK  status: ('A' for Active; 'I' for Inactive)
REMARK    5  A    between atoms: CA   and  CB  
REMARK    6  A    between atoms: CB   and  CG  
REMARK    7  A    between atoms: CG   and  CD  
ROOT
ATOM     14  CA  GLU D 570     -18.033  -6.348 -13.375  1.00 32.92     0.160 C 
ENDROOT
BRANCH  14  15
ATOM     15  CB  GLU D 570     -19.500  -6.345 -13.794  1.00 32.92     0.043 C 
BRANCH  15  16
ATOM     16  CG  GLU D 570     -20.445  -5.546 -12.972  1.00 32.92     0.100 C 
BRANCH  16  17
ATOM     17  CD  GLU D 570     -21.645  -5.065 -13.754  1.00 32.92     0.185 C 
ATOM     18  OE1 GLU D 570     -22.672  -4.722 -13.137  1.00 32.92    -0.647 OA
ATOM     19  OE2 GLU D 570     -21.563  -5.047 -14.998  1.00 32.92    -0.647 OA
ENDBRANCH  16  17
ENDBRANCH  15  16
ENDBRANCH  14  15
END_RES GLU D 570
ENDMDL
MODEL 5
REMARK VINA RESULT:      -1.0      4.748      4.839
REMARK  16 active torsions:
REMARK  status: ('A' for Active; 'I' for Inactive)
REMARK    1  A    between atoms: C_2  and  C_3 
REMARK    2  A    between atoms: C_3  and  C_4 
REMARK    3  A    between atoms: C_4  and  C_5 
REMARK    4  A    between atoms: C_5  and  C_6 
REMARK    5  A    between atoms: C_6  and  C_7 
REMARK    6  A    between atoms: C_7  and  C_8 
REMARK    7  A    between atoms: C_8  and  C_9 
REMARK    8  A    between atoms: C_9  and  C_10 
REMARK    9  A    between atoms: C_10  and  C_11 
REMARK   10  A    between atoms: C_11  and  C_12 
REMARK   11  A    between atoms: C_12  and  O_14 
REMARK   12  A    between atoms: O_14  and  C_15 
REMARK   13  A    between atoms: C_15  and  C_17 
REMARK   14  A    between atoms: C_17  and  O_19 
REMARK   15  A    between atoms: O_19  and  C_20 
REMARK   16  A    between atoms: C_20  and  C_22 
ROOT
HETATM    1 NA   UNL     2     -26.985  -3.458  -9.366  1.00  0.00     0.000 Na
ENDROOT
TORSDOF 16
BEGIN_RES ARG D 557
REMARK  4 active torsions:
REMARK  status: ('A' for Active; 'I' for Inactive)
REMARK    1  A    between atoms: CA   and  CB  
REMARK    2  A    between atoms: CB   and  CG  
REMARK    3  A    between atoms: CG   and  CD  
REMARK    4  A    between atoms: CD   and  NE  
REMARK       I    between atoms: NE   and  CZ  
REMARK       I    between atoms: CZ   and  NH1 
REMARK       I    between atoms: CZ   and  NH2 
ROOT
ATOM      1  CA  ARG D 557     -26.217   2.705 -17.014  1.00 35.49     0.159 C 
ENDROOT
BRANCH   1   2
ATOM      2  CB  ARG D 557     -26.789   1.319 -17.183  1.00 35.49     0.034 C 
BRANCH   2   3
ATOM      3  CG  ARG D 557     -25.835   0.204 -17.167  1.00 35.49     0.027 C 
BRANCH   3   4
ATOM      4  CD  ARG D 557     -24.757   0.398 -16.170  1.00 35.49     0.116 C 
BRANCH   4   5
ATOM      5  NE  ARG D 557     -24.919  -0.456 -15.023  1.00 35.49    -0.212 N 
ATOM      6  CZ  ARG D 557     -24.109  -1.430 -14.670  1.00 35.49     0.666 C 
ATOM      7  NH1 ARG D 557     -23.032  -1.743 -15.365  1.00 35.49    -0.235 N 
ATOM      8  NH2 ARG D 557     -24.400  -2.089 -13.586  1.00 35.49    -0.235 N 
ATOM      9  HH  ARG D 557     -22.820  -1.321 -16.080  1.00 35.49     0.174 HD
ATOM     10  HH  ARG D 557     -22.539  -2.386 -15.085  1.00 35.49     0.174 HD
ATOM     11  HH  ARG D 557     -25.098  -1.859 -13.153  1.00 35.49     0.174 HD
ATOM     12  HH  ARG D 557     -23.899  -2.721 -13.324  1.00 35.49     0.174 HD
ATOM     13  HE  ARG D 557     -25.626  -0.372 -14.558  1.00 35.49     0.178 HD
ENDBRANCH   4   5
ENDBRANCH   3   4
ENDBRANCH   2   3
ENDBRANCH   1   2
END_RES ARG D 557
BEGIN_RES GLU D 570
REMARK  3 active torsions:
REMARK  status: ('A' for Active; 'I' for Inactive)
REMARK    5  A    between atoms: CA   and  CB  
REMARK    6  A    between atoms: CB   and  CG  
REMARK    7  A    between atoms: CG   and  CD  
ROOT
ATOM     14  CA  GLU D 570     -18.033  -6.348 -13.375  1.00 32.92     0.160 C 
ENDROOT
BRANCH  14  15
ATOM     15  CB  GLU D 570     -19.500  -6.345 -13.794  1.00 32.92     0.043 C 
BRANCH  15  16
ATOM     16  CG  GLU D 570     -20.440  -5.522 -12.990  1.00 32.92     0.100 C 
BRANCH  16  17
ATOM     17  CD  GLU D 570     -21.748  -5.259 -13.699  1.00 32.92     0.185 C 
ATOM     18  OE1 GLU D 570     -22.225  -6.143 -14.436  1.00 32.92    -0.647 OA
ATOM     19  OE2 GLU D 570     -22.292  -4.150 -13.529  1.00 32.92    -0.647 OA
ENDBRANCH  16  17
ENDBRANCH  15  16
ENDBRANCH  14  15
END_RES GLU D 570
ENDMDL
MODEL 6
REMARK VINA RESULT:      -1.0      7.566      7.566
REMARK  16 active torsions:
REMARK  status: ('A' for Active; 'I' for Inactive)
REMARK    1  A    between atoms: C_2  and  C_3 
REMARK    2  A    between atoms: C_3  and  C_4 
REMARK    3  A    between atoms: C_4  and  C_5 
REMARK    4  A    between atoms: C_5  and  C_6 
REMARK    5  A    between atoms: C_6  and  C_7 
REMARK    6  A    between atoms: C_7  and  C_8 
REMARK    7  A    between atoms: C_8  and  C_9 
REMARK    8  A    between atoms: C_9  and  C_10 
REMARK    9  A    between atoms: C_10  and  C_11 
REMARK   10  A    between atoms: C_11  and  C_12 
REMARK   11  A    between atoms: C_12  and  O_14 
REMARK   12  A    between atoms: O_14  and  C_15 
REMARK   13  A    between atoms: C_15  and  C_17 
REMARK   14  A    between atoms: C_17  and  O_19 
REMARK   15  A    between atoms: O_19  and  C_20 
REMARK   16  A    between atoms: C_20  and  C_22 
ROOT
HETATM    1 NA   UNL     2     -14.443   3.520  -8.246  1.00  0.00     0.000 Na
ENDROOT
TORSDOF 16
BEGIN_RES ARG D 557
REMARK  4 active torsions:
REMARK  status: ('A' for Active; 'I' for Inactive)
REMARK    1  A    between atoms: CA   and  CB  
REMARK    2  A    between atoms: CB   and  CG  
REMARK    3  A    between atoms: CG   and  CD  
REMARK    4  A    between atoms: CD   and  NE  
REMARK       I    between atoms: NE   and  CZ  
REMARK       I    between atoms: CZ   and  NH1 
REMARK       I    between atoms: CZ   and  NH2 
ROOT
ATOM      1  CA  ARG D 557     -26.217   2.705 -17.014  1.00 35.49     0.159 C 
ENDROOT
BRANCH   1   2
ATOM      2  CB  ARG D 557     -26.789   1.319 -17.183  1.00 35.49     0.034 C 
BRANCH   2   3
ATOM      3  CG  ARG D 557     -25.835   0.203 -17.158  1.00 35.49     0.027 C 
BRANCH   3   4
ATOM      4  CD  ARG D 557     -24.751   0.410 -16.171  1.00 35.49     0.116 C 
BRANCH   4   5
ATOM      5  NE  ARG D 557     -24.899  -0.438 -15.018  1.00 35.49    -0.212 N 
ATOM      6  CZ  ARG D 557     -24.085  -1.409 -14.668  1.00 35.49     0.666 C 
ATOM      7  NH1 ARG D 557     -23.016  -1.727 -15.375  1.00 35.49    -0.235 N 
ATOM      8  NH2 ARG D 557     -24.362  -2.061 -13.577  1.00 35.49    -0.235 N 
ATOM      9  HH  ARG D 557     -22.813  -1.309 -16.095  1.00 35.49     0.174 HD
ATOM     10  HH  ARG D 557     -22.520  -2.368 -15.097  1.00 35.49     0.174 HD
ATOM     11  HH  ARG D 557     -25.055  -1.829 -13.137  1.00 35.49     0.174 HD
ATOM     12  HH  ARG D 557     -23.858  -2.692 -13.318  1.00 35.49     0.174 HD
ATOM     13  HE  ARG D 557     -25.600  -0.350 -14.545  1.00 35.49     0.178 HD
ENDBRANCH   4   5
ENDBRANCH   3   4
ENDBRANCH   2   3
ENDBRANCH   1   2
END_RES ARG D 557
BEGIN_RES GLU D 570
REMARK  3 active torsions:
REMARK  status: ('A' for Active; 'I' for Inactive)
REMARK    5  A    between atoms: CA   and  CB  
REMARK    6  A    between atoms: CB   and  CG  
REMARK    7  A    between atoms: CG   and  CD  
ROOT
ATOM     14  CA  GLU D 570     -18.033  -6.348 -13.375  1.00 32.92     0.160 C 
ENDROOT
BRANCH  14  15
ATOM     15  CB  GLU D 570     -19.500  -6.345 -13.794  1.00 32.92     0.043 C 
BRANCH  15  16
ATOM     16  CG  GLU D 570     -20.442  -5.534 -12.981  1.00 32.92     0.100 C 
BRANCH  16  17
ATOM     17  CD  GLU D 570     -21.741  -5.245 -13.697  1.00 32.92     0.185 C 
ATOM     18  OE1 GLU D 570     -22.298  -4.144 -13.520  1.00 32.92    -0.647 OA
ATOM     19  OE2 GLU D 570     -22.215  -6.135 -14.431  1.00 32.92    -0.647 OA
ENDBRANCH  16  17
ENDBRANCH  15  16
ENDBRANCH  14  15
END_RES GLU D 570
ENDMDL
MODEL 7
REMARK VINA RESULT:      -1.0      4.686      4.686
REMARK  16 active torsions:
REMARK  status: ('A' for Active; 'I' for Inactive)
REMARK    1  A    between atoms: C_2  and  C_3 
REMARK    2  A    between atoms: C_3  and  C_4 
REMARK    3  A    between atoms: C_4  and  C_5 
REMARK    4  A    between atoms: C_5  and  C_6 
REMARK    5  A    between atoms: C_6  and  C_7 
REMARK    6  A    between atoms: C_7  and  C_8 
REMARK    7  A    between atoms: C_8  and  C_9 
REMARK    8  A    between atoms: C_9  and  C_10 
REMARK    9  A    between atoms: C_10  and  C_11 
REMARK   10  A    between atoms: C_11  and  C_12 
REMARK   11  A    between atoms: C_12  and  O_14 
REMARK   12  A    between atoms: O_14  and  C_15 
REMARK   13  A    between atoms: C_15  and  C_17 
REMARK   14  A    between atoms: C_17  and  O_19 
REMARK   15  A    between atoms: O_19  and  C_20 
REMARK   16  A    between atoms: C_20  and  C_22 
ROOT
HETATM    1 NA   UNL     2     -32.974  -9.694 -10.949  1.00  0.00     0.000 Na
ENDROOT
TORSDOF 16
BEGIN_RES ARG D 557
REMARK  4 active torsions:
REMARK  status: ('A' for Active; 'I' for Inactive)
REMARK    1  A    between atoms: CA   and  CB  
REMARK    2  A    between atoms: CB   and  CG  
REMARK    3  A    between atoms: CG   and  CD  
REMARK    4  A    between atoms: CD   and  NE  
REMARK       I    between atoms: NE   and  CZ  
REMARK       I    between atoms: CZ   and  NH1 
REMARK       I    between atoms: CZ   and  NH2 
ROOT
ATOM      1  CA  ARG D 557     -26.217   2.705 -17.014  1.00 35.49     0.159 C 
ENDROOT
BRANCH   1   2
ATOM      2  CB  ARG D 557     -26.789   1.319 -17.183  1.00 35.49     0.034 C 
BRANCH   2   3
ATOM      3  CG  ARG D 557     -25.835   0.204 -17.165  1.00 35.49     0.027 C 
BRANCH   3   4
ATOM      4  CD  ARG D 557     -24.746   0.409 -16.182  1.00 35.49     0.116 C 
BRANCH   4   5
ATOM      5  NE  ARG D 557     -24.892  -0.436 -15.026  1.00 35.49    -0.212 N 
ATOM      6  CZ  ARG D 557     -24.079  -1.408 -14.678  1.00 35.49     0.666 C 
ATOM      7  NH1 ARG D 557     -23.013  -1.730 -15.387  1.00 35.49    -0.235 N 
ATOM      8  NH2 ARG D 557     -24.355  -2.058 -13.584  1.00 35.49    -0.235 N 
ATOM      9  HH  ARG D 557     -22.811  -1.314 -16.108  1.00 35.49     0.174 HD
ATOM     10  HH  ARG D 557     -22.518  -2.371 -15.109  1.00 35.49     0.174 HD
ATOM     11  HH  ARG D 557     -25.046  -1.824 -13.143  1.00 35.49     0.174 HD
ATOM     12  HH  ARG D 557     -23.852  -2.689 -13.325  1.00 35.49     0.174 HD
ATOM     13  HE  ARG D 557     -25.592  -0.346 -14.552  1.00 35.49     0.178 HD
ENDBRANCH   4   5
ENDBRANCH   3   4
ENDBRANCH   2   3
ENDBRANCH   1   2
END_RES ARG D 557
BEGIN_RES GLU D 570
REMARK  3 active torsions:
REMARK  status: ('A' for Active; 'I' for Inactive)
REMARK    5  A    between atoms: CA   and  CB  
REMARK    6  A    between atoms: CB   and  CG  
REMARK    7  A    between atoms: CG   and  CD  
ROOT
ATOM     14  CA  GLU D 570     -18.033  -6.348 -13.375  1.00 32.92     0.160 C 
ENDROOT
BRANCH  14  15
ATOM     15  CB  GLU D 570     -19.500  -6.345 -13.794  1.00 32.92     0.043 C 
BRANCH  15  16
ATOM     16  CG  GLU D 570     -20.441  -5.528 -12.985  1.00 32.92     0.100 C 
BRANCH  16  17
ATOM     17  CD  GLU D 570     -21.745  -5.254 -13.697  1.00 32.92     0.185 C 
ATOM     18  OE1 GLU D 570     -22.297  -4.147 -13.543  1.00 32.92    -0.647 OA
ATOM     19  OE2 GLU D 570     -22.228  -6.161 -14.403  1.00 32.92    -0.647 OA
ENDBRANCH  16  17
ENDBRANCH  15  16
ENDBRANCH  14  15
END_RES GLU D 570
ENDMDL
MODEL 8
REMARK VINA RESULT:      -1.0     10.583     10.626
REMARK  16 active torsions:
REMARK  status: ('A' for Active; 'I' for Inactive)
REMARK    1  A    between atoms: C_2  and  C_3 
REMARK    2  A    between atoms: C_3  and  C_4 
REMARK    3  A    between atoms: C_4  and  C_5 
REMARK    4  A    between atoms: C_5  and  C_6 
REMARK    5  A    between atoms: C_6  and  C_7 
REMARK    6  A    between atoms: C_7  and  C_8 
REMARK    7  A    between atoms: C_8  and  C_9 
REMARK    8  A    between atoms: C_9  and  C_10 
REMARK    9  A    between atoms: C_10  and  C_11 
REMARK   10  A    between atoms: C_11  and  C_12 
REMARK   11  A    between atoms: C_12  and  O_14 
REMARK   12  A    between atoms: O_14  and  C_15 
REMARK   13  A    between atoms: C_15  and  C_17 
REMARK   14  A    between atoms: C_17  and  O_19 
REMARK   15  A    between atoms: O_19  and  C_20 
REMARK   16  A    between atoms: C_20  and  C_22 
ROOT
HETATM    1 NA   UNL     2      -9.140   5.876 -17.237  1.00  0.00     0.000 Na
ENDROOT
TORSDOF 16
BEGIN_RES ARG D 557
REMARK  4 active torsions:
REMARK  status: ('A' for Active; 'I' for Inactive)
REMARK    1  A    between atoms: CA   and  CB  
REMARK    2  A    between atoms: CB   and  CG  
REMARK    3  A    between atoms: CG   and  CD  
REMARK    4  A    between atoms: CD   and  NE  
REMARK       I    between atoms: NE   and  CZ  
REMARK       I    between atoms: CZ   and  NH1 
REMARK       I    between atoms: CZ   and  NH2 
ROOT
ATOM      1  CA  ARG D 557     -26.217   2.705 -17.014  1.00 35.49     0.159 C 
ENDROOT
BRANCH   1   2
ATOM      2  CB  ARG D 557     -26.789   1.319 -17.183  1.00 35.49     0.034 C 
BRANCH   2   3
ATOM      3  CG  ARG D 557     -25.863   0.195 -16.997  1.00 35.49     0.027 C 
BRANCH   3   4
ATOM      4  CD  ARG D 557     -26.266  -0.689 -15.879  1.00 35.49     0.116 C 
BRANCH   4   5
ATOM      5  NE  ARG D 557     -25.192  -0.908 -14.947  1.00 35.49    -0.212 N 
ATOM      6  CZ  ARG D 557     -24.896  -2.052 -14.371  1.00 35.49     0.666 C 
ATOM      7  NH1 ARG D 557     -25.588  -3.155 -14.588  1.00 35.49    -0.235 N 
ATOM      8  NH2 ARG D 557     -23.873  -2.072 -13.567  1.00 35.49    -0.235 N 
ATOM      9  HH  ARG D 557     -26.264  -3.165 -15.114  1.00 35.49     0.174 HD
ATOM     10  HH  ARG D 557     -25.347  -3.872 -14.186  1.00 35.49     0.174 HD
ATOM     11  HH  ARG D 557     -23.440  -1.346 -13.452  1.00 35.49     0.174 HD
ATOM     12  HH  ARG D 557     -23.649  -2.793 -13.181  1.00 35.49     0.174 HD
ATOM     13  HE  ARG D 557     -24.739  -0.234 -14.694  1.00 35.49     0.178 HD
ENDBRANCH   4   5
ENDBRANCH   3   4
ENDBRANCH   2   3
ENDBRANCH   1   2
END_RES ARG D 557
BEGIN_RES GLU D 570
REMARK  3 active torsions:
REMARK  status: ('A' for Active; 'I' for Inactive)
REMARK    5  A    between atoms: CA   and  CB  
REMARK    6  A    between atoms: CB   and  CG  
REMARK    7  A    between atoms: CG   and  CD  
ROOT
ATOM     14  CA  GLU D 570     -18.033  -6.348 -13.375  1.00 32.92     0.160 C 
ENDROOT
BRANCH  14  15
ATOM     15  CB  GLU D 570     -19.500  -6.345 -13.794  1.00 32.92     0.043 C 
BRANCH  15  16
ATOM     16  CG  GLU D 570     -20.439  -5.516 -12.995  1.00 32.92     0.100 C 
BRANCH  16  17
ATOM     17  CD  GLU D 570     -21.684  -5.133 -13.759  1.00 32.92     0.185 C 
ATOM     18  OE1 GLU D 570     -21.615  -4.985 -14.994  1.00 32.92    -0.647 OA
ATOM     19  OE2 GLU D 570     -22.737  -4.963 -13.113  1.00 32.92    -0.647 OA
ENDBRANCH  16  17
ENDBRANCH  15  16
ENDBRANCH  14  15
END_RES GLU D 570
ENDMDL
MODEL 9
REMARK VINA RESULT:      -0.9      7.243      7.243
REMARK  16 active torsions:
REMARK  status: ('A' for Active; 'I' for Inactive)
REMARK    1  A    between atoms: C_2  and  C_3 
REMARK    2  A    between atoms: C_3  and  C_4 
REMARK    3  A    between atoms: C_4  and  C_5 
REMARK    4  A    between atoms: C_5  and  C_6 
REMARK    5  A    between atoms: C_6  and  C_7 
REMARK    6  A    between atoms: C_7  and  C_8 
REMARK    7  A    between atoms: C_8  and  C_9 
REMARK    8  A    between atoms: C_9  and  C_10 
REMARK    9  A    between atoms: C_10  and  C_11 
REMARK   10  A    between atoms: C_11  and  C_12 
REMARK   11  A    between atoms: C_12  and  O_14 
REMARK   12  A    between atoms: O_14  and  C_15 
REMARK   13  A    between atoms: C_15  and  C_17 
REMARK   14  A    between atoms: C_17  and  O_19 
REMARK   15  A    between atoms: O_19  and  C_20 
REMARK   16  A    between atoms: C_20  and  C_22 
ROOT
HETATM    1 NA   UNL     2     -20.943  -9.783 -16.568  1.00  0.00     0.000 Na
ENDROOT
TORSDOF 16
BEGIN_RES ARG D 557
REMARK  4 active torsions:
REMARK  status: ('A' for Active; 'I' for Inactive)
REMARK    1  A    between atoms: CA   and  CB  
REMARK    2  A    between atoms: CB   and  CG  
REMARK    3  A    between atoms: CG   and  CD  
REMARK    4  A    between atoms: CD   and  NE  
REMARK       I    between atoms: NE   and  CZ  
REMARK       I    between atoms: CZ   and  NH1 
REMARK       I    between atoms: CZ   and  NH2 
ROOT
ATOM      1  CA  ARG D 557     -26.217   2.705 -17.014  1.00 35.49     0.159 C 
ENDROOT
BRANCH   1   2
ATOM      2  CB  ARG D 557     -26.789   1.319 -17.183  1.00 35.49     0.034 C 
BRANCH   2   3
ATOM      3  CG  ARG D 557     -25.835   0.203 -17.161  1.00 35.49     0.027 C 
BRANCH   3   4
ATOM      4  CD  ARG D 557     -24.748   0.410 -16.177  1.00 35.49     0.116 C 
BRANCH   4   5
ATOM      5  NE  ARG D 557     -24.896  -0.432 -15.020  1.00 35.49    -0.212 N 
ATOM      6  CZ  ARG D 557     -24.086  -1.405 -14.669  1.00 35.49     0.666 C 
ATOM      7  NH1 ARG D 557     -23.020  -1.730 -15.377  1.00 35.49    -0.235 N 
ATOM      8  NH2 ARG D 557     -24.363  -2.052 -13.574  1.00 35.49    -0.235 N 
ATOM      9  HH  ARG D 557     -22.817  -1.316 -16.099  1.00 35.49     0.174 HD
ATOM     10  HH  ARG D 557     -22.526  -2.372 -15.097  1.00 35.49     0.174 HD
ATOM     11  HH  ARG D 557     -25.054  -1.816 -13.133  1.00 35.49     0.174 HD
ATOM     12  HH  ARG D 557     -23.861  -2.684 -13.313  1.00 35.49     0.174 HD
ATOM     13  HE  ARG D 557     -25.596  -0.340 -14.546  1.00 35.49     0.178 HD
ENDBRANCH   4   5
ENDBRANCH   3   4
ENDBRANCH   2   3
ENDBRANCH   1   2
END_RES ARG D 557
BEGIN_RES GLU D 570
REMARK  3 active torsions:
REMARK  status: ('A' for Active; 'I' for Inactive)
REMARK    5  A    between atoms: CA   and  CB  
REMARK    6  A    between atoms: CB   and  CG  
REMARK    7  A    between atoms: CG   and  CD  
ROOT
ATOM     14  CA  GLU D 570     -18.033  -6.348 -13.375  1.00 32.92     0.160 C 
ENDROOT
BRANCH  14  15
ATOM     15  CB  GLU D 570     -19.500  -6.345 -13.794  1.00 32.92     0.043 C 
BRANCH  15  16
ATOM     16  CG  GLU D 570     -20.442  -5.533 -12.981  1.00 32.92     0.100 C 
BRANCH  16  17
ATOM     17  CD  GLU D 570     -21.739  -5.241 -13.699  1.00 32.92     0.185 C 
ATOM     18  OE1 GLU D 570     -22.303  -4.147 -13.509  1.00 32.92    -0.647 OA
ATOM     19  OE2 GLU D 570     -22.205  -6.123 -14.447  1.00 32.92    -0.647 OA
ENDBRANCH  16  17
ENDBRANCH  15  16
ENDBRANCH  14  15
END_RES GLU D 570
ENDMDL
