MODEL 1
REMARK VINA RESULT:      -4.8      0.000      0.000
REMARK  6 active torsions:
REMARK  status: ('A' for Active; 'I' for Inactive)
REMARK    1  A    between atoms: C_2  and  C_3 
REMARK    2  A    between atoms: C_3  and  C_4 
REMARK    3  A    between atoms: C_4  and  C_5 
REMARK    4  A    between atoms: C_5  and  C_6 
REMARK    5  A    between atoms: C_5  and  O_8 
REMARK    6  A    between atoms: C_6  and  O_7 
ROOT
HETATM    1  C   UNL     1     -23.440  -3.634  -9.317  1.00  0.00     0.141 C 
ENDROOT
BRANCH   1   2
HETATM    2  C   UNL     1     -22.355  -4.634  -9.727  1.00  0.00     0.034 C 
BRANCH   2   3
HETATM    3  C   UNL     1     -20.936  -4.082  -9.582  1.00  0.00     0.002 C 
BRANCH   3   4
HETATM    4  C   UNL     1     -20.146  -4.827  -8.506  1.00  0.00    -0.004 C 
HETATM    5  C   UNL     1     -20.420  -4.249  -7.126  1.00  0.00     0.005 C 
ENDBRANCH   3   4
ENDBRANCH   2   3
ENDBRANCH   1   2
BRANCH   1   6
HETATM    6  C   UNL     1     -24.577  -3.495 -10.339  1.00  0.00     0.195 C 
BRANCH   6   7
HETATM    7  O   UNL     1     -25.801  -3.210  -9.664  1.00  0.00    -0.398 OA
HETATM    8  H   UNL     1     -26.065  -2.316  -9.961  1.00  0.00     0.209 HD
ENDBRANCH   6   7
ENDBRANCH   1   6
BRANCH   1   9
HETATM    9  O   UNL     1     -24.018  -4.055  -8.070  1.00  0.00    -0.393 OA
HETATM   10  H   UNL     1     -23.889  -3.338  -7.424  1.00  0.00     0.210 HD
ENDBRANCH   1   9
TORSDOF 6
BEGIN_RES ARG D 557
REMARK  4 active torsions:
REMARK  status: ('A' for Active; 'I' for Inactive)
REMARK    1  A    between atoms: CA   and  CB  
REMARK    2  A    between atoms: CB   and  CG  
REMARK    3  A    between atoms: CG   and  CD  
REMARK    4  A    between atoms: CD   and  NE  
REMARK       I    between atoms: NE   and  CZ  
REMARK       I    between atoms: CZ   and  NH1 
REMARK       I    between atoms: CZ   and  NH2 
ROOT
ATOM      1  CA  ARG D 557     -26.217   2.705 -17.014  1.00 35.49     0.159 C 
ENDROOT
BRANCH   1   2
ATOM      2  CB  ARG D 557     -26.789   1.319 -17.183  1.00 35.49     0.034 C 
BRANCH   2   3
ATOM      3  CG  ARG D 557     -25.834   0.204 -17.169  1.00 35.49     0.027 C 
BRANCH   3   4
ATOM      4  CD  ARG D 557     -24.742   0.408 -16.190  1.00 35.49     0.116 C 
BRANCH   4   5
ATOM      5  NE  ARG D 557     -24.886  -0.437 -15.034  1.00 35.49    -0.212 N 
ATOM      6  CZ  ARG D 557     -24.067  -1.404 -14.683  1.00 35.49     0.666 C 
ATOM      7  NH1 ARG D 557     -22.997  -1.718 -15.389  1.00 35.49    -0.235 N 
ATOM      8  NH2 ARG D 557     -24.341  -2.055 -13.590  1.00 35.49    -0.235 N 
ATOM      9  HH  ARG D 557     -22.796  -1.302 -16.111  1.00 35.49     0.174 HD
ATOM     10  HH  ARG D 557     -22.498  -2.356 -15.110  1.00 35.49     0.174 HD
ATOM     11  HH  ARG D 557     -25.035  -1.825 -13.150  1.00 35.49     0.174 HD
ATOM     12  HH  ARG D 557     -23.834  -2.683 -13.329  1.00 35.49     0.174 HD
ATOM     13  HE  ARG D 557     -25.588  -0.352 -14.562  1.00 35.49     0.178 HD
ENDBRANCH   4   5
ENDBRANCH   3   4
ENDBRANCH   2   3
ENDBRANCH   1   2
END_RES ARG D 557
BEGIN_RES GLU D 570
REMARK  3 active torsions:
REMARK  status: ('A' for Active; 'I' for Inactive)
REMARK    5  A    between atoms: CA   and  CB  
REMARK    6  A    between atoms: CB   and  CG  
REMARK    7  A    between atoms: CG   and  CD  
ROOT
ATOM     14  CA  GLU D 570     -18.033  -6.348 -13.375  1.00 32.92     0.160 C 
ENDROOT
BRANCH  14  15
ATOM     15  CB  GLU D 570     -19.500  -6.345 -13.794  1.00 32.92     0.043 C 
BRANCH  15  16
ATOM     16  CG  GLU D 570     -20.446  -5.550 -12.969  1.00 32.92     0.100 C 
BRANCH  16  17
ATOM     17  CD  GLU D 570     -21.730  -5.223 -13.695  1.00 32.92     0.185 C 
ATOM     18  OE1 GLU D 570     -22.300  -4.140 -13.461  1.00 32.92    -0.647 OA
ATOM     19  OE2 GLU D 570     -22.181  -6.068 -14.494  1.00 32.92    -0.647 OA
ENDBRANCH  16  17
ENDBRANCH  15  16
ENDBRANCH  14  15
END_RES GLU D 570
ENDMDL
MODEL 2
REMARK VINA RESULT:      -4.7      3.138      3.973
REMARK  6 active torsions:
REMARK  status: ('A' for Active; 'I' for Inactive)
REMARK    1  A    between atoms: C_2  and  C_3 
REMARK    2  A    between atoms: C_3  and  C_4 
REMARK    3  A    between atoms: C_4  and  C_5 
REMARK    4  A    between atoms: C_5  and  C_6 
REMARK    5  A    between atoms: C_5  and  O_8 
REMARK    6  A    between atoms: C_6  and  O_7 
ROOT
HETATM    1  C   UNL     1     -23.936  -2.819 -13.825  1.00  0.00     0.141 C 
ENDROOT
BRANCH   1   2
HETATM    2  C   UNL     1     -22.684  -3.079 -12.983  1.00  0.00     0.034 C 
BRANCH   2   3
HETATM    3  C   UNL     1     -22.878  -4.171 -11.930  1.00  0.00     0.002 C 
BRANCH   3   4
HETATM    4  C   UNL     1     -21.975  -3.954 -10.716  1.00  0.00    -0.004 C 
HETATM    5  C   UNL     1     -20.516  -3.851 -11.129  1.00  0.00     0.005 C 
ENDBRANCH   3   4
ENDBRANCH   2   3
ENDBRANCH   1   2
BRANCH   1   6
HETATM    6  C   UNL     1     -23.849  -1.558 -14.696  1.00  0.00     0.195 C 
BRANCH   6   7
HETATM    7  O   UNL     1     -25.096  -0.866 -14.671  1.00  0.00    -0.398 OA
HETATM    8  H   UNL     1     -25.743  -1.469 -15.090  1.00  0.00     0.209 HD
ENDBRANCH   6   7
ENDBRANCH   1   6
BRANCH   1   9
HETATM    9  O   UNL     1     -24.157  -3.941 -14.696  1.00  0.00    -0.393 OA
HETATM   10  H   UNL     1     -25.117  -4.102 -14.737  1.00  0.00     0.210 HD
ENDBRANCH   1   9
TORSDOF 6
BEGIN_RES ARG D 557
REMARK  4 active torsions:
REMARK  status: ('A' for Active; 'I' for Inactive)
REMARK    1  A    between atoms: CA   and  CB  
REMARK    2  A    between atoms: CB   and  CG  
REMARK    3  A    between atoms: CG   and  CD  
REMARK    4  A    between atoms: CD   and  NE  
REMARK       I    between atoms: NE   and  CZ  
REMARK       I    between atoms: CZ   and  NH1 
REMARK       I    between atoms: CZ   and  NH2 
ROOT
ATOM      1  CA  ARG D 557     -26.217   2.705 -17.014  1.00 35.49     0.159 C 
ENDROOT
BRANCH   1   2
ATOM      2  CB  ARG D 557     -26.789   1.319 -17.183  1.00 35.49     0.034 C 
BRANCH   2   3
ATOM      3  CG  ARG D 557     -28.197   1.136 -16.812  1.00 35.49     0.027 C 
BRANCH   3   4
ATOM      4  CD  ARG D 557     -28.642  -0.269 -16.959  1.00 35.49     0.116 C 
BRANCH   4   5
ATOM      5  NE  ARG D 557     -27.768  -1.188 -16.278  1.00 35.49    -0.212 N 
ATOM      6  CZ  ARG D 557     -27.784  -2.497 -16.400  1.00 35.49     0.666 C 
ATOM      7  NH1 ARG D 557     -28.644  -3.126 -17.179  1.00 35.49    -0.235 N 
ATOM      8  NH2 ARG D 557     -26.904  -3.173 -15.721  1.00 35.49    -0.235 N 
ATOM      9  HH  ARG D 557     -29.230  -2.700 -17.637  1.00 35.49     0.174 HD
ATOM     10  HH  ARG D 557     -28.605  -3.981 -17.222  1.00 35.49     0.174 HD
ATOM     11  HH  ARG D 557     -26.356  -2.740 -15.232  1.00 35.49     0.174 HD
ATOM     12  HH  ARG D 557     -26.880  -4.019 -15.777  1.00 35.49     0.174 HD
ATOM     13  HE  ARG D 557     -27.230  -0.873 -15.699  1.00 35.49     0.178 HD
ENDBRANCH   4   5
ENDBRANCH   3   4
ENDBRANCH   2   3
ENDBRANCH   1   2
END_RES ARG D 557
BEGIN_RES GLU D 570
REMARK  3 active torsions:
REMARK  status: ('A' for Active; 'I' for Inactive)
REMARK    5  A    between atoms: CA   and  CB  
REMARK    6  A    between atoms: CB   and  CG  
REMARK    7  A    between atoms: CG   and  CD  
ROOT
ATOM     14  CA  GLU D 570     -18.033  -6.348 -13.375  1.00 32.92     0.160 C 
ENDROOT
BRANCH  14  15
ATOM     15  CB  GLU D 570     -19.500  -6.345 -13.794  1.00 32.92     0.043 C 
BRANCH  15  16
ATOM     16  CG  GLU D 570     -19.818  -5.883 -15.170  1.00 32.92     0.100 C 
BRANCH  16  17
ATOM     17  CD  GLU D 570     -21.284  -5.571 -15.363  1.00 32.92     0.185 C 
ATOM     18  OE1 GLU D 570     -21.610  -4.642 -16.126  1.00 32.92    -0.647 OA
ATOM     19  OE2 GLU D 570     -22.115  -6.253 -14.730  1.00 32.92    -0.647 OA
ENDBRANCH  16  17
ENDBRANCH  15  16
ENDBRANCH  14  15
END_RES GLU D 570
ENDMDL
MODEL 3
REMARK VINA RESULT:      -4.6      0.661      1.124
REMARK  6 active torsions:
REMARK  status: ('A' for Active; 'I' for Inactive)
REMARK    1  A    between atoms: C_2  and  C_3 
REMARK    2  A    between atoms: C_3  and  C_4 
REMARK    3  A    between atoms: C_4  and  C_5 
REMARK    4  A    between atoms: C_5  and  C_6 
REMARK    5  A    between atoms: C_5  and  O_8 
REMARK    6  A    between atoms: C_6  and  O_7 
ROOT
HETATM    1  C   UNL     1     -23.414  -3.594  -9.329  1.00  0.00     0.141 C 
ENDROOT
BRANCH   1   2
HETATM    2  C   UNL     1     -22.367  -4.630  -9.747  1.00  0.00     0.034 C 
BRANCH   2   3
HETATM    3  C   UNL     1     -20.930  -4.183  -9.478  1.00  0.00     0.002 C 
BRANCH   3   4
HETATM    4  C   UNL     1     -20.296  -4.973  -8.333  1.00  0.00    -0.004 C 
HETATM    5  C   UNL     1     -20.488  -4.262  -7.003  1.00  0.00     0.005 C 
ENDBRANCH   3   4
ENDBRANCH   2   3
ENDBRANCH   1   2
BRANCH   1   6
HETATM    6  C   UNL     1     -24.538  -3.395 -10.355  1.00  0.00     0.195 C 
BRANCH   6   7
HETATM    7  O   UNL     1     -25.790  -3.275  -9.684  1.00  0.00    -0.398 OA
HETATM    8  H   UNL     1     -26.184  -4.171  -9.694  1.00  0.00     0.209 HD
ENDBRANCH   6   7
ENDBRANCH   1   6
BRANCH   1   9
HETATM    9  O   UNL     1     -24.017  -4.009  -8.092  1.00  0.00    -0.393 OA
HETATM   10  H   UNL     1     -23.701  -3.412  -7.390  1.00  0.00     0.210 HD
ENDBRANCH   1   9
TORSDOF 6
BEGIN_RES ARG D 557
REMARK  4 active torsions:
REMARK  status: ('A' for Active; 'I' for Inactive)
REMARK    1  A    between atoms: CA   and  CB  
REMARK    2  A    between atoms: CB   and  CG  
REMARK    3  A    between atoms: CG   and  CD  
REMARK    4  A    between atoms: CD   and  NE  
REMARK       I    between atoms: NE   and  CZ  
REMARK       I    between atoms: CZ   and  NH1 
REMARK       I    between atoms: CZ   and  NH2 
ROOT
ATOM      1  CA  ARG D 557     -26.217   2.705 -17.014  1.00 35.49     0.159 C 
ENDROOT
BRANCH   1   2
ATOM      2  CB  ARG D 557     -26.789   1.319 -17.183  1.00 35.49     0.034 C 
BRANCH   2   3
ATOM      3  CG  ARG D 557     -25.855   0.196 -17.037  1.00 35.49     0.027 C 
BRANCH   3   4
ATOM      4  CD  ARG D 557     -26.216  -0.695 -15.911  1.00 35.49     0.116 C 
BRANCH   4   5
ATOM      5  NE  ARG D 557     -25.150  -0.816 -14.951  1.00 35.49    -0.212 N 
ATOM      6  CZ  ARG D 557     -24.769  -1.927 -14.361  1.00 35.49     0.666 C 
ATOM      7  NH1 ARG D 557     -25.357  -3.087 -14.588  1.00 35.49    -0.235 N 
ATOM      8  NH2 ARG D 557     -23.769  -1.854 -13.533  1.00 35.49    -0.235 N 
ATOM      9  HH  ARG D 557     -26.016  -3.159 -15.131  1.00 35.49     0.174 HD
ATOM     10  HH  ARG D 557     -25.064  -3.779 -14.176  1.00 35.49     0.174 HD
ATOM     11  HH  ARG D 557     -23.404  -1.093 -13.412  1.00 35.49     0.174 HD
ATOM     12  HH  ARG D 557     -23.492  -2.550 -13.136  1.00 35.49     0.174 HD
ATOM     13  HE  ARG D 557     -24.764  -0.104 -14.691  1.00 35.49     0.178 HD
ENDBRANCH   4   5
ENDBRANCH   3   4
ENDBRANCH   2   3
ENDBRANCH   1   2
END_RES ARG D 557
BEGIN_RES GLU D 570
REMARK  3 active torsions:
REMARK  status: ('A' for Active; 'I' for Inactive)
REMARK    5  A    between atoms: CA   and  CB  
REMARK    6  A    between atoms: CB   and  CG  
REMARK    7  A    between atoms: CG   and  CD  
ROOT
ATOM     14  CA  GLU D 570     -18.033  -6.348 -13.375  1.00 32.92     0.160 C 
ENDROOT
BRANCH  14  15
ATOM     15  CB  GLU D 570     -19.500  -6.345 -13.794  1.00 32.92     0.043 C 
BRANCH  15  16
ATOM     16  CG  GLU D 570     -20.437  -5.508 -13.001  1.00 32.92     0.100 C 
BRANCH  16  17
ATOM     17  CD  GLU D 570     -21.785  -5.344 -13.662  1.00 32.92     0.185 C 
ATOM     18  OE1 GLU D 570     -22.110  -6.126 -14.577  1.00 32.92    -0.647 OA
ATOM     19  OE2 GLU D 570     -22.519  -4.414 -13.273  1.00 32.92    -0.647 OA
ENDBRANCH  16  17
ENDBRANCH  15  16
ENDBRANCH  14  15
END_RES GLU D 570
ENDMDL
MODEL 4
REMARK VINA RESULT:      -4.4      3.763      6.513
REMARK  6 active torsions:
REMARK  status: ('A' for Active; 'I' for Inactive)
REMARK    1  A    between atoms: C_2  and  C_3 
REMARK    2  A    between atoms: C_3  and  C_4 
REMARK    3  A    between atoms: C_4  and  C_5 
REMARK    4  A    between atoms: C_5  and  C_6 
REMARK    5  A    between atoms: C_5  and  O_8 
REMARK    6  A    between atoms: C_6  and  O_7 
ROOT
HETATM    1  C   UNL     1     -26.485  -6.492 -15.993  1.00  0.00     0.141 C 
ENDROOT
BRANCH   1   2
HETATM    2  C   UNL     1     -27.902  -7.017 -15.745  1.00  0.00     0.034 C 
BRANCH   2   3
HETATM    3  C   UNL     1     -28.992  -6.112 -16.321  1.00  0.00     0.002 C 
BRANCH   3   4
HETATM    4  C   UNL     1     -29.002  -6.141 -17.850  1.00  0.00    -0.004 C 
HETATM    5  C   UNL     1     -29.309  -4.766 -18.422  1.00  0.00     0.005 C 
ENDBRANCH   3   4
ENDBRANCH   2   3
ENDBRANCH   1   2
BRANCH   1   6
HETATM    6  C   UNL     1     -26.266  -5.048 -15.523  1.00  0.00     0.195 C 
BRANCH   6   7
HETATM    7  O   UNL     1     -24.917  -4.880 -15.089  1.00  0.00    -0.398 OA
HETATM    8  H   UNL     1     -24.577  -4.101 -15.575  1.00  0.00     0.209 HD
ENDBRANCH   6   7
ENDBRANCH   1   6
BRANCH   1   9
HETATM    9  O   UNL     1     -25.547  -7.329 -15.295  1.00  0.00    -0.393 OA
HETATM   10  H   UNL     1     -24.677  -6.893 -15.326  1.00  0.00     0.210 HD
ENDBRANCH   1   9
TORSDOF 6
BEGIN_RES ARG D 557
REMARK  4 active torsions:
REMARK  status: ('A' for Active; 'I' for Inactive)
REMARK    1  A    between atoms: CA   and  CB  
REMARK    2  A    between atoms: CB   and  CG  
REMARK    3  A    between atoms: CG   and  CD  
REMARK    4  A    between atoms: CD   and  NE  
REMARK       I    between atoms: NE   and  CZ  
REMARK       I    between atoms: CZ   and  NH1 
REMARK       I    between atoms: CZ   and  NH2 
ROOT
ATOM      1  CA  ARG D 557     -26.217   2.705 -17.014  1.00 35.49     0.159 C 
ENDROOT
BRANCH   1   2
ATOM      2  CB  ARG D 557     -26.789   1.319 -17.183  1.00 35.49     0.034 C 
BRANCH   2   3
ATOM      3  CG  ARG D 557     -25.837   0.202 -17.148  1.00 35.49     0.027 C 
BRANCH   3   4
ATOM      4  CD  ARG D 557     -24.776   0.396 -16.133  1.00 35.49     0.116 C 
BRANCH   4   5
ATOM      5  NE  ARG D 557     -24.940  -0.480 -15.003  1.00 35.49    -0.212 N 
ATOM      6  CZ  ARG D 557     -24.129  -1.457 -14.665  1.00 35.49     0.666 C 
ATOM      7  NH1 ARG D 557     -23.047  -1.754 -15.362  1.00 35.49    -0.235 N 
ATOM      8  NH2 ARG D 557     -24.422  -2.138 -13.596  1.00 35.49    -0.235 N 
ATOM      9  HH  ARG D 557     -22.834  -1.317 -16.068  1.00 35.49     0.174 HD
ATOM     10  HH  ARG D 557     -22.554  -2.400 -15.092  1.00 35.49     0.174 HD
ATOM     11  HH  ARG D 557     -25.123  -1.920 -13.162  1.00 35.49     0.174 HD
ATOM     12  HH  ARG D 557     -23.920  -2.774 -13.344  1.00 35.49     0.174 HD
ATOM     13  HE  ARG D 557     -25.650  -0.407 -14.541  1.00 35.49     0.178 HD
ENDBRANCH   4   5
ENDBRANCH   3   4
ENDBRANCH   2   3
ENDBRANCH   1   2
END_RES ARG D 557
BEGIN_RES GLU D 570
REMARK  3 active torsions:
REMARK  status: ('A' for Active; 'I' for Inactive)
REMARK    5  A    between atoms: CA   and  CB  
REMARK    6  A    between atoms: CB   and  CG  
REMARK    7  A    between atoms: CG   and  CD  
ROOT
ATOM     14  CA  GLU D 570     -18.033  -6.348 -13.375  1.00 32.92     0.160 C 
ENDROOT
BRANCH  14  15
ATOM     15  CB  GLU D 570     -19.500  -6.345 -13.794  1.00 32.92     0.043 C 
BRANCH  15  16
ATOM     16  CG  GLU D 570     -20.442  -5.533 -12.981  1.00 32.92     0.100 C 
BRANCH  16  17
ATOM     17  CD  GLU D 570     -21.755  -5.276 -13.683  1.00 32.92     0.185 C 
ATOM     18  OE1 GLU D 570     -22.256  -6.180 -14.380  1.00 32.92    -0.647 OA
ATOM     19  OE2 GLU D 570     -22.280  -4.153 -13.548  1.00 32.92    -0.647 OA
ENDBRANCH  16  17
ENDBRANCH  15  16
ENDBRANCH  14  15
END_RES GLU D 570
ENDMDL
MODEL 5
REMARK VINA RESULT:      -4.3      2.725      3.351
REMARK  6 active torsions:
REMARK  status: ('A' for Active; 'I' for Inactive)
REMARK    1  A    between atoms: C_2  and  C_3 
REMARK    2  A    between atoms: C_3  and  C_4 
REMARK    3  A    between atoms: C_4  and  C_5 
REMARK    4  A    between atoms: C_5  and  C_6 
REMARK    5  A    between atoms: C_5  and  O_8 
REMARK    6  A    between atoms: C_6  and  O_7 
ROOT
HETATM    1  C   UNL     1     -24.102  -3.693 -11.581  1.00  0.00     0.141 C 
ENDROOT
BRANCH   1   2
HETATM    2  C   UNL     1     -22.718  -4.243 -11.942  1.00  0.00     0.034 C 
BRANCH   2   3
HETATM    3  C   UNL     1     -21.569  -3.364 -11.446  1.00  0.00     0.002 C 
BRANCH   3   4
HETATM    4  C   UNL     1     -20.411  -4.200 -10.901  1.00  0.00    -0.004 C 
HETATM    5  C   UNL     1     -20.551  -4.422  -9.404  1.00  0.00     0.005 C 
ENDBRANCH   3   4
ENDBRANCH   2   3
ENDBRANCH   1   2
BRANCH   1   6
HETATM    6  C   UNL     1     -24.290  -3.415 -10.084  1.00  0.00     0.195 C 
BRANCH   6   7
HETATM    7  O   UNL     1     -25.677  -3.252  -9.793  1.00  0.00    -0.398 OA
HETATM    8  H   UNL     1     -25.866  -3.862  -9.051  1.00  0.00     0.209 HD
ENDBRANCH   6   7
ENDBRANCH   1   6
BRANCH   1   9
HETATM    9  O   UNL     1     -24.315  -2.460 -12.288  1.00  0.00    -0.393 OA
HETATM   10  H   UNL     1     -24.033  -1.730 -11.709  1.00  0.00     0.210 HD
ENDBRANCH   1   9
TORSDOF 6
BEGIN_RES ARG D 557
REMARK  4 active torsions:
REMARK  status: ('A' for Active; 'I' for Inactive)
REMARK    1  A    between atoms: CA   and  CB  
REMARK    2  A    between atoms: CB   and  CG  
REMARK    3  A    between atoms: CG   and  CD  
REMARK    4  A    between atoms: CD   and  NE  
REMARK       I    between atoms: NE   and  CZ  
REMARK       I    between atoms: CZ   and  NH1 
REMARK       I    between atoms: CZ   and  NH2 
ROOT
ATOM      1  CA  ARG D 557     -26.217   2.705 -17.014  1.00 35.49     0.159 C 
ENDROOT
BRANCH   1   2
ATOM      2  CB  ARG D 557     -26.789   1.319 -17.183  1.00 35.49     0.034 C 
BRANCH   2   3
ATOM      3  CG  ARG D 557     -28.230   1.227 -17.449  1.00 35.49     0.027 C 
BRANCH   3   4
ATOM      4  CD  ARG D 557     -28.919   0.310 -16.512  1.00 35.49     0.116 C 
BRANCH   4   5
ATOM      5  NE  ARG D 557     -29.290  -0.930 -17.142  1.00 35.49    -0.212 N 
ATOM      6  CZ  ARG D 557     -28.653  -2.073 -17.022  1.00 35.49     0.666 C 
ATOM      7  NH1 ARG D 557     -27.558  -2.202 -16.296  1.00 35.49    -0.235 N 
ATOM      8  NH2 ARG D 557     -29.145  -3.103 -17.648  1.00 35.49    -0.235 N 
ATOM      9  HH  ARG D 557     -27.218  -1.538 -15.874  1.00 35.49     0.174 HD
ATOM     10  HH  ARG D 557     -27.186  -2.973 -16.253  1.00 35.49     0.174 HD
ATOM     11  HH  ARG D 557     -29.857  -2.992 -18.103  1.00 35.49     0.174 HD
ATOM     12  HH  ARG D 557     -28.763  -3.858 -17.591  1.00 35.49     0.174 HD
ATOM     13  HE  ARG D 557     -29.943  -0.921 -17.686  1.00 35.49     0.178 HD
ENDBRANCH   4   5
ENDBRANCH   3   4
ENDBRANCH   2   3
ENDBRANCH   1   2
END_RES ARG D 557
BEGIN_RES GLU D 570
REMARK  3 active torsions:
REMARK  status: ('A' for Active; 'I' for Inactive)
REMARK    5  A    between atoms: CA   and  CB  
REMARK    6  A    between atoms: CB   and  CG  
REMARK    7  A    between atoms: CG   and  CD  
ROOT
ATOM     14  CA  GLU D 570     -18.033  -6.348 -13.375  1.00 32.92     0.160 C 
ENDROOT
BRANCH  14  15
ATOM     15  CB  GLU D 570     -19.500  -6.345 -13.794  1.00 32.92     0.043 C 
BRANCH  15  16
ATOM     16  CG  GLU D 570     -19.815  -5.917 -15.182  1.00 32.92     0.100 C 
BRANCH  16  17
ATOM     17  CD  GLU D 570     -21.287  -5.653 -15.397  1.00 32.92     0.185 C 
ATOM     18  OE1 GLU D 570     -21.631  -4.736 -16.167  1.00 32.92    -0.647 OA
ATOM     19  OE2 GLU D 570     -22.105  -6.361 -14.777  1.00 32.92    -0.647 OA
ENDBRANCH  16  17
ENDBRANCH  15  16
ENDBRANCH  14  15
END_RES GLU D 570
ENDMDL
MODEL 6
REMARK VINA RESULT:      -4.2      4.509      6.995
REMARK  6 active torsions:
REMARK  status: ('A' for Active; 'I' for Inactive)
REMARK    1  A    between atoms: C_2  and  C_3 
REMARK    2  A    between atoms: C_3  and  C_4 
REMARK    3  A    between atoms: C_4  and  C_5 
REMARK    4  A    between atoms: C_5  and  C_6 
REMARK    5  A    between atoms: C_5  and  O_8 
REMARK    6  A    between atoms: C_6  and  O_7 
ROOT
HETATM    1  C   UNL     1     -30.434  -4.089 -17.790  1.00  0.00     0.141 C 
ENDROOT
BRANCH   1   2
HETATM    2  C   UNL     1     -28.917  -3.994 -17.600  1.00  0.00     0.034 C 
BRANCH   2   3
HETATM    3  C   UNL     1     -28.350  -5.089 -16.695  1.00  0.00     0.002 C 
BRANCH   3   4
HETATM    4  C   UNL     1     -27.196  -4.571 -15.836  1.00  0.00    -0.004 C 
HETATM    5  C   UNL     1     -27.129  -3.052 -15.865  1.00  0.00     0.005 C 
ENDBRANCH   3   4
ENDBRANCH   2   3
ENDBRANCH   1   2
BRANCH   1   6
HETATM    6  C   UNL     1     -31.118  -5.083 -16.841  1.00  0.00     0.195 C 
BRANCH   6   7
HETATM    7  O   UNL     1     -32.161  -4.427 -16.123  1.00  0.00    -0.398 OA
HETATM    8  H   UNL     1     -32.820  -5.120 -15.919  1.00  0.00     0.209 HD
ENDBRANCH   6   7
ENDBRANCH   1   6
BRANCH   1   9
HETATM    9  O   UNL     1     -31.016  -2.795 -17.565  1.00  0.00    -0.393 OA
HETATM   10  H   UNL     1     -30.589  -2.406 -16.781  1.00  0.00     0.210 HD
ENDBRANCH   1   9
TORSDOF 6
BEGIN_RES ARG D 557
REMARK  4 active torsions:
REMARK  status: ('A' for Active; 'I' for Inactive)
REMARK    1  A    between atoms: CA   and  CB  
REMARK    2  A    between atoms: CB   and  CG  
REMARK    3  A    between atoms: CG   and  CD  
REMARK    4  A    between atoms: CD   and  NE  
REMARK       I    between atoms: NE   and  CZ  
REMARK       I    between atoms: CZ   and  NH1 
REMARK       I    between atoms: CZ   and  NH2 
ROOT
ATOM      1  CA  ARG D 557     -26.217   2.705 -17.014  1.00 35.49     0.159 C 
ENDROOT
BRANCH   1   2
ATOM      2  CB  ARG D 557     -26.789   1.319 -17.183  1.00 35.49     0.034 C 
BRANCH   2   3
ATOM      3  CG  ARG D 557     -25.836   0.203 -17.155  1.00 35.49     0.027 C 
BRANCH   3   4
ATOM      4  CD  ARG D 557     -24.744   0.418 -16.178  1.00 35.49     0.116 C 
BRANCH   4   5
ATOM      5  NE  ARG D 557     -24.879  -0.425 -15.019  1.00 35.49    -0.212 N 
ATOM      6  CZ  ARG D 557     -24.061  -1.394 -14.675  1.00 35.49     0.666 C 
ATOM      7  NH1 ARG D 557     -23.001  -1.715 -15.392  1.00 35.49    -0.235 N 
ATOM      8  NH2 ARG D 557     -24.327  -2.042 -13.578  1.00 35.49    -0.235 N 
ATOM      9  HH  ARG D 557     -22.806  -1.301 -16.116  1.00 35.49     0.174 HD
ATOM     10  HH  ARG D 557     -22.502  -2.355 -15.117  1.00 35.49     0.174 HD
ATOM     11  HH  ARG D 557     -25.015  -1.808 -13.131  1.00 35.49     0.174 HD
ATOM     12  HH  ARG D 557     -23.820  -2.672 -13.321  1.00 35.49     0.174 HD
ATOM     13  HE  ARG D 557     -25.575  -0.335 -14.539  1.00 35.49     0.178 HD
ENDBRANCH   4   5
ENDBRANCH   3   4
ENDBRANCH   2   3
ENDBRANCH   1   2
END_RES ARG D 557
BEGIN_RES GLU D 570
REMARK  3 active torsions:
REMARK  status: ('A' for Active; 'I' for Inactive)
REMARK    5  A    between atoms: CA   and  CB  
REMARK    6  A    between atoms: CB   and  CG  
REMARK    7  A    between atoms: CG   and  CD  
ROOT
ATOM     14  CA  GLU D 570     -18.033  -6.348 -13.375  1.00 32.92     0.160 C 
ENDROOT
BRANCH  14  15
ATOM     15  CB  GLU D 570     -19.500  -6.345 -13.794  1.00 32.92     0.043 C 
BRANCH  15  16
ATOM     16  CG  GLU D 570     -20.440  -5.521 -12.991  1.00 32.92     0.100 C 
BRANCH  16  17
ATOM     17  CD  GLU D 570     -21.734  -5.230 -13.714  1.00 32.92     0.185 C 
ATOM     18  OE1 GLU D 570     -22.188  -6.077 -14.506  1.00 32.92    -0.647 OA
ATOM     19  OE2 GLU D 570     -22.291  -4.136 -13.498  1.00 32.92    -0.647 OA
ENDBRANCH  16  17
ENDBRANCH  15  16
ENDBRANCH  14  15
END_RES GLU D 570
ENDMDL
MODEL 7
REMARK VINA RESULT:      -4.1      4.079      7.249
REMARK  6 active torsions:
REMARK  status: ('A' for Active; 'I' for Inactive)
REMARK    1  A    between atoms: C_2  and  C_3 
REMARK    2  A    between atoms: C_3  and  C_4 
REMARK    3  A    between atoms: C_4  and  C_5 
REMARK    4  A    between atoms: C_5  and  C_6 
REMARK    5  A    between atoms: C_5  and  O_8 
REMARK    6  A    between atoms: C_6  and  O_7 
ROOT
HETATM    1  C   UNL     1     -27.173  -5.747 -16.967  1.00  0.00     0.141 C 
ENDROOT
BRANCH   1   2
HETATM    2  C   UNL     1     -28.106  -4.533 -16.943  1.00  0.00     0.034 C 
BRANCH   2   3
HETATM    3  C   UNL     1     -29.132  -4.534 -18.078  1.00  0.00     0.002 C 
BRANCH   3   4
HETATM    4  C   UNL     1     -30.432  -3.845 -17.666  1.00  0.00    -0.004 C 
HETATM    5  C   UNL     1     -31.297  -4.765 -16.820  1.00  0.00     0.005 C 
ENDBRANCH   3   4
ENDBRANCH   2   3
ENDBRANCH   1   2
BRANCH   1   6
HETATM    6  C   UNL     1     -27.471  -6.783 -15.875  1.00  0.00     0.195 C 
BRANCH   6   7
HETATM    7  O   UNL     1     -26.286  -7.515 -15.567  1.00  0.00    -0.398 OA
HETATM    8  H   UNL     1     -25.641  -6.854 -15.245  1.00  0.00     0.209 HD
ENDBRANCH   6   7
ENDBRANCH   1   6
BRANCH   1   9
HETATM    9  O   UNL     1     -27.291  -6.404 -18.240  1.00  0.00    -0.393 OA
HETATM   10  H   UNL     1     -27.648  -7.296 -18.085  1.00  0.00     0.210 HD
ENDBRANCH   1   9
TORSDOF 6
BEGIN_RES ARG D 557
REMARK  4 active torsions:
REMARK  status: ('A' for Active; 'I' for Inactive)
REMARK    1  A    between atoms: CA   and  CB  
REMARK    2  A    between atoms: CB   and  CG  
REMARK    3  A    between atoms: CG   and  CD  
REMARK    4  A    between atoms: CD   and  NE  
REMARK       I    between atoms: NE   and  CZ  
REMARK       I    between atoms: CZ   and  NH1 
REMARK       I    between atoms: CZ   and  NH2 
ROOT
ATOM      1  CA  ARG D 557     -26.217   2.705 -17.014  1.00 35.49     0.159 C 
ENDROOT
BRANCH   1   2
ATOM      2  CB  ARG D 557     -26.789   1.319 -17.183  1.00 35.49     0.034 C 
BRANCH   2   3
ATOM      3  CG  ARG D 557     -25.864   0.195 -16.996  1.00 35.49     0.027 C 
BRANCH   3   4
ATOM      4  CD  ARG D 557     -26.286  -0.707 -15.900  1.00 35.49     0.116 C 
BRANCH   4   5
ATOM      5  NE  ARG D 557     -25.236  -0.925 -14.941  1.00 35.49    -0.212 N 
ATOM      6  CZ  ARG D 557     -24.954  -2.067 -14.355  1.00 35.49     0.666 C 
ATOM      7  NH1 ARG D 557     -25.642  -3.170 -14.586  1.00 35.49    -0.235 N 
ATOM      8  NH2 ARG D 557     -23.951  -2.086 -13.526  1.00 35.49    -0.235 N 
ATOM      9  HH  ARG D 557     -26.305  -3.181 -15.129  1.00 35.49     0.174 HD
ATOM     10  HH  ARG D 557     -25.411  -3.887 -14.177  1.00 35.49     0.174 HD
ATOM     11  HH  ARG D 557     -23.521  -1.360 -13.403  1.00 35.49     0.174 HD
ATOM     12  HH  ARG D 557     -23.737  -2.805 -13.132  1.00 35.49     0.174 HD
ATOM     13  HE  ARG D 557     -24.788  -0.251 -14.679  1.00 35.49     0.178 HD
ENDBRANCH   4   5
ENDBRANCH   3   4
ENDBRANCH   2   3
ENDBRANCH   1   2
END_RES ARG D 557
BEGIN_RES GLU D 570
REMARK  3 active torsions:
REMARK  status: ('A' for Active; 'I' for Inactive)
REMARK    5  A    between atoms: CA   and  CB  
REMARK    6  A    between atoms: CB   and  CG  
REMARK    7  A    between atoms: CG   and  CD  
ROOT
ATOM     14  CA  GLU D 570     -18.033  -6.348 -13.375  1.00 32.92     0.160 C 
ENDROOT
BRANCH  14  15
ATOM     15  CB  GLU D 570     -19.500  -6.345 -13.794  1.00 32.92     0.043 C 
BRANCH  15  16
ATOM     16  CG  GLU D 570     -20.451  -5.576 -12.950  1.00 32.92     0.100 C 
BRANCH  16  17
ATOM     17  CD  GLU D 570     -21.682  -5.132 -13.705  1.00 32.92     0.185 C 
ATOM     18  OE1 GLU D 570     -22.730  -4.899 -13.072  1.00 32.92    -0.647 OA
ATOM     19  OE2 GLU D 570     -21.603  -5.031 -14.946  1.00 32.92    -0.647 OA
ENDBRANCH  16  17
ENDBRANCH  15  16
ENDBRANCH  14  15
END_RES GLU D 570
ENDMDL
MODEL 8
REMARK VINA RESULT:      -4.1      5.004      7.797
REMARK  6 active torsions:
REMARK  status: ('A' for Active; 'I' for Inactive)
REMARK    1  A    between atoms: C_2  and  C_3 
REMARK    2  A    between atoms: C_3  and  C_4 
REMARK    3  A    between atoms: C_4  and  C_5 
REMARK    4  A    between atoms: C_5  and  C_6 
REMARK    5  A    between atoms: C_5  and  O_8 
REMARK    6  A    between atoms: C_6  and  O_7 
ROOT
HETATM    1  C   UNL     1     -29.802  -7.348 -17.424  1.00  0.00     0.141 C 
ENDROOT
BRANCH   1   2
HETATM    2  C   UNL     1     -28.868  -6.137 -17.507  1.00  0.00     0.034 C 
BRANCH   2   3
HETATM    3  C   UNL     1     -29.459  -4.968 -18.296  1.00  0.00     0.002 C 
BRANCH   3   4
HETATM    4  C   UNL     1     -29.223  -3.632 -17.592  1.00  0.00    -0.004 C 
HETATM    5  C   UNL     1     -28.055  -3.723 -16.622  1.00  0.00     0.005 C 
ENDBRANCH   3   4
ENDBRANCH   2   3
ENDBRANCH   1   2
BRANCH   1   6
HETATM    6  C   UNL     1     -30.363  -7.795 -18.781  1.00  0.00     0.195 C 
BRANCH   6   7
HETATM    7  O   UNL     1     -29.572  -8.863 -19.301  1.00  0.00    -0.398 OA
HETATM    8  H   UNL     1     -28.653  -8.673 -19.024  1.00  0.00     0.209 HD
ENDBRANCH   6   7
ENDBRANCH   1   6
BRANCH   1   9
HETATM    9  O   UNL     1     -29.084  -8.456 -16.857  1.00  0.00    -0.393 OA
HETATM   10  H   UNL     1     -28.641  -8.143 -16.048  1.00  0.00     0.210 HD
ENDBRANCH   1   9
TORSDOF 6
BEGIN_RES ARG D 557
REMARK  4 active torsions:
REMARK  status: ('A' for Active; 'I' for Inactive)
REMARK    1  A    between atoms: CA   and  CB  
REMARK    2  A    between atoms: CB   and  CG  
REMARK    3  A    between atoms: CG   and  CD  
REMARK    4  A    between atoms: CD   and  NE  
REMARK       I    between atoms: NE   and  CZ  
REMARK       I    between atoms: CZ   and  NH1 
REMARK       I    between atoms: CZ   and  NH2 
ROOT
ATOM      1  CA  ARG D 557     -26.217   2.705 -17.014  1.00 35.49     0.159 C 
ENDROOT
BRANCH   1   2
ATOM      2  CB  ARG D 557     -26.789   1.319 -17.183  1.00 35.49     0.034 C 
BRANCH   2   3
ATOM      3  CG  ARG D 557     -25.859   0.196 -17.018  1.00 35.49     0.027 C 
BRANCH   3   4
ATOM      4  CD  ARG D 557     -26.181  -0.635 -15.835  1.00 35.49     0.116 C 
BRANCH   4   5
ATOM      5  NE  ARG D 557     -25.069  -0.742 -14.928  1.00 35.49    -0.212 N 
ATOM      6  CZ  ARG D 557     -24.639  -1.850 -14.368  1.00 35.49     0.666 C 
ATOM      7  NH1 ARG D 557     -25.214  -3.020 -14.577  1.00 35.49    -0.235 N 
ATOM      8  NH2 ARG D 557     -23.601  -1.764 -13.586  1.00 35.49    -0.235 N 
ATOM      9  HH  ARG D 557     -25.896  -3.100 -15.089  1.00 35.49     0.174 HD
ATOM     10  HH  ARG D 557     -24.887  -3.709 -14.186  1.00 35.49     0.174 HD
ATOM     11  HH  ARG D 557     -23.246  -0.997 -13.476  1.00 35.49     0.174 HD
ATOM     12  HH  ARG D 557     -23.292  -2.458 -13.210  1.00 35.49     0.174 HD
ATOM     13  HE  ARG D 557     -24.685  -0.025 -14.681  1.00 35.49     0.178 HD
ENDBRANCH   4   5
ENDBRANCH   3   4
ENDBRANCH   2   3
ENDBRANCH   1   2
END_RES ARG D 557
BEGIN_RES GLU D 570
REMARK  3 active torsions:
REMARK  status: ('A' for Active; 'I' for Inactive)
REMARK    5  A    between atoms: CA   and  CB  
REMARK    6  A    between atoms: CB   and  CG  
REMARK    7  A    between atoms: CG   and  CD  
ROOT
ATOM     14  CA  GLU D 570     -18.033  -6.348 -13.375  1.00 32.92     0.160 C 
ENDROOT
BRANCH  14  15
ATOM     15  CB  GLU D 570     -19.500  -6.345 -13.794  1.00 32.92     0.043 C 
BRANCH  15  16
ATOM     16  CG  GLU D 570     -20.440  -5.523 -12.989  1.00 32.92     0.100 C 
BRANCH  16  17
ATOM     17  CD  GLU D 570     -21.653  -5.077 -13.773  1.00 32.92     0.185 C 
ATOM     18  OE1 GLU D 570     -21.643  -5.181 -15.014  1.00 32.92    -0.647 OA
ATOM     19  OE2 GLU D 570     -22.616  -4.603 -13.139  1.00 32.92    -0.647 OA
ENDBRANCH  16  17
ENDBRANCH  15  16
ENDBRANCH  14  15
END_RES GLU D 570
ENDMDL
MODEL 9
REMARK VINA RESULT:      -4.1      5.268      7.879
REMARK  6 active torsions:
REMARK  status: ('A' for Active; 'I' for Inactive)
REMARK    1  A    between atoms: C_2  and  C_3 
REMARK    2  A    between atoms: C_3  and  C_4 
REMARK    3  A    between atoms: C_4  and  C_5 
REMARK    4  A    between atoms: C_5  and  C_6 
REMARK    5  A    between atoms: C_5  and  O_8 
REMARK    6  A    between atoms: C_6  and  O_7 
ROOT
HETATM    1  C   UNL     1     -30.036  -3.639 -17.876  1.00  0.00     0.141 C 
ENDROOT
BRANCH   1   2
HETATM    2  C   UNL     1     -28.887  -4.544 -17.423  1.00  0.00     0.034 C 
BRANCH   2   3
HETATM    3  C   UNL     1     -28.691  -5.768 -18.318  1.00  0.00     0.002 C 
BRANCH   3   4
HETATM    4  C   UNL     1     -29.226  -7.041 -17.661  1.00  0.00    -0.004 C 
HETATM    5  C   UNL     1     -30.461  -7.554 -18.386  1.00  0.00     0.005 C 
ENDBRANCH   3   4
ENDBRANCH   2   3
ENDBRANCH   1   2
BRANCH   1   6
HETATM    6  C   UNL     1     -31.387  -3.980 -17.234  1.00  0.00     0.195 C 
BRANCH   6   7
HETATM    7  O   UNL     1     -32.378  -3.051 -17.671  1.00  0.00    -0.398 OA
HETATM    8  H   UNL     1     -33.132  -3.593 -17.982  1.00  0.00     0.209 HD
ENDBRANCH   6   7
ENDBRANCH   1   6
BRANCH   1   9
HETATM    9  O   UNL     1     -29.720  -2.277 -17.540  1.00  0.00    -0.393 OA
HETATM   10  H   UNL     1     -30.557  -1.784 -17.472  1.00  0.00     0.210 HD
ENDBRANCH   1   9
TORSDOF 6
BEGIN_RES ARG D 557
REMARK  4 active torsions:
REMARK  status: ('A' for Active; 'I' for Inactive)
REMARK    1  A    between atoms: CA   and  CB  
REMARK    2  A    between atoms: CB   and  CG  
REMARK    3  A    between atoms: CG   and  CD  
REMARK    4  A    between atoms: CD   and  NE  
REMARK       I    between atoms: NE   and  CZ  
REMARK       I    between atoms: CZ   and  NH1 
REMARK       I    between atoms: CZ   and  NH2 
ROOT
ATOM      1  CA  ARG D 557     -26.217   2.705 -17.014  1.00 35.49     0.159 C 
ENDROOT
BRANCH   1   2
ATOM      2  CB  ARG D 557     -26.789   1.319 -17.183  1.00 35.49     0.034 C 
BRANCH   2   3
ATOM      3  CG  ARG D 557     -25.865   0.195 -16.992  1.00 35.49     0.027 C 
BRANCH   3   4
ATOM      4  CD  ARG D 557     -26.302  -0.718 -15.910  1.00 35.49     0.116 C 
BRANCH   4   5
ATOM      5  NE  ARG D 557     -25.265  -0.942 -14.938  1.00 35.49    -0.212 N 
ATOM      6  CZ  ARG D 557     -24.989  -2.090 -14.360  1.00 35.49     0.666 C 
ATOM      7  NH1 ARG D 557     -25.671  -3.192 -14.612  1.00 35.49    -0.235 N 
ATOM      8  NH2 ARG D 557     -23.999  -2.114 -13.516  1.00 35.49    -0.235 N 
ATOM      9  HH  ARG D 557     -26.325  -3.199 -15.165  1.00 35.49     0.174 HD
ATOM     10  HH  ARG D 557     -25.444  -3.912 -14.207  1.00 35.49     0.174 HD
ATOM     11  HH  ARG D 557     -23.572  -1.389 -13.379  1.00 35.49     0.174 HD
ATOM     12  HH  ARG D 557     -23.789  -2.837 -13.126  1.00 35.49     0.174 HD
ATOM     13  HE  ARG D 557     -24.823  -0.269 -14.663  1.00 35.49     0.178 HD
ENDBRANCH   4   5
ENDBRANCH   3   4
ENDBRANCH   2   3
ENDBRANCH   1   2
END_RES ARG D 557
BEGIN_RES GLU D 570
REMARK  3 active torsions:
REMARK  status: ('A' for Active; 'I' for Inactive)
REMARK    5  A    between atoms: CA   and  CB  
REMARK    6  A    between atoms: CB   and  CG  
REMARK    7  A    between atoms: CG   and  CD  
ROOT
ATOM     14  CA  GLU D 570     -18.033  -6.348 -13.375  1.00 32.92     0.160 C 
ENDROOT
BRANCH  14  15
ATOM     15  CB  GLU D 570     -19.500  -6.345 -13.794  1.00 32.92     0.043 C 
BRANCH  15  16
ATOM     16  CG  GLU D 570     -20.448  -5.558 -12.963  1.00 32.92     0.100 C 
BRANCH  16  17
ATOM     17  CD  GLU D 570     -21.684  -5.133 -13.721  1.00 32.92     0.185 C 
ATOM     18  OE1 GLU D 570     -21.621  -5.007 -14.959  1.00 32.92    -0.647 OA
ATOM     19  OE2 GLU D 570     -22.722  -4.909 -13.068  1.00 32.92    -0.647 OA
ENDBRANCH  16  17
ENDBRANCH  15  16
ENDBRANCH  14  15
END_RES GLU D 570
ENDMDL
