MODEL 1
REMARK VINA RESULT:      -6.3      0.000      0.000
REMARK  16 active torsions:
REMARK  status: ('A' for Active; 'I' for Inactive)
REMARK    1  A    between atoms: C_2  and  C_4 
REMARK    2  A    between atoms: C_4  and  C_5 
REMARK    3  A    between atoms: C_5  and  C_6 
REMARK    4  A    between atoms: C_6  and  C_7 
REMARK    5  A    between atoms: C_7  and  C_8 
REMARK    6  A    between atoms: C_8  and  C_9 
REMARK    7  A    between atoms: C_9  and  C_10 
REMARK    8  A    between atoms: C_10  and  C_11 
REMARK    9  A    between atoms: C_11  and  C_12 
REMARK   10  A    between atoms: C_12  and  C_13 
REMARK   11  A    between atoms: C_13  and  C_14 
REMARK   12  A    between atoms: C_14  and  C_15 
REMARK   13  A    between atoms: C_15  and  C_16 
REMARK   14  A    between atoms: C_16  and  C_17 
REMARK   15  A    between atoms: C_17  and  C_18 
REMARK   16  A    between atoms: C_18  and  O_19 
ROOT
HETATM    1  C   UNL     1     -21.830  -6.244  -5.497  1.00  0.00     0.000 C 
ENDROOT
BRANCH   1   2
HETATM    2  C   UNL     1     -21.523  -7.722  -5.310  1.00  0.00     0.000 C 
BRANCH   2   3
HETATM    3  C   UNL     1     -20.027  -7.931  -5.135  1.00  0.00     0.000 C 
BRANCH   3   4
HETATM    4  C   UNL     1     -19.755  -9.304  -4.539  1.00  0.00     0.000 C 
BRANCH   4   5
HETATM    5  C   UNL     1     -19.002  -9.183  -3.222  1.00  0.00     0.000 C 
BRANCH   5   6
HETATM    6  C   UNL     1     -19.977  -9.301  -2.058  1.00  0.00     0.000 C 
BRANCH   6   7
HETATM    7  C   UNL     1     -20.349  -7.930  -1.503  1.00  0.00     0.004 C 
BRANCH   7   8
HETATM    8  C   UNL     1     -21.862  -7.662  -1.540  1.00  0.00    -0.023 C 
HETATM    9  C   UNL     1     -22.494  -8.107  -0.221  1.00  0.00     0.009 C 
HETATM   10  C   UNL     1     -22.188  -6.190  -1.805  1.00  0.00     0.009 C 
ENDBRANCH   7   8
ENDBRANCH   6   7
ENDBRANCH   5   6
ENDBRANCH   4   5
ENDBRANCH   3   4
ENDBRANCH   2   3
ENDBRANCH   1   2
BRANCH   1  11
HETATM   11  C   UNL     1     -20.621  -5.398  -5.127  1.00  0.00     0.000 C 
BRANCH  11  12
HETATM   12  C   UNL     1     -20.332  -4.384  -6.225  1.00  0.00     0.000 C 
BRANCH  12  13
HETATM   13  C   UNL     1     -19.443  -4.998  -7.296  1.00  0.00     0.000 C 
BRANCH  13  14
HETATM   14  C   UNL     1     -20.070  -4.825  -8.674  1.00  0.00     0.000 C 
BRANCH  14  15
HETATM   15  C   UNL     1     -21.380  -4.058  -8.572  1.00  0.00     0.000 C 
BRANCH  15  16
HETATM   16  C   UNL     1     -22.158  -4.150  -9.882  1.00  0.00     0.002 C 
BRANCH  16  17
HETATM   17  C   UNL     1     -23.632  -4.430  -9.622  1.00  0.00     0.026 C 
BRANCH  17  18
HETATM   18  C   UNL     1     -24.516  -3.466 -10.397  1.00  0.00     0.164 C 
BRANCH  18  19
HETATM   19  O   UNL     1     -25.730  -3.256  -9.691  1.00  0.00    -0.401 OA
HETATM   20  H   UNL     1     -26.334  -3.981  -9.921  1.00  0.00     0.209 HD
ENDBRANCH  18  19
ENDBRANCH  17  18
ENDBRANCH  16  17
ENDBRANCH  15  16
ENDBRANCH  14  15
ENDBRANCH  13  14
ENDBRANCH  12  13
ENDBRANCH  11  12
ENDBRANCH   1  11
TORSDOF 16
BEGIN_RES ARG D 557
REMARK  4 active torsions:
REMARK  status: ('A' for Active; 'I' for Inactive)
REMARK    1  A    between atoms: CA   and  CB  
REMARK    2  A    between atoms: CB   and  CG  
REMARK    3  A    between atoms: CG   and  CD  
REMARK    4  A    between atoms: CD   and  NE  
REMARK       I    between atoms: NE   and  CZ  
REMARK       I    between atoms: CZ   and  NH1 
REMARK       I    between atoms: CZ   and  NH2 
ROOT
ATOM      1  CA  ARG D 557     -26.217   2.705 -17.014  1.00 35.49     0.159 C 
ENDROOT
BRANCH   1   2
ATOM      2  CB  ARG D 557     -26.789   1.319 -17.183  1.00 35.49     0.034 C 
BRANCH   2   3
ATOM      3  CG  ARG D 557     -25.833   0.205 -17.178  1.00 35.49     0.027 C 
BRANCH   3   4
ATOM      4  CD  ARG D 557     -24.735   0.408 -16.206  1.00 35.49     0.116 C 
BRANCH   4   5
ATOM      5  NE  ARG D 557     -24.880  -0.423 -15.040  1.00 35.49    -0.212 N 
ATOM      6  CZ  ARG D 557     -24.075  -1.400 -14.688  1.00 35.49     0.666 C 
ATOM      7  NH1 ARG D 557     -23.018  -1.740 -15.402  1.00 35.49    -0.235 N 
ATOM      8  NH2 ARG D 557     -24.349  -2.036 -13.586  1.00 35.49    -0.235 N 
ATOM      9  HH  ARG D 557     -22.817  -1.334 -16.129  1.00 35.49     0.174 HD
ATOM     10  HH  ARG D 557     -22.527  -2.384 -15.121  1.00 35.49     0.174 HD
ATOM     11  HH  ARG D 557     -25.034  -1.789 -13.141  1.00 35.49     0.174 HD
ATOM     12  HH  ARG D 557     -23.850  -2.669 -13.324  1.00 35.49     0.174 HD
ATOM     13  HE  ARG D 557     -25.576  -0.321 -14.562  1.00 35.49     0.178 HD
ENDBRANCH   4   5
ENDBRANCH   3   4
ENDBRANCH   2   3
ENDBRANCH   1   2
END_RES ARG D 557
BEGIN_RES GLU D 570
REMARK  3 active torsions:
REMARK  status: ('A' for Active; 'I' for Inactive)
REMARK    5  A    between atoms: CA   and  CB  
REMARK    6  A    between atoms: CB   and  CG  
REMARK    7  A    between atoms: CG   and  CD  
ROOT
ATOM     14  CA  GLU D 570     -18.033  -6.348 -13.375  1.00 32.92     0.160 C 
ENDROOT
BRANCH  14  15
ATOM     15  CB  GLU D 570     -19.500  -6.345 -13.794  1.00 32.92     0.043 C 
BRANCH  15  16
ATOM     16  CG  GLU D 570     -20.442  -5.530 -12.984  1.00 32.92     0.100 C 
BRANCH  16  17
ATOM     17  CD  GLU D 570     -21.725  -5.212 -13.715  1.00 32.92     0.185 C 
ATOM     18  OE1 GLU D 570     -22.344  -4.169 -13.427  1.00 32.92    -0.647 OA
ATOM     19  OE2 GLU D 570     -22.125  -6.023 -14.573  1.00 32.92    -0.647 OA
ENDBRANCH  16  17
ENDBRANCH  15  16
ENDBRANCH  14  15
END_RES GLU D 570
ENDMDL
MODEL 2
REMARK VINA RESULT:      -6.2      1.214      2.235
REMARK  16 active torsions:
REMARK  status: ('A' for Active; 'I' for Inactive)
REMARK    1  A    between atoms: C_2  and  C_4 
REMARK    2  A    between atoms: C_4  and  C_5 
REMARK    3  A    between atoms: C_5  and  C_6 
REMARK    4  A    between atoms: C_6  and  C_7 
REMARK    5  A    between atoms: C_7  and  C_8 
REMARK    6  A    between atoms: C_8  and  C_9 
REMARK    7  A    between atoms: C_9  and  C_10 
REMARK    8  A    between atoms: C_10  and  C_11 
REMARK    9  A    between atoms: C_11  and  C_12 
REMARK   10  A    between atoms: C_12  and  C_13 
REMARK   11  A    between atoms: C_13  and  C_14 
REMARK   12  A    between atoms: C_14  and  C_15 
REMARK   13  A    between atoms: C_15  and  C_16 
REMARK   14  A    between atoms: C_16  and  C_17 
REMARK   15  A    between atoms: C_17  and  C_18 
REMARK   16  A    between atoms: C_18  and  O_19 
ROOT
HETATM    1  C   UNL     1     -20.646  -7.791  -5.344  1.00  0.00     0.000 C 
ENDROOT
BRANCH   1   2
HETATM    2  C   UNL     1     -21.612  -8.031  -4.195  1.00  0.00     0.000 C 
BRANCH   2   3
HETATM    3  C   UNL     1     -20.968  -7.638  -2.874  1.00  0.00     0.000 C 
BRANCH   3   4
HETATM    4  C   UNL     1     -21.593  -6.355  -2.347  1.00  0.00     0.000 C 
BRANCH   4   5
HETATM    5  C   UNL     1     -22.453  -6.635  -1.123  1.00  0.00     0.000 C 
BRANCH   5   6
HETATM    6  C   UNL     1     -21.868  -7.801  -0.337  1.00  0.00     0.000 C 
BRANCH   6   7
HETATM    7  C   UNL     1     -22.965  -8.693   0.234  1.00  0.00     0.004 C 
BRANCH   7   8
HETATM    8  C   UNL     1     -22.659 -10.191   0.075  1.00  0.00    -0.023 C 
HETATM    9  C   UNL     1     -23.687 -10.828  -0.859  1.00  0.00     0.009 C 
HETATM   10  C   UNL     1     -21.245 -10.444  -0.453  1.00  0.00     0.009 C 
ENDBRANCH   7   8
ENDBRANCH   6   7
ENDBRANCH   5   6
ENDBRANCH   4   5
ENDBRANCH   3   4
ENDBRANCH   2   3
ENDBRANCH   1   2
BRANCH   1  11
HETATM   11  C   UNL     1     -21.099  -6.605  -6.182  1.00  0.00     0.000 C 
BRANCH  11  12
HETATM   12  C   UNL     1     -20.394  -5.336  -5.724  1.00  0.00     0.000 C 
BRANCH  12  13
HETATM   13  C   UNL     1     -20.559  -4.232  -6.758  1.00  0.00     0.000 C 
BRANCH  13  14
HETATM   14  C   UNL     1     -19.810  -4.583  -8.037  1.00  0.00     0.000 C 
BRANCH  14  15
HETATM   15  C   UNL     1     -20.726  -4.459  -9.245  1.00  0.00     0.000 C 
BRANCH  15  16
HETATM   16  C   UNL     1     -22.110  -3.973  -8.820  1.00  0.00     0.002 C 
BRANCH  16  17
HETATM   17  C   UNL     1     -23.163  -4.361  -9.848  1.00  0.00     0.026 C 
BRANCH  17  18
HETATM   18  C   UNL     1     -24.331  -3.387  -9.829  1.00  0.00     0.164 C 
BRANCH  18  19
HETATM   19  O   UNL     1     -24.896  -3.290 -11.128  1.00  0.00    -0.401 OA
HETATM   20  H   UNL     1     -24.192  -3.005 -11.734  1.00  0.00     0.209 HD
ENDBRANCH  18  19
ENDBRANCH  17  18
ENDBRANCH  16  17
ENDBRANCH  15  16
ENDBRANCH  14  15
ENDBRANCH  13  14
ENDBRANCH  12  13
ENDBRANCH  11  12
ENDBRANCH   1  11
TORSDOF 16
BEGIN_RES ARG D 557
REMARK  4 active torsions:
REMARK  status: ('A' for Active; 'I' for Inactive)
REMARK    1  A    between atoms: CA   and  CB  
REMARK    2  A    between atoms: CB   and  CG  
REMARK    3  A    between atoms: CG   and  CD  
REMARK    4  A    between atoms: CD   and  NE  
REMARK       I    between atoms: NE   and  CZ  
REMARK       I    between atoms: CZ   and  NH1 
REMARK       I    between atoms: CZ   and  NH2 
ROOT
ATOM      1  CA  ARG D 557     -26.217   2.705 -17.014  1.00 35.49     0.159 C 
ENDROOT
BRANCH   1   2
ATOM      2  CB  ARG D 557     -26.789   1.319 -17.183  1.00 35.49     0.034 C 
BRANCH   2   3
ATOM      3  CG  ARG D 557     -25.858   0.196 -17.021  1.00 35.49     0.027 C 
BRANCH   3   4
ATOM      4  CD  ARG D 557     -26.202  -0.660 -15.862  1.00 35.49     0.116 C 
BRANCH   4   5
ATOM      5  NE  ARG D 557     -25.078  -0.868 -14.989  1.00 35.49    -0.212 N 
ATOM      6  CZ  ARG D 557     -24.848  -1.949 -14.276  1.00 35.49     0.666 C 
ATOM      7  NH1 ARG D 557     -25.665  -2.986 -14.278  1.00 35.49    -0.235 N 
ATOM      8  NH2 ARG D 557     -23.765  -1.974 -13.555  1.00 35.49    -0.235 N 
ATOM      9  HH  ARG D 557     -26.382  -2.992 -14.747  1.00 35.49     0.174 HD
ATOM     10  HH  ARG D 557     -25.463  -3.664 -13.796  1.00 35.49     0.174 HD
ATOM     11  HH  ARG D 557     -23.253  -1.292 -13.579  1.00 35.49     0.174 HD
ATOM     12  HH  ARG D 557     -23.582  -2.655 -13.085  1.00 35.49     0.174 HD
ATOM     13  HE  ARG D 557     -24.538  -0.222 -14.871  1.00 35.49     0.178 HD
ENDBRANCH   4   5
ENDBRANCH   3   4
ENDBRANCH   2   3
ENDBRANCH   1   2
END_RES ARG D 557
BEGIN_RES GLU D 570
REMARK  3 active torsions:
REMARK  status: ('A' for Active; 'I' for Inactive)
REMARK    5  A    between atoms: CA   and  CB  
REMARK    6  A    between atoms: CB   and  CG  
REMARK    7  A    between atoms: CG   and  CD  
ROOT
ATOM     14  CA  GLU D 570     -18.033  -6.348 -13.375  1.00 32.92     0.160 C 
ENDROOT
BRANCH  14  15
ATOM     15  CB  GLU D 570     -19.500  -6.345 -13.794  1.00 32.92     0.043 C 
BRANCH  15  16
ATOM     16  CG  GLU D 570     -20.448  -5.559 -12.963  1.00 32.92     0.100 C 
BRANCH  16  17
ATOM     17  CD  GLU D 570     -21.664  -5.098 -13.732  1.00 32.92     0.185 C 
ATOM     18  OE1 GLU D 570     -21.609  -5.045 -14.976  1.00 32.92    -0.647 OA
ATOM     19  OE2 GLU D 570     -22.677  -4.771 -13.083  1.00 32.92    -0.647 OA
ENDBRANCH  16  17
ENDBRANCH  15  16
ENDBRANCH  14  15
END_RES GLU D 570
ENDMDL
MODEL 3
REMARK VINA RESULT:      -6.1      2.217      3.044
REMARK  16 active torsions:
REMARK  status: ('A' for Active; 'I' for Inactive)
REMARK    1  A    between atoms: C_2  and  C_4 
REMARK    2  A    between atoms: C_4  and  C_5 
REMARK    3  A    between atoms: C_5  and  C_6 
REMARK    4  A    between atoms: C_6  and  C_7 
REMARK    5  A    between atoms: C_7  and  C_8 
REMARK    6  A    between atoms: C_8  and  C_9 
REMARK    7  A    between atoms: C_9  and  C_10 
REMARK    8  A    between atoms: C_10  and  C_11 
REMARK    9  A    between atoms: C_11  and  C_12 
REMARK   10  A    between atoms: C_12  and  C_13 
REMARK   11  A    between atoms: C_13  and  C_14 
REMARK   12  A    between atoms: C_14  and  C_15 
REMARK   13  A    between atoms: C_15  and  C_16 
REMARK   14  A    between atoms: C_16  and  C_17 
REMARK   15  A    between atoms: C_17  and  C_18 
REMARK   16  A    between atoms: C_18  and  O_19 
ROOT
HETATM    1  C   UNL     1     -20.409  -5.106  -6.583  1.00  0.00     0.000 C 
ENDROOT
BRANCH   1   2
HETATM    2  C   UNL     1     -20.870  -5.529  -5.197  1.00  0.00     0.000 C 
BRANCH   2   3
HETATM    3  C   UNL     1     -20.685  -7.028  -5.015  1.00  0.00     0.000 C 
BRANCH   3   4
HETATM    4  C   UNL     1     -21.182  -7.455  -3.643  1.00  0.00     0.000 C 
BRANCH   4   5
HETATM    5  C   UNL     1     -21.712  -6.261  -2.863  1.00  0.00     0.000 C 
BRANCH   5   6
HETATM    6  C   UNL     1     -22.051  -6.684  -1.440  1.00  0.00     0.000 C 
BRANCH   6   7
HETATM    7  C   UNL     1     -21.291  -7.944  -1.038  1.00  0.00     0.004 C 
BRANCH   7   8
HETATM    8  C   UNL     1     -21.946  -8.687   0.137  1.00  0.00    -0.023 C 
HETATM    9  C   UNL     1     -21.055  -8.579   1.373  1.00  0.00     0.009 C 
HETATM   10  C   UNL     1     -23.347  -8.157   0.454  1.00  0.00     0.009 C 
ENDBRANCH   7   8
ENDBRANCH   6   7
ENDBRANCH   5   6
ENDBRANCH   4   5
ENDBRANCH   3   4
ENDBRANCH   2   3
ENDBRANCH   1   2
BRANCH   1  11
HETATM   11  C   UNL     1     -21.200  -3.899  -7.062  1.00  0.00     0.000 C 
BRANCH  11  12
HETATM   12  C   UNL     1     -21.641  -4.097  -8.505  1.00  0.00     0.000 C 
BRANCH  12  13
HETATM   13  C   UNL     1     -20.440  -4.393  -9.393  1.00  0.00     0.000 C 
BRANCH  13  14
HETATM   14  C   UNL     1     -20.786  -4.146 -10.856  1.00  0.00     0.000 C 
BRANCH  14  15
HETATM   15  C   UNL     1     -22.255  -3.782 -11.005  1.00  0.00     0.000 C 
BRANCH  15  16
HETATM   16  C   UNL     1     -22.423  -2.616 -11.976  1.00  0.00     0.002 C 
BRANCH  16  17
HETATM   17  C   UNL     1     -22.739  -3.116 -13.378  1.00  0.00     0.026 C 
BRANCH  17  18
HETATM   18  C   UNL     1     -23.871  -4.130 -13.355  1.00  0.00     0.164 C 
BRANCH  18  19
HETATM   19  O   UNL     1     -24.247  -4.460 -14.685  1.00  0.00    -0.401 OA
HETATM   20  H   UNL     1     -24.905  -3.807 -14.975  1.00  0.00     0.209 HD
ENDBRANCH  18  19
ENDBRANCH  17  18
ENDBRANCH  16  17
ENDBRANCH  15  16
ENDBRANCH  14  15
ENDBRANCH  13  14
ENDBRANCH  12  13
ENDBRANCH  11  12
ENDBRANCH   1  11
TORSDOF 16
BEGIN_RES ARG D 557
REMARK  4 active torsions:
REMARK  status: ('A' for Active; 'I' for Inactive)
REMARK    1  A    between atoms: CA   and  CB  
REMARK    2  A    between atoms: CB   and  CG  
REMARK    3  A    between atoms: CG   and  CD  
REMARK    4  A    between atoms: CD   and  NE  
REMARK       I    between atoms: NE   and  CZ  
REMARK       I    between atoms: CZ   and  NH1 
REMARK       I    between atoms: CZ   and  NH2 
ROOT
ATOM      1  CA  ARG D 557     -26.217   2.705 -17.014  1.00 35.49     0.159 C 
ENDROOT
BRANCH   1   2
ATOM      2  CB  ARG D 557     -26.789   1.319 -17.183  1.00 35.49     0.034 C 
BRANCH   2   3
ATOM      3  CG  ARG D 557     -28.236   1.172 -16.983  1.00 35.49     0.027 C 
BRANCH   3   4
ATOM      4  CD  ARG D 557     -28.645  -0.244 -16.841  1.00 35.49     0.116 C 
BRANCH   4   5
ATOM      5  NE  ARG D 557     -27.663  -1.024 -16.136  1.00 35.49    -0.212 N 
ATOM      6  CZ  ARG D 557     -27.525  -2.329 -16.206  1.00 35.49     0.666 C 
ATOM      7  NH1 ARG D 557     -28.311  -3.087 -16.948  1.00 35.49    -0.235 N 
ATOM      8  NH2 ARG D 557     -26.564  -2.869 -15.513  1.00 35.49    -0.235 N 
ATOM      9  HH  ARG D 557     -28.948  -2.753 -17.413  1.00 35.49     0.174 HD
ATOM     10  HH  ARG D 557     -28.172  -3.933 -16.956  1.00 35.49     0.174 HD
ATOM     11  HH  ARG D 557     -26.068  -2.354 -15.049  1.00 35.49     0.174 HD
ATOM     12  HH  ARG D 557     -26.442  -3.708 -15.536  1.00 35.49     0.174 HD
ATOM     13  HE  ARG D 557     -27.161  -0.625 -15.578  1.00 35.49     0.178 HD
ENDBRANCH   4   5
ENDBRANCH   3   4
ENDBRANCH   2   3
ENDBRANCH   1   2
END_RES ARG D 557
BEGIN_RES GLU D 570
REMARK  3 active torsions:
REMARK  status: ('A' for Active; 'I' for Inactive)
REMARK    5  A    between atoms: CA   and  CB  
REMARK    6  A    between atoms: CB   and  CG  
REMARK    7  A    between atoms: CG   and  CD  
ROOT
ATOM     14  CA  GLU D 570     -18.033  -6.348 -13.375  1.00 32.92     0.160 C 
ENDROOT
BRANCH  14  15
ATOM     15  CB  GLU D 570     -19.500  -6.345 -13.794  1.00 32.92     0.043 C 
BRANCH  15  16
ATOM     16  CG  GLU D 570     -19.810  -5.970 -15.198  1.00 32.92     0.100 C 
BRANCH  16  17
ATOM     17  CD  GLU D 570     -21.293  -5.863 -15.465  1.00 32.92     0.185 C 
ATOM     18  OE1 GLU D 570     -22.068  -6.669 -14.915  1.00 32.92    -0.647 OA
ATOM     19  OE2 GLU D 570     -21.684  -4.973 -16.247  1.00 32.92    -0.647 OA
ENDBRANCH  16  17
ENDBRANCH  15  16
ENDBRANCH  14  15
END_RES GLU D 570
ENDMDL
MODEL 4
REMARK VINA RESULT:      -6.0      2.209      3.012
REMARK  16 active torsions:
REMARK  status: ('A' for Active; 'I' for Inactive)
REMARK    1  A    between atoms: C_2  and  C_4 
REMARK    2  A    between atoms: C_4  and  C_5 
REMARK    3  A    between atoms: C_5  and  C_6 
REMARK    4  A    between atoms: C_6  and  C_7 
REMARK    5  A    between atoms: C_7  and  C_8 
REMARK    6  A    between atoms: C_8  and  C_9 
REMARK    7  A    between atoms: C_9  and  C_10 
REMARK    8  A    between atoms: C_10  and  C_11 
REMARK    9  A    between atoms: C_11  and  C_12 
REMARK   10  A    between atoms: C_12  and  C_13 
REMARK   11  A    between atoms: C_13  and  C_14 
REMARK   12  A    between atoms: C_14  and  C_15 
REMARK   13  A    between atoms: C_15  and  C_16 
REMARK   14  A    between atoms: C_16  and  C_17 
REMARK   15  A    between atoms: C_17  and  C_18 
REMARK   16  A    between atoms: C_18  and  O_19 
ROOT
HETATM    1  C   UNL     1     -22.094  -6.098  -5.522  1.00  0.00     0.000 C 
ENDROOT
BRANCH   1   2
HETATM    2  C   UNL     1     -21.872  -7.104  -4.404  1.00  0.00     0.000 C 
BRANCH   2   3
HETATM    3  C   UNL     1     -21.399  -6.396  -3.144  1.00  0.00     0.000 C 
BRANCH   3   4
HETATM    4  C   UNL     1     -21.407  -7.360  -1.967  1.00  0.00     0.000 C 
BRANCH   4   5
HETATM    5  C   UNL     1     -22.225  -6.797  -0.812  1.00  0.00     0.000 C 
BRANCH   5   6
HETATM    6  C   UNL     1     -22.982  -7.924  -0.121  1.00  0.00     0.000 C 
BRANCH   6   7
HETATM    7  C   UNL     1     -22.028  -8.987   0.415  1.00  0.00     0.004 C 
BRANCH   7   8
HETATM    8  C   UNL     1     -22.297 -10.381  -0.174  1.00  0.00    -0.023 C 
HETATM    9  C   UNL     1     -21.445 -11.419   0.555  1.00  0.00     0.009 C 
HETATM   10  C   UNL     1     -23.775 -10.771  -0.099  1.00  0.00     0.009 C 
ENDBRANCH   7   8
ENDBRANCH   6   7
ENDBRANCH   5   6
ENDBRANCH   4   5
ENDBRANCH   3   4
ENDBRANCH   2   3
ENDBRANCH   1   2
BRANCH   1  11
HETATM   11  C   UNL     1     -20.847  -5.978  -6.386  1.00  0.00     0.000 C 
BRANCH  11  12
HETATM   12  C   UNL     1     -20.451  -4.517  -6.538  1.00  0.00     0.000 C 
BRANCH  12  13
HETATM   13  C   UNL     1     -19.489  -4.344  -7.705  1.00  0.00     0.000 C 
BRANCH  13  14
HETATM   14  C   UNL     1     -20.115  -4.866  -8.993  1.00  0.00     0.000 C 
BRANCH  14  15
HETATM   15  C   UNL     1     -21.248  -3.958  -9.444  1.00  0.00     0.000 C 
BRANCH  15  16
HETATM   16  C   UNL     1     -22.555  -4.740  -9.541  1.00  0.00     0.002 C 
BRANCH  16  17
HETATM   17  C   UNL     1     -23.720  -3.926  -8.997  1.00  0.00     0.026 C 
BRANCH  17  18
HETATM   18  C   UNL     1     -24.597  -3.403 -10.125  1.00  0.00     0.164 C 
BRANCH  18  19
HETATM   19  O   UNL     1     -25.935  -3.269  -9.669  1.00  0.00    -0.401 OA
HETATM   20  H   UNL     1     -25.903  -2.949  -8.753  1.00  0.00     0.209 HD
ENDBRANCH  18  19
ENDBRANCH  17  18
ENDBRANCH  16  17
ENDBRANCH  15  16
ENDBRANCH  14  15
ENDBRANCH  13  14
ENDBRANCH  12  13
ENDBRANCH  11  12
ENDBRANCH   1  11
TORSDOF 16
BEGIN_RES ARG D 557
REMARK  4 active torsions:
REMARK  status: ('A' for Active; 'I' for Inactive)
REMARK    1  A    between atoms: CA   and  CB  
REMARK    2  A    between atoms: CB   and  CG  
REMARK    3  A    between atoms: CG   and  CD  
REMARK    4  A    between atoms: CD   and  NE  
REMARK       I    between atoms: NE   and  CZ  
REMARK       I    between atoms: CZ   and  NH1 
REMARK       I    between atoms: CZ   and  NH2 
ROOT
ATOM      1  CA  ARG D 557     -26.217   2.705 -17.014  1.00 35.49     0.159 C 
ENDROOT
BRANCH   1   2
ATOM      2  CB  ARG D 557     -26.789   1.319 -17.183  1.00 35.49     0.034 C 
BRANCH   2   3
ATOM      3  CG  ARG D 557     -28.237   1.224 -17.406  1.00 35.49     0.027 C 
BRANCH   3   4
ATOM      4  CD  ARG D 557     -28.892   0.282 -16.470  1.00 35.49     0.116 C 
BRANCH   4   5
ATOM      5  NE  ARG D 557     -29.317  -0.926 -17.125  1.00 35.49    -0.212 N 
ATOM      6  CZ  ARG D 557     -28.722  -2.095 -17.042  1.00 35.49     0.666 C 
ATOM      7  NH1 ARG D 557     -27.624  -2.283 -16.334  1.00 35.49    -0.235 N 
ATOM      8  NH2 ARG D 557     -29.259  -3.089 -17.688  1.00 35.49    -0.235 N 
ATOM      9  HH  ARG D 557     -27.254  -1.644 -15.900  1.00 35.49     0.174 HD
ATOM     10  HH  ARG D 557     -27.282  -3.069 -16.315  1.00 35.49     0.174 HD
ATOM     11  HH  ARG D 557     -29.972  -2.940 -18.131  1.00 35.49     0.174 HD
ATOM     12  HH  ARG D 557     -28.906  -3.860 -17.655  1.00 35.49     0.174 HD
ATOM     13  HE  ARG D 557     -29.975  -0.879 -17.661  1.00 35.49     0.178 HD
ENDBRANCH   4   5
ENDBRANCH   3   4
ENDBRANCH   2   3
ENDBRANCH   1   2
END_RES ARG D 557
BEGIN_RES GLU D 570
REMARK  3 active torsions:
REMARK  status: ('A' for Active; 'I' for Inactive)
REMARK    5  A    between atoms: CA   and  CB  
REMARK    6  A    between atoms: CB   and  CG  
REMARK    7  A    between atoms: CG   and  CD  
ROOT
ATOM     14  CA  GLU D 570     -18.033  -6.348 -13.375  1.00 32.92     0.160 C 
ENDROOT
BRANCH  14  15
ATOM     15  CB  GLU D 570     -19.500  -6.345 -13.794  1.00 32.92     0.043 C 
BRANCH  15  16
ATOM     16  CG  GLU D 570     -20.451  -5.577 -12.950  1.00 32.92     0.100 C 
BRANCH  16  17
ATOM     17  CD  GLU D 570     -21.687  -5.141 -13.702  1.00 32.92     0.185 C 
ATOM     18  OE1 GLU D 570     -22.724  -4.879 -13.063  1.00 32.92    -0.647 OA
ATOM     19  OE2 GLU D 570     -21.623  -5.077 -14.946  1.00 32.92    -0.647 OA
ENDBRANCH  16  17
ENDBRANCH  15  16
ENDBRANCH  14  15
END_RES GLU D 570
ENDMDL
MODEL 5
REMARK VINA RESULT:      -5.7      2.929      5.399
REMARK  16 active torsions:
REMARK  status: ('A' for Active; 'I' for Inactive)
REMARK    1  A    between atoms: C_2  and  C_4 
REMARK    2  A    between atoms: C_4  and  C_5 
REMARK    3  A    between atoms: C_5  and  C_6 
REMARK    4  A    between atoms: C_6  and  C_7 
REMARK    5  A    between atoms: C_7  and  C_8 
REMARK    6  A    between atoms: C_8  and  C_9 
REMARK    7  A    between atoms: C_9  and  C_10 
REMARK    8  A    between atoms: C_10  and  C_11 
REMARK    9  A    between atoms: C_11  and  C_12 
REMARK   10  A    between atoms: C_12  and  C_13 
REMARK   11  A    between atoms: C_13  and  C_14 
REMARK   12  A    between atoms: C_14  and  C_15 
REMARK   13  A    between atoms: C_15  and  C_16 
REMARK   14  A    between atoms: C_16  and  C_17 
REMARK   15  A    between atoms: C_17  and  C_18 
REMARK   16  A    between atoms: C_18  and  O_19 
ROOT
HETATM    1  C   UNL     1     -21.321  -3.760 -10.877  1.00  0.00     0.000 C 
ENDROOT
BRANCH   1   2
HETATM    2  C   UNL     1     -20.982  -4.114  -9.437  1.00  0.00     0.000 C 
BRANCH   2   3
HETATM    3  C   UNL     1     -22.155  -3.789  -8.525  1.00  0.00     0.000 C 
BRANCH   3   4
HETATM    4  C   UNL     1     -22.016  -4.535  -7.206  1.00  0.00     0.000 C 
BRANCH   4   5
HETATM    5  C   UNL     1     -20.571  -4.524  -6.728  1.00  0.00     0.000 C 
BRANCH   5   6
HETATM    6  C   UNL     1     -20.293  -5.772  -5.900  1.00  0.00     0.000 C 
BRANCH   6   7
HETATM    7  C   UNL     1     -20.638  -5.552  -4.430  1.00  0.00     0.004 C 
BRANCH   7   8
HETATM    8  C   UNL     1     -21.843  -6.388  -3.969  1.00  0.00    -0.023 C 
HETATM    9  C   UNL     1     -21.721  -7.809  -4.517  1.00  0.00     0.009 C 
HETATM   10  C   UNL     1     -21.979  -6.424  -2.445  1.00  0.00     0.009 C 
ENDBRANCH   7   8
ENDBRANCH   6   7
ENDBRANCH   5   6
ENDBRANCH   4   5
ENDBRANCH   3   4
ENDBRANCH   2   3
ENDBRANCH   1   2
BRANCH   1  11
HETATM   11  C   UNL     1     -22.754  -3.260 -10.979  1.00  0.00     0.000 C 
BRANCH  11  12
HETATM   12  C   UNL     1     -23.015  -2.690 -12.365  1.00  0.00     0.000 C 
BRANCH  12  13
HETATM   13  C   UNL     1     -24.394  -3.102 -12.860  1.00  0.00     0.000 C 
BRANCH  13  14
HETATM   14  C   UNL     1     -24.303  -3.694 -14.261  1.00  0.00     0.000 C 
BRANCH  14  15
HETATM   15  C   UNL     1     -23.146  -4.677 -14.352  1.00  0.00     0.000 C 
BRANCH  15  16
HETATM   16  C   UNL     1     -23.655  -6.114 -14.284  1.00  0.00     0.002 C 
BRANCH  16  17
HETATM   17  C   UNL     1     -24.777  -6.343 -15.287  1.00  0.00     0.026 C 
BRANCH  17  18
HETATM   18  C   UNL     1     -24.370  -7.366 -16.337  1.00  0.00     0.164 C 
BRANCH  18  19
HETATM   19  O   UNL     1     -23.484  -6.767 -17.272  1.00  0.00    -0.401 OA
HETATM   20  H   UNL     1     -23.974  -6.641 -18.101  1.00  0.00     0.209 HD
ENDBRANCH  18  19
ENDBRANCH  17  18
ENDBRANCH  16  17
ENDBRANCH  15  16
ENDBRANCH  14  15
ENDBRANCH  13  14
ENDBRANCH  12  13
ENDBRANCH  11  12
ENDBRANCH   1  11
TORSDOF 16
BEGIN_RES ARG D 557
REMARK  4 active torsions:
REMARK  status: ('A' for Active; 'I' for Inactive)
REMARK    1  A    between atoms: CA   and  CB  
REMARK    2  A    between atoms: CB   and  CG  
REMARK    3  A    between atoms: CG   and  CD  
REMARK    4  A    between atoms: CD   and  NE  
REMARK       I    between atoms: NE   and  CZ  
REMARK       I    between atoms: CZ   and  NH1 
REMARK       I    between atoms: CZ   and  NH2 
ROOT
ATOM      1  CA  ARG D 557     -26.217   2.705 -17.014  1.00 35.49     0.159 C 
ENDROOT
BRANCH   1   2
ATOM      2  CB  ARG D 557     -26.789   1.319 -17.183  1.00 35.49     0.034 C 
BRANCH   2   3
ATOM      3  CG  ARG D 557     -28.232   1.226 -17.435  1.00 35.49     0.027 C 
BRANCH   3   4
ATOM      4  CD  ARG D 557     -28.910   0.301 -16.498  1.00 35.49     0.116 C 
BRANCH   4   5
ATOM      5  NE  ARG D 557     -29.293  -0.932 -17.134  1.00 35.49    -0.212 N 
ATOM      6  CZ  ARG D 557     -28.657  -2.078 -17.034  1.00 35.49     0.666 C 
ATOM      7  NH1 ARG D 557     -27.553  -2.216 -16.323  1.00 35.49    -0.235 N 
ATOM      8  NH2 ARG D 557     -29.159  -3.100 -17.663  1.00 35.49    -0.235 N 
ATOM      9  HH  ARG D 557     -27.206  -1.558 -15.899  1.00 35.49     0.174 HD
ATOM     10  HH  ARG D 557     -27.184  -2.989 -16.292  1.00 35.49     0.174 HD
ATOM     11  HH  ARG D 557     -29.877  -2.982 -18.108  1.00 35.49     0.174 HD
ATOM     12  HH  ARG D 557     -28.780  -3.857 -17.619  1.00 35.49     0.174 HD
ATOM     13  HE  ARG D 557     -29.952  -0.916 -17.670  1.00 35.49     0.178 HD
ENDBRANCH   4   5
ENDBRANCH   3   4
ENDBRANCH   2   3
ENDBRANCH   1   2
END_RES ARG D 557
BEGIN_RES GLU D 570
REMARK  3 active torsions:
REMARK  status: ('A' for Active; 'I' for Inactive)
REMARK    5  A    between atoms: CA   and  CB  
REMARK    6  A    between atoms: CB   and  CG  
REMARK    7  A    between atoms: CG   and  CD  
ROOT
ATOM     14  CA  GLU D 570     -18.033  -6.348 -13.375  1.00 32.92     0.160 C 
ENDROOT
BRANCH  14  15
ATOM     15  CB  GLU D 570     -19.500  -6.345 -13.794  1.00 32.92     0.043 C 
BRANCH  15  16
ATOM     16  CG  GLU D 570     -20.087  -7.635 -14.240  1.00 32.92     0.100 C 
BRANCH  16  17
ATOM     17  CD  GLU D 570     -20.654  -7.572 -15.639  1.00 32.92     0.185 C 
ATOM     18  OE1 GLU D 570     -20.646  -6.485 -16.247  1.00 32.92    -0.647 OA
ATOM     19  OE2 GLU D 570     -21.126  -8.619 -16.126  1.00 32.92    -0.647 OA
ENDBRANCH  16  17
ENDBRANCH  15  16
ENDBRANCH  14  15
END_RES GLU D 570
ENDMDL
MODEL 6
REMARK VINA RESULT:      -5.5      1.589      2.589
REMARK  16 active torsions:
REMARK  status: ('A' for Active; 'I' for Inactive)
REMARK    1  A    between atoms: C_2  and  C_4 
REMARK    2  A    between atoms: C_4  and  C_5 
REMARK    3  A    between atoms: C_5  and  C_6 
REMARK    4  A    between atoms: C_6  and  C_7 
REMARK    5  A    between atoms: C_7  and  C_8 
REMARK    6  A    between atoms: C_8  and  C_9 
REMARK    7  A    between atoms: C_9  and  C_10 
REMARK    8  A    between atoms: C_10  and  C_11 
REMARK    9  A    between atoms: C_11  and  C_12 
REMARK   10  A    between atoms: C_12  and  C_13 
REMARK   11  A    between atoms: C_13  and  C_14 
REMARK   12  A    between atoms: C_14  and  C_15 
REMARK   13  A    between atoms: C_15  and  C_16 
REMARK   14  A    between atoms: C_16  and  C_17 
REMARK   15  A    between atoms: C_17  and  C_18 
REMARK   16  A    between atoms: C_18  and  O_19 
ROOT
HETATM    1  C   UNL     1     -20.364  -4.978  -5.666  1.00  0.00     0.000 C 
ENDROOT
BRANCH   1   2
HETATM    2  C   UNL     1     -21.383  -6.091  -5.474  1.00  0.00     0.000 C 
BRANCH   2   3
HETATM    3  C   UNL     1     -20.679  -7.399  -5.150  1.00  0.00     0.000 C 
BRANCH   3   4
HETATM    4  C   UNL     1     -21.535  -8.237  -4.212  1.00  0.00     0.000 C 
BRANCH   4   5
HETATM    5  C   UNL     1     -20.887  -8.345  -2.839  1.00  0.00     0.000 C 
BRANCH   5   6
HETATM    6  C   UNL     1     -21.197  -7.097  -2.024  1.00  0.00     0.000 C 
BRANCH   6   7
HETATM    7  C   UNL     1     -22.223  -7.387  -0.933  1.00  0.00     0.004 C 
BRANCH   7   8
HETATM    8  C   UNL     1     -21.954  -8.709  -0.197  1.00  0.00    -0.023 C 
HETATM    9  C   UNL     1     -21.400  -8.416   1.197  1.00  0.00     0.009 C 
HETATM   10  C   UNL     1     -23.206  -9.582  -0.089  1.00  0.00     0.009 C 
ENDBRANCH   7   8
ENDBRANCH   6   7
ENDBRANCH   5   6
ENDBRANCH   4   5
ENDBRANCH   3   4
ENDBRANCH   2   3
ENDBRANCH   1   2
BRANCH   1  11
HETATM   11  C   UNL     1     -20.746  -4.104  -6.851  1.00  0.00     0.000 C 
BRANCH  11  12
HETATM   12  C   UNL     1     -22.196  -4.352  -7.242  1.00  0.00     0.000 C 
BRANCH  12  13
HETATM   13  C   UNL     1     -22.396  -4.104  -8.730  1.00  0.00     0.000 C 
BRANCH  13  14
HETATM   14  C   UNL     1     -23.851  -3.759  -9.021  1.00  0.00     0.000 C 
BRANCH  14  15
HETATM   15  C   UNL     1     -24.069  -3.573 -10.515  1.00  0.00     0.000 C 
BRANCH  15  16
HETATM   16  C   UNL     1     -22.928  -4.210 -11.306  1.00  0.00     0.002 C 
BRANCH  16  17
HETATM   17  C   UNL     1     -23.446  -5.315 -12.216  1.00  0.00     0.026 C 
BRANCH  17  18
HETATM   18  C   UNL     1     -22.996  -5.096 -13.652  1.00  0.00     0.164 C 
BRANCH  18  19
HETATM   19  O   UNL     1     -22.021  -4.065 -13.697  1.00  0.00    -0.401 OA
HETATM   20  H   UNL     1     -22.156  -3.499 -12.920  1.00  0.00     0.209 HD
ENDBRANCH  18  19
ENDBRANCH  17  18
ENDBRANCH  16  17
ENDBRANCH  15  16
ENDBRANCH  14  15
ENDBRANCH  13  14
ENDBRANCH  12  13
ENDBRANCH  11  12
ENDBRANCH   1  11
TORSDOF 16
BEGIN_RES ARG D 557
REMARK  4 active torsions:
REMARK  status: ('A' for Active; 'I' for Inactive)
REMARK    1  A    between atoms: CA   and  CB  
REMARK    2  A    between atoms: CB   and  CG  
REMARK    3  A    between atoms: CG   and  CD  
REMARK    4  A    between atoms: CD   and  NE  
REMARK       I    between atoms: NE   and  CZ  
REMARK       I    between atoms: CZ   and  NH1 
REMARK       I    between atoms: CZ   and  NH2 
ROOT
ATOM      1  CA  ARG D 557     -26.217   2.705 -17.014  1.00 35.49     0.159 C 
ENDROOT
BRANCH   1   2
ATOM      2  CB  ARG D 557     -26.789   1.319 -17.183  1.00 35.49     0.034 C 
BRANCH   2   3
ATOM      3  CG  ARG D 557     -25.833   0.205 -17.183  1.00 35.49     0.027 C 
BRANCH   3   4
ATOM      4  CD  ARG D 557     -24.695   0.438 -16.264  1.00 35.49     0.116 C 
BRANCH   4   5
ATOM      5  NE  ARG D 557     -24.800  -0.345 -15.062  1.00 35.49    -0.212 N 
ATOM      6  CZ  ARG D 557     -23.997  -1.325 -14.711  1.00 35.49     0.666 C 
ATOM      7  NH1 ARG D 557     -22.983  -1.715 -15.462  1.00 35.49    -0.235 N 
ATOM      8  NH2 ARG D 557     -24.229  -1.913 -13.573  1.00 35.49    -0.235 N 
ATOM      9  HH  ARG D 557     -22.811  -1.341 -16.213  1.00 35.49     0.174 HD
ATOM     10  HH  ARG D 557     -22.492  -2.358 -15.181  1.00 35.49     0.174 HD
ATOM     11  HH  ARG D 557     -24.886  -1.635 -13.106  1.00 35.49     0.174 HD
ATOM     12  HH  ARG D 557     -23.730  -2.547 -13.311  1.00 35.49     0.174 HD
ATOM     13  HE  ARG D 557     -25.468  -0.210 -14.554  1.00 35.49     0.178 HD
ENDBRANCH   4   5
ENDBRANCH   3   4
ENDBRANCH   2   3
ENDBRANCH   1   2
END_RES ARG D 557
BEGIN_RES GLU D 570
REMARK  3 active torsions:
REMARK  status: ('A' for Active; 'I' for Inactive)
REMARK    5  A    between atoms: CA   and  CB  
REMARK    6  A    between atoms: CB   and  CG  
REMARK    7  A    between atoms: CG   and  CD  
ROOT
ATOM     14  CA  GLU D 570     -18.033  -6.348 -13.375  1.00 32.92     0.160 C 
ENDROOT
BRANCH  14  15
ATOM     15  CB  GLU D 570     -19.500  -6.345 -13.794  1.00 32.92     0.043 C 
BRANCH  15  16
ATOM     16  CG  GLU D 570     -19.932  -7.369 -14.780  1.00 32.92     0.100 C 
BRANCH  16  17
ATOM     17  CD  GLU D 570     -20.735  -6.787 -15.920  1.00 32.92     0.185 C 
ATOM     18  OE1 GLU D 570     -21.454  -7.542 -16.602  1.00 32.92    -0.647 OA
ATOM     19  OE2 GLU D 570     -20.632  -5.564 -16.144  1.00 32.92    -0.647 OA
ENDBRANCH  16  17
ENDBRANCH  15  16
ENDBRANCH  14  15
END_RES GLU D 570
ENDMDL
MODEL 7
REMARK VINA RESULT:      -5.4      3.257      7.514
REMARK  16 active torsions:
REMARK  status: ('A' for Active; 'I' for Inactive)
REMARK    1  A    between atoms: C_2  and  C_4 
REMARK    2  A    between atoms: C_4  and  C_5 
REMARK    3  A    between atoms: C_5  and  C_6 
REMARK    4  A    between atoms: C_6  and  C_7 
REMARK    5  A    between atoms: C_7  and  C_8 
REMARK    6  A    between atoms: C_8  and  C_9 
REMARK    7  A    between atoms: C_9  and  C_10 
REMARK    8  A    between atoms: C_10  and  C_11 
REMARK    9  A    between atoms: C_11  and  C_12 
REMARK   10  A    between atoms: C_12  and  C_13 
REMARK   11  A    between atoms: C_13  and  C_14 
REMARK   12  A    between atoms: C_14  and  C_15 
REMARK   13  A    between atoms: C_15  and  C_16 
REMARK   14  A    between atoms: C_16  and  C_17 
REMARK   15  A    between atoms: C_17  and  C_18 
REMARK   16  A    between atoms: C_18  and  O_19 
ROOT
HETATM    1  C   UNL     1     -21.023  -6.045  -7.014  1.00  0.00     0.000 C 
ENDROOT
BRANCH   1   2
HETATM    2  C   UNL     1     -21.302  -4.922  -8.001  1.00  0.00     0.000 C 
BRANCH   2   3
HETATM    3  C   UNL     1     -20.018  -4.506  -8.702  1.00  0.00     0.000 C 
BRANCH   3   4
HETATM    4  C   UNL     1     -20.157  -4.693 -10.206  1.00  0.00     0.000 C 
BRANCH   4   5
HETATM    5  C   UNL     1     -20.665  -3.419 -10.865  1.00  0.00     0.000 C 
BRANCH   5   6
HETATM    6  C   UNL     1     -21.767  -3.758 -11.860  1.00  0.00     0.000 C 
BRANCH   6   7
HETATM    7  C   UNL     1     -23.027  -2.940 -11.595  1.00  0.00     0.004 C 
BRANCH   7   8
HETATM    8  C   UNL     1     -24.133  -3.755 -10.907  1.00  0.00    -0.023 C 
HETATM    9  C   UNL     1     -23.748  -5.234 -10.894  1.00  0.00     0.009 C 
HETATM   10  C   UNL     1     -24.411  -3.275  -9.481  1.00  0.00     0.009 C 
ENDBRANCH   7   8
ENDBRANCH   6   7
ENDBRANCH   5   6
ENDBRANCH   4   5
ENDBRANCH   3   4
ENDBRANCH   2   3
ENDBRANCH   1   2
BRANCH   1  11
HETATM   11  C   UNL     1     -21.821  -5.841  -5.736  1.00  0.00     0.000 C 
BRANCH  11  12
HETATM   12  C   UNL     1     -21.355  -6.815  -4.663  1.00  0.00     0.000 C 
BRANCH  12  13
HETATM   13  C   UNL     1     -21.433  -6.170  -3.287  1.00  0.00     0.000 C 
BRANCH  13  14
HETATM   14  C   UNL     1     -21.499  -7.236  -2.201  1.00  0.00     0.000 C 
BRANCH  14  15
HETATM   15  C   UNL     1     -22.304  -6.739  -1.011  1.00  0.00     0.000 C 
BRANCH  15  16
HETATM   16  C   UNL     1     -22.672  -7.900  -0.090  1.00  0.00     0.002 C 
BRANCH  16  17
HETATM   17  C   UNL     1     -21.455  -8.389   0.683  1.00  0.00     0.026 C 
BRANCH  17  18
HETATM   18  C   UNL     1     -21.295  -9.896   0.555  1.00  0.00     0.164 C 
BRANCH  18  19
HETATM   19  O   UNL     1     -20.481 -10.198  -0.569  1.00  0.00    -0.401 OA
HETATM   20  H   UNL     1     -19.854 -10.889  -0.301  1.00  0.00     0.209 HD
ENDBRANCH  18  19
ENDBRANCH  17  18
ENDBRANCH  16  17
ENDBRANCH  15  16
ENDBRANCH  14  15
ENDBRANCH  13  14
ENDBRANCH  12  13
ENDBRANCH  11  12
ENDBRANCH   1  11
TORSDOF 16
BEGIN_RES ARG D 557
REMARK  4 active torsions:
REMARK  status: ('A' for Active; 'I' for Inactive)
REMARK    1  A    between atoms: CA   and  CB  
REMARK    2  A    between atoms: CB   and  CG  
REMARK    3  A    between atoms: CG   and  CD  
REMARK    4  A    between atoms: CD   and  NE  
REMARK       I    between atoms: NE   and  CZ  
REMARK       I    between atoms: CZ   and  NH1 
REMARK       I    between atoms: CZ   and  NH2 
ROOT
ATOM      1  CA  ARG D 557     -26.217   2.705 -17.014  1.00 35.49     0.159 C 
ENDROOT
BRANCH   1   2
ATOM      2  CB  ARG D 557     -26.789   1.319 -17.183  1.00 35.49     0.034 C 
BRANCH   2   3
ATOM      3  CG  ARG D 557     -25.961   0.201 -16.716  1.00 35.49     0.027 C 
BRANCH   3   4
ATOM      4  CD  ARG D 557     -26.759  -0.851 -16.044  1.00 35.49     0.116 C 
BRANCH   4   5
ATOM      5  NE  ARG D 557     -28.006  -1.098 -16.718  1.00 35.49    -0.212 N 
ATOM      6  CZ  ARG D 557     -28.523  -2.280 -16.967  1.00 35.49     0.666 C 
ATOM      7  NH1 ARG D 557     -27.922  -3.404 -16.623  1.00 35.49    -0.235 N 
ATOM      8  NH2 ARG D 557     -29.676  -2.316 -17.570  1.00 35.49    -0.235 N 
ATOM      9  HH  ARG D 557     -27.164  -3.404 -16.224  1.00 35.49     0.174 HD
ATOM     10  HH  ARG D 557     -28.309  -4.146 -16.809  1.00 35.49     0.174 HD
ATOM     11  HH  ARG D 557     -30.045  -1.574 -17.773  1.00 35.49     0.174 HD
ATOM     12  HH  ARG D 557     -30.043  -3.060 -17.744  1.00 35.49     0.174 HD
ATOM     13  HE  ARG D 557     -28.426  -0.431 -17.039  1.00 35.49     0.178 HD
ENDBRANCH   4   5
ENDBRANCH   3   4
ENDBRANCH   2   3
ENDBRANCH   1   2
END_RES ARG D 557
BEGIN_RES GLU D 570
REMARK  3 active torsions:
REMARK  status: ('A' for Active; 'I' for Inactive)
REMARK    5  A    between atoms: CA   and  CB  
REMARK    6  A    between atoms: CB   and  CG  
REMARK    7  A    between atoms: CG   and  CD  
ROOT
ATOM     14  CA  GLU D 570     -18.033  -6.348 -13.375  1.00 32.92     0.160 C 
ENDROOT
BRANCH  14  15
ATOM     15  CB  GLU D 570     -19.500  -6.345 -13.794  1.00 32.92     0.043 C 
BRANCH  15  16
ATOM     16  CG  GLU D 570     -19.798  -6.199 -15.242  1.00 32.92     0.100 C 
BRANCH  16  17
ATOM     17  CD  GLU D 570     -20.713  -7.280 -15.768  1.00 32.92     0.185 C 
ATOM     18  OE1 GLU D 570     -20.611  -8.434 -15.309  1.00 32.92    -0.647 OA
ATOM     19  OE2 GLU D 570     -21.529  -6.974 -16.660  1.00 32.92    -0.647 OA
ENDBRANCH  16  17
ENDBRANCH  15  16
ENDBRANCH  14  15
END_RES GLU D 570
ENDMDL
MODEL 8
REMARK VINA RESULT:      -5.4      3.008      7.129
REMARK  16 active torsions:
REMARK  status: ('A' for Active; 'I' for Inactive)
REMARK    1  A    between atoms: C_2  and  C_4 
REMARK    2  A    between atoms: C_4  and  C_5 
REMARK    3  A    between atoms: C_5  and  C_6 
REMARK    4  A    between atoms: C_6  and  C_7 
REMARK    5  A    between atoms: C_7  and  C_8 
REMARK    6  A    between atoms: C_8  and  C_9 
REMARK    7  A    between atoms: C_9  and  C_10 
REMARK    8  A    between atoms: C_10  and  C_11 
REMARK    9  A    between atoms: C_11  and  C_12 
REMARK   10  A    between atoms: C_12  and  C_13 
REMARK   11  A    between atoms: C_13  and  C_14 
REMARK   12  A    between atoms: C_14  and  C_15 
REMARK   13  A    between atoms: C_15  and  C_16 
REMARK   14  A    between atoms: C_16  and  C_17 
REMARK   15  A    between atoms: C_17  and  C_18 
REMARK   16  A    between atoms: C_18  and  O_19 
ROOT
HETATM    1  C   UNL     1     -20.906  -6.833  -5.798  1.00  0.00     0.000 C 
ENDROOT
BRANCH   1   2
HETATM    2  C   UNL     1     -20.445  -5.442  -5.394  1.00  0.00     0.000 C 
BRANCH   2   3
HETATM    3  C   UNL     1     -19.786  -4.743  -6.574  1.00  0.00     0.000 C 
BRANCH   3   4
HETATM    4  C   UNL     1     -20.328  -5.297  -7.882  1.00  0.00     0.000 C 
BRANCH   4   5
HETATM    5  C   UNL     1     -20.027  -4.352  -9.037  1.00  0.00     0.000 C 
BRANCH   5   6
HETATM    6  C   UNL     1     -21.273  -4.174  -9.895  1.00  0.00     0.000 C 
BRANCH   6   7
HETATM    7  C   UNL     1     -22.543  -4.242  -9.052  1.00  0.00     0.004 C 
BRANCH   7   8
HETATM    8  C   UNL     1     -23.798  -4.541  -9.888  1.00  0.00    -0.023 C 
HETATM    9  C   UNL     1     -24.760  -3.356  -9.808  1.00  0.00     0.009 C 
HETATM   10  C   UNL     1     -23.465  -4.847 -11.350  1.00  0.00     0.009 C 
ENDBRANCH   7   8
ENDBRANCH   6   7
ENDBRANCH   5   6
ENDBRANCH   4   5
ENDBRANCH   3   4
ENDBRANCH   2   3
ENDBRANCH   1   2
BRANCH   1  11
HETATM   11  C   UNL     1     -21.603  -7.522  -4.635  1.00  0.00     0.000 C 
BRANCH  11  12
HETATM   12  C   UNL     1     -21.706  -6.575  -3.448  1.00  0.00     0.000 C 
BRANCH  12  13
HETATM   13  C   UNL     1     -21.480  -7.328  -2.144  1.00  0.00     0.000 C 
BRANCH  13  14
HETATM   14  C   UNL     1     -22.311  -6.716  -1.024  1.00  0.00     0.000 C 
BRANCH  14  15
HETATM   15  C   UNL     1     -22.716  -7.779  -0.015  1.00  0.00     0.000 C 
BRANCH  15  16
HETATM   16  C   UNL     1     -22.039  -9.109  -0.337  1.00  0.00     0.002 C 
BRANCH  16  17
HETATM   17  C   UNL     1     -21.133  -9.550   0.804  1.00  0.00     0.026 C 
BRANCH  17  18
HETATM   18  C   UNL     1     -20.914 -11.055   0.778  1.00  0.00     0.164 C 
BRANCH  18  19
HETATM   19  O   UNL     1     -19.652 -11.345   0.196  1.00  0.00    -0.401 OA
HETATM   20  H   UNL     1     -19.058 -10.603   0.396  1.00  0.00     0.209 HD
ENDBRANCH  18  19
ENDBRANCH  17  18
ENDBRANCH  16  17
ENDBRANCH  15  16
ENDBRANCH  14  15
ENDBRANCH  13  14
ENDBRANCH  12  13
ENDBRANCH  11  12
ENDBRANCH   1  11
TORSDOF 16
BEGIN_RES ARG D 557
REMARK  4 active torsions:
REMARK  status: ('A' for Active; 'I' for Inactive)
REMARK    1  A    between atoms: CA   and  CB  
REMARK    2  A    between atoms: CB   and  CG  
REMARK    3  A    between atoms: CG   and  CD  
REMARK    4  A    between atoms: CD   and  NE  
REMARK       I    between atoms: NE   and  CZ  
REMARK       I    between atoms: CZ   and  NH1 
REMARK       I    between atoms: CZ   and  NH2 
ROOT
ATOM      1  CA  ARG D 557     -26.217   2.705 -17.014  1.00 35.49     0.159 C 
ENDROOT
BRANCH   1   2
ATOM      2  CB  ARG D 557     -26.789   1.319 -17.183  1.00 35.49     0.034 C 
BRANCH   2   3
ATOM      3  CG  ARG D 557     -25.838   0.202 -17.135  1.00 35.49     0.027 C 
BRANCH   3   4
ATOM      4  CD  ARG D 557     -24.756   0.423 -16.148  1.00 35.49     0.116 C 
BRANCH   4   5
ATOM      5  NE  ARG D 557     -24.877  -0.446 -15.008  1.00 35.49    -0.212 N 
ATOM      6  CZ  ARG D 557     -24.044  -1.411 -14.686  1.00 35.49     0.666 C 
ATOM      7  NH1 ARG D 557     -22.980  -1.701 -15.412  1.00 35.49    -0.235 N 
ATOM      8  NH2 ARG D 557     -24.298  -2.086 -13.602  1.00 35.49    -0.235 N 
ATOM      9  HH  ARG D 557     -22.793  -1.268 -16.127  1.00 35.49     0.174 HD
ATOM     10  HH  ARG D 557     -22.472  -2.339 -15.151  1.00 35.49     0.174 HD
ATOM     11  HH  ARG D 557     -24.988  -1.871 -13.149  1.00 35.49     0.174 HD
ATOM     12  HH  ARG D 557     -23.781  -2.713 -13.360  1.00 35.49     0.174 HD
ATOM     13  HE  ARG D 557     -25.573  -0.377 -14.524  1.00 35.49     0.178 HD
ENDBRANCH   4   5
ENDBRANCH   3   4
ENDBRANCH   2   3
ENDBRANCH   1   2
END_RES ARG D 557
BEGIN_RES GLU D 570
REMARK  3 active torsions:
REMARK  status: ('A' for Active; 'I' for Inactive)
REMARK    5  A    between atoms: CA   and  CB  
REMARK    6  A    between atoms: CB   and  CG  
REMARK    7  A    between atoms: CG   and  CD  
ROOT
ATOM     14  CA  GLU D 570     -18.033  -6.348 -13.375  1.00 32.92     0.160 C 
ENDROOT
BRANCH  14  15
ATOM     15  CB  GLU D 570     -19.500  -6.345 -13.794  1.00 32.92     0.043 C 
BRANCH  15  16
ATOM     16  CG  GLU D 570     -20.075  -7.625 -14.283  1.00 32.92     0.100 C 
BRANCH  16  17
ATOM     17  CD  GLU D 570     -20.733  -7.496 -15.637  1.00 32.92     0.185 C 
ATOM     18  OE1 GLU D 570     -20.549  -6.459 -16.303  1.00 32.92    -0.647 OA
ATOM     19  OE2 GLU D 570     -21.454  -8.434 -16.029  1.00 32.92    -0.647 OA
ENDBRANCH  16  17
ENDBRANCH  15  16
ENDBRANCH  14  15
END_RES GLU D 570
ENDMDL
MODEL 9
REMARK VINA RESULT:      -5.3      3.538      7.509
REMARK  16 active torsions:
REMARK  status: ('A' for Active; 'I' for Inactive)
REMARK    1  A    between atoms: C_2  and  C_4 
REMARK    2  A    between atoms: C_4  and  C_5 
REMARK    3  A    between atoms: C_5  and  C_6 
REMARK    4  A    between atoms: C_6  and  C_7 
REMARK    5  A    between atoms: C_7  and  C_8 
REMARK    6  A    between atoms: C_8  and  C_9 
REMARK    7  A    between atoms: C_9  and  C_10 
REMARK    8  A    between atoms: C_10  and  C_11 
REMARK    9  A    between atoms: C_11  and  C_12 
REMARK   10  A    between atoms: C_12  and  C_13 
REMARK   11  A    between atoms: C_13  and  C_14 
REMARK   12  A    between atoms: C_14  and  C_15 
REMARK   13  A    between atoms: C_15  and  C_16 
REMARK   14  A    between atoms: C_16  and  C_17 
REMARK   15  A    between atoms: C_17  and  C_18 
REMARK   16  A    between atoms: C_18  and  O_19 
ROOT
HETATM    1  C   UNL     1     -22.070  -6.166  -2.276  1.00  0.00     0.000 C 
ENDROOT
BRANCH   1   2
HETATM    2  C   UNL     1     -21.240  -6.043  -3.544  1.00  0.00     0.000 C 
BRANCH   2   3
HETATM    3  C   UNL     1     -21.996  -6.629  -4.727  1.00  0.00     0.000 C 
BRANCH   3   4
HETATM    4  C   UNL     1     -21.316  -6.237  -6.030  1.00  0.00     0.000 C 
BRANCH   4   5
HETATM    5  C   UNL     1     -20.483  -4.977  -5.849  1.00  0.00     0.000 C 
BRANCH   5   6
HETATM    6  C   UNL     1     -20.779  -3.996  -6.976  1.00  0.00     0.000 C 
BRANCH   6   7
HETATM    7  C   UNL     1     -22.205  -4.160  -7.494  1.00  0.00     0.004 C 
BRANCH   7   8
HETATM    8  C   UNL     1     -22.348  -3.778  -8.976  1.00  0.00    -0.023 C 
HETATM    9  C   UNL     1     -21.048  -4.095  -9.715  1.00  0.00     0.009 C 
HETATM   10  C   UNL     1     -23.521  -4.491  -9.652  1.00  0.00     0.009 C 
ENDBRANCH   7   8
ENDBRANCH   6   7
ENDBRANCH   5   6
ENDBRANCH   4   5
ENDBRANCH   3   4
ENDBRANCH   2   3
ENDBRANCH   1   2
BRANCH   1  11
HETATM   11  C   UNL     1     -21.701  -7.433  -1.519  1.00  0.00     0.000 C 
BRANCH  11  12
HETATM   12  C   UNL     1     -22.508  -7.531  -0.232  1.00  0.00     0.000 C 
BRANCH  12  13
HETATM   13  C   UNL     1     -21.900  -8.569   0.700  1.00  0.00     0.000 C 
BRANCH  13  14
HETATM   14  C   UNL     1     -22.143  -9.974   0.165  1.00  0.00     0.000 C 
BRANCH  14  15
HETATM   15  C   UNL     1     -23.623 -10.196  -0.104  1.00  0.00     0.000 C 
BRANCH  15  16
HETATM   16  C   UNL     1     -23.900 -11.668  -0.397  1.00  0.00     0.002 C 
BRANCH  16  17
HETATM   17  C   UNL     1     -23.224 -12.565   0.630  1.00  0.00     0.026 C 
BRANCH  17  18
HETATM   18  C   UNL     1     -22.479 -13.706  -0.045  1.00  0.00     0.164 C 
BRANCH  18  19
HETATM   19  O   UNL     1     -22.153 -13.342  -1.378  1.00  0.00    -0.401 OA
HETATM   20  H   UNL     1     -21.189 -13.418  -1.477  1.00  0.00     0.209 HD
ENDBRANCH  18  19
ENDBRANCH  17  18
ENDBRANCH  16  17
ENDBRANCH  15  16
ENDBRANCH  14  15
ENDBRANCH  13  14
ENDBRANCH  12  13
ENDBRANCH  11  12
ENDBRANCH   1  11
TORSDOF 16
BEGIN_RES ARG D 557
REMARK  4 active torsions:
REMARK  status: ('A' for Active; 'I' for Inactive)
REMARK    1  A    between atoms: CA   and  CB  
REMARK    2  A    between atoms: CB   and  CG  
REMARK    3  A    between atoms: CG   and  CD  
REMARK    4  A    between atoms: CD   and  NE  
REMARK       I    between atoms: NE   and  CZ  
REMARK       I    between atoms: CZ   and  NH1 
REMARK       I    between atoms: CZ   and  NH2 
ROOT
ATOM      1  CA  ARG D 557     -26.217   2.705 -17.014  1.00 35.49     0.159 C 
ENDROOT
BRANCH   1   2
ATOM      2  CB  ARG D 557     -26.789   1.319 -17.183  1.00 35.49     0.034 C 
BRANCH   2   3
ATOM      3  CG  ARG D 557     -28.182   1.123 -16.762  1.00 35.49     0.027 C 
BRANCH   3   4
ATOM      4  CD  ARG D 557     -28.719  -0.191 -17.183  1.00 35.49     0.116 C 
BRANCH   4   5
ATOM      5  NE  ARG D 557     -27.985  -1.287 -16.608  1.00 35.49    -0.212 N 
ATOM      6  CZ  ARG D 557     -28.245  -2.563 -16.786  1.00 35.49     0.666 C 
ATOM      7  NH1 ARG D 557     -29.253  -2.985 -17.527  1.00 35.49    -0.235 N 
ATOM      8  NH2 ARG D 557     -27.460  -3.422 -16.204  1.00 35.49    -0.235 N 
ATOM      9  HH  ARG D 557     -29.781  -2.437 -17.921  1.00 35.49     0.174 HD
ATOM     10  HH  ARG D 557     -29.372  -3.829 -17.609  1.00 35.49     0.174 HD
ATOM     11  HH  ARG D 557     -26.812  -3.121 -15.737  1.00 35.49     0.174 HD
ATOM     12  HH  ARG D 557     -27.593  -4.254 -16.298  1.00 35.49     0.174 HD
ATOM     13  HE  ARG D 557     -27.362  -1.105 -16.058  1.00 35.49     0.178 HD
ENDBRANCH   4   5
ENDBRANCH   3   4
ENDBRANCH   2   3
ENDBRANCH   1   2
END_RES ARG D 557
BEGIN_RES GLU D 570
REMARK  3 active torsions:
REMARK  status: ('A' for Active; 'I' for Inactive)
REMARK    5  A    between atoms: CA   and  CB  
REMARK    6  A    between atoms: CB   and  CG  
REMARK    7  A    between atoms: CG   and  CD  
ROOT
ATOM     14  CA  GLU D 570     -18.033  -6.348 -13.375  1.00 32.92     0.160 C 
ENDROOT
BRANCH  14  15
ATOM     15  CB  GLU D 570     -19.500  -6.345 -13.794  1.00 32.92     0.043 C 
BRANCH  15  16
ATOM     16  CG  GLU D 570     -20.449  -5.563 -12.959  1.00 32.92     0.100 C 
BRANCH  16  17
ATOM     17  CD  GLU D 570     -21.698  -5.161 -13.708  1.00 32.92     0.185 C 
ATOM     18  OE1 GLU D 570     -22.715  -4.842 -13.061  1.00 32.92    -0.647 OA
ATOM     19  OE2 GLU D 570     -21.665  -5.180 -14.954  1.00 32.92    -0.647 OA
ENDBRANCH  16  17
ENDBRANCH  15  16
ENDBRANCH  14  15
END_RES GLU D 570
ENDMDL
