MODEL 1
REMARK VINA RESULT:      -7.0      0.000      0.000
REMARK  19 active torsions:
REMARK  status: ('A' for Active; 'I' for Inactive)
REMARK    1  A    between atoms: C_2  and  C_3 
REMARK    2  A    between atoms: C_3  and  C_4 
REMARK    3  A    between atoms: C_4  and  C_5 
REMARK    4  A    between atoms: C_5  and  C_6 
REMARK    5  A    between atoms: C_6  and  C_7 
REMARK    6  A    between atoms: C_7  and  C_8 
REMARK    7  A    between atoms: C_8  and  C_9 
REMARK    8  A    between atoms: C_9  and  C_10 
REMARK    9  A    between atoms: C_10  and  C_11 
REMARK   10  A    between atoms: C_11  and  C_12 
REMARK   11  A    between atoms: C_12  and  O_13 
REMARK   12  A    between atoms: O_13  and  C_14 
REMARK   13  A    between atoms: C_14  and  C_15 
REMARK   14  A    between atoms: C_15  and  O_16 
REMARK   15  A    between atoms: O_16  and  C_17 
REMARK   16  A    between atoms: C_17  and  C_18 
REMARK   17  A    between atoms: C_18  and  O_19 
REMARK   18  A    between atoms: O_19  and  C_20 
REMARK   19  A    between atoms: C_20  and  C_22 
ROOT
HETATM    1  C   UNL     1     -35.500  -1.157 -16.660  1.00  0.00     0.193 C 
ENDROOT
BRANCH   1   2
HETATM    2  O   UNL     1     -35.094  -2.410 -16.120  1.00  0.00    -0.389 OA
BRANCH   2   3
HETATM    3  C   UNL     1     -34.002  -2.936 -16.864  1.00  0.00     0.167 C 
BRANCH   3   4
HETATM    4  C   UNL     1     -33.466  -4.169 -16.157  1.00  0.00     0.026 C 
BRANCH   4   5
HETATM    5  C   UNL     1     -32.205  -4.652 -16.856  1.00  0.00     0.002 C 
BRANCH   5   6
HETATM    6  C   UNL     1     -31.537  -3.509 -17.602  1.00  0.00     0.000 C 
BRANCH   6   7
HETATM    7  C   UNL     1     -30.111  -3.887 -17.967  1.00  0.00     0.000 C 
BRANCH   7   8
HETATM    8  C   UNL     1     -29.130  -3.009 -17.211  1.00  0.00     0.000 C 
BRANCH   8   9
HETATM    9  C   UNL     1     -27.996  -3.853 -16.656  1.00  0.00     0.000 C 
BRANCH   9  10
HETATM   10  C   UNL     1     -28.552  -5.099 -15.988  1.00  0.00     0.000 C 
BRANCH  10  11
HETATM   11  C   UNL     1     -27.822  -6.331 -16.490  1.00  0.00     0.000 C 
BRANCH  11  12
HETATM   12  C   UNL     1     -28.723  -7.555 -16.392  1.00  0.00    -0.000 C 
BRANCH  12  13
HETATM   13  C   UNL     1     -30.007  -7.335 -17.174  1.00  0.00    -0.005 C 
HETATM   14  C   UNL     1     -29.823  -7.753 -18.623  1.00  0.00     0.005 C 
ENDBRANCH  12  13
ENDBRANCH  11  12
ENDBRANCH  10  11
ENDBRANCH   9  10
ENDBRANCH   8   9
ENDBRANCH   7   8
ENDBRANCH   6   7
ENDBRANCH   5   6
ENDBRANCH   4   5
ENDBRANCH   3   4
ENDBRANCH   2   3
ENDBRANCH   1   2
BRANCH   1  15
HETATM   15  C   UNL     1     -36.407  -0.462 -15.660  1.00  0.00     0.193 C 
BRANCH  15  16
HETATM   16  O   UNL     1     -36.252  -1.075 -14.381  1.00  0.00    -0.387 OA
BRANCH  16  17
HETATM   17  C   UNL     1     -35.953  -0.100 -13.374  1.00  0.00     0.194 C 
BRANCH  17  18
HETATM   18  C   UNL     1     -36.977  -0.173 -12.244  1.00  0.00     0.205 C 
BRANCH  18  19
HETATM   19  O   UNL     1     -36.888  -1.417 -11.525  1.00  0.00    -0.315 OA
BRANCH  19  20
HETATM   20  C   UNL     1     -35.871  -1.500 -10.634  1.00  0.00     0.293 C 
HETATM   21  O   UNL     1     -35.680  -0.740  -9.697  1.00  0.00    -0.259 OA
BRANCH  20  22
HETATM   22  C   UNL     1     -35.009  -2.676 -10.937  1.00  0.00     0.039 A 
HETATM   23  C   UNL     1     -33.659  -2.462 -11.254  1.00  0.00     0.017 A 
HETATM   24  C   UNL     1     -32.815  -3.546 -11.502  1.00  0.00     0.001 A 
HETATM   25  C   UNL     1     -33.309  -4.845 -11.409  1.00  0.00     0.000 A 
HETATM   26  C   UNL     1     -34.649  -5.068 -11.083  1.00  0.00     0.001 A 
HETATM   27  C   UNL     1     -35.502  -3.988 -10.871  1.00  0.00     0.017 A 
ENDBRANCH  20  22
ENDBRANCH  19  20
ENDBRANCH  18  19
ENDBRANCH  17  18
ENDBRANCH  16  17
ENDBRANCH  15  16
ENDBRANCH   1  15
TORSDOF 19
BEGIN_RES ARG D 557
REMARK  4 active torsions:
REMARK  status: ('A' for Active; 'I' for Inactive)
REMARK    1  A    between atoms: CA   and  CB  
REMARK    2  A    between atoms: CB   and  CG  
REMARK    3  A    between atoms: CG   and  CD  
REMARK    4  A    between atoms: CD   and  NE  
REMARK       I    between atoms: NE   and  CZ  
REMARK       I    between atoms: CZ   and  NH1 
REMARK       I    between atoms: CZ   and  NH2 
ROOT
ATOM      1  CA  ARG D 557     -26.217   2.705 -17.014  1.00 35.49     0.159 C 
ENDROOT
BRANCH   1   2
ATOM      2  CB  ARG D 557     -26.789   1.319 -17.183  1.00 35.49     0.034 C 
BRANCH   2   3
ATOM      3  CG  ARG D 557     -25.838   0.202 -17.135  1.00 35.49     0.027 C 
BRANCH   3   4
ATOM      4  CD  ARG D 557     -24.752   0.426 -16.154  1.00 35.49     0.116 C 
BRANCH   4   5
ATOM      5  NE  ARG D 557     -24.879  -0.426 -15.001  1.00 35.49    -0.212 N 
ATOM      6  CZ  ARG D 557     -24.055  -1.394 -14.668  1.00 35.49     0.666 C 
ATOM      7  NH1 ARG D 557     -22.996  -1.705 -15.392  1.00 35.49    -0.235 N 
ATOM      8  NH2 ARG D 557     -24.313  -2.052 -13.575  1.00 35.49    -0.235 N 
ATOM      9  HH  ARG D 557     -22.806  -1.284 -16.113  1.00 35.49     0.174 HD
ATOM     10  HH  ARG D 557     -22.493  -2.345 -15.123  1.00 35.49     0.174 HD
ATOM     11  HH  ARG D 557     -25.000  -1.824 -13.123  1.00 35.49     0.174 HD
ATOM     12  HH  ARG D 557     -23.802  -2.681 -13.325  1.00 35.49     0.174 HD
ATOM     13  HE  ARG D 557     -25.573  -0.343 -14.517  1.00 35.49     0.178 HD
ENDBRANCH   4   5
ENDBRANCH   3   4
ENDBRANCH   2   3
ENDBRANCH   1   2
END_RES ARG D 557
BEGIN_RES GLU D 570
REMARK  3 active torsions:
REMARK  status: ('A' for Active; 'I' for Inactive)
REMARK    5  A    between atoms: CA   and  CB  
REMARK    6  A    between atoms: CB   and  CG  
REMARK    7  A    between atoms: CG   and  CD  
ROOT
ATOM     14  CA  GLU D 570     -18.033  -6.348 -13.375  1.00 32.92     0.160 C 
ENDROOT
BRANCH  14  15
ATOM     15  CB  GLU D 570     -19.500  -6.345 -13.794  1.00 32.92     0.043 C 
BRANCH  15  16
ATOM     16  CG  GLU D 570     -20.446  -5.548 -12.971  1.00 32.92     0.100 C 
BRANCH  16  17
ATOM     17  CD  GLU D 570     -21.728  -5.219 -13.698  1.00 32.92     0.185 C 
ATOM     18  OE1 GLU D 570     -22.285  -4.126 -13.480  1.00 32.92    -0.647 OA
ATOM     19  OE2 GLU D 570     -22.191  -6.072 -14.482  1.00 32.92    -0.647 OA
ENDBRANCH  16  17
ENDBRANCH  15  16
ENDBRANCH  14  15
END_RES GLU D 570
ENDMDL
MODEL 2
REMARK VINA RESULT:      -6.9      6.118     11.827
REMARK  19 active torsions:
REMARK  status: ('A' for Active; 'I' for Inactive)
REMARK    1  A    between atoms: C_2  and  C_3 
REMARK    2  A    between atoms: C_3  and  C_4 
REMARK    3  A    between atoms: C_4  and  C_5 
REMARK    4  A    between atoms: C_5  and  C_6 
REMARK    5  A    between atoms: C_6  and  C_7 
REMARK    6  A    between atoms: C_7  and  C_8 
REMARK    7  A    between atoms: C_8  and  C_9 
REMARK    8  A    between atoms: C_9  and  C_10 
REMARK    9  A    between atoms: C_10  and  C_11 
REMARK   10  A    between atoms: C_11  and  C_12 
REMARK   11  A    between atoms: C_12  and  O_13 
REMARK   12  A    between atoms: O_13  and  C_14 
REMARK   13  A    between atoms: C_14  and  C_15 
REMARK   14  A    between atoms: C_15  and  O_16 
REMARK   15  A    between atoms: O_16  and  C_17 
REMARK   16  A    between atoms: C_17  and  C_18 
REMARK   17  A    between atoms: C_18  and  O_19 
REMARK   18  A    between atoms: O_19  and  C_20 
REMARK   19  A    between atoms: C_20  and  C_22 
ROOT
HETATM    1  C   UNL     1     -22.924  -3.939 -10.610  1.00  0.00     0.193 C 
ENDROOT
BRANCH   1   2
HETATM    2  O   UNL     1     -23.673  -4.216  -9.432  1.00  0.00    -0.389 OA
BRANCH   2   3
HETATM    3  C   UNL     1     -22.822  -4.205  -8.293  1.00  0.00     0.167 C 
BRANCH   3   4
HETATM    4  C   UNL     1     -21.381  -4.063  -8.750  1.00  0.00     0.026 C 
BRANCH   4   5
HETATM    5  C   UNL     1     -20.484  -4.947  -7.897  1.00  0.00     0.002 C 
BRANCH   5   6
HETATM    6  C   UNL     1     -20.502  -4.487  -6.448  1.00  0.00     0.000 C 
BRANCH   6   7
HETATM    7  C   UNL     1     -20.270  -5.670  -5.523  1.00  0.00     0.000 C 
BRANCH   7   8
HETATM    8  C   UNL     1     -21.406  -6.667  -5.657  1.00  0.00     0.000 C 
BRANCH   8   9
HETATM    9  C   UNL     1     -22.246  -6.673  -4.391  1.00  0.00     0.000 C 
BRANCH   9  10
HETATM   10  C   UNL     1     -21.418  -6.184  -3.215  1.00  0.00     0.000 C 
BRANCH  10  11
HETATM   11  C   UNL     1     -22.218  -6.302  -1.929  1.00  0.00     0.000 C 
BRANCH  11  12
HETATM   12  C   UNL     1     -21.714  -7.477  -1.102  1.00  0.00    -0.000 C 
BRANCH  12  13
HETATM   13  C   UNL     1     -22.679  -7.785   0.030  1.00  0.00    -0.005 C 
HETATM   14  C   UNL     1     -23.122  -9.237  -0.031  1.00  0.00     0.005 C 
ENDBRANCH  12  13
ENDBRANCH  11  12
ENDBRANCH  10  11
ENDBRANCH   9  10
ENDBRANCH   8   9
ENDBRANCH   7   8
ENDBRANCH   6   7
ENDBRANCH   5   6
ENDBRANCH   4   5
ENDBRANCH   3   4
ENDBRANCH   2   3
ENDBRANCH   1   2
BRANCH   1  15
HETATM   15  C   UNL     1     -23.865  -3.410 -11.677  1.00  0.00     0.193 C 
BRANCH  15  16
HETATM   16  O   UNL     1     -23.309  -3.671 -12.965  1.00  0.00    -0.387 OA
BRANCH  16  17
HETATM   17  C   UNL     1     -24.328  -3.695 -13.972  1.00  0.00     0.194 C 
BRANCH  17  18
HETATM   18  C   UNL     1     -24.518  -5.114 -14.502  1.00  0.00     0.205 C 
BRANCH  18  19
HETATM   19  O   UNL     1     -25.506  -5.164 -15.549  1.00  0.00    -0.315 OA
BRANCH  19  20
HETATM   20  C   UNL     1     -26.046  -6.385 -15.779  1.00  0.00     0.293 C 
HETATM   21  O   UNL     1     -25.573  -7.452 -15.422  1.00  0.00    -0.259 OA
BRANCH  20  22
HETATM   22  C   UNL     1     -27.331  -6.253 -16.521  1.00  0.00     0.039 A 
HETATM   23  C   UNL     1     -28.533  -6.256 -15.797  1.00  0.00     0.017 A 
HETATM   24  C   UNL     1     -29.751  -6.091 -16.459  1.00  0.00     0.001 A 
HETATM   25  C   UNL     1     -29.771  -5.898 -17.837  1.00  0.00     0.000 A 
HETATM   26  C   UNL     1     -28.578  -5.882 -18.564  1.00  0.00     0.001 A 
HETATM   27  C   UNL     1     -27.364  -6.083 -17.913  1.00  0.00     0.017 A 
ENDBRANCH  20  22
ENDBRANCH  19  20
ENDBRANCH  18  19
ENDBRANCH  17  18
ENDBRANCH  16  17
ENDBRANCH  15  16
ENDBRANCH   1  15
TORSDOF 19
BEGIN_RES ARG D 557
REMARK  4 active torsions:
REMARK  status: ('A' for Active; 'I' for Inactive)
REMARK    1  A    between atoms: CA   and  CB  
REMARK    2  A    between atoms: CB   and  CG  
REMARK    3  A    between atoms: CG   and  CD  
REMARK    4  A    between atoms: CD   and  NE  
REMARK       I    between atoms: NE   and  CZ  
REMARK       I    between atoms: CZ   and  NH1 
REMARK       I    between atoms: CZ   and  NH2 
ROOT
ATOM      1  CA  ARG D 557     -26.217   2.705 -17.014  1.00 35.49     0.159 C 
ENDROOT
BRANCH   1   2
ATOM      2  CB  ARG D 557     -26.789   1.319 -17.183  1.00 35.49     0.034 C 
BRANCH   2   3
ATOM      3  CG  ARG D 557     -28.227   1.227 -17.462  1.00 35.49     0.027 C 
BRANCH   3   4
ATOM      4  CD  ARG D 557     -28.911   0.251 -16.583  1.00 35.49     0.116 C 
BRANCH   4   5
ATOM      5  NE  ARG D 557     -28.031  -0.803 -16.155  1.00 35.49    -0.212 N 
ATOM      6  CZ  ARG D 557     -28.086  -2.057 -16.546  1.00 35.49     0.666 C 
ATOM      7  NH1 ARG D 557     -28.999  -2.495 -17.393  1.00 35.49    -0.235 N 
ATOM      8  NH2 ARG D 557     -27.192  -2.874 -16.070  1.00 35.49    -0.235 N 
ATOM      9  HH  ARG D 557     -29.595  -1.975 -17.721  1.00 35.49     0.174 HD
ATOM     10  HH  ARG D 557     -28.984  -3.323 -17.615  1.00 35.49     0.174 HD
ATOM     11  HH  ARG D 557     -26.610  -2.561 -15.531  1.00 35.49     0.174 HD
ATOM     12  HH  ARG D 557     -27.193  -3.689 -16.303  1.00 35.49     0.174 HD
ATOM     13  HE  ARG D 557     -27.457  -0.625 -15.553  1.00 35.49     0.178 HD
ENDBRANCH   4   5
ENDBRANCH   3   4
ENDBRANCH   2   3
ENDBRANCH   1   2
END_RES ARG D 557
BEGIN_RES GLU D 570
REMARK  3 active torsions:
REMARK  status: ('A' for Active; 'I' for Inactive)
REMARK    5  A    between atoms: CA   and  CB  
REMARK    6  A    between atoms: CB   and  CG  
REMARK    7  A    between atoms: CG   and  CD  
ROOT
ATOM     14  CA  GLU D 570     -18.033  -6.348 -13.375  1.00 32.92     0.160 C 
ENDROOT
BRANCH  14  15
ATOM     15  CB  GLU D 570     -19.500  -6.345 -13.794  1.00 32.92     0.043 C 
BRANCH  15  16
ATOM     16  CG  GLU D 570     -19.817  -6.779 -15.179  1.00 32.92     0.100 C 
BRANCH  16  17
ATOM     17  CD  GLU D 570     -20.619  -5.756 -15.948  1.00 32.92     0.185 C 
ATOM     18  OE1 GLU D 570     -21.227  -4.867 -15.321  1.00 32.92    -0.647 OA
ATOM     19  OE2 GLU D 570     -20.654  -5.854 -17.191  1.00 32.92    -0.647 OA
ENDBRANCH  16  17
ENDBRANCH  15  16
ENDBRANCH  14  15
END_RES GLU D 570
ENDMDL
MODEL 3
REMARK VINA RESULT:      -6.8      0.846      2.069
REMARK  19 active torsions:
REMARK  status: ('A' for Active; 'I' for Inactive)
REMARK    1  A    between atoms: C_2  and  C_3 
REMARK    2  A    between atoms: C_3  and  C_4 
REMARK    3  A    between atoms: C_4  and  C_5 
REMARK    4  A    between atoms: C_5  and  C_6 
REMARK    5  A    between atoms: C_6  and  C_7 
REMARK    6  A    between atoms: C_7  and  C_8 
REMARK    7  A    between atoms: C_8  and  C_9 
REMARK    8  A    between atoms: C_9  and  C_10 
REMARK    9  A    between atoms: C_10  and  C_11 
REMARK   10  A    between atoms: C_11  and  C_12 
REMARK   11  A    between atoms: C_12  and  O_13 
REMARK   12  A    between atoms: O_13  and  C_14 
REMARK   13  A    between atoms: C_14  and  C_15 
REMARK   14  A    between atoms: C_15  and  O_16 
REMARK   15  A    between atoms: O_16  and  C_17 
REMARK   16  A    between atoms: C_17  and  C_18 
REMARK   17  A    between atoms: C_18  and  O_19 
REMARK   18  A    between atoms: O_19  and  C_20 
REMARK   19  A    between atoms: C_20  and  C_22 
ROOT
HETATM    1  C   UNL     1     -34.757  -2.274 -16.655  1.00  0.00     0.193 C 
ENDROOT
BRANCH   1   2
HETATM    2  O   UNL     1     -34.622  -3.223 -15.603  1.00  0.00    -0.389 OA
BRANCH   2   3
HETATM    3  C   UNL     1     -33.924  -4.373 -16.063  1.00  0.00     0.167 C 
BRANCH   3   4
HETATM    4  C   UNL     1     -32.777  -3.935 -16.957  1.00  0.00     0.026 C 
BRANCH   4   5
HETATM    5  C   UNL     1     -31.645  -4.947 -16.870  1.00  0.00     0.002 C 
BRANCH   5   6
HETATM    6  C   UNL     1     -32.164  -6.352 -17.130  1.00  0.00     0.000 C 
BRANCH   6   7
HETATM    7  C   UNL     1     -31.144  -7.146 -17.928  1.00  0.00     0.000 C 
BRANCH   7   8
HETATM    8  C   UNL     1     -29.758  -6.951 -17.339  1.00  0.00     0.000 C 
BRANCH   8   9
HETATM    9  C   UNL     1     -28.735  -6.805 -18.453  1.00  0.00     0.000 C 
BRANCH   9  10
HETATM   10  C   UNL     1     -27.977  -5.498 -18.296  1.00  0.00     0.000 C 
BRANCH  10  11
HETATM   11  C   UNL     1     -27.500  -5.341 -16.863  1.00  0.00     0.000 C 
BRANCH  11  12
HETATM   12  C   UNL     1     -27.735  -3.915 -16.382  1.00  0.00    -0.000 C 
BRANCH  12  13
HETATM   13  C   UNL     1     -28.816  -3.245 -17.213  1.00  0.00    -0.005 C 
HETATM   14  C   UNL     1     -28.797  -1.741 -16.995  1.00  0.00     0.005 C 
ENDBRANCH  12  13
ENDBRANCH  11  12
ENDBRANCH  10  11
ENDBRANCH   9  10
ENDBRANCH   8   9
ENDBRANCH   7   8
ENDBRANCH   6   7
ENDBRANCH   5   6
ENDBRANCH   4   5
ENDBRANCH   3   4
ENDBRANCH   2   3
ENDBRANCH   1   2
BRANCH   1  15
HETATM   15  C   UNL     1     -35.455  -1.039 -16.115  1.00  0.00     0.193 C 
BRANCH  15  16
HETATM   16  O   UNL     1     -35.587  -1.154 -14.699  1.00  0.00    -0.387 OA
BRANCH  16  17
HETATM   17  C   UNL     1     -35.089   0.015 -14.038  1.00  0.00     0.194 C 
BRANCH  17  18
HETATM   18  C   UNL     1     -35.766   0.186 -12.680  1.00  0.00     0.205 C 
BRANCH  18  19
HETATM   19  O   UNL     1     -35.098  -0.571 -11.653  1.00  0.00    -0.315 OA
BRANCH  19  20
HETATM   20  C   UNL     1     -35.791  -1.631 -11.171  1.00  0.00     0.293 C 
HETATM   21  O   UNL     1     -36.938  -1.604 -10.756  1.00  0.00    -0.259 OA
BRANCH  20  22
HETATM   22  C   UNL     1     -34.960  -2.866 -11.234  1.00  0.00     0.039 A 
HETATM   23  C   UNL     1     -33.623  -2.761 -11.648  1.00  0.00     0.017 A 
HETATM   24  C   UNL     1     -32.807  -3.893 -11.678  1.00  0.00     0.001 A 
HETATM   25  C   UNL     1     -33.313  -5.124 -11.271  1.00  0.00     0.000 A 
HETATM   26  C   UNL     1     -34.640  -5.235 -10.847  1.00  0.00     0.001 A 
HETATM   27  C   UNL     1     -35.467  -4.116 -10.851  1.00  0.00     0.017 A 
ENDBRANCH  20  22
ENDBRANCH  19  20
ENDBRANCH  18  19
ENDBRANCH  17  18
ENDBRANCH  16  17
ENDBRANCH  15  16
ENDBRANCH   1  15
TORSDOF 19
BEGIN_RES ARG D 557
REMARK  4 active torsions:
REMARK  status: ('A' for Active; 'I' for Inactive)
REMARK    1  A    between atoms: CA   and  CB  
REMARK    2  A    between atoms: CB   and  CG  
REMARK    3  A    between atoms: CG   and  CD  
REMARK    4  A    between atoms: CD   and  NE  
REMARK       I    between atoms: NE   and  CZ  
REMARK       I    between atoms: CZ   and  NH1 
REMARK       I    between atoms: CZ   and  NH2 
ROOT
ATOM      1  CA  ARG D 557     -26.217   2.705 -17.014  1.00 35.49     0.159 C 
ENDROOT
BRANCH   1   2
ATOM      2  CB  ARG D 557     -26.789   1.319 -17.183  1.00 35.49     0.034 C 
BRANCH   2   3
ATOM      3  CG  ARG D 557     -25.838   0.202 -17.140  1.00 35.49     0.027 C 
BRANCH   3   4
ATOM      4  CD  ARG D 557     -24.753   0.421 -16.156  1.00 35.49     0.116 C 
BRANCH   4   5
ATOM      5  NE  ARG D 557     -24.878  -0.441 -15.010  1.00 35.49    -0.212 N 
ATOM      6  CZ  ARG D 557     -24.035  -1.389 -14.667  1.00 35.49     0.666 C 
ATOM      7  NH1 ARG D 557     -22.955  -1.667 -15.373  1.00 35.49    -0.235 N 
ATOM      8  NH2 ARG D 557     -24.296  -2.060 -13.583  1.00 35.49    -0.235 N 
ATOM      9  HH  ARG D 557     -22.762  -1.236 -16.088  1.00 35.49     0.174 HD
ATOM     10  HH  ARG D 557     -22.440  -2.294 -15.099  1.00 35.49     0.174 HD
ATOM     11  HH  ARG D 557     -24.997  -1.854 -13.143  1.00 35.49     0.174 HD
ATOM     12  HH  ARG D 557     -23.773  -2.677 -13.327  1.00 35.49     0.174 HD
ATOM     13  HE  ARG D 557     -25.584  -0.380 -14.540  1.00 35.49     0.178 HD
ENDBRANCH   4   5
ENDBRANCH   3   4
ENDBRANCH   2   3
ENDBRANCH   1   2
END_RES ARG D 557
BEGIN_RES GLU D 570
REMARK  3 active torsions:
REMARK  status: ('A' for Active; 'I' for Inactive)
REMARK    5  A    between atoms: CA   and  CB  
REMARK    6  A    between atoms: CB   and  CG  
REMARK    7  A    between atoms: CG   and  CD  
ROOT
ATOM     14  CA  GLU D 570     -18.033  -6.348 -13.375  1.00 32.92     0.160 C 
ENDROOT
BRANCH  14  15
ATOM     15  CB  GLU D 570     -19.500  -6.345 -13.794  1.00 32.92     0.043 C 
BRANCH  15  16
ATOM     16  CG  GLU D 570     -20.446  -5.550 -12.969  1.00 32.92     0.100 C 
BRANCH  16  17
ATOM     17  CD  GLU D 570     -21.723  -5.208 -13.701  1.00 32.92     0.185 C 
ATOM     18  OE1 GLU D 570     -22.167  -6.006 -14.548  1.00 32.92    -0.647 OA
ATOM     19  OE2 GLU D 570     -22.275  -4.122 -13.437  1.00 32.92    -0.647 OA
ENDBRANCH  16  17
ENDBRANCH  15  16
ENDBRANCH  14  15
END_RES GLU D 570
ENDMDL
MODEL 4
REMARK VINA RESULT:      -6.8      6.274      9.192
REMARK  19 active torsions:
REMARK  status: ('A' for Active; 'I' for Inactive)
REMARK    1  A    between atoms: C_2  and  C_3 
REMARK    2  A    between atoms: C_3  and  C_4 
REMARK    3  A    between atoms: C_4  and  C_5 
REMARK    4  A    between atoms: C_5  and  C_6 
REMARK    5  A    between atoms: C_6  and  C_7 
REMARK    6  A    between atoms: C_7  and  C_8 
REMARK    7  A    between atoms: C_8  and  C_9 
REMARK    8  A    between atoms: C_9  and  C_10 
REMARK    9  A    between atoms: C_10  and  C_11 
REMARK   10  A    between atoms: C_11  and  C_12 
REMARK   11  A    between atoms: C_12  and  O_13 
REMARK   12  A    between atoms: O_13  and  C_14 
REMARK   13  A    between atoms: C_14  and  C_15 
REMARK   14  A    between atoms: C_15  and  O_16 
REMARK   15  A    between atoms: O_16  and  C_17 
REMARK   16  A    between atoms: C_17  and  C_18 
REMARK   17  A    between atoms: C_18  and  O_19 
REMARK   18  A    between atoms: O_19  and  C_20 
REMARK   19  A    between atoms: C_20  and  C_22 
ROOT
HETATM    1  C   UNL     1     -23.869  -6.197 -14.317  1.00  0.00     0.193 C 
ENDROOT
BRANCH   1   2
HETATM    2  O   UNL     1     -23.977  -7.186 -15.336  1.00  0.00    -0.389 OA
BRANCH   2   3
HETATM    3  C   UNL     1     -24.886  -6.759 -16.342  1.00  0.00     0.167 C 
BRANCH   3   4
HETATM    4  C   UNL     1     -26.297  -6.784 -15.782  1.00  0.00     0.026 C 
BRANCH   4   5
HETATM    5  C   UNL     1     -27.198  -5.895 -16.625  1.00  0.00     0.002 C 
BRANCH   5   6
HETATM    6  C   UNL     1     -28.519  -6.591 -16.911  1.00  0.00     0.000 C 
BRANCH   6   7
HETATM    7  C   UNL     1     -28.762  -6.654 -18.410  1.00  0.00     0.000 C 
BRANCH   7   8
HETATM    8  C   UNL     1     -27.601  -6.015 -19.152  1.00  0.00     0.000 C 
BRANCH   8   9
HETATM    9  C   UNL     1     -27.048  -6.982 -20.184  1.00  0.00     0.000 C 
BRANCH   9  10
HETATM   10  C   UNL     1     -25.541  -6.821 -20.294  1.00  0.00     0.000 C 
BRANCH  10  11
HETATM   11  C   UNL     1     -25.005  -7.682 -21.424  1.00  0.00     0.000 C 
BRANCH  11  12
HETATM   12  C   UNL     1     -23.595  -8.158 -21.100  1.00  0.00    -0.000 C 
BRANCH  12  13
HETATM   13  C   UNL     1     -22.835  -8.480 -22.375  1.00  0.00    -0.005 C 
HETATM   14  C   UNL     1     -21.551  -9.225 -22.053  1.00  0.00     0.005 C 
ENDBRANCH  12  13
ENDBRANCH  11  12
ENDBRANCH  10  11
ENDBRANCH   9  10
ENDBRANCH   8   9
ENDBRANCH   7   8
ENDBRANCH   6   7
ENDBRANCH   5   6
ENDBRANCH   4   5
ENDBRANCH   3   4
ENDBRANCH   2   3
ENDBRANCH   1   2
BRANCH   1  15
HETATM   15  C   UNL     1     -22.947  -5.093 -14.802  1.00  0.00     0.193 C 
BRANCH  15  16
HETATM   16  O   UNL     1     -22.658  -4.212 -13.716  1.00  0.00    -0.387 OA
BRANCH  16  17
HETATM   17  C   UNL     1     -23.424  -3.005 -13.813  1.00  0.00     0.194 C 
BRANCH  17  18
HETATM   18  C   UNL     1     -24.426  -2.919 -12.663  1.00  0.00     0.205 C 
BRANCH  18  19
HETATM   19  O   UNL     1     -24.216  -3.963 -11.695  1.00  0.00    -0.315 OA
BRANCH  19  20
HETATM   20  C   UNL     1     -24.375  -3.595 -10.401  1.00  0.00     0.293 C 
HETATM   21  O   UNL     1     -25.401  -3.154  -9.906  1.00  0.00    -0.259 OA
BRANCH  20  22
HETATM   22  C   UNL     1     -23.117  -3.822  -9.637  1.00  0.00     0.039 A 
HETATM   23  C   UNL     1     -23.189  -3.977  -8.245  1.00  0.00     0.017 A 
HETATM   24  C   UNL     1     -22.033  -4.234  -7.506  1.00  0.00     0.001 A 
HETATM   25  C   UNL     1     -20.808  -4.361  -8.156  1.00  0.00     0.000 A 
HETATM   26  C   UNL     1     -20.729  -4.219  -9.543  1.00  0.00     0.001 A 
HETATM   27  C   UNL     1     -21.874  -3.927 -10.279  1.00  0.00     0.017 A 
ENDBRANCH  20  22
ENDBRANCH  19  20
ENDBRANCH  18  19
ENDBRANCH  17  18
ENDBRANCH  16  17
ENDBRANCH  15  16
ENDBRANCH   1  15
TORSDOF 19
BEGIN_RES ARG D 557
REMARK  4 active torsions:
REMARK  status: ('A' for Active; 'I' for Inactive)
REMARK    1  A    between atoms: CA   and  CB  
REMARK    2  A    between atoms: CB   and  CG  
REMARK    3  A    between atoms: CG   and  CD  
REMARK    4  A    between atoms: CD   and  NE  
REMARK       I    between atoms: NE   and  CZ  
REMARK       I    between atoms: CZ   and  NH1 
REMARK       I    between atoms: CZ   and  NH2 
ROOT
ATOM      1  CA  ARG D 557     -26.217   2.705 -17.014  1.00 35.49     0.159 C 
ENDROOT
BRANCH   1   2
ATOM      2  CB  ARG D 557     -26.789   1.319 -17.183  1.00 35.49     0.034 C 
BRANCH   2   3
ATOM      3  CG  ARG D 557     -28.226   1.228 -17.470  1.00 35.49     0.027 C 
BRANCH   3   4
ATOM      4  CD  ARG D 557     -28.935   0.339 -16.522  1.00 35.49     0.116 C 
BRANCH   4   5
ATOM      5  NE  ARG D 557     -29.325  -0.905 -17.133  1.00 35.49    -0.212 N 
ATOM      6  CZ  ARG D 557     -28.675  -2.043 -17.041  1.00 35.49     0.666 C 
ATOM      7  NH1 ARG D 557     -27.547  -2.163 -16.364  1.00 35.49    -0.235 N 
ATOM      8  NH2 ARG D 557     -29.186  -3.077 -17.643  1.00 35.49    -0.235 N 
ATOM      9  HH  ARG D 557     -27.194  -1.496 -15.959  1.00 35.49     0.174 HD
ATOM     10  HH  ARG D 557     -27.169  -2.931 -16.337  1.00 35.49     0.174 HD
ATOM     11  HH  ARG D 557     -29.919  -2.972 -18.066  1.00 35.49     0.174 HD
ATOM     12  HH  ARG D 557     -28.797  -3.830 -17.602  1.00 35.49     0.174 HD
ATOM     13  HE  ARG D 557     -30.002  -0.902 -17.647  1.00 35.49     0.178 HD
ENDBRANCH   4   5
ENDBRANCH   3   4
ENDBRANCH   2   3
ENDBRANCH   1   2
END_RES ARG D 557
BEGIN_RES GLU D 570
REMARK  3 active torsions:
REMARK  status: ('A' for Active; 'I' for Inactive)
REMARK    5  A    between atoms: CA   and  CB  
REMARK    6  A    between atoms: CB   and  CG  
REMARK    7  A    between atoms: CG   and  CD  
ROOT
ATOM     14  CA  GLU D 570     -18.033  -6.348 -13.375  1.00 32.92     0.160 C 
ENDROOT
BRANCH  14  15
ATOM     15  CB  GLU D 570     -19.500  -6.345 -13.794  1.00 32.92     0.043 C 
BRANCH  15  16
ATOM     16  CG  GLU D 570     -20.096  -7.641 -14.208  1.00 32.92     0.100 C 
BRANCH  16  17
ATOM     17  CD  GLU D 570     -20.476  -7.675 -15.670  1.00 32.92     0.185 C 
ATOM     18  OE1 GLU D 570     -20.791  -8.763 -16.189  1.00 32.92    -0.647 OA
ATOM     19  OE2 GLU D 570     -20.442  -6.604 -16.308  1.00 32.92    -0.647 OA
ENDBRANCH  16  17
ENDBRANCH  15  16
ENDBRANCH  14  15
END_RES GLU D 570
ENDMDL
MODEL 5
REMARK VINA RESULT:      -6.6      7.425     13.600
REMARK  19 active torsions:
REMARK  status: ('A' for Active; 'I' for Inactive)
REMARK    1  A    between atoms: C_2  and  C_3 
REMARK    2  A    between atoms: C_3  and  C_4 
REMARK    3  A    between atoms: C_4  and  C_5 
REMARK    4  A    between atoms: C_5  and  C_6 
REMARK    5  A    between atoms: C_6  and  C_7 
REMARK    6  A    between atoms: C_7  and  C_8 
REMARK    7  A    between atoms: C_8  and  C_9 
REMARK    8  A    between atoms: C_9  and  C_10 
REMARK    9  A    between atoms: C_10  and  C_11 
REMARK   10  A    between atoms: C_11  and  C_12 
REMARK   11  A    between atoms: C_12  and  O_13 
REMARK   12  A    between atoms: O_13  and  C_14 
REMARK   13  A    between atoms: C_14  and  C_15 
REMARK   14  A    between atoms: C_15  and  O_16 
REMARK   15  A    between atoms: O_16  and  C_17 
REMARK   16  A    between atoms: C_17  and  C_18 
REMARK   17  A    between atoms: C_18  and  O_19 
REMARK   18  A    between atoms: O_19  and  C_20 
REMARK   19  A    between atoms: C_20  and  C_22 
ROOT
HETATM    1  C   UNL     1     -20.280  -5.304  -5.951  1.00  0.00     0.193 C 
ENDROOT
BRANCH   1   2
HETATM    2  O   UNL     1     -20.473  -6.650  -6.370  1.00  0.00    -0.389 OA
BRANCH   2   3
HETATM    3  C   UNL     1     -20.491  -7.519  -5.245  1.00  0.00     0.167 C 
BRANCH   3   4
HETATM    4  C   UNL     1     -21.721  -7.220  -4.405  1.00  0.00     0.026 C 
BRANCH   4   5
HETATM    5  C   UNL     1     -21.370  -7.331  -2.929  1.00  0.00     0.002 C 
BRANCH   5   6
HETATM    6  C   UNL     1     -22.238  -6.396  -2.103  1.00  0.00     0.000 C 
BRANCH   6   7
HETATM    7  C   UNL     1     -22.324  -6.894  -0.670  1.00  0.00     0.000 C 
BRANCH   7   8
HETATM    8  C   UNL     1     -21.967  -8.368  -0.609  1.00  0.00     0.000 C 
BRANCH   8   9
HETATM    9  C   UNL     1     -23.091  -9.150   0.050  1.00  0.00     0.000 C 
BRANCH   9  10
HETATM   10  C   UNL     1     -22.914 -10.636  -0.209  1.00  0.00     0.000 C 
BRANCH  10  11
HETATM   11  C   UNL     1     -23.446 -10.993  -1.586  1.00  0.00     0.000 C 
BRANCH  11  12
HETATM   12  C   UNL     1     -22.305 -11.432  -2.494  1.00  0.00    -0.000 C 
BRANCH  12  13
HETATM   13  C   UNL     1     -22.711 -11.317  -3.954  1.00  0.00    -0.005 C 
HETATM   14  C   UNL     1     -21.487 -11.127  -4.832  1.00  0.00     0.005 C 
ENDBRANCH  12  13
ENDBRANCH  11  12
ENDBRANCH  10  11
ENDBRANCH   9  10
ENDBRANCH   8   9
ENDBRANCH   7   8
ENDBRANCH   6   7
ENDBRANCH   5   6
ENDBRANCH   4   5
ENDBRANCH   3   4
ENDBRANCH   2   3
ENDBRANCH   1   2
BRANCH   1  15
HETATM   15  C   UNL     1     -21.067  -4.386  -6.868  1.00  0.00     0.193 C 
BRANCH  15  16
HETATM   16  O   UNL     1     -20.391  -4.281  -8.121  1.00  0.00    -0.387 OA
BRANCH  16  17
HETATM   17  C   UNL     1     -21.322  -4.146  -9.200  1.00  0.00     0.194 C 
BRANCH  17  18
HETATM   18  C   UNL     1     -22.742  -3.988  -8.660  1.00  0.00     0.205 C 
BRANCH  18  19
HETATM   19  O   UNL     1     -23.712  -4.611  -9.522  1.00  0.00    -0.315 OA
BRANCH  19  20
HETATM   20  C   UNL     1     -24.364  -3.771 -10.363  1.00  0.00     0.293 C 
HETATM   21  O   UNL     1     -25.280  -3.025 -10.057  1.00  0.00    -0.259 OA
BRANCH  20  22
HETATM   22  C   UNL     1     -23.790  -3.863 -11.735  1.00  0.00     0.039 A 
HETATM   23  C   UNL     1     -23.486  -5.129 -12.257  1.00  0.00     0.017 A 
HETATM   24  C   UNL     1     -22.987  -5.251 -13.556  1.00  0.00     0.001 A 
HETATM   25  C   UNL     1     -22.816  -4.115 -14.343  1.00  0.00     0.000 A 
HETATM   26  C   UNL     1     -23.128  -2.852 -13.834  1.00  0.00     0.001 A 
HETATM   27  C   UNL     1     -23.590  -2.723 -12.528  1.00  0.00     0.017 A 
ENDBRANCH  20  22
ENDBRANCH  19  20
ENDBRANCH  18  19
ENDBRANCH  17  18
ENDBRANCH  16  17
ENDBRANCH  15  16
ENDBRANCH   1  15
TORSDOF 19
BEGIN_RES ARG D 557
REMARK  4 active torsions:
REMARK  status: ('A' for Active; 'I' for Inactive)
REMARK    1  A    between atoms: CA   and  CB  
REMARK    2  A    between atoms: CB   and  CG  
REMARK    3  A    between atoms: CG   and  CD  
REMARK    4  A    between atoms: CD   and  NE  
REMARK       I    between atoms: NE   and  CZ  
REMARK       I    between atoms: CZ   and  NH1 
REMARK       I    between atoms: CZ   and  NH2 
ROOT
ATOM      1  CA  ARG D 557     -26.217   2.705 -17.014  1.00 35.49     0.159 C 
ENDROOT
BRANCH   1   2
ATOM      2  CB  ARG D 557     -26.789   1.319 -17.183  1.00 35.49     0.034 C 
BRANCH   2   3
ATOM      3  CG  ARG D 557     -28.238   1.224 -17.399  1.00 35.49     0.027 C 
BRANCH   3   4
ATOM      4  CD  ARG D 557     -28.889   0.289 -16.454  1.00 35.49     0.116 C 
BRANCH   4   5
ATOM      5  NE  ARG D 557     -29.304  -0.931 -17.096  1.00 35.49    -0.212 N 
ATOM      6  CZ  ARG D 557     -28.678  -2.084 -17.031  1.00 35.49     0.666 C 
ATOM      7  NH1 ARG D 557     -27.555  -2.245 -16.356  1.00 35.49    -0.235 N 
ATOM      8  NH2 ARG D 557     -29.210  -3.092 -17.660  1.00 35.49    -0.235 N 
ATOM      9  HH  ARG D 557     -27.189  -1.597 -15.933  1.00 35.49     0.174 HD
ATOM     10  HH  ARG D 557     -27.193  -3.022 -16.347  1.00 35.49     0.174 HD
ATOM     11  HH  ARG D 557     -29.940  -2.960 -18.082  1.00 35.49     0.174 HD
ATOM     12  HH  ARG D 557     -28.838  -3.853 -17.638  1.00 35.49     0.174 HD
ATOM     13  HE  ARG D 557     -29.979  -0.900 -17.612  1.00 35.49     0.178 HD
ENDBRANCH   4   5
ENDBRANCH   3   4
ENDBRANCH   2   3
ENDBRANCH   1   2
END_RES ARG D 557
BEGIN_RES GLU D 570
REMARK  3 active torsions:
REMARK  status: ('A' for Active; 'I' for Inactive)
REMARK    5  A    between atoms: CA   and  CB  
REMARK    6  A    between atoms: CB   and  CG  
REMARK    7  A    between atoms: CG   and  CD  
ROOT
ATOM     14  CA  GLU D 570     -18.033  -6.348 -13.375  1.00 32.92     0.160 C 
ENDROOT
BRANCH  14  15
ATOM     15  CB  GLU D 570     -19.500  -6.345 -13.794  1.00 32.92     0.043 C 
BRANCH  15  16
ATOM     16  CG  GLU D 570     -20.089  -7.636 -14.234  1.00 32.92     0.100 C 
BRANCH  16  17
ATOM     17  CD  GLU D 570     -20.688  -7.569 -15.619  1.00 32.92     0.185 C 
ATOM     18  OE1 GLU D 570     -20.716  -6.475 -16.214  1.00 32.92    -0.647 OA
ATOM     19  OE2 GLU D 570     -21.149  -8.619 -16.108  1.00 32.92    -0.647 OA
ENDBRANCH  16  17
ENDBRANCH  15  16
ENDBRANCH  14  15
END_RES GLU D 570
ENDMDL
MODEL 6
REMARK VINA RESULT:      -6.6      6.317     12.025
REMARK  19 active torsions:
REMARK  status: ('A' for Active; 'I' for Inactive)
REMARK    1  A    between atoms: C_2  and  C_3 
REMARK    2  A    between atoms: C_3  and  C_4 
REMARK    3  A    between atoms: C_4  and  C_5 
REMARK    4  A    between atoms: C_5  and  C_6 
REMARK    5  A    between atoms: C_6  and  C_7 
REMARK    6  A    between atoms: C_7  and  C_8 
REMARK    7  A    between atoms: C_8  and  C_9 
REMARK    8  A    between atoms: C_9  and  C_10 
REMARK    9  A    between atoms: C_10  and  C_11 
REMARK   10  A    between atoms: C_11  and  C_12 
REMARK   11  A    between atoms: C_12  and  O_13 
REMARK   12  A    between atoms: O_13  and  C_14 
REMARK   13  A    between atoms: C_14  and  C_15 
REMARK   14  A    between atoms: C_15  and  O_16 
REMARK   15  A    between atoms: O_16  and  C_17 
REMARK   16  A    between atoms: C_17  and  C_18 
REMARK   17  A    between atoms: C_18  and  O_19 
REMARK   18  A    between atoms: O_19  and  C_20 
REMARK   19  A    between atoms: C_20  and  C_22 
ROOT
HETATM    1  C   UNL     1     -21.524  -3.577 -11.878  1.00  0.00     0.193 C 
ENDROOT
BRANCH   1   2
HETATM    2  O   UNL     1     -20.634  -3.392 -10.783  1.00  0.00    -0.389 OA
BRANCH   2   3
HETATM    3  C   UNL     1     -20.134  -4.646 -10.336  1.00  0.00     0.167 C 
BRANCH   3   4
HETATM    4  C   UNL     1     -20.003  -4.619  -8.823  1.00  0.00     0.026 C 
BRANCH   4   5
HETATM    5  C   UNL     1     -21.335  -4.987  -8.188  1.00  0.00     0.002 C 
BRANCH   5   6
HETATM    6  C   UNL     1     -21.415  -4.456  -6.766  1.00  0.00     0.000 C 
BRANCH   6   7
HETATM    7  C   UNL     1     -20.250  -4.984  -5.946  1.00  0.00     0.000 C 
BRANCH   7   8
HETATM    8  C   UNL     1     -20.572  -6.369  -5.415  1.00  0.00     0.000 C 
BRANCH   8   9
HETATM    9  C   UNL     1     -21.695  -6.288  -4.395  1.00  0.00     0.000 C 
BRANCH   9  10
HETATM   10  C   UNL     1     -21.121  -6.092  -3.003  1.00  0.00     0.000 C 
BRANCH  10  11
HETATM   11  C   UNL     1     -22.200  -6.309  -1.958  1.00  0.00     0.000 C 
BRANCH  11  12
HETATM   12  C   UNL     1     -22.017  -7.663  -1.284  1.00  0.00    -0.000 C 
BRANCH  12  13
HETATM   13  C   UNL     1     -22.795  -7.720   0.019  1.00  0.00    -0.005 C 
HETATM   14  C   UNL     1     -21.874  -8.083   1.171  1.00  0.00     0.005 C 
ENDBRANCH  12  13
ENDBRANCH  11  12
ENDBRANCH  10  11
ENDBRANCH   9  10
ENDBRANCH   8   9
ENDBRANCH   7   8
ENDBRANCH   6   7
ENDBRANCH   5   6
ENDBRANCH   4   5
ENDBRANCH   3   4
ENDBRANCH   2   3
ENDBRANCH   1   2
BRANCH   1  15
HETATM   15  C   UNL     1     -22.850  -4.094 -11.351  1.00  0.00     0.193 C 
BRANCH  15  16
HETATM   16  O   UNL     1     -23.806  -4.101 -12.411  1.00  0.00    -0.387 OA
BRANCH  16  17
HETATM   17  C   UNL     1     -23.745  -5.326 -13.152  1.00  0.00     0.194 C 
BRANCH  17  18
HETATM   18  C   UNL     1     -23.880  -5.049 -14.647  1.00  0.00     0.205 C 
BRANCH  18  19
HETATM   19  O   UNL     1     -25.251  -4.832 -15.027  1.00  0.00    -0.315 OA
BRANCH  19  20
HETATM   20  C   UNL     1     -25.864  -5.889 -15.614  1.00  0.00     0.293 C 
HETATM   21  O   UNL     1     -25.590  -7.064 -15.429  1.00  0.00    -0.259 OA
BRANCH  20  22
HETATM   22  C   UNL     1     -26.952  -5.422 -16.517  1.00  0.00     0.039 A 
HETATM   23  C   UNL     1     -27.240  -6.168 -17.671  1.00  0.00     0.017 A 
HETATM   24  C   UNL     1     -28.282  -5.780 -18.515  1.00  0.00     0.001 A 
HETATM   25  C   UNL     1     -29.055  -4.666 -18.197  1.00  0.00     0.000 A 
HETATM   26  C   UNL     1     -28.783  -3.926 -17.045  1.00  0.00     0.001 A 
HETATM   27  C   UNL     1     -27.722  -4.287 -16.220  1.00  0.00     0.017 A 
ENDBRANCH  20  22
ENDBRANCH  19  20
ENDBRANCH  18  19
ENDBRANCH  17  18
ENDBRANCH  16  17
ENDBRANCH  15  16
ENDBRANCH   1  15
TORSDOF 19
BEGIN_RES ARG D 557
REMARK  4 active torsions:
REMARK  status: ('A' for Active; 'I' for Inactive)
REMARK    1  A    between atoms: CA   and  CB  
REMARK    2  A    between atoms: CB   and  CG  
REMARK    3  A    between atoms: CG   and  CD  
REMARK    4  A    between atoms: CD   and  NE  
REMARK       I    between atoms: NE   and  CZ  
REMARK       I    between atoms: CZ   and  NH1 
REMARK       I    between atoms: CZ   and  NH2 
ROOT
ATOM      1  CA  ARG D 557     -26.217   2.705 -17.014  1.00 35.49     0.159 C 
ENDROOT
BRANCH   1   2
ATOM      2  CB  ARG D 557     -26.789   1.319 -17.183  1.00 35.49     0.034 C 
BRANCH   2   3
ATOM      3  CG  ARG D 557     -26.947   0.516 -15.964  1.00 35.49     0.027 C 
BRANCH   3   4
ATOM      4  CD  ARG D 557     -26.598  -0.907 -16.177  1.00 35.49     0.116 C 
BRANCH   4   5
ATOM      5  NE  ARG D 557     -25.784  -1.431 -15.112  1.00 35.49    -0.212 N 
ATOM      6  CZ  ARG D 557     -24.536  -1.099 -14.865  1.00 35.49     0.666 C 
ATOM      7  NH1 ARG D 557     -23.874  -0.229 -15.605  1.00 35.49    -0.235 N 
ATOM      8  NH2 ARG D 557     -23.958  -1.659 -13.842  1.00 35.49    -0.235 N 
ATOM      9  HH  ARG D 557     -24.236   0.153 -16.281  1.00 35.49     0.174 HD
ATOM     10  HH  ARG D 557     -23.063  -0.049 -15.394  1.00 35.49     0.174 HD
ATOM     11  HH  ARG D 557     -24.412  -2.211 -13.378  1.00 35.49     0.174 HD
ATOM     12  HH  ARG D 557     -23.155  -1.467 -13.649  1.00 35.49     0.174 HD
ATOM     13  HE  ARG D 557     -26.108  -2.052 -14.630  1.00 35.49     0.178 HD
ENDBRANCH   4   5
ENDBRANCH   3   4
ENDBRANCH   2   3
ENDBRANCH   1   2
END_RES ARG D 557
BEGIN_RES GLU D 570
REMARK  3 active torsions:
REMARK  status: ('A' for Active; 'I' for Inactive)
REMARK    5  A    between atoms: CA   and  CB  
REMARK    6  A    between atoms: CB   and  CG  
REMARK    7  A    between atoms: CG   and  CD  
ROOT
ATOM     14  CA  GLU D 570     -18.033  -6.348 -13.375  1.00 32.92     0.160 C 
ENDROOT
BRANCH  14  15
ATOM     15  CB  GLU D 570     -19.500  -6.345 -13.794  1.00 32.92     0.043 C 
BRANCH  15  16
ATOM     16  CG  GLU D 570     -19.796  -6.343 -15.250  1.00 32.92     0.100 C 
BRANCH  16  17
ATOM     17  CD  GLU D 570     -20.765  -7.429 -15.656  1.00 32.92     0.185 C 
ATOM     18  OE1 GLU D 570     -21.855  -7.107 -16.166  1.00 32.92    -0.647 OA
ATOM     19  OE2 GLU D 570     -20.436  -8.613 -15.448  1.00 32.92    -0.647 OA
ENDBRANCH  16  17
ENDBRANCH  15  16
ENDBRANCH  14  15
END_RES GLU D 570
ENDMDL
MODEL 7
REMARK VINA RESULT:      -6.4      9.330     15.042
REMARK  19 active torsions:
REMARK  status: ('A' for Active; 'I' for Inactive)
REMARK    1  A    between atoms: C_2  and  C_3 
REMARK    2  A    between atoms: C_3  and  C_4 
REMARK    3  A    between atoms: C_4  and  C_5 
REMARK    4  A    between atoms: C_5  and  C_6 
REMARK    5  A    between atoms: C_6  and  C_7 
REMARK    6  A    between atoms: C_7  and  C_8 
REMARK    7  A    between atoms: C_8  and  C_9 
REMARK    8  A    between atoms: C_9  and  C_10 
REMARK    9  A    between atoms: C_10  and  C_11 
REMARK   10  A    between atoms: C_11  and  C_12 
REMARK   11  A    between atoms: C_12  and  O_13 
REMARK   12  A    between atoms: O_13  and  C_14 
REMARK   13  A    between atoms: C_14  and  C_15 
REMARK   14  A    between atoms: C_15  and  O_16 
REMARK   15  A    between atoms: O_16  and  C_17 
REMARK   16  A    between atoms: C_17  and  C_18 
REMARK   17  A    between atoms: C_18  and  O_19 
REMARK   18  A    between atoms: O_19  and  C_20 
REMARK   19  A    between atoms: C_20  and  C_22 
ROOT
HETATM    1  C   UNL     1     -21.367  -8.075  -5.039  1.00  0.00     0.193 C 
ENDROOT
BRANCH   1   2
HETATM    2  O   UNL     1     -21.446  -8.183  -3.622  1.00  0.00    -0.389 OA
BRANCH   2   3
HETATM    3  C   UNL     1     -21.880  -6.952  -3.058  1.00  0.00     0.167 C 
BRANCH   3   4
HETATM    4  C   UNL     1     -21.296  -6.810  -1.663  1.00  0.00     0.026 C 
BRANCH   4   5
HETATM    5  C   UNL     1     -22.386  -7.036  -0.627  1.00  0.00     0.002 C 
BRANCH   5   6
HETATM    6  C   UNL     1     -22.098  -8.287   0.187  1.00  0.00     0.000 C 
BRANCH   6   7
HETATM    7  C   UNL     1     -23.339  -9.161   0.257  1.00  0.00     0.000 C 
BRANCH   7   8
HETATM    8  C   UNL     1     -23.255 -10.268  -0.778  1.00  0.00     0.000 C 
BRANCH   8   9
HETATM    9  C   UNL     1     -24.126 -11.440  -0.359  1.00  0.00     0.000 C 
BRANCH   9  10
HETATM   10  C   UNL     1     -23.652 -12.711  -1.043  1.00  0.00     0.000 C 
BRANCH  10  11
HETATM   11  C   UNL     1     -23.210 -13.729  -0.006  1.00  0.00     0.000 C 
BRANCH  11  12
HETATM   12  C   UNL     1     -23.337 -13.143   1.394  1.00  0.00    -0.000 C 
BRANCH  12  13
HETATM   13  C   UNL     1     -23.593 -14.243   2.410  1.00  0.00    -0.005 C 
HETATM   14  C   UNL     1     -22.296 -14.655   3.084  1.00  0.00     0.005 C 
ENDBRANCH  12  13
ENDBRANCH  11  12
ENDBRANCH  10  11
ENDBRANCH   9  10
ENDBRANCH   8   9
ENDBRANCH   7   8
ENDBRANCH   6   7
ENDBRANCH   5   6
ENDBRANCH   4   5
ENDBRANCH   3   4
ENDBRANCH   2   3
ENDBRANCH   1   2
BRANCH   1  15
HETATM   15  C   UNL     1     -20.640  -6.790  -5.394  1.00  0.00     0.193 C 
BRANCH  15  16
HETATM   16  O   UNL     1     -20.125  -6.893  -6.721  1.00  0.00    -0.387 OA
BRANCH  16  17
HETATM   17  C   UNL     1     -19.736  -5.609  -7.224  1.00  0.00     0.194 C 
BRANCH  17  18
HETATM   18  C   UNL     1     -20.369  -4.498  -6.390  1.00  0.00     0.205 C 
BRANCH  18  19
HETATM   19  O   UNL     1     -21.191  -3.632  -7.195  1.00  0.00    -0.315 OA
BRANCH  19  20
HETATM   20  C   UNL     1     -22.428  -4.107  -7.481  1.00  0.00     0.293 C 
HETATM   21  O   UNL     1     -23.186  -4.644  -6.689  1.00  0.00    -0.259 OA
BRANCH  20  22
HETATM   22  C   UNL     1     -22.758  -3.866  -8.913  1.00  0.00     0.039 A 
HETATM   23  C   UNL     1     -21.739  -3.984  -9.871  1.00  0.00     0.017 A 
HETATM   24  C   UNL     1     -22.026  -3.806 -11.226  1.00  0.00     0.001 A 
HETATM   25  C   UNL     1     -23.331  -3.535 -11.629  1.00  0.00     0.000 A 
HETATM   26  C   UNL     1     -24.353  -3.428 -10.683  1.00  0.00     0.001 A 
HETATM   27  C   UNL     1     -24.064  -3.568  -9.329  1.00  0.00     0.017 A 
ENDBRANCH  20  22
ENDBRANCH  19  20
ENDBRANCH  18  19
ENDBRANCH  17  18
ENDBRANCH  16  17
ENDBRANCH  15  16
ENDBRANCH   1  15
TORSDOF 19
BEGIN_RES ARG D 557
REMARK  4 active torsions:
REMARK  status: ('A' for Active; 'I' for Inactive)
REMARK    1  A    between atoms: CA   and  CB  
REMARK    2  A    between atoms: CB   and  CG  
REMARK    3  A    between atoms: CG   and  CD  
REMARK    4  A    between atoms: CD   and  NE  
REMARK       I    between atoms: NE   and  CZ  
REMARK       I    between atoms: CZ   and  NH1 
REMARK       I    between atoms: CZ   and  NH2 
ROOT
ATOM      1  CA  ARG D 557     -26.217   2.705 -17.014  1.00 35.49     0.159 C 
ENDROOT
BRANCH   1   2
ATOM      2  CB  ARG D 557     -26.789   1.319 -17.183  1.00 35.49     0.034 C 
BRANCH   2   3
ATOM      3  CG  ARG D 557     -28.220   1.156 -16.901  1.00 35.49     0.027 C 
BRANCH   3   4
ATOM      4  CD  ARG D 557     -28.616  -0.267 -16.794  1.00 35.49     0.116 C 
BRANCH   4   5
ATOM      5  NE  ARG D 557     -27.636  -1.051 -16.090  1.00 35.49    -0.212 N 
ATOM      6  CZ  ARG D 557     -27.510  -2.358 -16.151  1.00 35.49     0.666 C 
ATOM      7  NH1 ARG D 557     -28.309  -3.114 -16.881  1.00 35.49    -0.235 N 
ATOM      8  NH2 ARG D 557     -26.549  -2.901 -15.462  1.00 35.49    -0.235 N 
ATOM      9  HH  ARG D 557     -28.946  -2.778 -17.344  1.00 35.49     0.174 HD
ATOM     10  HH  ARG D 557     -28.177  -3.961 -16.884  1.00 35.49     0.174 HD
ATOM     11  HH  ARG D 557     -26.043  -2.387 -15.006  1.00 35.49     0.174 HD
ATOM     12  HH  ARG D 557     -26.434  -3.741 -15.479  1.00 35.49     0.174 HD
ATOM     13  HE  ARG D 557     -27.125  -0.652 -15.540  1.00 35.49     0.178 HD
ENDBRANCH   4   5
ENDBRANCH   3   4
ENDBRANCH   2   3
ENDBRANCH   1   2
END_RES ARG D 557
BEGIN_RES GLU D 570
REMARK  3 active torsions:
REMARK  status: ('A' for Active; 'I' for Inactive)
REMARK    5  A    between atoms: CA   and  CB  
REMARK    6  A    between atoms: CB   and  CG  
REMARK    7  A    between atoms: CG   and  CD  
ROOT
ATOM     14  CA  GLU D 570     -18.033  -6.348 -13.375  1.00 32.92     0.160 C 
ENDROOT
BRANCH  14  15
ATOM     15  CB  GLU D 570     -19.500  -6.345 -13.794  1.00 32.92     0.043 C 
BRANCH  15  16
ATOM     16  CG  GLU D 570     -19.809  -5.986 -15.202  1.00 32.92     0.100 C 
BRANCH  16  17
ATOM     17  CD  GLU D 570     -21.228  -5.500 -15.389  1.00 32.92     0.185 C 
ATOM     18  OE1 GLU D 570     -21.999  -5.493 -14.410  1.00 32.92    -0.647 OA
ATOM     19  OE2 GLU D 570     -21.576  -5.139 -16.530  1.00 32.92    -0.647 OA
ENDBRANCH  16  17
ENDBRANCH  15  16
ENDBRANCH  14  15
END_RES GLU D 570
ENDMDL
MODEL 8
REMARK VINA RESULT:      -6.3      5.506     11.129
REMARK  19 active torsions:
REMARK  status: ('A' for Active; 'I' for Inactive)
REMARK    1  A    between atoms: C_2  and  C_3 
REMARK    2  A    between atoms: C_3  and  C_4 
REMARK    3  A    between atoms: C_4  and  C_5 
REMARK    4  A    between atoms: C_5  and  C_6 
REMARK    5  A    between atoms: C_6  and  C_7 
REMARK    6  A    between atoms: C_7  and  C_8 
REMARK    7  A    between atoms: C_8  and  C_9 
REMARK    8  A    between atoms: C_9  and  C_10 
REMARK    9  A    between atoms: C_10  and  C_11 
REMARK   10  A    between atoms: C_11  and  C_12 
REMARK   11  A    between atoms: C_12  and  O_13 
REMARK   12  A    between atoms: O_13  and  C_14 
REMARK   13  A    between atoms: C_14  and  C_15 
REMARK   14  A    between atoms: C_15  and  O_16 
REMARK   15  A    between atoms: O_16  and  C_17 
REMARK   16  A    between atoms: C_17  and  C_18 
REMARK   17  A    between atoms: C_18  and  O_19 
REMARK   18  A    between atoms: O_19  and  C_20 
REMARK   19  A    between atoms: C_20  and  C_22 
ROOT
HETATM    1  C   UNL     1     -23.122  -5.320 -13.290  1.00  0.00     0.193 C 
ENDROOT
BRANCH   1   2
HETATM    2  O   UNL     1     -23.157  -4.259 -12.342  1.00  0.00    -0.389 OA
BRANCH   2   3
HETATM    3  C   UNL     1     -21.944  -4.222 -11.601  1.00  0.00     0.167 C 
BRANCH   3   4
HETATM    4  C   UNL     1     -22.268  -4.127 -10.120  1.00  0.00     0.026 C 
BRANCH   4   5
HETATM    5  C   UNL     1     -20.978  -4.052  -9.318  1.00  0.00     0.002 C 
BRANCH   5   6
HETATM    6  C   UNL     1     -20.989  -5.074  -8.192  1.00  0.00     0.000 C 
BRANCH   6   7
HETATM    7  C   UNL     1     -21.018  -4.367  -6.847  1.00  0.00     0.000 C 
BRANCH   7   8
HETATM    8  C   UNL     1     -20.048  -5.033  -5.888  1.00  0.00     0.000 C 
BRANCH   8   9
HETATM    9  C   UNL     1     -20.585  -6.389  -5.463  1.00  0.00     0.000 C 
BRANCH   9  10
HETATM   10  C   UNL     1     -21.990  -6.242  -4.904  1.00  0.00     0.000 C 
BRANCH  10  11
HETATM   11  C   UNL     1     -21.986  -6.496  -3.407  1.00  0.00     0.000 C 
BRANCH  11  12
HETATM   12  C   UNL     1     -20.930  -7.535  -3.052  1.00  0.00    -0.000 C 
BRANCH  12  13
HETATM   13  C   UNL     1     -20.845  -7.717  -1.546  1.00  0.00    -0.005 C 
HETATM   14  C   UNL     1     -22.144  -7.286  -0.886  1.00  0.00     0.005 C 
ENDBRANCH  12  13
ENDBRANCH  11  12
ENDBRANCH  10  11
ENDBRANCH   9  10
ENDBRANCH   8   9
ENDBRANCH   7   8
ENDBRANCH   6   7
ENDBRANCH   5   6
ENDBRANCH   4   5
ENDBRANCH   3   4
ENDBRANCH   2   3
ENDBRANCH   1   2
BRANCH   1  15
HETATM   15  C   UNL     1     -22.748  -4.752 -14.648  1.00  0.00     0.193 C 
BRANCH  15  16
HETATM   16  O   UNL     1     -23.299  -5.581 -15.671  1.00  0.00    -0.387 OA
BRANCH  16  17
HETATM   17  C   UNL     1     -24.136  -6.601 -15.114  1.00  0.00     0.194 C 
BRANCH  17  18
HETATM   18  C   UNL     1     -25.334  -6.862 -16.025  1.00  0.00     0.205 C 
BRANCH  18  19
HETATM   19  O   UNL     1     -26.366  -5.875 -15.841  1.00  0.00    -0.315 OA
BRANCH  19  20
HETATM   20  C   UNL     1     -27.615  -6.370 -15.659  1.00  0.00     0.293 C 
HETATM   21  O   UNL     1     -27.894  -7.396 -15.059  1.00  0.00    -0.259 OA
BRANCH  20  22
HETATM   22  C   UNL     1     -28.626  -5.470 -16.280  1.00  0.00     0.039 A 
HETATM   23  C   UNL     1     -28.213  -4.216 -16.755  1.00  0.00     0.017 A 
HETATM   24  C   UNL     1     -29.128  -3.366 -17.381  1.00  0.00     0.001 A 
HETATM   25  C   UNL     1     -30.447  -3.776 -17.556  1.00  0.00     0.000 A 
HETATM   26  C   UNL     1     -30.863  -5.027 -17.096  1.00  0.00     0.001 A 
HETATM   27  C   UNL     1     -29.963  -5.862 -16.440  1.00  0.00     0.017 A 
ENDBRANCH  20  22
ENDBRANCH  19  20
ENDBRANCH  18  19
ENDBRANCH  17  18
ENDBRANCH  16  17
ENDBRANCH  15  16
ENDBRANCH   1  15
TORSDOF 19
BEGIN_RES ARG D 557
REMARK  4 active torsions:
REMARK  status: ('A' for Active; 'I' for Inactive)
REMARK    1  A    between atoms: CA   and  CB  
REMARK    2  A    between atoms: CB   and  CG  
REMARK    3  A    between atoms: CG   and  CD  
REMARK    4  A    between atoms: CD   and  NE  
REMARK       I    between atoms: NE   and  CZ  
REMARK       I    between atoms: CZ   and  NH1 
REMARK       I    between atoms: CZ   and  NH2 
ROOT
ATOM      1  CA  ARG D 557     -26.217   2.705 -17.014  1.00 35.49     0.159 C 
ENDROOT
BRANCH   1   2
ATOM      2  CB  ARG D 557     -26.789   1.319 -17.183  1.00 35.49     0.034 C 
BRANCH   2   3
ATOM      3  CG  ARG D 557     -27.074   0.568 -15.955  1.00 35.49     0.027 C 
BRANCH   3   4
ATOM      4  CD  ARG D 557     -26.454  -0.777 -15.958  1.00 35.49     0.116 C 
BRANCH   4   5
ATOM      5  NE  ARG D 557     -25.320  -0.853 -15.075  1.00 35.49    -0.212 N 
ATOM      6  CZ  ARG D 557     -24.990  -1.890 -14.337  1.00 35.49     0.666 C 
ATOM      7  NH1 ARG D 557     -25.700  -3.003 -14.320  1.00 35.49    -0.235 N 
ATOM      8  NH2 ARG D 557     -23.915  -1.791 -13.610  1.00 35.49    -0.235 N 
ATOM      9  HH  ARG D 557     -26.410  -3.090 -14.792  1.00 35.49     0.174 HD
ATOM     10  HH  ARG D 557     -25.435  -3.647 -13.821  1.00 35.49     0.174 HD
ATOM     11  HH  ARG D 557     -23.473  -1.063 -13.647  1.00 35.49     0.174 HD
ATOM     12  HH  ARG D 557     -23.668  -2.440 -13.124  1.00 35.49     0.174 HD
ATOM     13  HE  ARG D 557     -24.848  -0.154 -14.969  1.00 35.49     0.178 HD
ENDBRANCH   4   5
ENDBRANCH   3   4
ENDBRANCH   2   3
ENDBRANCH   1   2
END_RES ARG D 557
BEGIN_RES GLU D 570
REMARK  3 active torsions:
REMARK  status: ('A' for Active; 'I' for Inactive)
REMARK    5  A    between atoms: CA   and  CB  
REMARK    6  A    between atoms: CB   and  CG  
REMARK    7  A    between atoms: CG   and  CD  
ROOT
ATOM     14  CA  GLU D 570     -18.033  -6.348 -13.375  1.00 32.92     0.160 C 
ENDROOT
BRANCH  14  15
ATOM     15  CB  GLU D 570     -19.500  -6.345 -13.794  1.00 32.92     0.043 C 
BRANCH  15  16
ATOM     16  CG  GLU D 570     -19.797  -6.421 -15.248  1.00 32.92     0.100 C 
BRANCH  16  17
ATOM     17  CD  GLU D 570     -20.549  -7.674 -15.631  1.00 32.92     0.185 C 
ATOM     18  OE1 GLU D 570     -20.625  -8.609 -14.811  1.00 32.92    -0.647 OA
ATOM     19  OE2 GLU D 570     -21.052  -7.728 -16.770  1.00 32.92    -0.647 OA
ENDBRANCH  16  17
ENDBRANCH  15  16
ENDBRANCH  14  15
END_RES GLU D 570
ENDMDL
MODEL 9
REMARK VINA RESULT:      -6.2      8.724     14.712
REMARK  19 active torsions:
REMARK  status: ('A' for Active; 'I' for Inactive)
REMARK    1  A    between atoms: C_2  and  C_3 
REMARK    2  A    between atoms: C_3  and  C_4 
REMARK    3  A    between atoms: C_4  and  C_5 
REMARK    4  A    between atoms: C_5  and  C_6 
REMARK    5  A    between atoms: C_6  and  C_7 
REMARK    6  A    between atoms: C_7  and  C_8 
REMARK    7  A    between atoms: C_8  and  C_9 
REMARK    8  A    between atoms: C_9  and  C_10 
REMARK    9  A    between atoms: C_10  and  C_11 
REMARK   10  A    between atoms: C_11  and  C_12 
REMARK   11  A    between atoms: C_12  and  O_13 
REMARK   12  A    between atoms: O_13  and  C_14 
REMARK   13  A    between atoms: C_14  and  C_15 
REMARK   14  A    between atoms: C_15  and  O_16 
REMARK   15  A    between atoms: O_16  and  C_17 
REMARK   16  A    between atoms: C_17  and  C_18 
REMARK   17  A    between atoms: C_18  and  O_19 
REMARK   18  A    between atoms: O_19  and  C_20 
REMARK   19  A    between atoms: C_20  and  C_22 
ROOT
HETATM    1  C   UNL     1     -21.038  -8.118  -5.265  1.00  0.00     0.193 C 
ENDROOT
BRANCH   1   2
HETATM    2  O   UNL     1     -20.449  -7.766  -4.018  1.00  0.00    -0.389 OA
BRANCH   2   3
HETATM    3  C   UNL     1     -21.406  -7.127  -3.183  1.00  0.00     0.167 C 
BRANCH   3   4
HETATM    4  C   UNL     1     -21.204  -7.588  -1.750  1.00  0.00     0.026 C 
BRANCH   4   5
HETATM    5  C   UNL     1     -22.292  -7.000  -0.866  1.00  0.00     0.002 C 
BRANCH   5   6
HETATM    6  C   UNL     1     -22.270  -7.646   0.510  1.00  0.00     0.000 C 
BRANCH   6   7
HETATM    7  C   UNL     1     -22.355  -9.157   0.378  1.00  0.00     0.000 C 
BRANCH   7   8
HETATM    8  C   UNL     1     -21.086  -9.799   0.910  1.00  0.00     0.000 C 
BRANCH   8   9
HETATM    9  C   UNL     1     -21.130 -11.301   0.689  1.00  0.00     0.000 C 
BRANCH   9  10
HETATM   10  C   UNL     1     -22.535 -11.730   0.303  1.00  0.00     0.000 C 
BRANCH  10  11
HETATM   11  C   UNL     1     -22.543 -12.273  -1.115  1.00  0.00     0.000 C 
BRANCH  11  12
HETATM   12  C   UNL     1     -23.401 -11.390  -2.012  1.00  0.00    -0.000 C 
BRANCH  12  13
HETATM   13  C   UNL     1     -22.630 -10.987  -3.258  1.00  0.00    -0.005 C 
HETATM   14  C   UNL     1     -21.135 -11.115  -3.022  1.00  0.00     0.005 C 
ENDBRANCH  12  13
ENDBRANCH  11  12
ENDBRANCH  10  11
ENDBRANCH   9  10
ENDBRANCH   8   9
ENDBRANCH   7   8
ENDBRANCH   6   7
ENDBRANCH   5   6
ENDBRANCH   4   5
ENDBRANCH   3   4
ENDBRANCH   2   3
ENDBRANCH   1   2
BRANCH   1  15
HETATM   15  C   UNL     1     -21.147  -6.873  -6.125  1.00  0.00     0.193 C 
BRANCH  15  16
HETATM   16  O   UNL     1     -19.942  -6.711  -6.873  1.00  0.00    -0.387 OA
BRANCH  16  17
HETATM   17  C   UNL     1     -19.552  -5.334  -6.929  1.00  0.00     0.194 C 
BRANCH  17  18
HETATM   18  C   UNL     1     -20.644  -4.447  -6.336  1.00  0.00     0.205 C 
BRANCH  18  19
HETATM   19  O   UNL     1     -21.260  -3.618  -7.340  1.00  0.00    -0.315 OA
BRANCH  19  20
HETATM   20  C   UNL     1     -22.403  -4.110  -7.876  1.00  0.00     0.293 C 
HETATM   21  O   UNL     1     -23.418  -4.388  -7.258  1.00  0.00    -0.259 OA
BRANCH  20  22
HETATM   22  C   UNL     1     -22.266  -4.250  -9.352  1.00  0.00     0.039 A 
HETATM   23  C   UNL     1     -23.379  -4.665 -10.099  1.00  0.00     0.017 A 
HETATM   24  C   UNL     1     -23.295  -4.765 -11.489  1.00  0.00     0.001 A 
HETATM   25  C   UNL     1     -22.110  -4.426 -12.138  1.00  0.00     0.000 A 
HETATM   26  C   UNL     1     -21.001  -4.001 -11.404  1.00  0.00     0.001 A 
HETATM   27  C   UNL     1     -21.069  -3.935 -10.015  1.00  0.00     0.017 A 
ENDBRANCH  20  22
ENDBRANCH  19  20
ENDBRANCH  18  19
ENDBRANCH  17  18
ENDBRANCH  16  17
ENDBRANCH  15  16
ENDBRANCH   1  15
TORSDOF 19
BEGIN_RES ARG D 557
REMARK  4 active torsions:
REMARK  status: ('A' for Active; 'I' for Inactive)
REMARK    1  A    between atoms: CA   and  CB  
REMARK    2  A    between atoms: CB   and  CG  
REMARK    3  A    between atoms: CG   and  CD  
REMARK    4  A    between atoms: CD   and  NE  
REMARK       I    between atoms: NE   and  CZ  
REMARK       I    between atoms: CZ   and  NH1 
REMARK       I    between atoms: CZ   and  NH2 
ROOT
ATOM      1  CA  ARG D 557     -26.217   2.705 -17.014  1.00 35.49     0.159 C 
ENDROOT
BRANCH   1   2
ATOM      2  CB  ARG D 557     -26.789   1.319 -17.183  1.00 35.49     0.034 C 
BRANCH   2   3
ATOM      3  CG  ARG D 557     -25.835   0.203 -17.161  1.00 35.49     0.027 C 
BRANCH   3   4
ATOM      4  CD  ARG D 557     -24.734   0.422 -16.195  1.00 35.49     0.116 C 
BRANCH   4   5
ATOM      5  NE  ARG D 557     -24.861  -0.413 -15.030  1.00 35.49    -0.212 N 
ATOM      6  CZ  ARG D 557     -24.042  -1.381 -14.685  1.00 35.49     0.666 C 
ATOM      7  NH1 ARG D 557     -22.986  -1.708 -15.409  1.00 35.49    -0.235 N 
ATOM      8  NH2 ARG D 557     -24.299  -2.022 -13.582  1.00 35.49    -0.235 N 
ATOM      9  HH  ARG D 557     -22.797  -1.299 -16.137  1.00 35.49     0.174 HD
ATOM     10  HH  ARG D 557     -22.486  -2.347 -15.133  1.00 35.49     0.174 HD
ATOM     11  HH  ARG D 557     -24.983  -1.784 -13.132  1.00 35.49     0.174 HD
ATOM     12  HH  ARG D 557     -23.791  -2.650 -13.325  1.00 35.49     0.174 HD
ATOM     13  HE  ARG D 557     -25.553  -0.319 -14.545  1.00 35.49     0.178 HD
ENDBRANCH   4   5
ENDBRANCH   3   4
ENDBRANCH   2   3
ENDBRANCH   1   2
END_RES ARG D 557
BEGIN_RES GLU D 570
REMARK  3 active torsions:
REMARK  status: ('A' for Active; 'I' for Inactive)
REMARK    5  A    between atoms: CA   and  CB  
REMARK    6  A    between atoms: CB   and  CG  
REMARK    7  A    between atoms: CG   and  CD  
ROOT
ATOM     14  CA  GLU D 570     -18.033  -6.348 -13.375  1.00 32.92     0.160 C 
ENDROOT
BRANCH  14  15
ATOM     15  CB  GLU D 570     -19.500  -6.345 -13.794  1.00 32.92     0.043 C 
BRANCH  15  16
ATOM     16  CG  GLU D 570     -20.094  -7.640 -14.216  1.00 32.92     0.100 C 
BRANCH  16  17
ATOM     17  CD  GLU D 570     -20.666  -7.598 -15.614  1.00 32.92     0.185 C 
ATOM     18  OE1 GLU D 570     -21.160  -8.635 -16.097  1.00 32.92    -0.647 OA
ATOM     19  OE2 GLU D 570     -20.605  -6.520 -16.239  1.00 32.92    -0.647 OA
ENDBRANCH  16  17
ENDBRANCH  15  16
ENDBRANCH  14  15
END_RES GLU D 570
ENDMDL
