MODEL 1
REMARK VINA RESULT:      -7.7      0.000      0.000
REMARK  20 active torsions:
REMARK  status: ('A' for Active; 'I' for Inactive)
REMARK    1  A    between atoms: C_2  and  C_3 
REMARK    2  A    between atoms: C_3  and  C_4 
REMARK    3  A    between atoms: C_4  and  C_5 
REMARK    4  A    between atoms: C_5  and  C_6 
REMARK    5  A    between atoms: C_6  and  C_7 
REMARK    6  A    between atoms: C_7  and  C_8 
REMARK    7  A    between atoms: C_8  and  C_9 
REMARK    8  A    between atoms: C_10  and  C_11 
REMARK    9  A    between atoms: C_11  and  C_12 
REMARK   10  A    between atoms: C_12  and  C_13 
REMARK   11  A    between atoms: C_13  and  C_14 
REMARK   12  A    between atoms: C_14  and  C_15 
REMARK   13  A    between atoms: C_15  and  C_16 
REMARK   14  A    between atoms: C_16  and  C_17 
REMARK   15  A    between atoms: C_17  and  C_18 
REMARK       I    between atoms: C_18  and  N_20 
REMARK   16  A    between atoms: N_20  and  CA_21 
REMARK   17  A    between atoms: CA_21  and  CB_22 
REMARK   18  A    between atoms: CA_21  and  C_24 
REMARK   19  A    between atoms: CB_22  and  OG_23 
REMARK   20  A    between atoms: C_24  and  O_25 
ROOT
HETATM    1  C   UNK A   0     -20.852  -4.661  -8.596  1.00  0.00     0.000 C 
ENDROOT
BRANCH   1   2
HETATM    2  C   UNK A   0     -19.798  -4.220  -7.594  1.00  0.00     0.000 C 
BRANCH   2   3
HETATM    3  C   UNK A   0     -20.081  -4.812  -6.219  1.00  0.00     0.004 C 
BRANCH   3   4
HETATM    4  C   UNK A   0     -20.063  -6.333  -6.295  1.00  0.00     0.027 C 
BRANCH   4   5
HETATM    5  C   UNK A   0     -20.877  -6.924  -5.191  1.00  0.00    -0.031 C 
HETATM    6  C   UNK A   0     -21.530  -6.172  -4.295  1.00  0.00    -0.031 C 
BRANCH   6   7
HETATM    7  C   UNK A   0     -22.345  -6.760  -3.191  1.00  0.00     0.027 C 
BRANCH   7   8
HETATM    8  C   UNK A   0     -21.448  -7.204  -2.044  1.00  0.00     0.004 C 
BRANCH   8   9
HETATM    9  C   UNK A   0     -22.185  -7.073  -0.717  1.00  0.00     0.000 C 
BRANCH   9  10
HETATM   10  C   UNK A   0     -21.676  -8.104   0.280  1.00  0.00     0.000 C 
BRANCH  10  11
HETATM   11  C   UNK A   0     -21.935  -9.516  -0.229  1.00  0.00     0.000 C 
BRANCH  11  12
HETATM   12  C   UNK A   0     -23.432  -9.809  -0.257  1.00  0.00    -0.000 C 
BRANCH  12  13
HETATM   13  C   UNK A   0     -23.713 -11.256   0.133  1.00  0.00    -0.005 C 
HETATM   14  C   UNK A   0     -22.420 -12.038   0.282  1.00  0.00     0.005 C 
ENDBRANCH  12  13
ENDBRANCH  11  12
ENDBRANCH  10  11
ENDBRANCH   9  10
ENDBRANCH   8   9
ENDBRANCH   7   8
ENDBRANCH   6   7
ENDBRANCH   4   5
ENDBRANCH   3   4
ENDBRANCH   2   3
ENDBRANCH   1   2
BRANCH   1  15
HETATM   15  C   UNK A   0     -20.368  -4.438 -10.026  1.00  0.00     0.000 C 
BRANCH  15  16
HETATM   16  C   UNK A   0     -21.453  -3.744 -10.835  1.00  0.00     0.009 C 
BRANCH  16  17
HETATM   17  C   UNK A   0     -22.857  -4.185 -10.436  1.00  0.00     0.103 C 
BRANCH  17  18
HETATM   18  C   UNK A   0     -23.892  -3.466 -11.286  1.00  0.00     0.218 C 
HETATM   19  O   UNK A   0     -25.008  -3.157 -10.876  1.00  0.00    -0.274 OA
ATOM     20  N   SER A   1     -23.464  -3.219 -12.576  1.00  0.00    -0.352 N 
ATOM     21  H   SER A   1     -22.518  -3.492 -12.832  1.00  0.00     0.163 HD
BRANCH  20  22
ATOM     22  CA  SER A   1     -24.357  -2.597 -13.568  1.00  0.00     0.131 C 
BRANCH  22  23
ATOM     23  CB  SER A   1     -23.598  -1.656 -14.523  1.00  0.00     0.191 C 
BRANCH  23  24
ATOM     24  OG  SER A   1     -22.838  -2.381 -15.495  1.00  0.00    -0.399 OA
ATOM     25  H   SER A   1     -22.983  -1.956 -16.363  1.00  0.00     0.209 HD
ENDBRANCH  23  24
ENDBRANCH  22  23
BRANCH  22  26
ATOM     26  C   SER A   1     -25.195  -3.637 -14.349  1.00  0.00     0.191 C 
BRANCH  26  27
ATOM     27  O   SER A   1     -24.438  -4.658 -14.997  1.00  0.00    -0.399 OA
ATOM     28  H   SER A   1     -23.795  -4.206 -15.585  1.00  0.00     0.209 HD
ENDBRANCH  26  27
ENDBRANCH  22  26
ENDBRANCH  20  22
ENDBRANCH  17  18
ENDBRANCH  16  17
ENDBRANCH  15  16
ENDBRANCH   1  15
TORSDOF 20
BEGIN_RES ARG D 557
REMARK  4 active torsions:
REMARK  status: ('A' for Active; 'I' for Inactive)
REMARK    1  A    between atoms: CA   and  CB  
REMARK    2  A    between atoms: CB   and  CG  
REMARK    3  A    between atoms: CG   and  CD  
REMARK    4  A    between atoms: CD   and  NE  
REMARK       I    between atoms: NE   and  CZ  
REMARK       I    between atoms: CZ   and  NH1 
REMARK       I    between atoms: CZ   and  NH2 
ROOT
ATOM      1  CA  ARG D 557     -26.217   2.705 -17.014  1.00 35.49     0.159 C 
ENDROOT
BRANCH   1   2
ATOM      2  CB  ARG D 557     -26.789   1.319 -17.183  1.00 35.49     0.034 C 
BRANCH   2   3
ATOM      3  CG  ARG D 557     -28.231   1.226 -17.442  1.00 35.49     0.027 C 
BRANCH   3   4
ATOM      4  CD  ARG D 557     -28.919   0.326 -16.489  1.00 35.49     0.116 C 
BRANCH   4   5
ATOM      5  NE  ARG D 557     -29.334  -0.905 -17.109  1.00 35.49    -0.212 N 
ATOM      6  CZ  ARG D 557     -28.707  -2.057 -17.023  1.00 35.49     0.666 C 
ATOM      7  NH1 ARG D 557     -27.584  -2.205 -16.345  1.00 35.49    -0.235 N 
ATOM      8  NH2 ARG D 557     -29.239  -3.077 -17.633  1.00 35.49    -0.235 N 
ATOM      9  HH  ARG D 557     -27.217  -1.548 -15.935  1.00 35.49     0.174 HD
ATOM     10  HH  ARG D 557     -27.221  -2.981 -16.322  1.00 35.49     0.174 HD
ATOM     11  HH  ARG D 557     -29.969  -2.953 -18.056  1.00 35.49     0.174 HD
ATOM     12  HH  ARG D 557     -28.866  -3.837 -17.597  1.00 35.49     0.174 HD
ATOM     13  HE  ARG D 557     -30.009  -0.885 -17.624  1.00 35.49     0.178 HD
ENDBRANCH   4   5
ENDBRANCH   3   4
ENDBRANCH   2   3
ENDBRANCH   1   2
END_RES ARG D 557
BEGIN_RES GLU D 570
REMARK  3 active torsions:
REMARK  status: ('A' for Active; 'I' for Inactive)
REMARK    5  A    between atoms: CA   and  CB  
REMARK    6  A    between atoms: CB   and  CG  
REMARK    7  A    between atoms: CG   and  CD  
ROOT
ATOM     14  CA  GLU D 570     -18.033  -6.348 -13.375  1.00 32.92     0.160 C 
ENDROOT
BRANCH  14  15
ATOM     15  CB  GLU D 570     -19.500  -6.345 -13.794  1.00 32.92     0.043 C 
BRANCH  15  16
ATOM     16  CG  GLU D 570     -19.812  -5.947 -15.191  1.00 32.92     0.100 C 
BRANCH  16  17
ATOM     17  CD  GLU D 570     -21.155  -5.268 -15.325  1.00 32.92     0.185 C 
ATOM     18  OE1 GLU D 570     -21.601  -5.028 -16.463  1.00 32.92    -0.647 OA
ATOM     19  OE2 GLU D 570     -21.759  -4.956 -14.279  1.00 32.92    -0.647 OA
ENDBRANCH  16  17
ENDBRANCH  15  16
ENDBRANCH  14  15
END_RES GLU D 570
ENDMDL
MODEL 2
REMARK VINA RESULT:      -7.6      1.332      1.877
REMARK  20 active torsions:
REMARK  status: ('A' for Active; 'I' for Inactive)
REMARK    1  A    between atoms: C_2  and  C_3 
REMARK    2  A    between atoms: C_3  and  C_4 
REMARK    3  A    between atoms: C_4  and  C_5 
REMARK    4  A    between atoms: C_5  and  C_6 
REMARK    5  A    between atoms: C_6  and  C_7 
REMARK    6  A    between atoms: C_7  and  C_8 
REMARK    7  A    between atoms: C_8  and  C_9 
REMARK    8  A    between atoms: C_10  and  C_11 
REMARK    9  A    between atoms: C_11  and  C_12 
REMARK   10  A    between atoms: C_12  and  C_13 
REMARK   11  A    between atoms: C_13  and  C_14 
REMARK   12  A    between atoms: C_14  and  C_15 
REMARK   13  A    between atoms: C_15  and  C_16 
REMARK   14  A    between atoms: C_16  and  C_17 
REMARK   15  A    between atoms: C_17  and  C_18 
REMARK       I    between atoms: C_18  and  N_20 
REMARK   16  A    between atoms: N_20  and  CA_21 
REMARK   17  A    between atoms: CA_21  and  CB_22 
REMARK   18  A    between atoms: CA_21  and  C_24 
REMARK   19  A    between atoms: CB_22  and  OG_23 
REMARK   20  A    between atoms: C_24  and  O_25 
ROOT
HETATM    1  C   UNK A   0     -22.657  -3.829  -8.132  1.00  0.00     0.000 C 
ENDROOT
BRANCH   1   2
HETATM    2  C   UNK A   0     -21.312  -3.446  -7.538  1.00  0.00     0.000 C 
BRANCH   2   3
HETATM    3  C   UNK A   0     -20.239  -4.450  -7.943  1.00  0.00     0.004 C 
BRANCH   3   4
HETATM    4  C   UNK A   0     -19.378  -4.804  -6.737  1.00  0.00     0.027 C 
BRANCH   4   5
HETATM    5  C   UNK A   0     -20.234  -5.164  -5.568  1.00  0.00    -0.031 C 
HETATM    6  C   UNK A   0     -20.989  -6.269  -5.540  1.00  0.00    -0.031 C 
BRANCH   6   7
HETATM    7  C   UNK A   0     -21.844  -6.632  -4.371  1.00  0.00     0.027 C 
BRANCH   7   8
HETATM    8  C   UNK A   0     -21.356  -5.925  -3.114  1.00  0.00     0.004 C 
BRANCH   8   9
HETATM    9  C   UNK A   0     -22.224  -6.310  -1.922  1.00  0.00     0.000 C 
BRANCH   9  10
HETATM   10  C   UNK A   0     -21.687  -7.569  -1.256  1.00  0.00     0.000 C 
BRANCH  10  11
HETATM   11  C   UNK A   0     -22.518  -7.922  -0.029  1.00  0.00     0.000 C 
BRANCH  11  12
HETATM   12  C   UNK A   0     -21.616  -8.364   1.120  1.00  0.00    -0.000 C 
BRANCH  12  13
HETATM   13  C   UNK A   0     -21.004  -9.732   0.840  1.00  0.00    -0.005 C 
HETATM   14  C   UNK A   0     -22.052 -10.696   0.314  1.00  0.00     0.005 C 
ENDBRANCH  12  13
ENDBRANCH  11  12
ENDBRANCH  10  11
ENDBRANCH   9  10
ENDBRANCH   8   9
ENDBRANCH   7   8
ENDBRANCH   6   7
ENDBRANCH   4   5
ENDBRANCH   3   4
ENDBRANCH   2   3
ENDBRANCH   1   2
BRANCH   1  15
HETATM   15  C   UNK A   0     -22.477  -4.774  -9.317  1.00  0.00     0.000 C 
BRANCH  15  16
HETATM   16  C   UNK A   0     -23.751  -4.808 -10.148  1.00  0.00     0.009 C 
BRANCH  16  17
HETATM   17  C   UNK A   0     -24.060  -3.468 -10.805  1.00  0.00     0.103 C 
BRANCH  17  18
HETATM   18  C   UNK A   0     -24.055  -3.613 -12.318  1.00  0.00     0.218 C 
HETATM   19  O   UNK A   0     -23.796  -4.666 -12.896  1.00  0.00    -0.274 OA
ATOM     20  N   SER A   1     -24.345  -2.437 -12.981  1.00  0.00    -0.352 N 
ATOM     21  H   SER A   1     -24.565  -1.611 -12.428  1.00  0.00     0.163 HD
BRANCH  20  22
ATOM     22  CA  SER A   1     -24.314  -2.365 -14.452  1.00  0.00     0.131 C 
BRANCH  22  23
ATOM     23  CB  SER A   1     -25.270  -1.287 -14.999  1.00  0.00     0.191 C 
BRANCH  23  24
ATOM     24  OG  SER A   1     -24.726   0.029 -14.863  1.00  0.00    -0.399 OA
ATOM     25  H   SER A   1     -24.161   0.036 -14.066  1.00  0.00     0.209 HD
ENDBRANCH  23  24
ENDBRANCH  22  23
BRANCH  22  26
ATOM     26  C   SER A   1     -22.882  -2.185 -15.010  1.00  0.00     0.191 C 
BRANCH  26  27
ATOM     27  O   SER A   1     -22.203  -3.398 -15.329  1.00  0.00    -0.399 OA
ATOM     28  H   SER A   1     -22.805  -4.134 -15.087  1.00  0.00     0.209 HD
ENDBRANCH  26  27
ENDBRANCH  22  26
ENDBRANCH  20  22
ENDBRANCH  17  18
ENDBRANCH  16  17
ENDBRANCH  15  16
ENDBRANCH   1  15
TORSDOF 20
BEGIN_RES ARG D 557
REMARK  4 active torsions:
REMARK  status: ('A' for Active; 'I' for Inactive)
REMARK    1  A    between atoms: CA   and  CB  
REMARK    2  A    between atoms: CB   and  CG  
REMARK    3  A    between atoms: CG   and  CD  
REMARK    4  A    between atoms: CD   and  NE  
REMARK       I    between atoms: NE   and  CZ  
REMARK       I    between atoms: CZ   and  NH1 
REMARK       I    between atoms: CZ   and  NH2 
ROOT
ATOM      1  CA  ARG D 557     -26.217   2.705 -17.014  1.00 35.49     0.159 C 
ENDROOT
BRANCH   1   2
ATOM      2  CB  ARG D 557     -26.789   1.319 -17.183  1.00 35.49     0.034 C 
BRANCH   2   3
ATOM      3  CG  ARG D 557     -28.236   1.173 -16.984  1.00 35.49     0.027 C 
BRANCH   3   4
ATOM      4  CD  ARG D 557     -28.581  -0.059 -16.237  1.00 35.49     0.116 C 
BRANCH   4   5
ATOM      5  NE  ARG D 557     -29.318  -0.994 -17.045  1.00 35.49    -0.212 N 
ATOM      6  CZ  ARG D 557     -29.053  -2.275 -17.173  1.00 35.49     0.666 C 
ATOM      7  NH1 ARG D 557     -28.036  -2.853 -16.561  1.00 35.49    -0.235 N 
ATOM      8  NH2 ARG D 557     -29.842  -2.979 -17.932  1.00 35.49    -0.235 N 
ATOM      9  HH  ARG D 557     -27.505  -2.410 -16.055  1.00 35.49     0.174 HD
ATOM     10  HH  ARG D 557     -27.913  -3.693 -16.680  1.00 35.49     0.174 HD
ATOM     11  HH  ARG D 557     -30.495  -2.580 -18.309  1.00 35.49     0.174 HD
ATOM     12  HH  ARG D 557     -29.705  -3.809 -18.036  1.00 35.49     0.174 HD
ATOM     13  HE  ARG D 557     -29.947  -0.693 -17.532  1.00 35.49     0.178 HD
ENDBRANCH   4   5
ENDBRANCH   3   4
ENDBRANCH   2   3
ENDBRANCH   1   2
END_RES ARG D 557
BEGIN_RES GLU D 570
REMARK  3 active torsions:
REMARK  status: ('A' for Active; 'I' for Inactive)
REMARK    5  A    between atoms: CA   and  CB  
REMARK    6  A    between atoms: CB   and  CG  
REMARK    7  A    between atoms: CG   and  CD  
ROOT
ATOM     14  CA  GLU D 570     -18.033  -6.348 -13.375  1.00 32.92     0.160 C 
ENDROOT
BRANCH  14  15
ATOM     15  CB  GLU D 570     -19.500  -6.345 -13.794  1.00 32.92     0.043 C 
BRANCH  15  16
ATOM     16  CG  GLU D 570     -19.804  -6.053 -15.219  1.00 32.92     0.100 C 
BRANCH  16  17
ATOM     17  CD  GLU D 570     -20.972  -6.853 -15.748  1.00 32.92     0.185 C 
ATOM     18  OE1 GLU D 570     -20.899  -8.097 -15.756  1.00 32.92    -0.647 OA
ATOM     19  OE2 GLU D 570     -21.963  -6.229 -16.174  1.00 32.92    -0.647 OA
ENDBRANCH  16  17
ENDBRANCH  15  16
ENDBRANCH  14  15
END_RES GLU D 570
ENDMDL
MODEL 3
REMARK VINA RESULT:      -7.3      1.292      2.104
REMARK  20 active torsions:
REMARK  status: ('A' for Active; 'I' for Inactive)
REMARK    1  A    between atoms: C_2  and  C_3 
REMARK    2  A    between atoms: C_3  and  C_4 
REMARK    3  A    between atoms: C_4  and  C_5 
REMARK    4  A    between atoms: C_5  and  C_6 
REMARK    5  A    between atoms: C_6  and  C_7 
REMARK    6  A    between atoms: C_7  and  C_8 
REMARK    7  A    between atoms: C_8  and  C_9 
REMARK    8  A    between atoms: C_10  and  C_11 
REMARK    9  A    between atoms: C_11  and  C_12 
REMARK   10  A    between atoms: C_12  and  C_13 
REMARK   11  A    between atoms: C_13  and  C_14 
REMARK   12  A    between atoms: C_14  and  C_15 
REMARK   13  A    between atoms: C_15  and  C_16 
REMARK   14  A    between atoms: C_16  and  C_17 
REMARK   15  A    between atoms: C_17  and  C_18 
REMARK       I    between atoms: C_18  and  N_20 
REMARK   16  A    between atoms: N_20  and  CA_21 
REMARK   17  A    between atoms: CA_21  and  CB_22 
REMARK   18  A    between atoms: CA_21  and  C_24 
REMARK   19  A    between atoms: CB_22  and  OG_23 
REMARK   20  A    between atoms: C_24  and  O_25 
ROOT
HETATM    1  C   UNK A   0     -21.027  -4.017  -7.498  1.00  0.00     0.000 C 
ENDROOT
BRANCH   1   2
HETATM    2  C   UNK A   0     -20.040  -4.827  -6.673  1.00  0.00     0.000 C 
BRANCH   2   3
HETATM    3  C   UNK A   0     -20.610  -5.126  -5.292  1.00  0.00     0.004 C 
BRANCH   3   4
HETATM    4  C   UNK A   0     -21.564  -6.311  -5.370  1.00  0.00     0.027 C 
BRANCH   4   5
HETATM    5  C   UNK A   0     -21.030  -7.467  -4.590  1.00  0.00    -0.031 C 
HETATM    6  C   UNK A   0     -21.649  -8.653  -4.543  1.00  0.00    -0.031 C 
BRANCH   6   7
HETATM    7  C   UNK A   0     -21.116  -9.811  -3.765  1.00  0.00     0.027 C 
BRANCH   7   8
HETATM    8  C   UNK A   0     -22.039 -10.138  -2.599  1.00  0.00     0.004 C 
BRANCH   8   9
HETATM    9  C   UNK A   0     -21.250 -10.788  -1.469  1.00  0.00     0.000 C 
BRANCH   9  10
HETATM   10  C   UNK A   0     -21.649 -10.189  -0.128  1.00  0.00     0.000 C 
BRANCH  10  11
HETATM   11  C   UNK A   0     -23.121  -9.798  -0.131  1.00  0.00     0.000 C 
BRANCH  11  12
HETATM   12  C   UNK A   0     -23.292  -8.351   0.319  1.00  0.00    -0.000 C 
BRANCH  12  13
HETATM   13  C   UNK A   0     -22.052  -7.526  -0.010  1.00  0.00    -0.005 C 
HETATM   14  C   UNK A   0     -22.293  -6.648  -1.224  1.00  0.00     0.005 C 
ENDBRANCH  12  13
ENDBRANCH  11  12
ENDBRANCH  10  11
ENDBRANCH   9  10
ENDBRANCH   8   9
ENDBRANCH   7   8
ENDBRANCH   6   7
ENDBRANCH   4   5
ENDBRANCH   3   4
ENDBRANCH   2   3
ENDBRANCH   1   2
BRANCH   1  15
HETATM   15  C   UNK A   0     -21.594  -4.856  -8.640  1.00  0.00     0.000 C 
BRANCH  15  16
HETATM   16  C   UNK A   0     -22.797  -4.150  -9.249  1.00  0.00     0.009 C 
BRANCH  16  17
HETATM   17  C   UNK A   0     -22.490  -3.530 -10.607  1.00  0.00     0.103 C 
BRANCH  17  18
HETATM   18  C   UNK A   0     -23.781  -3.149 -11.312  1.00  0.00     0.218 C 
HETATM   19  O   UNK A   0     -24.880  -3.154 -10.763  1.00  0.00    -0.274 OA
ATOM     20  N   SER A   1     -23.601  -2.820 -12.642  1.00  0.00    -0.352 N 
ATOM     21  H   SER A   1     -22.656  -2.823 -13.017  1.00  0.00     0.163 HD
BRANCH  20  22
ATOM     22  CA  SER A   1     -24.748  -2.495 -13.507  1.00  0.00     0.131 C 
BRANCH  22  23
ATOM     23  CB  SER A   1     -24.374  -1.486 -14.610  1.00  0.00     0.191 C 
BRANCH  23  24
ATOM     24  OG  SER A   1     -25.348  -1.453 -15.657  1.00  0.00    -0.399 OA
ATOM     25  H   SER A   1     -25.215  -2.246 -16.213  1.00  0.00     0.209 HD
ENDBRANCH  23  24
ENDBRANCH  22  23
BRANCH  22  26
ATOM     26  C   SER A   1     -25.422  -3.755 -14.100  1.00  0.00     0.191 C 
BRANCH  26  27
ATOM     27  O   SER A   1     -24.665  -4.429 -15.103  1.00  0.00    -0.399 OA
ATOM     28  H   SER A   1     -24.308  -3.739 -15.703  1.00  0.00     0.209 HD
ENDBRANCH  26  27
ENDBRANCH  22  26
ENDBRANCH  20  22
ENDBRANCH  17  18
ENDBRANCH  16  17
ENDBRANCH  15  16
ENDBRANCH   1  15
TORSDOF 20
BEGIN_RES ARG D 557
REMARK  4 active torsions:
REMARK  status: ('A' for Active; 'I' for Inactive)
REMARK    1  A    between atoms: CA   and  CB  
REMARK    2  A    between atoms: CB   and  CG  
REMARK    3  A    between atoms: CG   and  CD  
REMARK    4  A    between atoms: CD   and  NE  
REMARK       I    between atoms: NE   and  CZ  
REMARK       I    between atoms: CZ   and  NH1 
REMARK       I    between atoms: CZ   and  NH2 
ROOT
ATOM      1  CA  ARG D 557     -26.217   2.705 -17.014  1.00 35.49     0.159 C 
ENDROOT
BRANCH   1   2
ATOM      2  CB  ARG D 557     -26.789   1.319 -17.183  1.00 35.49     0.034 C 
BRANCH   2   3
ATOM      3  CG  ARG D 557     -28.230   1.227 -17.449  1.00 35.49     0.027 C 
BRANCH   3   4
ATOM      4  CD  ARG D 557     -28.918   0.307 -16.514  1.00 35.49     0.116 C 
BRANCH   4   5
ATOM      5  NE  ARG D 557     -28.197  -0.926 -16.338  1.00 35.49    -0.212 N 
ATOM      6  CZ  ARG D 557     -28.546  -2.097 -16.822  1.00 35.49     0.666 C 
ATOM      7  NH1 ARG D 557     -29.644  -2.270 -17.536  1.00 35.49    -0.235 N 
ATOM      8  NH2 ARG D 557     -27.760  -3.106 -16.581  1.00 35.49    -0.235 N 
ATOM      9  HH  ARG D 557     -30.175  -1.620 -17.708  1.00 35.49     0.174 HD
ATOM     10  HH  ARG D 557     -29.820  -3.056 -17.828  1.00 35.49     0.174 HD
ATOM     11  HH  ARG D 557     -27.055  -2.963 -16.124  1.00 35.49     0.174 HD
ATOM     12  HH  ARG D 557     -27.951  -3.876 -16.880  1.00 35.49     0.174 HD
ATOM     13  HE  ARG D 557     -27.515  -0.921 -15.830  1.00 35.49     0.178 HD
ENDBRANCH   4   5
ENDBRANCH   3   4
ENDBRANCH   2   3
ENDBRANCH   1   2
END_RES ARG D 557
BEGIN_RES GLU D 570
REMARK  3 active torsions:
REMARK  status: ('A' for Active; 'I' for Inactive)
REMARK    5  A    between atoms: CA   and  CB  
REMARK    6  A    between atoms: CB   and  CG  
REMARK    7  A    between atoms: CG   and  CD  
ROOT
ATOM     14  CA  GLU D 570     -18.033  -6.348 -13.375  1.00 32.92     0.160 C 
ENDROOT
BRANCH  14  15
ATOM     15  CB  GLU D 570     -19.500  -6.345 -13.794  1.00 32.92     0.043 C 
BRANCH  15  16
ATOM     16  CG  GLU D 570     -20.438  -5.512 -12.998  1.00 32.92     0.100 C 
BRANCH  16  17
ATOM     17  CD  GLU D 570     -21.733  -5.228 -13.721  1.00 32.92     0.185 C 
ATOM     18  OE1 GLU D 570     -22.772  -5.810 -13.354  1.00 32.92    -0.647 OA
ATOM     19  OE2 GLU D 570     -21.706  -4.427 -14.676  1.00 32.92    -0.647 OA
ENDBRANCH  16  17
ENDBRANCH  15  16
ENDBRANCH  14  15
END_RES GLU D 570
ENDMDL
MODEL 4
REMARK VINA RESULT:      -7.2      2.312      3.532
REMARK  20 active torsions:
REMARK  status: ('A' for Active; 'I' for Inactive)
REMARK    1  A    between atoms: C_2  and  C_3 
REMARK    2  A    between atoms: C_3  and  C_4 
REMARK    3  A    between atoms: C_4  and  C_5 
REMARK    4  A    between atoms: C_5  and  C_6 
REMARK    5  A    between atoms: C_6  and  C_7 
REMARK    6  A    between atoms: C_7  and  C_8 
REMARK    7  A    between atoms: C_8  and  C_9 
REMARK    8  A    between atoms: C_10  and  C_11 
REMARK    9  A    between atoms: C_11  and  C_12 
REMARK   10  A    between atoms: C_12  and  C_13 
REMARK   11  A    between atoms: C_13  and  C_14 
REMARK   12  A    between atoms: C_14  and  C_15 
REMARK   13  A    between atoms: C_15  and  C_16 
REMARK   14  A    between atoms: C_16  and  C_17 
REMARK   15  A    between atoms: C_17  and  C_18 
REMARK       I    between atoms: C_18  and  N_20 
REMARK   16  A    between atoms: N_20  and  CA_21 
REMARK   17  A    between atoms: CA_21  and  CB_22 
REMARK   18  A    between atoms: CA_21  and  C_24 
REMARK   19  A    between atoms: CB_22  and  OG_23 
REMARK   20  A    between atoms: C_24  and  O_25 
ROOT
HETATM    1  C   UNK A   0     -23.600  -4.277  -9.442  1.00  0.00     0.000 C 
ENDROOT
BRANCH   1   2
HETATM    2  C   UNK A   0     -22.634  -4.085  -8.284  1.00  0.00     0.000 C 
BRANCH   2   3
HETATM    3  C   UNK A   0     -21.199  -4.325  -8.736  1.00  0.00     0.004 C 
BRANCH   3   4
HETATM    4  C   UNK A   0     -20.340  -4.732  -7.546  1.00  0.00     0.027 C 
BRANCH   4   5
HETATM    5  C   UNK A   0     -21.197  -5.060  -6.368  1.00  0.00    -0.031 C 
HETATM    6  C   UNK A   0     -21.294  -6.299  -5.870  1.00  0.00    -0.031 C 
BRANCH   6   7
HETATM    7  C   UNK A   0     -22.149  -6.629  -4.691  1.00  0.00     0.027 C 
BRANCH   7   8
HETATM    8  C   UNK A   0     -21.341  -6.533  -3.404  1.00  0.00     0.004 C 
BRANCH   8   9
HETATM    9  C   UNK A   0     -22.243  -6.134  -2.243  1.00  0.00     0.000 C 
BRANCH   9  10
HETATM   10  C   UNK A   0     -22.025  -7.060  -1.055  1.00  0.00     0.000 C 
BRANCH  10  11
HETATM   11  C   UNK A   0     -21.702  -8.472  -1.528  1.00  0.00     0.000 C 
BRANCH  11  12
HETATM   12  C   UNK A   0     -21.935  -9.480  -0.407  1.00  0.00    -0.000 C 
BRANCH  12  13
HETATM   13  C   UNK A   0     -23.416  -9.572  -0.054  1.00  0.00    -0.005 C 
HETATM   14  C   UNK A   0     -23.902 -11.008  -0.133  1.00  0.00     0.005 C 
ENDBRANCH  12  13
ENDBRANCH  11  12
ENDBRANCH  10  11
ENDBRANCH   9  10
ENDBRANCH   8   9
ENDBRANCH   7   8
ENDBRANCH   6   7
ENDBRANCH   4   5
ENDBRANCH   3   4
ENDBRANCH   2   3
ENDBRANCH   1   2
BRANCH   1  15
HETATM   15  C   UNK A   0     -22.869  -4.187 -10.779  1.00  0.00     0.000 C 
BRANCH  15  16
HETATM   16  C   UNK A   0     -23.754  -4.735 -11.888  1.00  0.00     0.009 C 
BRANCH  16  17
HETATM   17  C   UNK A   0     -23.019  -5.711 -12.798  1.00  0.00     0.103 C 
BRANCH  17  18
HETATM   18  C   UNK A   0     -23.434  -5.492 -14.244  1.00  0.00     0.218 C 
HETATM   19  O   UNK A   0     -23.026  -4.559 -14.932  1.00  0.00    -0.274 OA
ATOM     20  N   SER A   1     -24.337  -6.432 -14.702  1.00  0.00    -0.352 N 
ATOM     21  H   SER A   1     -24.612  -7.184 -14.075  1.00  0.00     0.163 HD
BRANCH  20  22
ATOM     22  CA  SER A   1     -24.911  -6.340 -16.056  1.00  0.00     0.131 C 
BRANCH  22  23
ATOM     23  CB  SER A   1     -24.258  -7.339 -17.030  1.00  0.00     0.191 C 
BRANCH  23  24
ATOM     24  OG  SER A   1     -23.896  -8.561 -16.380  1.00  0.00    -0.399 OA
ATOM     25  H   SER A   1     -24.001  -9.285 -17.028  1.00  0.00     0.209 HD
ENDBRANCH  23  24
ENDBRANCH  22  23
BRANCH  22  26
ATOM     26  C   SER A   1     -26.452  -6.472 -16.060  1.00  0.00     0.191 C 
BRANCH  26  27
ATOM     27  O   SER A   1     -26.973  -7.480 -15.197  1.00  0.00    -0.399 OA
ATOM     28  H   SER A   1     -26.982  -8.317 -15.709  1.00  0.00     0.209 HD
ENDBRANCH  26  27
ENDBRANCH  22  26
ENDBRANCH  20  22
ENDBRANCH  17  18
ENDBRANCH  16  17
ENDBRANCH  15  16
ENDBRANCH   1  15
TORSDOF 20
BEGIN_RES ARG D 557
REMARK  4 active torsions:
REMARK  status: ('A' for Active; 'I' for Inactive)
REMARK    1  A    between atoms: CA   and  CB  
REMARK    2  A    between atoms: CB   and  CG  
REMARK    3  A    between atoms: CG   and  CD  
REMARK    4  A    between atoms: CD   and  NE  
REMARK       I    between atoms: NE   and  CZ  
REMARK       I    between atoms: CZ   and  NH1 
REMARK       I    between atoms: CZ   and  NH2 
ROOT
ATOM      1  CA  ARG D 557     -26.217   2.705 -17.014  1.00 35.49     0.159 C 
ENDROOT
BRANCH   1   2
ATOM      2  CB  ARG D 557     -26.789   1.319 -17.183  1.00 35.49     0.034 C 
BRANCH   2   3
ATOM      3  CG  ARG D 557     -25.836   0.203 -17.155  1.00 35.49     0.027 C 
BRANCH   3   4
ATOM      4  CD  ARG D 557     -24.683   0.467 -16.265  1.00 35.49     0.116 C 
BRANCH   4   5
ATOM      5  NE  ARG D 557     -24.730  -0.328 -15.066  1.00 35.49    -0.212 N 
ATOM      6  CZ  ARG D 557     -23.880  -1.275 -14.739  1.00 35.49     0.666 C 
ATOM      7  NH1 ARG D 557     -22.865  -1.615 -15.512  1.00 35.49    -0.235 N 
ATOM      8  NH2 ARG D 557     -24.063  -1.880 -13.601  1.00 35.49    -0.235 N 
ATOM      9  HH  ARG D 557     -22.724  -1.229 -16.264  1.00 35.49     0.174 HD
ATOM     10  HH  ARG D 557     -22.341  -2.239 -15.245  1.00 35.49     0.174 HD
ATOM     11  HH  ARG D 557     -24.722  -1.634 -13.119  1.00 35.49     0.174 HD
ATOM     12  HH  ARG D 557     -23.533  -2.493 -13.354  1.00 35.49     0.174 HD
ATOM     13  HE  ARG D 557     -25.394  -0.225 -14.544  1.00 35.49     0.178 HD
ENDBRANCH   4   5
ENDBRANCH   3   4
ENDBRANCH   2   3
ENDBRANCH   1   2
END_RES ARG D 557
BEGIN_RES GLU D 570
REMARK  3 active torsions:
REMARK  status: ('A' for Active; 'I' for Inactive)
REMARK    5  A    between atoms: CA   and  CB  
REMARK    6  A    between atoms: CB   and  CG  
REMARK    7  A    between atoms: CG   and  CD  
ROOT
ATOM     14  CA  GLU D 570     -18.033  -6.348 -13.375  1.00 32.92     0.160 C 
ENDROOT
BRANCH  14  15
ATOM     15  CB  GLU D 570     -19.500  -6.345 -13.794  1.00 32.92     0.043 C 
BRANCH  15  16
ATOM     16  CG  GLU D 570     -20.086  -7.634 -14.243  1.00 32.92     0.100 C 
BRANCH  16  17
ATOM     17  CD  GLU D 570     -20.616  -7.580 -15.657  1.00 32.92     0.185 C 
ATOM     18  OE1 GLU D 570     -21.041  -8.626 -16.185  1.00 32.92    -0.647 OA
ATOM     19  OE2 GLU D 570     -20.590  -6.483 -16.250  1.00 32.92    -0.647 OA
ENDBRANCH  16  17
ENDBRANCH  15  16
ENDBRANCH  14  15
END_RES GLU D 570
ENDMDL
MODEL 5
REMARK VINA RESULT:      -7.0      3.306      6.375
REMARK  20 active torsions:
REMARK  status: ('A' for Active; 'I' for Inactive)
REMARK    1  A    between atoms: C_2  and  C_3 
REMARK    2  A    between atoms: C_3  and  C_4 
REMARK    3  A    between atoms: C_4  and  C_5 
REMARK    4  A    between atoms: C_5  and  C_6 
REMARK    5  A    between atoms: C_6  and  C_7 
REMARK    6  A    between atoms: C_7  and  C_8 
REMARK    7  A    between atoms: C_8  and  C_9 
REMARK    8  A    between atoms: C_10  and  C_11 
REMARK    9  A    between atoms: C_11  and  C_12 
REMARK   10  A    between atoms: C_12  and  C_13 
REMARK   11  A    between atoms: C_13  and  C_14 
REMARK   12  A    between atoms: C_14  and  C_15 
REMARK   13  A    between atoms: C_15  and  C_16 
REMARK   14  A    between atoms: C_16  and  C_17 
REMARK   15  A    between atoms: C_17  and  C_18 
REMARK       I    between atoms: C_18  and  N_20 
REMARK   16  A    between atoms: N_20  and  CA_21 
REMARK   17  A    between atoms: CA_21  and  CB_22 
REMARK   18  A    between atoms: CA_21  and  C_24 
REMARK   19  A    between atoms: CB_22  and  OG_23 
REMARK   20  A    between atoms: C_24  and  O_25 
ROOT
HETATM    1  C   UNK A   0     -23.775  -5.323 -14.552  1.00  0.00     0.000 C 
ENDROOT
BRANCH   1   2
HETATM    2  C   UNK A   0     -23.207  -5.153 -13.152  1.00  0.00     0.000 C 
BRANCH   2   3
HETATM    3  C   UNK A   0     -23.099  -3.676 -12.792  1.00  0.00     0.004 C 
BRANCH   3   4
HETATM    4  C   UNK A   0     -24.243  -3.282 -11.867  1.00  0.00     0.027 C 
BRANCH   4   5
HETATM    5  C   UNK A   0     -24.059  -3.890 -10.516  1.00  0.00    -0.031 C 
HETATM    6  C   UNK A   0     -22.986  -3.643  -9.754  1.00  0.00    -0.031 C 
BRANCH   6   7
HETATM    7  C   UNK A   0     -22.800  -4.248  -8.402  1.00  0.00     0.027 C 
BRANCH   7   8
HETATM    8  C   UNK A   0     -21.609  -3.617  -7.695  1.00  0.00     0.004 C 
BRANCH   8   9
HETATM    9  C   UNK A   0     -20.317  -3.971  -8.422  1.00  0.00     0.000 C 
BRANCH   9  10
HETATM   10  C   UNK A   0     -19.365  -4.707  -7.490  1.00  0.00     0.000 C 
BRANCH  10  11
HETATM   11  C   UNK A   0     -19.914  -4.726  -6.068  1.00  0.00     0.000 C 
BRANCH  11  12
HETATM   12  C   UNK A   0     -20.229  -6.153  -5.634  1.00  0.00    -0.000 C 
BRANCH  12  13
HETATM   13  C   UNK A   0     -21.236  -6.166  -4.489  1.00  0.00    -0.005 C 
HETATM   14  C   UNK A   0     -22.586  -6.674  -4.961  1.00  0.00     0.005 C 
ENDBRANCH  12  13
ENDBRANCH  11  12
ENDBRANCH  10  11
ENDBRANCH   9  10
ENDBRANCH   8   9
ENDBRANCH   7   8
ENDBRANCH   6   7
ENDBRANCH   4   5
ENDBRANCH   3   4
ENDBRANCH   2   3
ENDBRANCH   1   2
BRANCH   1  15
HETATM   15  C   UNK A   0     -23.753  -6.791 -14.970  1.00  0.00     0.000 C 
BRANCH  15  16
HETATM   16  C   UNK A   0     -24.940  -7.087 -15.873  1.00  0.00     0.009 C 
BRANCH  16  17
HETATM   17  C   UNK A   0     -26.064  -6.068 -15.720  1.00  0.00     0.103 C 
BRANCH  17  18
HETATM   18  C   UNK A   0     -27.414  -6.750 -15.876  1.00  0.00     0.218 C 
HETATM   19  O   UNK A   0     -27.877  -7.533 -15.051  1.00  0.00    -0.274 OA
ATOM     20  N   SER A   1     -28.058  -6.423 -17.053  1.00  0.00    -0.352 N 
ATOM     21  H   SER A   1     -27.615  -5.752 -17.677  1.00  0.00     0.163 HD
BRANCH  20  22
ATOM     22  CA  SER A   1     -29.344  -7.043 -17.415  1.00  0.00     0.131 C 
BRANCH  22  23
ATOM     23  CB  SER A   1     -30.525  -6.067 -17.249  1.00  0.00     0.191 C 
BRANCH  23  24
ATOM     24  OG  SER A   1     -31.765  -6.755 -17.059  1.00  0.00    -0.399 OA
ATOM     25  H   SER A   1     -32.116  -6.985 -17.941  1.00  0.00     0.209 HD
ENDBRANCH  23  24
ENDBRANCH  22  23
BRANCH  22  26
ATOM     26  C   SER A   1     -29.326  -7.671 -18.828  1.00  0.00     0.191 C 
BRANCH  26  27
ATOM     27  O   SER A   1     -30.413  -8.550 -19.112  1.00  0.00    -0.399 OA
ATOM     28  H   SER A   1     -30.722  -8.337 -20.018  1.00  0.00     0.209 HD
ENDBRANCH  26  27
ENDBRANCH  22  26
ENDBRANCH  20  22
ENDBRANCH  17  18
ENDBRANCH  16  17
ENDBRANCH  15  16
ENDBRANCH   1  15
TORSDOF 20
BEGIN_RES ARG D 557
REMARK  4 active torsions:
REMARK  status: ('A' for Active; 'I' for Inactive)
REMARK    1  A    between atoms: CA   and  CB  
REMARK    2  A    between atoms: CB   and  CG  
REMARK    3  A    between atoms: CG   and  CD  
REMARK    4  A    between atoms: CD   and  NE  
REMARK       I    between atoms: NE   and  CZ  
REMARK       I    between atoms: CZ   and  NH1 
REMARK       I    between atoms: CZ   and  NH2 
ROOT
ATOM      1  CA  ARG D 557     -26.217   2.705 -17.014  1.00 35.49     0.159 C 
ENDROOT
BRANCH   1   2
ATOM      2  CB  ARG D 557     -26.789   1.319 -17.183  1.00 35.49     0.034 C 
BRANCH   2   3
ATOM      3  CG  ARG D 557     -28.229   1.164 -16.941  1.00 35.49     0.027 C 
BRANCH   3   4
ATOM      4  CD  ARG D 557     -28.593  -0.223 -16.572  1.00 35.49     0.116 C 
BRANCH   4   5
ATOM      5  NE  ARG D 557     -27.543  -0.883 -15.841  1.00 35.49    -0.212 N 
ATOM      6  CZ  ARG D 557     -27.252  -2.163 -15.903  1.00 35.49     0.666 C 
ATOM      7  NH1 ARG D 557     -27.928  -3.008 -16.659  1.00 35.49    -0.235 N 
ATOM      8  NH2 ARG D 557     -26.252  -2.586 -15.186  1.00 35.49    -0.235 N 
ATOM      9  HH  ARG D 557     -28.589  -2.751 -17.140  1.00 35.49     0.174 HD
ATOM     10  HH  ARG D 557     -27.691  -3.832 -16.661  1.00 35.49     0.174 HD
ATOM     11  HH  ARG D 557     -25.829  -2.017 -14.713  1.00 35.49     0.174 HD
ATOM     12  HH  ARG D 557     -26.032  -3.405 -15.203  1.00 35.49     0.174 HD
ATOM     13  HE  ARG D 557     -27.104  -0.427 -15.274  1.00 35.49     0.178 HD
ENDBRANCH   4   5
ENDBRANCH   3   4
ENDBRANCH   2   3
ENDBRANCH   1   2
END_RES ARG D 557
BEGIN_RES GLU D 570
REMARK  3 active torsions:
REMARK  status: ('A' for Active; 'I' for Inactive)
REMARK    5  A    between atoms: CA   and  CB  
REMARK    6  A    between atoms: CB   and  CG  
REMARK    7  A    between atoms: CG   and  CD  
ROOT
ATOM     14  CA  GLU D 570     -18.033  -6.348 -13.375  1.00 32.92     0.160 C 
ENDROOT
BRANCH  14  15
ATOM     15  CB  GLU D 570     -19.500  -6.345 -13.794  1.00 32.92     0.043 C 
BRANCH  15  16
ATOM     16  CG  GLU D 570     -20.084  -7.633 -14.251  1.00 32.92     0.100 C 
BRANCH  16  17
ATOM     17  CD  GLU D 570     -20.508  -7.606 -15.701  1.00 32.92     0.185 C 
ATOM     18  OE1 GLU D 570     -20.529  -6.517 -16.305  1.00 32.92    -0.647 OA
ATOM     19  OE2 GLU D 570     -20.840  -8.683 -16.233  1.00 32.92    -0.647 OA
ENDBRANCH  16  17
ENDBRANCH  15  16
ENDBRANCH  14  15
END_RES GLU D 570
ENDMDL
MODEL 6
REMARK VINA RESULT:      -7.0      4.811      7.325
REMARK  20 active torsions:
REMARK  status: ('A' for Active; 'I' for Inactive)
REMARK    1  A    between atoms: C_2  and  C_3 
REMARK    2  A    between atoms: C_3  and  C_4 
REMARK    3  A    between atoms: C_4  and  C_5 
REMARK    4  A    between atoms: C_5  and  C_6 
REMARK    5  A    between atoms: C_6  and  C_7 
REMARK    6  A    between atoms: C_7  and  C_8 
REMARK    7  A    between atoms: C_8  and  C_9 
REMARK    8  A    between atoms: C_10  and  C_11 
REMARK    9  A    between atoms: C_11  and  C_12 
REMARK   10  A    between atoms: C_12  and  C_13 
REMARK   11  A    between atoms: C_13  and  C_14 
REMARK   12  A    between atoms: C_14  and  C_15 
REMARK   13  A    between atoms: C_15  and  C_16 
REMARK   14  A    between atoms: C_16  and  C_17 
REMARK   15  A    between atoms: C_17  and  C_18 
REMARK       I    between atoms: C_18  and  N_20 
REMARK   16  A    between atoms: N_20  and  CA_21 
REMARK   17  A    between atoms: CA_21  and  CB_22 
REMARK   18  A    between atoms: CA_21  and  C_24 
REMARK   19  A    between atoms: CB_22  and  OG_23 
REMARK   20  A    between atoms: C_24  and  O_25 
ROOT
HETATM    1  C   UNK A   0     -23.671  -6.156 -14.312  1.00  0.00     0.000 C 
ENDROOT
BRANCH   1   2
HETATM    2  C   UNK A   0     -22.856  -4.962 -13.840  1.00  0.00     0.000 C 
BRANCH   2   3
HETATM    3  C   UNK A   0     -23.665  -3.677 -13.963  1.00  0.00     0.004 C 
BRANCH   3   4
HETATM    4  C   UNK A   0     -23.325  -2.737 -12.813  1.00  0.00     0.027 C 
BRANCH   4   5
HETATM    5  C   UNK A   0     -22.224  -3.304 -11.980  1.00  0.00    -0.031 C 
HETATM    6  C   UNK A   0     -21.219  -2.556 -11.508  1.00  0.00    -0.031 C 
BRANCH   6   7
HETATM    7  C   UNK A   0     -20.116  -3.120 -10.672  1.00  0.00     0.027 C 
BRANCH   7   8
HETATM    8  C   UNK A   0     -20.226  -4.636 -10.600  1.00  0.00     0.004 C 
BRANCH   8   9
HETATM    9  C   UNK A   0     -20.369  -5.085  -9.151  1.00  0.00     0.000 C 
BRANCH   9  10
HETATM   10  C   UNK A   0     -20.151  -3.913  -8.205  1.00  0.00     0.000 C 
BRANCH  10  11
HETATM   11  C   UNK A   0     -21.428  -3.602  -7.434  1.00  0.00     0.000 C 
BRANCH  11  12
HETATM   12  C   UNK A   0     -22.548  -4.552  -7.845  1.00  0.00    -0.000 C 
BRANCH  12  13
HETATM   13  C   UNK A   0     -23.632  -3.815  -8.624  1.00  0.00    -0.005 C 
HETATM   14  C   UNK A   0     -24.213  -4.700  -9.712  1.00  0.00     0.005 C 
ENDBRANCH  12  13
ENDBRANCH  11  12
ENDBRANCH  10  11
ENDBRANCH   9  10
ENDBRANCH   8   9
ENDBRANCH   7   8
ENDBRANCH   6   7
ENDBRANCH   4   5
ENDBRANCH   3   4
ENDBRANCH   2   3
ENDBRANCH   1   2
BRANCH   1  15
HETATM   15  C   UNK A   0     -24.925  -5.697 -15.051  1.00  0.00     0.000 C 
BRANCH  15  16
HETATM   16  C   UNK A   0     -25.411  -6.804 -15.975  1.00  0.00     0.009 C 
BRANCH  16  17
HETATM   17  C   UNK A   0     -26.862  -7.192 -15.714  1.00  0.00     0.103 C 
BRANCH  17  18
HETATM   18  C   UNK A   0     -27.772  -6.535 -16.739  1.00  0.00     0.218 C 
HETATM   19  O   UNK A   0     -27.534  -5.448 -17.258  1.00  0.00    -0.274 OA
ATOM     20  N   SER A   1     -28.909  -7.271 -17.012  1.00  0.00    -0.352 N 
ATOM     21  H   SER A   1     -29.024  -8.172 -16.553  1.00  0.00     0.163 HD
BRANCH  20  22
ATOM     22  CA  SER A   1     -29.946  -6.760 -17.925  1.00  0.00     0.131 C 
BRANCH  22  23
ATOM     23  CB  SER A   1     -30.547  -7.875 -18.801  1.00  0.00     0.191 C 
BRANCH  23  24
ATOM     24  OG  SER A   1     -29.554  -8.809 -19.233  1.00  0.00    -0.399 OA
ATOM     25  H   SER A   1     -29.105  -9.156 -18.438  1.00  0.00     0.209 HD
ENDBRANCH  23  24
ENDBRANCH  22  23
BRANCH  22  26
ATOM     26  C   SER A   1     -31.049  -5.964 -17.187  1.00  0.00     0.191 C 
BRANCH  26  27
ATOM     27  O   SER A   1     -30.605  -4.771 -16.545  1.00  0.00    -0.399 OA
ATOM     28  H   SER A   1     -31.209  -4.613 -15.788  1.00  0.00     0.209 HD
ENDBRANCH  26  27
ENDBRANCH  22  26
ENDBRANCH  20  22
ENDBRANCH  17  18
ENDBRANCH  16  17
ENDBRANCH  15  16
ENDBRANCH   1  15
TORSDOF 20
BEGIN_RES ARG D 557
REMARK  4 active torsions:
REMARK  status: ('A' for Active; 'I' for Inactive)
REMARK    1  A    between atoms: CA   and  CB  
REMARK    2  A    between atoms: CB   and  CG  
REMARK    3  A    between atoms: CG   and  CD  
REMARK    4  A    between atoms: CD   and  NE  
REMARK       I    between atoms: NE   and  CZ  
REMARK       I    between atoms: CZ   and  NH1 
REMARK       I    between atoms: CZ   and  NH2 
ROOT
ATOM      1  CA  ARG D 557     -26.217   2.705 -17.014  1.00 35.49     0.159 C 
ENDROOT
BRANCH   1   2
ATOM      2  CB  ARG D 557     -26.789   1.319 -17.183  1.00 35.49     0.034 C 
BRANCH   2   3
ATOM      3  CG  ARG D 557     -28.223   1.228 -17.486  1.00 35.49     0.027 C 
BRANCH   3   4
ATOM      4  CD  ARG D 557     -28.908   0.201 -16.669  1.00 35.49     0.116 C 
BRANCH   4   5
ATOM      5  NE  ARG D 557     -27.998  -0.804 -16.186  1.00 35.49    -0.212 N 
ATOM      6  CZ  ARG D 557     -28.013  -2.076 -16.515  1.00 35.49     0.666 C 
ATOM      7  NH1 ARG D 557     -28.907  -2.584 -17.343  1.00 35.49    -0.235 N 
ATOM      8  NH2 ARG D 557     -27.096  -2.841 -15.997  1.00 35.49    -0.235 N 
ATOM      9  HH  ARG D 557     -29.518  -2.098 -17.697  1.00 35.49     0.174 HD
ATOM     10  HH  ARG D 557     -28.866  -3.421 -17.523  1.00 35.49     0.174 HD
ATOM     11  HH  ARG D 557     -26.527  -2.485 -15.471  1.00 35.49     0.174 HD
ATOM     12  HH  ARG D 557     -27.072  -3.667 -16.188  1.00 35.49     0.174 HD
ATOM     13  HE  ARG D 557     -27.433  -0.579 -15.591  1.00 35.49     0.178 HD
ENDBRANCH   4   5
ENDBRANCH   3   4
ENDBRANCH   2   3
ENDBRANCH   1   2
END_RES ARG D 557
BEGIN_RES GLU D 570
REMARK  3 active torsions:
REMARK  status: ('A' for Active; 'I' for Inactive)
REMARK    5  A    between atoms: CA   and  CB  
REMARK    6  A    between atoms: CB   and  CG  
REMARK    7  A    between atoms: CG   and  CD  
ROOT
ATOM     14  CA  GLU D 570     -18.033  -6.348 -13.375  1.00 32.92     0.160 C 
ENDROOT
BRANCH  14  15
ATOM     15  CB  GLU D 570     -19.500  -6.345 -13.794  1.00 32.92     0.043 C 
BRANCH  15  16
ATOM     16  CG  GLU D 570     -20.099  -7.643 -14.199  1.00 32.92     0.100 C 
BRANCH  16  17
ATOM     17  CD  GLU D 570     -20.533  -7.666 -15.646  1.00 32.92     0.185 C 
ATOM     18  OE1 GLU D 570     -20.676  -6.586 -16.252  1.00 32.92    -0.647 OA
ATOM     19  OE2 GLU D 570     -20.747  -8.774 -16.175  1.00 32.92    -0.647 OA
ENDBRANCH  16  17
ENDBRANCH  15  16
ENDBRANCH  14  15
END_RES GLU D 570
ENDMDL
MODEL 7
REMARK VINA RESULT:      -6.9      2.049      4.000
REMARK  20 active torsions:
REMARK  status: ('A' for Active; 'I' for Inactive)
REMARK    1  A    between atoms: C_2  and  C_3 
REMARK    2  A    between atoms: C_3  and  C_4 
REMARK    3  A    between atoms: C_4  and  C_5 
REMARK    4  A    between atoms: C_5  and  C_6 
REMARK    5  A    between atoms: C_6  and  C_7 
REMARK    6  A    between atoms: C_7  and  C_8 
REMARK    7  A    between atoms: C_8  and  C_9 
REMARK    8  A    between atoms: C_10  and  C_11 
REMARK    9  A    between atoms: C_11  and  C_12 
REMARK   10  A    between atoms: C_12  and  C_13 
REMARK   11  A    between atoms: C_13  and  C_14 
REMARK   12  A    between atoms: C_14  and  C_15 
REMARK   13  A    between atoms: C_15  and  C_16 
REMARK   14  A    between atoms: C_16  and  C_17 
REMARK   15  A    between atoms: C_17  and  C_18 
REMARK       I    between atoms: C_18  and  N_20 
REMARK   16  A    between atoms: N_20  and  CA_21 
REMARK   17  A    between atoms: CA_21  and  CB_22 
REMARK   18  A    between atoms: CA_21  and  C_24 
REMARK   19  A    between atoms: CB_22  and  OG_23 
REMARK   20  A    between atoms: C_24  and  O_25 
ROOT
HETATM    1  C   UNK A   0     -21.529  -6.553  -5.924  1.00  0.00     0.000 C 
ENDROOT
BRANCH   1   2
HETATM    2  C   UNK A   0     -22.051  -6.852  -4.527  1.00  0.00     0.000 C 
BRANCH   2   3
HETATM    3  C   UNK A   0     -21.248  -6.092  -3.479  1.00  0.00     0.004 C 
BRANCH   3   4
HETATM    4  C   UNK A   0     -22.060  -5.961  -2.197  1.00  0.00     0.027 C 
BRANCH   4   5
HETATM    5  C   UNK A   0     -21.946  -7.201  -1.374  1.00  0.00    -0.031 C 
HETATM    6  C   UNK A   0     -22.708  -7.424  -0.296  1.00  0.00    -0.031 C 
BRANCH   6   7
HETATM    7  C   UNK A   0     -22.598  -8.664   0.528  1.00  0.00     0.027 C 
BRANCH   7   8
HETATM    8  C   UNK A   0     -23.264  -9.835  -0.180  1.00  0.00     0.004 C 
BRANCH   8   9
HETATM    9  C   UNK A   0     -22.343 -11.048  -0.174  1.00  0.00     0.000 C 
BRANCH   9  10
HETATM   10  C   UNK A   0     -21.386 -10.997  -1.357  1.00  0.00     0.000 C 
BRANCH  10  11
HETATM   11  C   UNK A   0     -22.124 -10.595  -2.628  1.00  0.00     0.000 C 
BRANCH  11  12
HETATM   12  C   UNK A   0     -21.136 -10.294  -3.749  1.00  0.00    -0.000 C 
BRANCH  12  13
HETATM   13  C   UNK A   0     -19.878  -9.627  -3.205  1.00  0.00    -0.005 C 
HETATM   14  C   UNK A   0     -19.048  -9.035  -4.330  1.00  0.00     0.005 C 
ENDBRANCH  12  13
ENDBRANCH  11  12
ENDBRANCH  10  11
ENDBRANCH   9  10
ENDBRANCH   8   9
ENDBRANCH   7   8
ENDBRANCH   6   7
ENDBRANCH   4   5
ENDBRANCH   3   4
ENDBRANCH   2   3
ENDBRANCH   1   2
BRANCH   1  15
HETATM   15  C   UNK A   0     -20.421  -5.504  -5.874  1.00  0.00     0.000 C 
BRANCH  15  16
HETATM   16  C   UNK A   0     -20.779  -4.335  -6.779  1.00  0.00     0.009 C 
BRANCH  16  17
HETATM   17  C   UNK A   0     -19.924  -4.283  -8.040  1.00  0.00     0.103 C 
BRANCH  17  18
HETATM   18  C   UNK A   0     -20.808  -4.120  -9.266  1.00  0.00     0.218 C 
HETATM   19  O   UNK A   0     -20.369  -4.011 -10.408  1.00  0.00    -0.274 OA
ATOM     20  N   SER A   1     -22.156  -4.081  -8.966  1.00  0.00    -0.352 N 
ATOM     21  H   SER A   1     -22.439  -4.197  -7.996  1.00  0.00     0.163 HD
BRANCH  20  22
ATOM     22  CA  SER A   1     -23.163  -3.854 -10.017  1.00  0.00     0.131 C 
BRANCH  22  23
ATOM     23  CB  SER A   1     -23.458  -5.134 -10.822  1.00  0.00     0.191 C 
BRANCH  23  24
ATOM     24  OG  SER A   1     -23.661  -4.857 -12.211  1.00  0.00    -0.399 OA
ATOM     25  H   SER A   1     -22.905  -5.234 -12.703  1.00  0.00     0.209 HD
ENDBRANCH  23  24
ENDBRANCH  22  23
BRANCH  22  26
ATOM     26  C   SER A   1     -24.462  -3.219  -9.469  1.00  0.00     0.191 C 
BRANCH  26  27
ATOM     27  O   SER A   1     -25.562  -3.217 -10.377  1.00  0.00    -0.399 OA
ATOM     28  H   SER A   1     -25.669  -2.294 -10.694  1.00  0.00     0.209 HD
ENDBRANCH  26  27
ENDBRANCH  22  26
ENDBRANCH  20  22
ENDBRANCH  17  18
ENDBRANCH  16  17
ENDBRANCH  15  16
ENDBRANCH   1  15
TORSDOF 20
BEGIN_RES ARG D 557
REMARK  4 active torsions:
REMARK  status: ('A' for Active; 'I' for Inactive)
REMARK    1  A    between atoms: CA   and  CB  
REMARK    2  A    between atoms: CB   and  CG  
REMARK    3  A    between atoms: CG   and  CD  
REMARK    4  A    between atoms: CD   and  NE  
REMARK       I    between atoms: NE   and  CZ  
REMARK       I    between atoms: CZ   and  NH1 
REMARK       I    between atoms: CZ   and  NH2 
ROOT
ATOM      1  CA  ARG D 557     -26.217   2.705 -17.014  1.00 35.49     0.159 C 
ENDROOT
BRANCH   1   2
ATOM      2  CB  ARG D 557     -26.789   1.319 -17.183  1.00 35.49     0.034 C 
BRANCH   2   3
ATOM      3  CG  ARG D 557     -25.956   0.200 -16.725  1.00 35.49     0.027 C 
BRANCH   3   4
ATOM      4  CD  ARG D 557     -26.763  -0.924 -16.197  1.00 35.49     0.116 C 
BRANCH   4   5
ATOM      5  NE  ARG D 557     -26.195  -1.483 -14.999  1.00 35.49    -0.212 N 
ATOM      6  CZ  ARG D 557     -26.171  -2.759 -14.683  1.00 35.49     0.666 C 
ATOM      7  NH1 ARG D 557     -26.697  -3.691 -15.456  1.00 35.49    -0.235 N 
ATOM      8  NH2 ARG D 557     -25.594  -3.089 -13.564  1.00 35.49    -0.235 N 
ATOM      9  HH  ARG D 557     -27.080  -3.496 -16.197  1.00 35.49     0.174 HD
ATOM     10  HH  ARG D 557     -26.649  -4.507 -15.199  1.00 35.49     0.174 HD
ATOM     11  HH  ARG D 557     -25.256  -2.467 -13.089  1.00 35.49     0.174 HD
ATOM     12  HH  ARG D 557     -25.555  -3.903 -13.328  1.00 35.49     0.174 HD
ATOM     13  HE  ARG D 557     -25.898  -0.947 -14.409  1.00 35.49     0.178 HD
ENDBRANCH   4   5
ENDBRANCH   3   4
ENDBRANCH   2   3
ENDBRANCH   1   2
END_RES ARG D 557
BEGIN_RES GLU D 570
REMARK  3 active torsions:
REMARK  status: ('A' for Active; 'I' for Inactive)
REMARK    5  A    between atoms: CA   and  CB  
REMARK    6  A    between atoms: CB   and  CG  
REMARK    7  A    between atoms: CG   and  CD  
ROOT
ATOM     14  CA  GLU D 570     -18.033  -6.348 -13.375  1.00 32.92     0.160 C 
ENDROOT
BRANCH  14  15
ATOM     15  CB  GLU D 570     -19.500  -6.345 -13.794  1.00 32.92     0.043 C 
BRANCH  15  16
ATOM     16  CG  GLU D 570     -19.796  -6.309 -15.250  1.00 32.92     0.100 C 
BRANCH  16  17
ATOM     17  CD  GLU D 570     -20.847  -7.313 -15.662  1.00 32.92     0.185 C 
ATOM     18  OE1 GLU D 570     -21.957  -6.901 -16.051  1.00 32.92    -0.647 OA
ATOM     19  OE2 GLU D 570     -20.564  -8.524 -15.580  1.00 32.92    -0.647 OA
ENDBRANCH  16  17
ENDBRANCH  15  16
ENDBRANCH  14  15
END_RES GLU D 570
ENDMDL
MODEL 8
REMARK VINA RESULT:      -6.9      7.189     12.353
REMARK  20 active torsions:
REMARK  status: ('A' for Active; 'I' for Inactive)
REMARK    1  A    between atoms: C_2  and  C_3 
REMARK    2  A    between atoms: C_3  and  C_4 
REMARK    3  A    between atoms: C_4  and  C_5 
REMARK    4  A    between atoms: C_5  and  C_6 
REMARK    5  A    between atoms: C_6  and  C_7 
REMARK    6  A    between atoms: C_7  and  C_8 
REMARK    7  A    between atoms: C_8  and  C_9 
REMARK    8  A    between atoms: C_10  and  C_11 
REMARK    9  A    between atoms: C_11  and  C_12 
REMARK   10  A    between atoms: C_12  and  C_13 
REMARK   11  A    between atoms: C_13  and  C_14 
REMARK   12  A    between atoms: C_14  and  C_15 
REMARK   13  A    between atoms: C_15  and  C_16 
REMARK   14  A    between atoms: C_16  and  C_17 
REMARK   15  A    between atoms: C_17  and  C_18 
REMARK       I    between atoms: C_18  and  N_20 
REMARK   16  A    between atoms: N_20  and  CA_21 
REMARK   17  A    between atoms: CA_21  and  CB_22 
REMARK   18  A    between atoms: CA_21  and  C_24 
REMARK   19  A    between atoms: CB_22  and  OG_23 
REMARK   20  A    between atoms: C_24  and  O_25 
ROOT
HETATM    1  C   UNK A   0     -35.287  -1.039 -16.562  1.00  0.00     0.000 C 
ENDROOT
BRANCH   1   2
HETATM    2  C   UNK A   0     -36.670  -0.648 -16.067  1.00  0.00     0.000 C 
BRANCH   2   3
HETATM    3  C   UNK A   0     -36.575   0.454 -15.020  1.00  0.00     0.004 C 
BRANCH   3   4
HETATM    4  C   UNK A   0     -35.131   0.610 -14.560  1.00  0.00     0.027 C 
BRANCH   4   5
HETATM    5  C   UNK A   0     -35.004   0.282 -13.109  1.00  0.00    -0.031 C 
HETATM    6  C   UNK A   0     -35.802  -0.602 -12.497  1.00  0.00    -0.031 C 
BRANCH   6   7
HETATM    7  C   UNK A   0     -35.676  -0.934 -11.046  1.00  0.00     0.027 C 
BRANCH   7   8
HETATM    8  C   UNK A   0     -35.125  -2.341 -10.868  1.00  0.00     0.004 C 
BRANCH   8   9
HETATM    9  C   UNK A   0     -33.604  -2.305 -10.789  1.00  0.00     0.000 C 
BRANCH   9  10
HETATM   10  C   UNK A   0     -33.002  -3.471 -11.561  1.00  0.00     0.000 C 
BRANCH  10  11
HETATM   11  C   UNK A   0     -34.024  -4.588 -11.728  1.00  0.00     0.000 C 
BRANCH  11  12
HETATM   12  C   UNK A   0     -33.590  -5.831 -10.957  1.00  0.00    -0.000 C 
BRANCH  12  13
HETATM   13  C   UNK A   0     -34.779  -6.485 -10.262  1.00  0.00    -0.005 C 
HETATM   14  C   UNK A   0     -34.519  -7.960 -10.016  1.00  0.00     0.005 C 
ENDBRANCH  12  13
ENDBRANCH  11  12
ENDBRANCH  10  11
ENDBRANCH   9  10
ENDBRANCH   8   9
ENDBRANCH   7   8
ENDBRANCH   6   7
ENDBRANCH   4   5
ENDBRANCH   3   4
ENDBRANCH   2   3
ENDBRANCH   1   2
BRANCH   1  15
HETATM   15  C   UNK A   0     -35.044  -2.534 -16.368  1.00  0.00     0.000 C 
BRANCH  15  16
HETATM   16  C   UNK A   0     -33.791  -2.954 -17.121  1.00  0.00     0.009 C 
BRANCH  16  17
HETATM   17  C   UNK A   0     -33.162  -4.222 -16.555  1.00  0.00     0.103 C 
BRANCH  17  18
HETATM   18  C   UNK A   0     -31.691  -4.288 -16.930  1.00  0.00     0.218 C 
HETATM   19  O   UNK A   0     -31.086  -3.363 -17.465  1.00  0.00    -0.274 OA
ATOM     20  N   SER A   1     -31.105  -5.504 -16.632  1.00  0.00    -0.352 N 
ATOM     21  H   SER A   1     -31.671  -6.213 -16.172  1.00  0.00     0.163 HD
BRANCH  20  22
ATOM     22  CA  SER A   1     -29.704  -5.781 -16.990  1.00  0.00     0.131 C 
BRANCH  22  23
ATOM     23  CB  SER A   1     -28.716  -5.187 -15.968  1.00  0.00     0.191 C 
BRANCH  23  24
ATOM     24  OG  SER A   1     -28.167  -3.944 -16.415  1.00  0.00    -0.399 OA
ATOM     25  H   SER A   1     -28.235  -3.922 -17.390  1.00  0.00     0.209 HD
ENDBRANCH  23  24
ENDBRANCH  22  23
BRANCH  22  26
ATOM     26  C   SER A   1     -29.436  -7.287 -17.224  1.00  0.00     0.191 C 
BRANCH  26  27
ATOM     27  O   SER A   1     -29.115  -7.640 -18.568  1.00  0.00    -0.399 OA
ATOM     28  H   SER A   1     -28.684  -6.857 -18.974  1.00  0.00     0.209 HD
ENDBRANCH  26  27
ENDBRANCH  22  26
ENDBRANCH  20  22
ENDBRANCH  17  18
ENDBRANCH  16  17
ENDBRANCH  15  16
ENDBRANCH   1  15
TORSDOF 20
BEGIN_RES ARG D 557
REMARK  4 active torsions:
REMARK  status: ('A' for Active; 'I' for Inactive)
REMARK    1  A    between atoms: CA   and  CB  
REMARK    2  A    between atoms: CB   and  CG  
REMARK    3  A    between atoms: CG   and  CD  
REMARK    4  A    between atoms: CD   and  NE  
REMARK       I    between atoms: NE   and  CZ  
REMARK       I    between atoms: CZ   and  NH1 
REMARK       I    between atoms: CZ   and  NH2 
ROOT
ATOM      1  CA  ARG D 557     -26.217   2.705 -17.014  1.00 35.49     0.159 C 
ENDROOT
BRANCH   1   2
ATOM      2  CB  ARG D 557     -26.789   1.319 -17.183  1.00 35.49     0.034 C 
BRANCH   2   3
ATOM      3  CG  ARG D 557     -25.869   0.194 -16.972  1.00 35.49     0.027 C 
BRANCH   3   4
ATOM      4  CD  ARG D 557     -26.325  -0.713 -15.895  1.00 35.49     0.116 C 
BRANCH   4   5
ATOM      5  NE  ARG D 557     -25.287  -0.978 -14.933  1.00 35.49    -0.212 N 
ATOM      6  CZ  ARG D 557     -25.044  -2.137 -14.364  1.00 35.49     0.666 C 
ATOM      7  NH1 ARG D 557     -25.765  -3.215 -14.615  1.00 35.49    -0.235 N 
ATOM      8  NH2 ARG D 557     -24.047  -2.200 -13.531  1.00 35.49    -0.235 N 
ATOM      9  HH  ARG D 557     -26.424  -3.197 -15.162  1.00 35.49     0.174 HD
ATOM     10  HH  ARG D 557     -25.558  -3.944 -14.216  1.00 35.49     0.174 HD
ATOM     11  HH  ARG D 557     -23.595  -1.490 -13.394  1.00 35.49     0.174 HD
ATOM     12  HH  ARG D 557     -23.858  -2.932 -13.147  1.00 35.49     0.174 HD
ATOM     13  HE  ARG D 557     -24.820  -0.322 -14.659  1.00 35.49     0.178 HD
ENDBRANCH   4   5
ENDBRANCH   3   4
ENDBRANCH   2   3
ENDBRANCH   1   2
END_RES ARG D 557
BEGIN_RES GLU D 570
REMARK  3 active torsions:
REMARK  status: ('A' for Active; 'I' for Inactive)
REMARK    5  A    between atoms: CA   and  CB  
REMARK    6  A    between atoms: CB   and  CG  
REMARK    7  A    between atoms: CG   and  CD  
ROOT
ATOM     14  CA  GLU D 570     -18.033  -6.348 -13.375  1.00 32.92     0.160 C 
ENDROOT
BRANCH  14  15
ATOM     15  CB  GLU D 570     -19.500  -6.345 -13.794  1.00 32.92     0.043 C 
BRANCH  15  16
ATOM     16  CG  GLU D 570     -20.443  -5.535 -12.980  1.00 32.92     0.100 C 
BRANCH  16  17
ATOM     17  CD  GLU D 570     -21.688  -5.140 -13.739  1.00 32.92     0.185 C 
ATOM     18  OE1 GLU D 570     -22.770  -5.058 -13.127  1.00 32.92    -0.647 OA
ATOM     19  OE2 GLU D 570     -21.583  -4.926 -14.963  1.00 32.92    -0.647 OA
ENDBRANCH  16  17
ENDBRANCH  15  16
ENDBRANCH  14  15
END_RES GLU D 570
ENDMDL
MODEL 9
REMARK VINA RESULT:      -6.7      7.216     12.261
REMARK  20 active torsions:
REMARK  status: ('A' for Active; 'I' for Inactive)
REMARK    1  A    between atoms: C_2  and  C_3 
REMARK    2  A    between atoms: C_3  and  C_4 
REMARK    3  A    between atoms: C_4  and  C_5 
REMARK    4  A    between atoms: C_5  and  C_6 
REMARK    5  A    between atoms: C_6  and  C_7 
REMARK    6  A    between atoms: C_7  and  C_8 
REMARK    7  A    between atoms: C_8  and  C_9 
REMARK    8  A    between atoms: C_10  and  C_11 
REMARK    9  A    between atoms: C_11  and  C_12 
REMARK   10  A    between atoms: C_12  and  C_13 
REMARK   11  A    between atoms: C_13  and  C_14 
REMARK   12  A    between atoms: C_14  and  C_15 
REMARK   13  A    between atoms: C_15  and  C_16 
REMARK   14  A    between atoms: C_16  and  C_17 
REMARK   15  A    between atoms: C_17  and  C_18 
REMARK       I    between atoms: C_18  and  N_20 
REMARK   16  A    between atoms: N_20  and  CA_21 
REMARK   17  A    between atoms: CA_21  and  CB_22 
REMARK   18  A    between atoms: CA_21  and  C_24 
REMARK   19  A    between atoms: CB_22  and  OG_23 
REMARK   20  A    between atoms: C_24  and  O_25 
ROOT
HETATM    1  C   UNK A   0     -33.470  -4.533 -15.828  1.00  0.00     0.000 C 
ENDROOT
BRANCH   1   2
HETATM    2  C   UNK A   0     -34.477  -3.403 -15.687  1.00  0.00     0.000 C 
BRANCH   2   3
HETATM    3  C   UNK A   0     -34.476  -2.524 -16.931  1.00  0.00     0.004 C 
BRANCH   3   4
HETATM    4  C   UNK A   0     -35.481  -1.391 -16.768  1.00  0.00     0.027 C 
BRANCH   4   5
HETATM    5  C   UNK A   0     -35.466  -0.874 -15.367  1.00  0.00    -0.031 C 
HETATM    6  C   UNK A   0     -35.006   0.343 -15.052  1.00  0.00    -0.031 C 
BRANCH   6   7
HETATM    7  C   UNK A   0     -34.991   0.863 -13.653  1.00  0.00     0.027 C 
BRANCH   7   8
HETATM    8  C   UNK A   0     -35.736  -0.086 -12.725  1.00  0.00     0.004 C 
BRANCH   8   9
HETATM    9  C   UNK A   0     -34.752  -0.998 -12.003  1.00  0.00     0.000 C 
BRANCH   9  10
HETATM   10  C   UNK A   0     -35.491  -2.116 -11.282  1.00  0.00     0.000 C 
BRANCH  10  11
HETATM   11  C   UNK A   0     -34.507  -3.045 -10.581  1.00  0.00     0.000 C 
BRANCH  11  12
HETATM   12  C   UNK A   0     -33.126  -2.943 -11.219  1.00  0.00    -0.000 C 
BRANCH  12  13
HETATM   13  C   UNK A   0     -32.774  -4.224 -11.967  1.00  0.00    -0.005 C 
HETATM   14  C   UNK A   0     -33.381  -5.435 -11.281  1.00  0.00     0.005 C 
ENDBRANCH  12  13
ENDBRANCH  11  12
ENDBRANCH  10  11
ENDBRANCH   9  10
ENDBRANCH   8   9
ENDBRANCH   7   8
ENDBRANCH   6   7
ENDBRANCH   4   5
ENDBRANCH   3   4
ENDBRANCH   2   3
ENDBRANCH   1   2
BRANCH   1  15
HETATM   15  C   UNK A   0     -32.479  -4.239 -16.950  1.00  0.00     0.000 C 
BRANCH  15  16
HETATM   16  C   UNK A   0     -31.084  -4.682 -16.535  1.00  0.00     0.009 C 
BRANCH  16  17
HETATM   17  C   UNK A   0     -30.490  -5.718 -17.482  1.00  0.00     0.103 C 
BRANCH  17  18
HETATM   18  C   UNK A   0     -29.000  -5.472 -17.660  1.00  0.00     0.218 C 
HETATM   19  O   UNK A   0     -28.465  -5.321 -18.755  1.00  0.00    -0.274 OA
ATOM     20  N   SER A   1     -28.303  -5.460 -16.468  1.00  0.00    -0.352 N 
ATOM     21  H   SER A   1     -28.823  -5.575 -15.601  1.00  0.00     0.163 HD
BRANCH  20  22
ATOM     22  CA  SER A   1     -26.837  -5.309 -16.445  1.00  0.00     0.131 C 
BRANCH  22  23
ATOM     23  CB  SER A   1     -26.360  -4.470 -15.244  1.00  0.00     0.191 C 
BRANCH  23  24
ATOM     24  OG  SER A   1     -24.945  -4.562 -15.056  1.00  0.00    -0.399 OA
ATOM     25  H   SER A   1     -24.525  -4.533 -15.938  1.00  0.00     0.209 HD
ENDBRANCH  23  24
ENDBRANCH  22  23
BRANCH  22  26
ATOM     26  C   SER A   1     -26.098  -6.666 -16.515  1.00  0.00     0.191 C 
BRANCH  26  27
ATOM     27  O   SER A   1     -25.750  -7.229 -15.252  1.00  0.00    -0.399 OA
ATOM     28  H   SER A   1     -26.356  -7.986 -15.100  1.00  0.00     0.209 HD
ENDBRANCH  26  27
ENDBRANCH  22  26
ENDBRANCH  20  22
ENDBRANCH  17  18
ENDBRANCH  16  17
ENDBRANCH  15  16
ENDBRANCH   1  15
TORSDOF 20
BEGIN_RES ARG D 557
REMARK  4 active torsions:
REMARK  status: ('A' for Active; 'I' for Inactive)
REMARK    1  A    between atoms: CA   and  CB  
REMARK    2  A    between atoms: CB   and  CG  
REMARK    3  A    between atoms: CG   and  CD  
REMARK    4  A    between atoms: CD   and  NE  
REMARK       I    between atoms: NE   and  CZ  
REMARK       I    between atoms: CZ   and  NH1 
REMARK       I    between atoms: CZ   and  NH2 
ROOT
ATOM      1  CA  ARG D 557     -26.217   2.705 -17.014  1.00 35.49     0.159 C 
ENDROOT
BRANCH   1   2
ATOM      2  CB  ARG D 557     -26.789   1.319 -17.183  1.00 35.49     0.034 C 
BRANCH   2   3
ATOM      3  CG  ARG D 557     -25.838   0.202 -17.141  1.00 35.49     0.027 C 
BRANCH   3   4
ATOM      4  CD  ARG D 557     -24.738   0.433 -16.176  1.00 35.49     0.116 C 
BRANCH   4   5
ATOM      5  NE  ARG D 557     -24.867  -0.385 -15.000  1.00 35.49    -0.212 N 
ATOM      6  CZ  ARG D 557     -24.077  -1.381 -14.666  1.00 35.49     0.666 C 
ATOM      7  NH1 ARG D 557     -23.053  -1.754 -15.412  1.00 35.49    -0.235 N 
ATOM      8  NH2 ARG D 557     -24.331  -2.001 -13.551  1.00 35.49    -0.235 N 
ATOM      9  HH  ARG D 557     -22.866  -1.358 -16.149  1.00 35.49     0.174 HD
ATOM     10  HH  ARG D 557     -22.570  -2.409 -15.142  1.00 35.49     0.174 HD
ATOM     11  HH  ARG D 557     -24.994  -1.734 -13.086  1.00 35.49     0.174 HD
ATOM     12  HH  ARG D 557     -23.840  -2.646 -13.300  1.00 35.49     0.174 HD
ATOM     13  HE  ARG D 557     -25.543  -0.261 -14.499  1.00 35.49     0.178 HD
ENDBRANCH   4   5
ENDBRANCH   3   4
ENDBRANCH   2   3
ENDBRANCH   1   2
END_RES ARG D 557
BEGIN_RES GLU D 570
REMARK  3 active torsions:
REMARK  status: ('A' for Active; 'I' for Inactive)
REMARK    5  A    between atoms: CA   and  CB  
REMARK    6  A    between atoms: CB   and  CG  
REMARK    7  A    between atoms: CG   and  CD  
ROOT
ATOM     14  CA  GLU D 570     -18.033  -6.348 -13.375  1.00 32.92     0.160 C 
ENDROOT
BRANCH  14  15
ATOM     15  CB  GLU D 570     -19.500  -6.345 -13.794  1.00 32.92     0.043 C 
BRANCH  15  16
ATOM     16  CG  GLU D 570     -20.439  -5.517 -12.994  1.00 32.92     0.100 C 
BRANCH  16  17
ATOM     17  CD  GLU D 570     -21.728  -5.217 -13.722  1.00 32.92     0.185 C 
ATOM     18  OE1 GLU D 570     -22.281  -4.115 -13.546  1.00 32.92    -0.647 OA
ATOM     19  OE2 GLU D 570     -22.200  -6.102 -14.464  1.00 32.92    -0.647 OA
ENDBRANCH  16  17
ENDBRANCH  15  16
ENDBRANCH  14  15
END_RES GLU D 570
ENDMDL
