MODEL 1
REMARK VINA RESULT:      -3.9      0.000      0.000
REMARK  4 active torsions:
REMARK  status: ('A' for Active; 'I' for Inactive)
REMARK    1  A    between atoms: C_2  and  C_3 
REMARK    2  A    between atoms: C_2  and  O_6 
REMARK    3  A    between atoms: C_3  and  C_4 
REMARK    4  A    between atoms: C_4  and  O_5 
ROOT
HETATM    1  C   UNL     1     -20.725  -4.101  -9.466  1.00  0.00     0.039 C 
HETATM    2  C   UNL     1     -22.088  -3.997 -10.138  1.00  0.00     0.116 C 
ENDROOT
BRANCH   2   3
HETATM    3  C   UNL     1     -23.208  -3.782  -9.121  1.00  0.00     0.057 C 
BRANCH   3   4
HETATM    4  C   UNL     1     -24.505  -3.326  -9.782  1.00  0.00     0.166 C 
BRANCH   4   5
HETATM    5  O   UNL     1     -24.592  -3.881 -11.090  1.00  0.00    -0.401 OA
HETATM    6  H   UNL     1     -24.089  -3.301 -11.688  1.00  0.00     0.209 HD
ENDBRANCH   4   5
ENDBRANCH   3   4
ENDBRANCH   2   3
BRANCH   2   7
HETATM    7  O   UNL     1     -22.056  -2.917 -11.066  1.00  0.00    -0.396 OA
HETATM    8  H   UNL     1     -21.818  -3.278 -11.939  1.00  0.00     0.210 HD
ENDBRANCH   2   7
TORSDOF 4
BEGIN_RES ARG D 557
REMARK  4 active torsions:
REMARK  status: ('A' for Active; 'I' for Inactive)
REMARK    1  A    between atoms: CA   and  CB  
REMARK    2  A    between atoms: CB   and  CG  
REMARK    3  A    between atoms: CG   and  CD  
REMARK    4  A    between atoms: CD   and  NE  
REMARK       I    between atoms: NE   and  CZ  
REMARK       I    between atoms: CZ   and  NH1 
REMARK       I    between atoms: CZ   and  NH2 
ROOT
ATOM      1  CA  ARG D 557     -26.217   2.705 -17.014  1.00 35.49     0.159 C 
ENDROOT
BRANCH   1   2
ATOM      2  CB  ARG D 557     -26.789   1.319 -17.183  1.00 35.49     0.034 C 
BRANCH   2   3
ATOM      3  CG  ARG D 557     -25.864   0.195 -16.993  1.00 35.49     0.027 C 
BRANCH   3   4
ATOM      4  CD  ARG D 557     -26.289  -0.705 -15.896  1.00 35.49     0.116 C 
BRANCH   4   5
ATOM      5  NE  ARG D 557     -25.238  -0.925 -14.937  1.00 35.49    -0.212 N 
ATOM      6  CZ  ARG D 557     -24.972  -2.063 -14.336  1.00 35.49     0.666 C 
ATOM      7  NH1 ARG D 557     -25.677  -3.159 -14.548  1.00 35.49    -0.235 N 
ATOM      8  NH2 ARG D 557     -23.967  -2.085 -13.510  1.00 35.49    -0.235 N 
ATOM      9  HH  ARG D 557     -26.342  -3.168 -15.089  1.00 35.49     0.174 HD
ATOM     10  HH  ARG D 557     -25.455  -3.873 -14.130  1.00 35.49     0.174 HD
ATOM     11  HH  ARG D 557     -23.525  -1.364 -13.398  1.00 35.49     0.174 HD
ATOM     12  HH  ARG D 557     -23.762  -2.802 -13.106  1.00 35.49     0.174 HD
ATOM     13  HE  ARG D 557     -24.780  -0.254 -14.686  1.00 35.49     0.178 HD
ENDBRANCH   4   5
ENDBRANCH   3   4
ENDBRANCH   2   3
ENDBRANCH   1   2
END_RES ARG D 557
BEGIN_RES GLU D 570
REMARK  3 active torsions:
REMARK  status: ('A' for Active; 'I' for Inactive)
REMARK    5  A    between atoms: CA   and  CB  
REMARK    6  A    between atoms: CB   and  CG  
REMARK    7  A    between atoms: CG   and  CD  
ROOT
ATOM     14  CA  GLU D 570     -18.033  -6.348 -13.375  1.00 32.92     0.160 C 
ENDROOT
BRANCH  14  15
ATOM     15  CB  GLU D 570     -19.500  -6.345 -13.794  1.00 32.92     0.043 C 
BRANCH  15  16
ATOM     16  CG  GLU D 570     -20.433  -5.489 -13.016  1.00 32.92     0.100 C 
BRANCH  16  17
ATOM     17  CD  GLU D 570     -21.667  -5.102 -13.796  1.00 32.92     0.185 C 
ATOM     18  OE1 GLU D 570     -22.746  -4.958 -13.189  1.00 32.92    -0.647 OA
ATOM     19  OE2 GLU D 570     -21.558  -4.957 -15.029  1.00 32.92    -0.647 OA
ENDBRANCH  16  17
ENDBRANCH  15  16
ENDBRANCH  14  15
END_RES GLU D 570
ENDMDL
MODEL 2
REMARK VINA RESULT:      -3.8      6.233      7.382
REMARK  4 active torsions:
REMARK  status: ('A' for Active; 'I' for Inactive)
REMARK    1  A    between atoms: C_2  and  C_3 
REMARK    2  A    between atoms: C_2  and  O_6 
REMARK    3  A    between atoms: C_3  and  C_4 
REMARK    4  A    between atoms: C_4  and  O_5 
ROOT
HETATM    1  C   UNL     1     -33.224  -2.916 -11.239  1.00  0.00     0.039 C 
HETATM    2  C   UNL     1     -32.790  -4.195 -11.945  1.00  0.00     0.116 C 
ENDROOT
BRANCH   2   3
HETATM    3  C   UNL     1     -33.410  -5.436 -11.306  1.00  0.00     0.057 C 
BRANCH   3   4
HETATM    4  C   UNL     1     -34.904  -5.545 -11.593  1.00  0.00     0.166 C 
BRANCH   4   5
HETATM    5  O   UNL     1     -35.101  -6.174 -12.854  1.00  0.00    -0.401 OA
HETATM    6  H   UNL     1     -35.614  -5.562 -13.410  1.00  0.00     0.209 HD
ENDBRANCH   4   5
ENDBRANCH   3   4
ENDBRANCH   2   3
BRANCH   2   7
HETATM    7  O   UNL     1     -33.168  -4.108 -13.315  1.00  0.00    -0.396 OA
HETATM    8  H   UNL     1     -34.139  -4.153 -13.363  1.00  0.00     0.210 HD
ENDBRANCH   2   7
TORSDOF 4
BEGIN_RES ARG D 557
REMARK  4 active torsions:
REMARK  status: ('A' for Active; 'I' for Inactive)
REMARK    1  A    between atoms: CA   and  CB  
REMARK    2  A    between atoms: CB   and  CG  
REMARK    3  A    between atoms: CG   and  CD  
REMARK    4  A    between atoms: CD   and  NE  
REMARK       I    between atoms: NE   and  CZ  
REMARK       I    between atoms: CZ   and  NH1 
REMARK       I    between atoms: CZ   and  NH2 
ROOT
ATOM      1  CA  ARG D 557     -26.217   2.705 -17.014  1.00 35.49     0.159 C 
ENDROOT
BRANCH   1   2
ATOM      2  CB  ARG D 557     -26.789   1.319 -17.183  1.00 35.49     0.034 C 
BRANCH   2   3
ATOM      3  CG  ARG D 557     -28.231   1.226 -17.440  1.00 35.49     0.027 C 
BRANCH   3   4
ATOM      4  CD  ARG D 557     -28.913   0.305 -16.502  1.00 35.49     0.116 C 
BRANCH   4   5
ATOM      5  NE  ARG D 557     -29.289  -0.932 -17.134  1.00 35.49    -0.212 N 
ATOM      6  CZ  ARG D 557     -28.649  -2.075 -17.026  1.00 35.49     0.666 C 
ATOM      7  NH1 ARG D 557     -27.546  -2.205 -16.312  1.00 35.49    -0.235 N 
ATOM      8  NH2 ARG D 557     -29.145  -3.102 -17.652  1.00 35.49    -0.235 N 
ATOM      9  HH  ARG D 557     -27.203  -1.543 -15.890  1.00 35.49     0.174 HD
ATOM     10  HH  ARG D 557     -27.173  -2.976 -16.276  1.00 35.49     0.174 HD
ATOM     11  HH  ARG D 557     -29.863  -2.990 -18.100  1.00 35.49     0.174 HD
ATOM     12  HH  ARG D 557     -28.762  -3.857 -17.603  1.00 35.49     0.174 HD
ATOM     13  HE  ARG D 557     -29.948  -0.922 -17.671  1.00 35.49     0.178 HD
ENDBRANCH   4   5
ENDBRANCH   3   4
ENDBRANCH   2   3
ENDBRANCH   1   2
END_RES ARG D 557
BEGIN_RES GLU D 570
REMARK  3 active torsions:
REMARK  status: ('A' for Active; 'I' for Inactive)
REMARK    5  A    between atoms: CA   and  CB  
REMARK    6  A    between atoms: CB   and  CG  
REMARK    7  A    between atoms: CG   and  CD  
ROOT
ATOM     14  CA  GLU D 570     -18.033  -6.348 -13.375  1.00 32.92     0.160 C 
ENDROOT
BRANCH  14  15
ATOM     15  CB  GLU D 570     -19.500  -6.345 -13.794  1.00 32.92     0.043 C 
BRANCH  15  16
ATOM     16  CG  GLU D 570     -20.442  -5.531 -12.983  1.00 32.92     0.100 C 
BRANCH  16  17
ATOM     17  CD  GLU D 570     -21.746  -5.255 -13.694  1.00 32.92     0.185 C 
ATOM     18  OE1 GLU D 570     -22.204  -6.113 -14.472  1.00 32.92    -0.647 OA
ATOM     19  OE2 GLU D 570     -22.306  -4.161 -13.485  1.00 32.92    -0.647 OA
ENDBRANCH  16  17
ENDBRANCH  15  16
ENDBRANCH  14  15
END_RES GLU D 570
ENDMDL
MODEL 3
REMARK VINA RESULT:      -3.8      2.463      3.049
REMARK  4 active torsions:
REMARK  status: ('A' for Active; 'I' for Inactive)
REMARK    1  A    between atoms: C_2  and  C_3 
REMARK    2  A    between atoms: C_2  and  O_6 
REMARK    3  A    between atoms: C_3  and  C_4 
REMARK    4  A    between atoms: C_4  and  O_5 
ROOT
HETATM    1  C   UNL     1     -21.594  -4.658  -8.331  1.00  0.00     0.039 C 
HETATM    2  C   UNL     1     -22.939  -3.982  -8.563  1.00  0.00     0.116 C 
ENDROOT
BRANCH   2   3
HETATM    3  C   UNL     1     -23.609  -4.473  -9.846  1.00  0.00     0.057 C 
BRANCH   3   4
HETATM    4  C   UNL     1     -24.522  -3.417 -10.458  1.00  0.00     0.166 C 
BRANCH   4   5
HETATM    5  O   UNL     1     -25.692  -3.280  -9.659  1.00  0.00    -0.401 OA
HETATM    6  H   UNL     1     -25.679  -3.992  -8.997  1.00  0.00     0.209 HD
ENDBRANCH   4   5
ENDBRANCH   3   4
ENDBRANCH   2   3
BRANCH   2   7
HETATM    7  O   UNL     1     -23.778  -4.244  -7.442  1.00  0.00    -0.396 OA
HETATM    8  H   UNL     1     -23.371  -3.834  -6.659  1.00  0.00     0.210 HD
ENDBRANCH   2   7
TORSDOF 4
BEGIN_RES ARG D 557
REMARK  4 active torsions:
REMARK  status: ('A' for Active; 'I' for Inactive)
REMARK    1  A    between atoms: CA   and  CB  
REMARK    2  A    between atoms: CB   and  CG  
REMARK    3  A    between atoms: CG   and  CD  
REMARK    4  A    between atoms: CD   and  NE  
REMARK       I    between atoms: NE   and  CZ  
REMARK       I    between atoms: CZ   and  NH1 
REMARK       I    between atoms: CZ   and  NH2 
ROOT
ATOM      1  CA  ARG D 557     -26.217   2.705 -17.014  1.00 35.49     0.159 C 
ENDROOT
BRANCH   1   2
ATOM      2  CB  ARG D 557     -26.789   1.319 -17.183  1.00 35.49     0.034 C 
BRANCH   2   3
ATOM      3  CG  ARG D 557     -28.231   1.226 -17.441  1.00 35.49     0.027 C 
BRANCH   3   4
ATOM      4  CD  ARG D 557     -28.914   0.304 -16.504  1.00 35.49     0.116 C 
BRANCH   4   5
ATOM      5  NE  ARG D 557     -29.300  -0.927 -17.141  1.00 35.49    -0.212 N 
ATOM      6  CZ  ARG D 557     -28.673  -2.078 -17.032  1.00 35.49     0.666 C 
ATOM      7  NH1 ARG D 557     -27.576  -2.222 -16.312  1.00 35.49    -0.235 N 
ATOM      8  NH2 ARG D 557     -29.177  -3.098 -17.664  1.00 35.49    -0.235 N 
ATOM      9  HH  ARG D 557     -27.228  -1.565 -15.887  1.00 35.49     0.174 HD
ATOM     10  HH  ARG D 557     -27.212  -2.997 -16.276  1.00 35.49     0.174 HD
ATOM     11  HH  ARG D 557     -29.891  -2.977 -18.115  1.00 35.49     0.174 HD
ATOM     12  HH  ARG D 557     -28.803  -3.857 -17.614  1.00 35.49     0.174 HD
ATOM     13  HE  ARG D 557     -29.955  -0.909 -17.683  1.00 35.49     0.178 HD
ENDBRANCH   4   5
ENDBRANCH   3   4
ENDBRANCH   2   3
ENDBRANCH   1   2
END_RES ARG D 557
BEGIN_RES GLU D 570
REMARK  3 active torsions:
REMARK  status: ('A' for Active; 'I' for Inactive)
REMARK    5  A    between atoms: CA   and  CB  
REMARK    6  A    between atoms: CB   and  CG  
REMARK    7  A    between atoms: CG   and  CD  
ROOT
ATOM     14  CA  GLU D 570     -18.033  -6.348 -13.375  1.00 32.92     0.160 C 
ENDROOT
BRANCH  14  15
ATOM     15  CB  GLU D 570     -19.500  -6.345 -13.794  1.00 32.92     0.043 C 
BRANCH  15  16
ATOM     16  CG  GLU D 570     -20.440  -5.524 -12.988  1.00 32.92     0.100 C 
BRANCH  16  17
ATOM     17  CD  GLU D 570     -21.687  -5.138 -13.750  1.00 32.92     0.185 C 
ATOM     18  OE1 GLU D 570     -21.615  -4.967 -14.982  1.00 32.92    -0.647 OA
ATOM     19  OE2 GLU D 570     -22.743  -4.988 -13.105  1.00 32.92    -0.647 OA
ENDBRANCH  16  17
ENDBRANCH  15  16
ENDBRANCH  14  15
END_RES GLU D 570
ENDMDL
MODEL 4
REMARK VINA RESULT:      -3.7      2.241      3.030
REMARK  4 active torsions:
REMARK  status: ('A' for Active; 'I' for Inactive)
REMARK    1  A    between atoms: C_2  and  C_3 
REMARK    2  A    between atoms: C_2  and  O_6 
REMARK    3  A    between atoms: C_3  and  C_4 
REMARK    4  A    between atoms: C_4  and  O_5 
ROOT
HETATM    1  C   UNL     1     -23.611  -4.675 -10.939  1.00  0.00     0.039 C 
HETATM    2  C   UNL     1     -23.660  -3.275 -11.537  1.00  0.00     0.116 C 
ENDROOT
BRANCH   2   3
HETATM    3  C   UNL     1     -22.644  -3.102 -12.666  1.00  0.00     0.057 C 
BRANCH   3   4
HETATM    4  C   UNL     1     -23.287  -2.565 -13.940  1.00  0.00     0.166 C 
BRANCH   4   5
HETATM    5  O   UNL     1     -23.876  -3.639 -14.664  1.00  0.00    -0.401 OA
HETATM    6  H   UNL     1     -23.153  -4.165 -15.048  1.00  0.00     0.209 HD
ENDBRANCH   4   5
ENDBRANCH   3   4
ENDBRANCH   2   3
BRANCH   2   7
HETATM    7  O   UNL     1     -24.977  -3.034 -12.023  1.00  0.00    -0.396 OA
HETATM    8  H   UNL     1     -25.149  -2.077 -11.966  1.00  0.00     0.210 HD
ENDBRANCH   2   7
TORSDOF 4
BEGIN_RES ARG D 557
REMARK  4 active torsions:
REMARK  status: ('A' for Active; 'I' for Inactive)
REMARK    1  A    between atoms: CA   and  CB  
REMARK    2  A    between atoms: CB   and  CG  
REMARK    3  A    between atoms: CG   and  CD  
REMARK    4  A    between atoms: CD   and  NE  
REMARK       I    between atoms: NE   and  CZ  
REMARK       I    between atoms: CZ   and  NH1 
REMARK       I    between atoms: CZ   and  NH2 
ROOT
ATOM      1  CA  ARG D 557     -26.217   2.705 -17.014  1.00 35.49     0.159 C 
ENDROOT
BRANCH   1   2
ATOM      2  CB  ARG D 557     -26.789   1.319 -17.183  1.00 35.49     0.034 C 
BRANCH   2   3
ATOM      3  CG  ARG D 557     -28.228   1.164 -16.939  1.00 35.49     0.027 C 
BRANCH   3   4
ATOM      4  CD  ARG D 557     -28.632  -0.257 -16.830  1.00 35.49     0.116 C 
BRANCH   4   5
ATOM      5  NE  ARG D 557     -27.662  -1.043 -16.116  1.00 35.49    -0.212 N 
ATOM      6  CZ  ARG D 557     -27.533  -2.350 -16.182  1.00 35.49     0.666 C 
ATOM      7  NH1 ARG D 557     -28.320  -3.103 -16.928  1.00 35.49    -0.235 N 
ATOM      8  NH2 ARG D 557     -26.582  -2.895 -15.480  1.00 35.49    -0.235 N 
ATOM      9  HH  ARG D 557     -28.951  -2.765 -17.399  1.00 35.49     0.174 HD
ATOM     10  HH  ARG D 557     -28.187  -3.949 -16.933  1.00 35.49     0.174 HD
ATOM     11  HH  ARG D 557     -26.085  -2.383 -15.014  1.00 35.49     0.174 HD
ATOM     12  HH  ARG D 557     -26.466  -3.735 -15.500  1.00 35.49     0.174 HD
ATOM     13  HE  ARG D 557     -27.160  -0.646 -15.555  1.00 35.49     0.178 HD
ENDBRANCH   4   5
ENDBRANCH   3   4
ENDBRANCH   2   3
ENDBRANCH   1   2
END_RES ARG D 557
BEGIN_RES GLU D 570
REMARK  3 active torsions:
REMARK  status: ('A' for Active; 'I' for Inactive)
REMARK    5  A    between atoms: CA   and  CB  
REMARK    6  A    between atoms: CB   and  CG  
REMARK    7  A    between atoms: CG   and  CD  
ROOT
ATOM     14  CA  GLU D 570     -18.033  -6.348 -13.375  1.00 32.92     0.160 C 
ENDROOT
BRANCH  14  15
ATOM     15  CB  GLU D 570     -19.500  -6.345 -13.794  1.00 32.92     0.043 C 
BRANCH  15  16
ATOM     16  CG  GLU D 570     -19.812  -5.945 -15.191  1.00 32.92     0.100 C 
BRANCH  16  17
ATOM     17  CD  GLU D 570     -21.267  -5.589 -15.390  1.00 32.92     0.185 C 
ATOM     18  OE1 GLU D 570     -21.577  -4.805 -16.308  1.00 32.92    -0.647 OA
ATOM     19  OE2 GLU D 570     -22.103  -6.085 -14.610  1.00 32.92    -0.647 OA
ENDBRANCH  16  17
ENDBRANCH  15  16
ENDBRANCH  14  15
END_RES GLU D 570
ENDMDL
MODEL 5
REMARK VINA RESULT:      -3.7      6.160      7.368
REMARK  4 active torsions:
REMARK  status: ('A' for Active; 'I' for Inactive)
REMARK    1  A    between atoms: C_2  and  C_3 
REMARK    2  A    between atoms: C_2  and  O_6 
REMARK    3  A    between atoms: C_3  and  C_4 
REMARK    4  A    between atoms: C_4  and  O_5 
ROOT
HETATM    1  C   UNL     1     -34.367  -6.266 -10.404  1.00  0.00     0.039 C 
HETATM    2  C   UNL     1     -34.689  -5.245 -11.488  1.00  0.00     0.116 C 
ENDROOT
BRANCH   2   3
HETATM    3  C   UNL     1     -33.585  -4.199 -11.631  1.00  0.00     0.057 C 
BRANCH   3   4
HETATM    4  C   UNL     1     -34.090  -2.915 -12.279  1.00  0.00     0.166 C 
BRANCH   4   5
HETATM    5  O   UNL     1     -34.451  -3.175 -13.631  1.00  0.00    -0.401 OA
HETATM    6  H   UNL     1     -35.150  -2.544 -13.875  1.00  0.00     0.209 HD
ENDBRANCH   4   5
ENDBRANCH   3   4
ENDBRANCH   2   3
BRANCH   2   7
HETATM    7  O   UNL     1     -34.874  -5.934 -12.721  1.00  0.00    -0.396 OA
HETATM    8  H   UNL     1     -34.951  -5.270 -13.428  1.00  0.00     0.210 HD
ENDBRANCH   2   7
TORSDOF 4
BEGIN_RES ARG D 557
REMARK  4 active torsions:
REMARK  status: ('A' for Active; 'I' for Inactive)
REMARK    1  A    between atoms: CA   and  CB  
REMARK    2  A    between atoms: CB   and  CG  
REMARK    3  A    between atoms: CG   and  CD  
REMARK    4  A    between atoms: CD   and  NE  
REMARK       I    between atoms: NE   and  CZ  
REMARK       I    between atoms: CZ   and  NH1 
REMARK       I    between atoms: CZ   and  NH2 
ROOT
ATOM      1  CA  ARG D 557     -26.217   2.705 -17.014  1.00 35.49     0.159 C 
ENDROOT
BRANCH   1   2
ATOM      2  CB  ARG D 557     -26.789   1.319 -17.183  1.00 35.49     0.034 C 
BRANCH   2   3
ATOM      3  CG  ARG D 557     -25.836   0.203 -17.154  1.00 35.49     0.027 C 
BRANCH   3   4
ATOM      4  CD  ARG D 557     -24.756   0.409 -16.162  1.00 35.49     0.116 C 
BRANCH   4   5
ATOM      5  NE  ARG D 557     -24.906  -0.444 -15.013  1.00 35.49    -0.212 N 
ATOM      6  CZ  ARG D 557     -24.092  -1.416 -14.666  1.00 35.49     0.666 C 
ATOM      7  NH1 ARG D 557     -23.021  -1.730 -15.371  1.00 35.49    -0.235 N 
ATOM      8  NH2 ARG D 557     -24.371  -2.074 -13.578  1.00 35.49    -0.235 N 
ATOM      9  HH  ARG D 557     -22.816  -1.308 -16.089  1.00 35.49     0.174 HD
ATOM     10  HH  ARG D 557     -22.525  -2.371 -15.095  1.00 35.49     0.174 HD
ATOM     11  HH  ARG D 557     -25.066  -1.845 -13.139  1.00 35.49     0.174 HD
ATOM     12  HH  ARG D 557     -23.867  -2.705 -13.320  1.00 35.49     0.174 HD
ATOM     13  HE  ARG D 557     -25.609  -0.360 -14.541  1.00 35.49     0.178 HD
ENDBRANCH   4   5
ENDBRANCH   3   4
ENDBRANCH   2   3
ENDBRANCH   1   2
END_RES ARG D 557
BEGIN_RES GLU D 570
REMARK  3 active torsions:
REMARK  status: ('A' for Active; 'I' for Inactive)
REMARK    5  A    between atoms: CA   and  CB  
REMARK    6  A    between atoms: CB   and  CG  
REMARK    7  A    between atoms: CG   and  CD  
ROOT
ATOM     14  CA  GLU D 570     -18.033  -6.348 -13.375  1.00 32.92     0.160 C 
ENDROOT
BRANCH  14  15
ATOM     15  CB  GLU D 570     -19.500  -6.345 -13.794  1.00 32.92     0.043 C 
BRANCH  15  16
ATOM     16  CG  GLU D 570     -20.442  -5.531 -12.983  1.00 32.92     0.100 C 
BRANCH  16  17
ATOM     17  CD  GLU D 570     -21.742  -5.246 -13.699  1.00 32.92     0.185 C 
ATOM     18  OE1 GLU D 570     -22.219  -6.114 -14.455  1.00 32.92    -0.647 OA
ATOM     19  OE2 GLU D 570     -22.280  -4.137 -13.514  1.00 32.92    -0.647 OA
ENDBRANCH  16  17
ENDBRANCH  15  16
ENDBRANCH  14  15
END_RES GLU D 570
ENDMDL
MODEL 6
REMARK VINA RESULT:      -3.7      5.784      6.885
REMARK  4 active torsions:
REMARK  status: ('A' for Active; 'I' for Inactive)
REMARK    1  A    between atoms: C_2  and  C_3 
REMARK    2  A    between atoms: C_2  and  O_6 
REMARK    3  A    between atoms: C_3  and  C_4 
REMARK    4  A    between atoms: C_4  and  O_5 
ROOT
HETATM    1  C   UNL     1     -33.398  -2.378 -11.087  1.00  0.00     0.039 C 
HETATM    2  C   UNL     1     -33.104  -3.861 -11.277  1.00  0.00     0.116 C 
ENDROOT
BRANCH   2   3
HETATM    3  C   UNL     1     -34.112  -4.740 -10.539  1.00  0.00     0.057 C 
BRANCH   3   4
HETATM    4  C   UNL     1     -34.015  -6.203 -10.961  1.00  0.00     0.166 C 
BRANCH   4   5
HETATM    5  O   UNL     1     -34.796  -6.413 -12.131  1.00  0.00    -0.401 OA
HETATM    6  H   UNL     1     -35.118  -7.330 -12.107  1.00  0.00     0.209 HD
ENDBRANCH   4   5
ENDBRANCH   3   4
ENDBRANCH   2   3
BRANCH   2   7
HETATM    7  O   UNL     1     -33.127  -4.153 -12.671  1.00  0.00    -0.396 OA
HETATM    8  H   UNL     1     -33.992  -4.544 -12.883  1.00  0.00     0.210 HD
ENDBRANCH   2   7
TORSDOF 4
BEGIN_RES ARG D 557
REMARK  4 active torsions:
REMARK  status: ('A' for Active; 'I' for Inactive)
REMARK    1  A    between atoms: CA   and  CB  
REMARK    2  A    between atoms: CB   and  CG  
REMARK    3  A    between atoms: CG   and  CD  
REMARK    4  A    between atoms: CD   and  NE  
REMARK       I    between atoms: NE   and  CZ  
REMARK       I    between atoms: CZ   and  NH1 
REMARK       I    between atoms: CZ   and  NH2 
ROOT
ATOM      1  CA  ARG D 557     -26.217   2.705 -17.014  1.00 35.49     0.159 C 
ENDROOT
BRANCH   1   2
ATOM      2  CB  ARG D 557     -26.789   1.319 -17.183  1.00 35.49     0.034 C 
BRANCH   2   3
ATOM      3  CG  ARG D 557     -25.863   0.195 -16.999  1.00 35.49     0.027 C 
BRANCH   3   4
ATOM      4  CD  ARG D 557     -26.290  -0.716 -15.912  1.00 35.49     0.116 C 
BRANCH   4   5
ATOM      5  NE  ARG D 557     -25.254  -0.916 -14.934  1.00 35.49    -0.212 N 
ATOM      6  CZ  ARG D 557     -24.963  -2.054 -14.344  1.00 35.49     0.666 C 
ATOM      7  NH1 ARG D 557     -25.628  -3.169 -14.589  1.00 35.49    -0.235 N 
ATOM      8  NH2 ARG D 557     -23.976  -2.057 -13.497  1.00 35.49    -0.235 N 
ATOM      9  HH  ARG D 557     -26.280  -3.191 -15.144  1.00 35.49     0.174 HD
ATOM     10  HH  ARG D 557     -25.392  -3.882 -14.176  1.00 35.49     0.174 HD
ATOM     11  HH  ARG D 557     -23.560  -1.324 -13.365  1.00 35.49     0.174 HD
ATOM     12  HH  ARG D 557     -23.756  -2.773 -13.100  1.00 35.49     0.174 HD
ATOM     13  HE  ARG D 557     -24.823  -0.235 -14.663  1.00 35.49     0.178 HD
ENDBRANCH   4   5
ENDBRANCH   3   4
ENDBRANCH   2   3
ENDBRANCH   1   2
END_RES ARG D 557
BEGIN_RES GLU D 570
REMARK  3 active torsions:
REMARK  status: ('A' for Active; 'I' for Inactive)
REMARK    5  A    between atoms: CA   and  CB  
REMARK    6  A    between atoms: CB   and  CG  
REMARK    7  A    between atoms: CG   and  CD  
ROOT
ATOM     14  CA  GLU D 570     -18.033  -6.348 -13.375  1.00 32.92     0.160 C 
ENDROOT
BRANCH  14  15
ATOM     15  CB  GLU D 570     -19.500  -6.345 -13.794  1.00 32.92     0.043 C 
BRANCH  15  16
ATOM     16  CG  GLU D 570     -20.449  -5.565 -12.958  1.00 32.92     0.100 C 
BRANCH  16  17
ATOM     17  CD  GLU D 570     -21.688  -5.142 -13.712  1.00 32.92     0.185 C 
ATOM     18  OE1 GLU D 570     -21.716  -5.269 -14.951  1.00 32.92    -0.647 OA
ATOM     19  OE2 GLU D 570     -22.636  -4.664 -13.058  1.00 32.92    -0.647 OA
ENDBRANCH  16  17
ENDBRANCH  15  16
ENDBRANCH  14  15
END_RES GLU D 570
ENDMDL
MODEL 7
REMARK VINA RESULT:      -3.7      2.008      2.850
REMARK  4 active torsions:
REMARK  status: ('A' for Active; 'I' for Inactive)
REMARK    1  A    between atoms: C_2  and  C_3 
REMARK    2  A    between atoms: C_2  and  O_6 
REMARK    3  A    between atoms: C_3  and  C_4 
REMARK    4  A    between atoms: C_4  and  O_5 
ROOT
HETATM    1  C   UNL     1     -22.407  -3.510 -10.925  1.00  0.00     0.039 C 
HETATM    2  C   UNL     1     -22.169  -4.398 -12.139  1.00  0.00     0.116 C 
ENDROOT
BRANCH   2   3
HETATM    3  C   UNL     1     -23.416  -5.197 -12.514  1.00  0.00     0.057 C 
BRANCH   3   4
HETATM    4  C   UNL     1     -23.357  -5.716 -13.947  1.00  0.00     0.166 C 
BRANCH   4   5
HETATM    5  O   UNL     1     -23.914  -4.746 -14.827  1.00  0.00    -0.401 OA
HETATM    6  H   UNL     1     -24.550  -4.216 -14.314  1.00  0.00     0.209 HD
ENDBRANCH   4   5
ENDBRANCH   3   4
ENDBRANCH   2   3
BRANCH   2   7
HETATM    7  O   UNL     1     -21.768  -3.576 -13.231  1.00  0.00    -0.396 OA
HETATM    8  H   UNL     1     -22.283  -3.841 -14.013  1.00  0.00     0.210 HD
ENDBRANCH   2   7
TORSDOF 4
BEGIN_RES ARG D 557
REMARK  4 active torsions:
REMARK  status: ('A' for Active; 'I' for Inactive)
REMARK    1  A    between atoms: CA   and  CB  
REMARK    2  A    between atoms: CB   and  CG  
REMARK    3  A    between atoms: CG   and  CD  
REMARK    4  A    between atoms: CD   and  NE  
REMARK       I    between atoms: NE   and  CZ  
REMARK       I    between atoms: CZ   and  NH1 
REMARK       I    between atoms: CZ   and  NH2 
ROOT
ATOM      1  CA  ARG D 557     -26.217   2.705 -17.014  1.00 35.49     0.159 C 
ENDROOT
BRANCH   1   2
ATOM      2  CB  ARG D 557     -26.789   1.319 -17.183  1.00 35.49     0.034 C 
BRANCH   2   3
ATOM      3  CG  ARG D 557     -25.831   0.207 -17.202  1.00 35.49     0.027 C 
BRANCH   3   4
ATOM      4  CD  ARG D 557     -24.719   0.403 -16.244  1.00 35.49     0.116 C 
BRANCH   4   5
ATOM      5  NE  ARG D 557     -24.879  -0.394 -15.057  1.00 35.49    -0.212 N 
ATOM      6  CZ  ARG D 557     -24.091  -1.376 -14.679  1.00 35.49     0.666 C 
ATOM      7  NH1 ARG D 557     -23.041  -1.754 -15.384  1.00 35.49    -0.235 N 
ATOM      8  NH2 ARG D 557     -24.376  -1.977 -13.560  1.00 35.49    -0.235 N 
ATOM      9  HH  ARG D 557     -22.834  -1.371 -16.122  1.00 35.49     0.174 HD
ATOM     10  HH  ARG D 557     -22.562  -2.399 -15.087  1.00 35.49     0.174 HD
ATOM     11  HH  ARG D 557     -25.055  -1.707 -13.122  1.00 35.49     0.174 HD
ATOM     12  HH  ARG D 557     -23.888  -2.613 -13.282  1.00 35.49     0.174 HD
ATOM     13  HE  ARG D 557     -25.572  -0.267 -14.580  1.00 35.49     0.178 HD
ENDBRANCH   4   5
ENDBRANCH   3   4
ENDBRANCH   2   3
ENDBRANCH   1   2
END_RES ARG D 557
BEGIN_RES GLU D 570
REMARK  3 active torsions:
REMARK  status: ('A' for Active; 'I' for Inactive)
REMARK    5  A    between atoms: CA   and  CB  
REMARK    6  A    between atoms: CB   and  CG  
REMARK    7  A    between atoms: CG   and  CD  
ROOT
ATOM     14  CA  GLU D 570     -18.033  -6.348 -13.375  1.00 32.92     0.160 C 
ENDROOT
BRANCH  14  15
ATOM     15  CB  GLU D 570     -19.500  -6.345 -13.794  1.00 32.92     0.043 C 
BRANCH  15  16
ATOM     16  CG  GLU D 570     -20.092  -7.638 -14.224  1.00 32.92     0.100 C 
BRANCH  16  17
ATOM     17  CD  GLU D 570     -20.634  -7.598 -15.634  1.00 32.92     0.185 C 
ATOM     18  OE1 GLU D 570     -21.089  -8.643 -16.137  1.00 32.92    -0.647 OA
ATOM     19  OE2 GLU D 570     -20.589  -6.513 -16.247  1.00 32.92    -0.647 OA
ENDBRANCH  16  17
ENDBRANCH  15  16
ENDBRANCH  14  15
END_RES GLU D 570
ENDMDL
MODEL 8
REMARK VINA RESULT:      -3.7      4.678      6.759
REMARK  4 active torsions:
REMARK  status: ('A' for Active; 'I' for Inactive)
REMARK    1  A    between atoms: C_2  and  C_3 
REMARK    2  A    between atoms: C_2  and  O_6 
REMARK    3  A    between atoms: C_3  and  C_4 
REMARK    4  A    between atoms: C_4  and  O_5 
ROOT
HETATM    1  C   UNL     1     -29.156  -4.905 -18.459  1.00  0.00     0.039 C 
HETATM    2  C   UNL     1     -28.480  -6.144 -17.885  1.00  0.00     0.116 C 
ENDROOT
BRANCH   2   3
HETATM    3  C   UNL     1     -29.497  -7.191 -17.435  1.00  0.00     0.057 C 
BRANCH   3   4
HETATM    4  C   UNL     1     -30.314  -7.737 -18.601  1.00  0.00     0.166 C 
BRANCH   4   5
HETATM    5  O   UNL     1     -29.608  -8.810 -19.215  1.00  0.00    -0.401 OA
HETATM    6  H   UNL     1     -29.878  -9.631 -18.769  1.00  0.00     0.209 HD
ENDBRANCH   4   5
ENDBRANCH   3   4
ENDBRANCH   2   3
BRANCH   2   7
HETATM    7  O   UNL     1     -27.618  -6.692 -18.878  1.00  0.00    -0.396 OA
HETATM    8  H   UNL     1     -27.906  -7.605 -19.055  1.00  0.00     0.210 HD
ENDBRANCH   2   7
TORSDOF 4
BEGIN_RES ARG D 557
REMARK  4 active torsions:
REMARK  status: ('A' for Active; 'I' for Inactive)
REMARK    1  A    between atoms: CA   and  CB  
REMARK    2  A    between atoms: CB   and  CG  
REMARK    3  A    between atoms: CG   and  CD  
REMARK    4  A    between atoms: CD   and  NE  
REMARK       I    between atoms: NE   and  CZ  
REMARK       I    between atoms: CZ   and  NH1 
REMARK       I    between atoms: CZ   and  NH2 
ROOT
ATOM      1  CA  ARG D 557     -26.217   2.705 -17.014  1.00 35.49     0.159 C 
ENDROOT
BRANCH   1   2
ATOM      2  CB  ARG D 557     -26.789   1.319 -17.183  1.00 35.49     0.034 C 
BRANCH   2   3
ATOM      3  CG  ARG D 557     -25.865   0.195 -16.990  1.00 35.49     0.027 C 
BRANCH   3   4
ATOM      4  CD  ARG D 557     -26.295  -0.708 -15.897  1.00 35.49     0.116 C 
BRANCH   4   5
ATOM      5  NE  ARG D 557     -25.246  -0.938 -14.939  1.00 35.49    -0.212 N 
ATOM      6  CZ  ARG D 557     -24.975  -2.085 -14.358  1.00 35.49     0.666 C 
ATOM      7  NH1 ARG D 557     -25.672  -3.181 -14.593  1.00 35.49    -0.235 N 
ATOM      8  NH2 ARG D 557     -23.972  -2.115 -13.529  1.00 35.49    -0.235 N 
ATOM      9  HH  ARG D 557     -26.335  -3.185 -15.136  1.00 35.49     0.174 HD
ATOM     10  HH  ARG D 557     -25.447  -3.901 -14.186  1.00 35.49     0.174 HD
ATOM     11  HH  ARG D 557     -23.535  -1.394 -13.403  1.00 35.49     0.174 HD
ATOM     12  HH  ARG D 557     -23.764  -2.838 -13.138  1.00 35.49     0.174 HD
ATOM     13  HE  ARG D 557     -24.793  -0.268 -14.675  1.00 35.49     0.178 HD
ENDBRANCH   4   5
ENDBRANCH   3   4
ENDBRANCH   2   3
ENDBRANCH   1   2
END_RES ARG D 557
BEGIN_RES GLU D 570
REMARK  3 active torsions:
REMARK  status: ('A' for Active; 'I' for Inactive)
REMARK    5  A    between atoms: CA   and  CB  
REMARK    6  A    between atoms: CB   and  CG  
REMARK    7  A    between atoms: CG   and  CD  
ROOT
ATOM     14  CA  GLU D 570     -18.033  -6.348 -13.375  1.00 32.92     0.160 C 
ENDROOT
BRANCH  14  15
ATOM     15  CB  GLU D 570     -19.500  -6.345 -13.794  1.00 32.92     0.043 C 
BRANCH  15  16
ATOM     16  CG  GLU D 570     -20.444  -5.541 -12.976  1.00 32.92     0.100 C 
BRANCH  16  17
ATOM     17  CD  GLU D 570     -21.684  -5.134 -13.737  1.00 32.92     0.185 C 
ATOM     18  OE1 GLU D 570     -22.747  -4.958 -13.111  1.00 32.92    -0.647 OA
ATOM     19  OE2 GLU D 570     -21.596  -5.007 -14.974  1.00 32.92    -0.647 OA
ENDBRANCH  16  17
ENDBRANCH  15  16
ENDBRANCH  14  15
END_RES GLU D 570
ENDMDL
MODEL 9
REMARK VINA RESULT:      -3.6      4.468      6.648
REMARK  4 active torsions:
REMARK  status: ('A' for Active; 'I' for Inactive)
REMARK    1  A    between atoms: C_2  and  C_3 
REMARK    2  A    between atoms: C_2  and  O_6 
REMARK    3  A    between atoms: C_3  and  C_4 
REMARK    4  A    between atoms: C_4  and  O_5 
ROOT
HETATM    1  C   UNL     1     -30.363  -7.217 -17.765  1.00  0.00     0.039 C 
HETATM    2  C   UNL     1     -29.904  -5.923 -17.106  1.00  0.00     0.116 C 
ENDROOT
BRANCH   2   3
HETATM    3  C   UNL     1     -29.572  -4.846 -18.138  1.00  0.00     0.057 C 
BRANCH   3   4
HETATM    4  C   UNL     1     -29.457  -3.462 -17.507  1.00  0.00     0.166 C 
BRANCH   4   5
HETATM    5  O   UNL     1     -30.709  -2.792 -17.602  1.00  0.00    -0.401 OA
HETATM    6  H   UNL     1     -31.097  -3.015 -18.465  1.00  0.00     0.209 HD
ENDBRANCH   4   5
ENDBRANCH   3   4
ENDBRANCH   2   3
BRANCH   2   7
HETATM    7  O   UNL     1     -30.934  -5.466 -16.235  1.00  0.00    -0.396 OA
HETATM    8  H   UNL     1     -31.600  -6.171 -16.159  1.00  0.00     0.210 HD
ENDBRANCH   2   7
TORSDOF 4
BEGIN_RES ARG D 557
REMARK  4 active torsions:
REMARK  status: ('A' for Active; 'I' for Inactive)
REMARK    1  A    between atoms: CA   and  CB  
REMARK    2  A    between atoms: CB   and  CG  
REMARK    3  A    between atoms: CG   and  CD  
REMARK    4  A    between atoms: CD   and  NE  
REMARK       I    between atoms: NE   and  CZ  
REMARK       I    between atoms: CZ   and  NH1 
REMARK       I    between atoms: CZ   and  NH2 
ROOT
ATOM      1  CA  ARG D 557     -26.217   2.705 -17.014  1.00 35.49     0.159 C 
ENDROOT
BRANCH   1   2
ATOM      2  CB  ARG D 557     -26.789   1.319 -17.183  1.00 35.49     0.034 C 
BRANCH   2   3
ATOM      3  CG  ARG D 557     -25.834   0.204 -17.174  1.00 35.49     0.027 C 
BRANCH   3   4
ATOM      4  CD  ARG D 557     -24.736   0.410 -16.202  1.00 35.49     0.116 C 
BRANCH   4   5
ATOM      5  NE  ARG D 557     -24.881  -0.423 -15.037  1.00 35.49    -0.212 N 
ATOM      6  CZ  ARG D 557     -24.069  -1.392 -14.679  1.00 35.49     0.666 C 
ATOM      7  NH1 ARG D 557     -23.005  -1.723 -15.387  1.00 35.49    -0.235 N 
ATOM      8  NH2 ARG D 557     -24.344  -2.030 -13.578  1.00 35.49    -0.235 N 
ATOM      9  HH  ARG D 557     -22.804  -1.315 -16.113  1.00 35.49     0.174 HD
ATOM     10  HH  ARG D 557     -22.510  -2.362 -15.103  1.00 35.49     0.174 HD
ATOM     11  HH  ARG D 557     -25.034  -1.790 -13.138  1.00 35.49     0.174 HD
ATOM     12  HH  ARG D 557     -23.841  -2.659 -13.313  1.00 35.49     0.174 HD
ATOM     13  HE  ARG D 557     -25.580  -0.327 -14.562  1.00 35.49     0.178 HD
ENDBRANCH   4   5
ENDBRANCH   3   4
ENDBRANCH   2   3
ENDBRANCH   1   2
END_RES ARG D 557
BEGIN_RES GLU D 570
REMARK  3 active torsions:
REMARK  status: ('A' for Active; 'I' for Inactive)
REMARK    5  A    between atoms: CA   and  CB  
REMARK    6  A    between atoms: CB   and  CG  
REMARK    7  A    between atoms: CG   and  CD  
ROOT
ATOM     14  CA  GLU D 570     -18.033  -6.348 -13.375  1.00 32.92     0.160 C 
ENDROOT
BRANCH  14  15
ATOM     15  CB  GLU D 570     -19.500  -6.345 -13.794  1.00 32.92     0.043 C 
BRANCH  15  16
ATOM     16  CG  GLU D 570     -20.442  -5.532 -12.982  1.00 32.92     0.100 C 
BRANCH  16  17
ATOM     17  CD  GLU D 570     -21.742  -5.247 -13.698  1.00 32.92     0.185 C 
ATOM     18  OE1 GLU D 570     -22.246  -6.134 -14.414  1.00 32.92    -0.647 OA
ATOM     19  OE2 GLU D 570     -22.254  -4.119 -13.554  1.00 32.92    -0.647 OA
ENDBRANCH  16  17
ENDBRANCH  15  16
ENDBRANCH  14  15
END_RES GLU D 570
ENDMDL
