MODEL 1
REMARK VINA RESULT:      -8.8      0.000      0.000
REMARK  11 active torsions:
REMARK  status: ('A' for Active; 'I' for Inactive)
REMARK    1  A    between atoms: C_2  and  C_4 
REMARK    2  A    between atoms: C_4  and  C_5 
REMARK    3  A    between atoms: C_5  and  C_6 
REMARK    4  A    between atoms: C_6  and  C_7 
REMARK    5  A    between atoms: C_7  and  C_9 
REMARK    6  A    between atoms: C_24  and  O_26 
REMARK    7  A    between atoms: O_26  and  C_27 
REMARK    8  A    between atoms: C_27  and  C_29 
REMARK    9  A    between atoms: C_29  and  C_30 
REMARK   10  A    between atoms: C_30  and  C_31 
REMARK   11  A    between atoms: C_31  and  O_33 
ROOT
HETATM    1  C   UNL     1     -19.921 -10.698  -1.230  1.00  0.00    -0.002 C 
HETATM    2  C   UNL     1     -18.973 -12.136  -1.188  1.00  0.00     0.006 C 
HETATM    3  C   UNL     1     -20.010 -13.287  -1.478  1.00  0.00     0.006 C 
HETATM    4  C   UNL     1     -21.229 -12.478  -1.915  1.00  0.00    -0.001 C 
HETATM    5  C   UNL     1     -21.314 -11.413  -0.817  1.00  0.00    -0.036 C 
HETATM    6  C   UNL     1     -22.712 -10.804  -0.960  1.00  0.00     0.010 C 
HETATM    7  C   UNL     1     -22.469  -9.467  -1.502  1.00  0.00     0.007 C 
HETATM    8  C   UNL     1     -21.862  -9.777  -2.869  1.00  0.00     0.003 C 
HETATM    9  C   UNL     1     -20.903 -11.552  -3.190  1.00  0.00    -0.001 C 
HETATM   10  C   UNL     1     -19.350 -11.425  -4.467  1.00  0.00     0.033 C 
HETATM   11  C   UNL     1     -18.894  -9.660  -5.058  1.00  0.00    -0.023 C 
HETATM   12  C   UNL     1     -19.686  -8.419  -4.830  1.00  0.00    -0.072 C 
HETATM   13  C   UNL     1     -21.150  -8.147  -3.653  1.00  0.00    -0.017 C 
HETATM   14  C   UNL     1     -22.171  -7.314  -4.535  1.00  0.00     0.016 C 
HETATM   15  C   UNL     1     -21.459  -6.055  -5.087  1.00  0.00     0.034 C 
HETATM   16  C   UNL     1     -20.610  -6.478  -6.269  1.00  0.00     0.136 C 
HETATM   17  C   UNL     1     -19.426  -7.365  -5.885  1.00  0.00     0.067 C 
HETATM   18  C   UNL     1     -21.139  -7.069  -2.401  1.00  0.00     0.020 C 
HETATM   19  C   UNL     1     -21.216 -11.774   0.674  1.00  0.00     0.016 C 
ENDROOT
BRANCH  16  20
HETATM   20  O   UNL     1     -20.225  -5.353  -7.076  1.00  0.00    -0.316 OA
BRANCH  20  21
HETATM   21  C   UNL     1     -21.169  -4.469  -7.474  1.00  0.00     0.259 C 
HETATM   22  O   UNL     1     -21.410  -3.380  -6.974  1.00  0.00    -0.265 OA
BRANCH  21  23
HETATM   23  C   UNL     1     -21.891  -5.025  -8.658  1.00  0.00     0.121 C 
BRANCH  23  24
HETATM   24  C   UNL     1     -22.221  -3.890  -9.611  1.00  0.00     0.119 C 
BRANCH  24  25
HETATM   25  C   UNL     1     -23.701  -3.648  -9.651  1.00  0.00     0.139 C 
HETATM   26  O   UNL     1     -24.344  -3.390 -10.656  1.00  0.00    -0.650 OA
BRANCH  25  27
HETATM   27  O   UNL     1     -24.265  -3.741  -8.426  1.00  0.00    -0.776 OA
HETATM   28  H   UNL     1     -23.615  -3.856  -7.707  1.00  0.00     0.167 HD
ENDBRANCH  25  27
ENDBRANCH  24  25
ENDBRANCH  23  24
ENDBRANCH  21  23
ENDBRANCH  20  21
ENDBRANCH  16  20
BRANCH   1  29
HETATM   29  C   UNL     1     -19.781  -9.845  -2.934  1.00  0.00    -0.014 C 
HETATM   30  C   UNL     1     -18.455  -8.767  -2.607  1.00  0.00     0.010 C 
BRANCH  29  31
HETATM   31  C   UNL     1     -21.217  -9.992  -4.535  1.00  0.00     0.005 C 
BRANCH  31  32
HETATM   32  C   UNL     1     -21.278 -11.145  -6.033  1.00  0.00     0.001 C 
BRANCH  32  33
HETATM   33  C   UNL     1     -22.448 -12.243  -6.244  1.00  0.00     0.004 C 
BRANCH  33  34
HETATM   34  C   UNL     1     -22.331 -13.795  -6.007  1.00  0.00    -0.023 C 
HETATM   35  C   UNL     1     -20.998 -14.471  -6.324  1.00  0.00     0.009 C 
HETATM   36  C   UNL     1     -22.872 -14.315  -4.676  1.00  0.00     0.009 C 
ENDBRANCH  33  34
ENDBRANCH  32  33
ENDBRANCH  31  32
ENDBRANCH  29  31
ENDBRANCH   1  29
TORSDOF 11
BEGIN_RES ARG D 557
REMARK  4 active torsions:
REMARK  status: ('A' for Active; 'I' for Inactive)
REMARK    1  A    between atoms: CA   and  CB  
REMARK    2  A    between atoms: CB   and  CG  
REMARK    3  A    between atoms: CG   and  CD  
REMARK    4  A    between atoms: CD   and  NE  
REMARK       I    between atoms: NE   and  CZ  
REMARK       I    between atoms: CZ   and  NH1 
REMARK       I    between atoms: CZ   and  NH2 
ROOT
ATOM      1  CA  ARG D 557     -26.217   2.705 -17.014  1.00 35.49     0.159 C 
ENDROOT
BRANCH   1   2
ATOM      2  CB  ARG D 557     -26.789   1.319 -17.183  1.00 35.49     0.034 C 
BRANCH   2   3
ATOM      3  CG  ARG D 557     -25.943   0.198 -16.754  1.00 35.49     0.027 C 
BRANCH   3   4
ATOM      4  CD  ARG D 557     -26.703  -0.827 -16.003  1.00 35.49     0.116 C 
BRANCH   4   5
ATOM      5  NE  ARG D 557     -25.914  -1.434 -14.964  1.00 35.49    -0.212 N 
ATOM      6  CZ  ARG D 557     -25.892  -2.714 -14.665  1.00 35.49     0.666 C 
ATOM      7  NH1 ARG D 557     -26.630  -3.604 -15.301  1.00 35.49    -0.235 N 
ATOM      8  NH2 ARG D 557     -25.099  -3.092 -13.705  1.00 35.49    -0.235 N 
ATOM      9  HH  ARG D 557     -27.158  -3.377 -15.938  1.00 35.49     0.174 HD
ATOM     10  HH  ARG D 557     -26.572  -4.425 -15.064  1.00 35.49     0.174 HD
ATOM     11  HH  ARG D 557     -24.628  -2.496 -13.316  1.00 35.49     0.174 HD
ATOM     12  HH  ARG D 557     -25.054  -3.910 -13.486  1.00 35.49     0.174 HD
ATOM     13  HE  ARG D 557     -25.462  -0.924 -14.456  1.00 35.49     0.178 HD
ENDBRANCH   4   5
ENDBRANCH   3   4
ENDBRANCH   2   3
ENDBRANCH   1   2
END_RES ARG D 557
BEGIN_RES GLU D 570
REMARK  3 active torsions:
REMARK  status: ('A' for Active; 'I' for Inactive)
REMARK    5  A    between atoms: CA   and  CB  
REMARK    6  A    between atoms: CB   and  CG  
REMARK    7  A    between atoms: CG   and  CD  
ROOT
ATOM     14  CA  GLU D 570     -18.033  -6.348 -13.375  1.00 32.92     0.160 C 
ENDROOT
BRANCH  14  15
ATOM     15  CB  GLU D 570     -19.500  -6.345 -13.794  1.00 32.92     0.043 C 
BRANCH  15  16
ATOM     16  CG  GLU D 570     -20.449  -5.563 -12.960  1.00 32.92     0.100 C 
BRANCH  16  17
ATOM     17  CD  GLU D 570     -21.699  -5.162 -13.707  1.00 32.92     0.185 C 
ATOM     18  OE1 GLU D 570     -21.667  -5.104 -14.952  1.00 32.92    -0.647 OA
ATOM     19  OE2 GLU D 570     -22.715  -4.886 -13.041  1.00 32.92    -0.647 OA
ENDBRANCH  16  17
ENDBRANCH  15  16
ENDBRANCH  14  15
END_RES GLU D 570
ENDMDL
MODEL 2
REMARK VINA RESULT:      -8.8      1.860      4.038
REMARK  11 active torsions:
REMARK  status: ('A' for Active; 'I' for Inactive)
REMARK    1  A    between atoms: C_2  and  C_4 
REMARK    2  A    between atoms: C_4  and  C_5 
REMARK    3  A    between atoms: C_5  and  C_6 
REMARK    4  A    between atoms: C_6  and  C_7 
REMARK    5  A    between atoms: C_7  and  C_9 
REMARK    6  A    between atoms: C_24  and  O_26 
REMARK    7  A    between atoms: O_26  and  C_27 
REMARK    8  A    between atoms: C_27  and  C_29 
REMARK    9  A    between atoms: C_29  and  C_30 
REMARK   10  A    between atoms: C_30  and  C_31 
REMARK   11  A    between atoms: C_31  and  O_33 
ROOT
HETATM    1  C   UNL     1     -23.158 -13.174   0.144  1.00  0.00    -0.002 C 
HETATM    2  C   UNL     1     -23.027 -13.452   1.838  1.00  0.00     0.006 C 
HETATM    3  C   UNL     1     -21.769 -14.390   1.977  1.00  0.00     0.006 C 
HETATM    4  C   UNL     1     -21.189 -14.311   0.566  1.00  0.00    -0.001 C 
HETATM    5  C   UNL     1     -22.429 -14.550  -0.301  1.00  0.00    -0.036 C 
HETATM    6  C   UNL     1     -21.885 -14.866  -1.697  1.00  0.00     0.010 C 
HETATM    7  C   UNL     1     -22.211 -13.681  -2.489  1.00  0.00     0.007 C 
HETATM    8  C   UNL     1     -21.379 -12.597  -1.808  1.00  0.00     0.003 C 
HETATM    9  C   UNL     1     -20.837 -12.796   0.152  1.00  0.00    -0.001 C 
HETATM   10  C   UNL     1     -20.748 -11.054   1.160  1.00  0.00     0.033 C 
HETATM   11  C   UNL     1     -21.340  -9.503   0.204  1.00  0.00    -0.023 C 
HETATM   12  C   UNL     1     -21.661  -9.429  -1.249  1.00  0.00    -0.072 C 
HETATM   13  C   UNL     1     -21.899 -10.851  -2.484  1.00  0.00    -0.017 C 
HETATM   14  C   UNL     1     -21.105 -10.353  -3.764  1.00  0.00     0.016 C 
HETATM   15  C   UNL     1     -21.629  -8.956  -4.178  1.00  0.00     0.034 C 
HETATM   16  C   UNL     1     -21.005  -7.930  -3.253  1.00  0.00     0.136 C 
HETATM   17  C   UNL     1     -21.492  -8.032  -1.808  1.00  0.00     0.067 C 
HETATM   18  C   UNL     1     -23.307 -11.138  -3.300  1.00  0.00     0.020 C 
HETATM   19  C   UNL     1     -23.411 -15.698  -0.015  1.00  0.00     0.016 C 
ENDROOT
BRANCH  16  20
HETATM   20  O   UNL     1     -21.115  -6.600  -3.785  1.00  0.00    -0.316 OA
BRANCH  20  21
HETATM   21  C   UNL     1     -20.865  -6.389  -5.099  1.00  0.00     0.259 C 
HETATM   22  O   UNL     1     -19.861  -6.715  -5.715  1.00  0.00    -0.265 OA
BRANCH  21  23
HETATM   23  C   UNL     1     -22.035  -5.691  -5.713  1.00  0.00     0.121 C 
BRANCH  23  24
HETATM   24  C   UNL     1     -21.653  -5.222  -7.105  1.00  0.00     0.119 C 
BRANCH  24  25
HETATM   25  C   UNL     1     -22.706  -4.309  -7.662  1.00  0.00     0.139 C 
HETATM   26  O   UNL     1     -22.577  -3.610  -8.654  1.00  0.00    -0.650 OA
BRANCH  25  27
HETATM   27  O   UNL     1     -23.842  -4.336  -6.930  1.00  0.00    -0.776 OA
HETATM   28  H   UNL     1     -24.553  -4.868  -7.335  1.00  0.00     0.167 HD
ENDBRANCH  25  27
ENDBRANCH  24  25
ENDBRANCH  23  24
ENDBRANCH  21  23
ENDBRANCH  20  21
ENDBRANCH  16  20
BRANCH   1  29
HETATM   29  C   UNL     1     -22.363 -11.503  -0.332  1.00  0.00    -0.014 C 
HETATM   30  C   UNL     1     -23.802 -10.545  -0.528  1.00  0.00     0.010 C 
BRANCH  29  31
HETATM   31  C   UNL     1     -20.293 -11.199  -0.852  1.00  0.00     0.005 C 
BRANCH  31  32
HETATM   32  C   UNL     1     -18.987 -12.417  -1.476  1.00  0.00     0.001 C 
BRANCH  32  33
HETATM   33  C   UNL     1     -18.003 -12.085  -2.716  1.00  0.00     0.004 C 
BRANCH  33  34
HETATM   34  C   UNL     1     -16.996 -10.877  -2.817  1.00  0.00    -0.023 C 
HETATM   35  C   UNL     1     -17.575  -9.465  -2.884  1.00  0.00     0.009 C 
HETATM   36  C   UNL     1     -15.811 -10.908  -1.853  1.00  0.00     0.009 C 
ENDBRANCH  33  34
ENDBRANCH  32  33
ENDBRANCH  31  32
ENDBRANCH  29  31
ENDBRANCH   1  29
TORSDOF 11
BEGIN_RES ARG D 557
REMARK  4 active torsions:
REMARK  status: ('A' for Active; 'I' for Inactive)
REMARK    1  A    between atoms: CA   and  CB  
REMARK    2  A    between atoms: CB   and  CG  
REMARK    3  A    between atoms: CG   and  CD  
REMARK    4  A    between atoms: CD   and  NE  
REMARK       I    between atoms: NE   and  CZ  
REMARK       I    between atoms: CZ   and  NH1 
REMARK       I    between atoms: CZ   and  NH2 
ROOT
ATOM      1  CA  ARG D 557     -26.217   2.705 -17.014  1.00 35.49     0.159 C 
ENDROOT
BRANCH   1   2
ATOM      2  CB  ARG D 557     -26.789   1.319 -17.183  1.00 35.49     0.034 C 
BRANCH   2   3
ATOM      3  CG  ARG D 557     -25.838   0.202 -17.136  1.00 35.49     0.027 C 
BRANCH   3   4
ATOM      4  CD  ARG D 557     -24.758   0.422 -16.147  1.00 35.49     0.116 C 
BRANCH   4   5
ATOM      5  NE  ARG D 557     -24.893  -0.432 -14.996  1.00 35.49    -0.212 N 
ATOM      6  CZ  ARG D 557     -24.082  -1.412 -14.667  1.00 35.49     0.666 C 
ATOM      7  NH1 ARG D 557     -23.027  -1.734 -15.393  1.00 35.49    -0.235 N 
ATOM      8  NH2 ARG D 557     -24.346  -2.069 -13.575  1.00 35.49    -0.235 N 
ATOM      9  HH  ARG D 557     -22.833  -1.313 -16.114  1.00 35.49     0.174 HD
ATOM     10  HH  ARG D 557     -22.532  -2.380 -15.127  1.00 35.49     0.174 HD
ATOM     11  HH  ARG D 557     -25.030  -1.834 -13.122  1.00 35.49     0.174 HD
ATOM     12  HH  ARG D 557     -23.843  -2.705 -13.328  1.00 35.49     0.174 HD
ATOM     13  HE  ARG D 557     -25.586  -0.342 -14.512  1.00 35.49     0.178 HD
ENDBRANCH   4   5
ENDBRANCH   3   4
ENDBRANCH   2   3
ENDBRANCH   1   2
END_RES ARG D 557
BEGIN_RES GLU D 570
REMARK  3 active torsions:
REMARK  status: ('A' for Active; 'I' for Inactive)
REMARK    5  A    between atoms: CA   and  CB  
REMARK    6  A    between atoms: CB   and  CG  
REMARK    7  A    between atoms: CG   and  CD  
ROOT
ATOM     14  CA  GLU D 570     -18.033  -6.348 -13.375  1.00 32.92     0.160 C 
ENDROOT
BRANCH  14  15
ATOM     15  CB  GLU D 570     -19.500  -6.345 -13.794  1.00 32.92     0.043 C 
BRANCH  15  16
ATOM     16  CG  GLU D 570     -20.446  -5.550 -12.969  1.00 32.92     0.100 C 
BRANCH  16  17
ATOM     17  CD  GLU D 570     -21.712  -5.187 -13.709  1.00 32.92     0.185 C 
ATOM     18  OE1 GLU D 570     -22.297  -4.124 -13.425  1.00 32.92    -0.647 OA
ATOM     19  OE2 GLU D 570     -22.133  -5.983 -14.572  1.00 32.92    -0.647 OA
ENDBRANCH  16  17
ENDBRANCH  15  16
ENDBRANCH  14  15
END_RES GLU D 570
ENDMDL
MODEL 3
REMARK VINA RESULT:      -8.8      2.081      4.677
REMARK  11 active torsions:
REMARK  status: ('A' for Active; 'I' for Inactive)
REMARK    1  A    between atoms: C_2  and  C_4 
REMARK    2  A    between atoms: C_4  and  C_5 
REMARK    3  A    between atoms: C_5  and  C_6 
REMARK    4  A    between atoms: C_6  and  C_7 
REMARK    5  A    between atoms: C_7  and  C_9 
REMARK    6  A    between atoms: C_24  and  O_26 
REMARK    7  A    between atoms: O_26  and  C_27 
REMARK    8  A    between atoms: C_27  and  C_29 
REMARK    9  A    between atoms: C_29  and  C_30 
REMARK   10  A    between atoms: C_30  and  C_31 
REMARK   11  A    between atoms: C_31  and  O_33 
ROOT
HETATM    1  C   UNL     1     -22.050 -14.660  -0.558  1.00  0.00    -0.002 C 
HETATM    2  C   UNL     1     -23.401 -14.937   0.474  1.00  0.00     0.006 C 
HETATM    3  C   UNL     1     -22.865 -14.578   1.912  1.00  0.00     0.006 C 
HETATM    4  C   UNL     1     -21.533 -13.914   1.569  1.00  0.00    -0.001 C 
HETATM    5  C   UNL     1     -20.925 -14.914   0.580  1.00  0.00    -0.036 C 
HETATM    6  C   UNL     1     -19.446 -14.528   0.481  1.00  0.00     0.010 C 
HETATM    7  C   UNL     1     -19.315 -13.938  -0.851  1.00  0.00     0.007 C 
HETATM    8  C   UNL     1     -20.200 -12.699  -0.745  1.00  0.00     0.003 C 
HETATM    9  C   UNL     1     -21.733 -12.642   0.606  1.00  0.00    -0.001 C 
HETATM   10  C   UNL     1     -23.338 -11.598  -0.020  1.00  0.00     0.033 C 
HETATM   11  C   UNL     1     -23.271 -10.961  -1.826  1.00  0.00    -0.023 C 
HETATM   12  C   UNL     1     -22.087 -10.988  -2.730  1.00  0.00    -0.072 C 
HETATM   13  C   UNL     1     -20.447 -11.919  -2.507  1.00  0.00    -0.017 C 
HETATM   14  C   UNL     1     -19.362 -10.843  -2.933  1.00  0.00     0.016 C 
HETATM   15  C   UNL     1     -19.695 -10.316  -4.351  1.00  0.00     0.034 C 
HETATM   16  C   UNL     1     -20.814  -9.302  -4.222  1.00  0.00     0.136 C 
HETATM   17  C   UNL     1     -22.148  -9.913  -3.794  1.00  0.00     0.067 C 
HETATM   18  C   UNL     1     -19.900 -13.083  -3.544  1.00  0.00     0.020 C 
HETATM   19  C   UNL     1     -20.898 -16.425   0.865  1.00  0.00     0.016 C 
ENDROOT
BRANCH  16  20
HETATM   20  O   UNL     1     -20.927  -8.486  -5.399  1.00  0.00    -0.316 OA
BRANCH  20  21
HETATM   21  C   UNL     1     -21.064  -7.146  -5.266  1.00  0.00     0.259 C 
HETATM   22  O   UNL     1     -21.011  -6.504  -4.227  1.00  0.00    -0.265 OA
BRANCH  21  23
HETATM   23  C   UNL     1     -21.284  -6.540  -6.614  1.00  0.00     0.121 C 
BRANCH  23  24
HETATM   24  C   UNL     1     -21.266  -5.028  -6.482  1.00  0.00     0.119 C 
BRANCH  24  25
HETATM   25  C   UNL     1     -22.353  -4.413  -7.314  1.00  0.00     0.139 C 
HETATM   26  O   UNL     1     -22.188  -3.853  -8.386  1.00  0.00    -0.650 OA
BRANCH  25  27
HETATM   27  O   UNL     1     -23.569  -4.540  -6.736  1.00  0.00    -0.776 OA
HETATM   28  H   UNL     1     -24.078  -5.305  -7.066  1.00  0.00     0.167 HD
ENDBRANCH  25  27
ENDBRANCH  24  25
ENDBRANCH  23  24
ENDBRANCH  21  23
ENDBRANCH  20  21
ENDBRANCH  16  20
BRANCH   1  29
HETATM   29  C   UNL     1     -22.168 -12.941  -1.383  1.00  0.00    -0.014 C 
HETATM   30  C   UNL     1     -23.024 -13.378  -2.834  1.00  0.00     0.010 C 
BRANCH  29  31
HETATM   31  C   UNL     1     -21.109 -11.171  -0.758  1.00  0.00     0.005 C 
BRANCH  31  32
HETATM   32  C   UNL     1     -20.861 -10.427   0.963  1.00  0.00     0.001 C 
BRANCH  32  33
HETATM   33  C   UNL     1     -21.058  -8.851   1.270  1.00  0.00     0.004 C 
BRANCH  33  34
HETATM   34  C   UNL     1     -21.971  -7.846   0.471  1.00  0.00    -0.023 C 
HETATM   35  C   UNL     1     -21.588  -7.521  -0.972  1.00  0.00     0.009 C 
HETATM   36  C   UNL     1     -23.477  -8.084   0.568  1.00  0.00     0.009 C 
ENDBRANCH  33  34
ENDBRANCH  32  33
ENDBRANCH  31  32
ENDBRANCH  29  31
ENDBRANCH   1  29
TORSDOF 11
BEGIN_RES ARG D 557
REMARK  4 active torsions:
REMARK  status: ('A' for Active; 'I' for Inactive)
REMARK    1  A    between atoms: CA   and  CB  
REMARK    2  A    between atoms: CB   and  CG  
REMARK    3  A    between atoms: CG   and  CD  
REMARK    4  A    between atoms: CD   and  NE  
REMARK       I    between atoms: NE   and  CZ  
REMARK       I    between atoms: CZ   and  NH1 
REMARK       I    between atoms: CZ   and  NH2 
ROOT
ATOM      1  CA  ARG D 557     -26.217   2.705 -17.014  1.00 35.49     0.159 C 
ENDROOT
BRANCH   1   2
ATOM      2  CB  ARG D 557     -26.789   1.319 -17.183  1.00 35.49     0.034 C 
BRANCH   2   3
ATOM      3  CG  ARG D 557     -28.228   1.227 -17.457  1.00 35.49     0.027 C 
BRANCH   3   4
ATOM      4  CD  ARG D 557     -28.923   0.309 -16.525  1.00 35.49     0.116 C 
BRANCH   4   5
ATOM      5  NE  ARG D 557     -28.150  -0.874 -16.253  1.00 35.49    -0.212 N 
ATOM      6  CZ  ARG D 557     -28.389  -2.074 -16.731  1.00 35.49     0.666 C 
ATOM      7  NH1 ARG D 557     -29.410  -2.329 -17.529  1.00 35.49    -0.235 N 
ATOM      8  NH2 ARG D 557     -27.570  -3.029 -16.395  1.00 35.49    -0.235 N 
ATOM      9  HH  ARG D 557     -29.960  -1.716 -17.764  1.00 35.49     0.174 HD
ATOM     10  HH  ARG D 557     -29.514  -3.131 -17.812  1.00 35.49     0.174 HD
ATOM     11  HH  ARG D 557     -26.916  -2.833 -15.885  1.00 35.49     0.174 HD
ATOM     12  HH  ARG D 557     -27.690  -3.816 -16.687  1.00 35.49     0.174 HD
ATOM     13  HE  ARG D 557     -27.515  -0.816 -15.690  1.00 35.49     0.178 HD
ENDBRANCH   4   5
ENDBRANCH   3   4
ENDBRANCH   2   3
ENDBRANCH   1   2
END_RES ARG D 557
BEGIN_RES GLU D 570
REMARK  3 active torsions:
REMARK  status: ('A' for Active; 'I' for Inactive)
REMARK    5  A    between atoms: CA   and  CB  
REMARK    6  A    between atoms: CB   and  CG  
REMARK    7  A    between atoms: CG   and  CD  
ROOT
ATOM     14  CA  GLU D 570     -18.033  -6.348 -13.375  1.00 32.92     0.160 C 
ENDROOT
BRANCH  14  15
ATOM     15  CB  GLU D 570     -19.500  -6.345 -13.794  1.00 32.92     0.043 C 
BRANCH  15  16
ATOM     16  CG  GLU D 570     -20.451  -5.577 -12.950  1.00 32.92     0.100 C 
BRANCH  16  17
ATOM     17  CD  GLU D 570     -21.699  -5.164 -13.695  1.00 32.92     0.185 C 
ATOM     18  OE1 GLU D 570     -21.662  -5.078 -14.937  1.00 32.92    -0.647 OA
ATOM     19  OE2 GLU D 570     -22.721  -4.907 -13.027  1.00 32.92    -0.647 OA
ENDBRANCH  16  17
ENDBRANCH  15  16
ENDBRANCH  14  15
END_RES GLU D 570
ENDMDL
MODEL 4
REMARK VINA RESULT:      -8.6      1.745      4.062
REMARK  11 active torsions:
REMARK  status: ('A' for Active; 'I' for Inactive)
REMARK    1  A    between atoms: C_2  and  C_4 
REMARK    2  A    between atoms: C_4  and  C_5 
REMARK    3  A    between atoms: C_5  and  C_6 
REMARK    4  A    between atoms: C_6  and  C_7 
REMARK    5  A    between atoms: C_7  and  C_9 
REMARK    6  A    between atoms: C_24  and  O_26 
REMARK    7  A    between atoms: O_26  and  C_27 
REMARK    8  A    between atoms: C_27  and  C_29 
REMARK    9  A    between atoms: C_29  and  C_30 
REMARK   10  A    between atoms: C_30  and  C_31 
REMARK   11  A    between atoms: C_31  and  O_33 
ROOT
HETATM    1  C   UNL     1     -20.094 -14.150  -1.549  1.00  0.00    -0.002 C 
HETATM    2  C   UNL     1     -21.244 -15.409  -1.307  1.00  0.00     0.006 C 
HETATM    3  C   UNL     1     -21.725 -15.209   0.180  1.00  0.00     0.006 C 
HETATM    4  C   UNL     1     -21.120 -13.844   0.501  1.00  0.00    -0.001 C 
HETATM    5  C   UNL     1     -19.678 -14.012   0.011  1.00  0.00    -0.036 C 
HETATM    6  C   UNL     1     -18.906 -12.845   0.633  1.00  0.00     0.010 C 
HETATM    7  C   UNL     1     -18.625 -11.956  -0.494  1.00  0.00     0.007 C 
HETATM    8  C   UNL     1     -20.026 -11.523  -0.921  1.00  0.00     0.003 C 
HETATM    9  C   UNL     1     -21.639 -12.709  -0.515  1.00  0.00    -0.001 C 
HETATM   10  C   UNL     1     -23.080 -12.642  -1.920  1.00  0.00     0.033 C 
HETATM   11  C   UNL     1     -22.671 -11.627  -3.493  1.00  0.00    -0.023 C 
HETATM   12  C   UNL     1     -21.494 -10.733  -3.686  1.00  0.00    -0.072 C 
HETATM   13  C   UNL     1     -19.930 -10.585  -2.620  1.00  0.00    -0.017 C 
HETATM   14  C   UNL     1     -19.709  -9.018  -2.521  1.00  0.00     0.016 C 
HETATM   15  C   UNL     1     -19.658  -8.418  -3.948  1.00  0.00     0.034 C 
HETATM   16  C   UNL     1     -21.080  -8.298  -4.457  1.00  0.00     0.136 C 
HETATM   17  C   UNL     1     -21.756  -9.646  -4.708  1.00  0.00     0.067 C 
HETATM   18  C   UNL     1     -18.406 -10.904  -3.171  1.00  0.00     0.020 C 
HETATM   19  C   UNL     1     -18.838 -15.249   0.369  1.00  0.00     0.016 C 
ENDROOT
BRANCH  16  20
HETATM   20  O   UNL     1     -21.167  -7.413  -5.586  1.00  0.00    -0.316 OA
BRANCH  20  21
HETATM   21  C   UNL     1     -21.740  -6.197  -5.431  1.00  0.00     0.259 C 
HETATM   22  O   UNL     1     -22.918  -5.965  -5.202  1.00  0.00    -0.265 OA
BRANCH  21  23
HETATM   23  C   UNL     1     -20.691  -5.142  -5.570  1.00  0.00     0.121 C 
BRANCH  23  24
HETATM   24  C   UNL     1     -20.253  -5.072  -7.021  1.00  0.00     0.119 C 
BRANCH  24  25
HETATM   25  C   UNL     1     -21.294  -4.384  -7.855  1.00  0.00     0.139 C 
HETATM   26  O   UNL     1     -21.697  -4.774  -8.939  1.00  0.00    -0.650 OA
BRANCH  25  27
HETATM   27  O   UNL     1     -21.750  -3.254  -7.269  1.00  0.00    -0.776 OA
HETATM   28  H   UNL     1     -22.659  -3.018  -7.535  1.00  0.00     0.167 HD
ENDBRANCH  25  27
ENDBRANCH  24  25
ENDBRANCH  23  24
ENDBRANCH  21  23
ENDBRANCH  20  21
ENDBRANCH  16  20
BRANCH   1  29
HETATM   29  C   UNL     1     -20.897 -12.659  -2.434  1.00  0.00    -0.014 C 
HETATM   30  C   UNL     1     -20.496 -13.053  -4.081  1.00  0.00     0.010 C 
BRANCH  29  31
HETATM   31  C   UNL     1     -21.653 -10.884  -1.472  1.00  0.00     0.005 C 
BRANCH  31  32
HETATM   32  C   UNL     1     -23.260 -10.590  -0.518  1.00  0.00     0.001 C 
BRANCH  32  33
HETATM   33  C   UNL     1     -23.570  -9.208   0.264  1.00  0.00     0.004 C 
BRANCH  33  34
HETATM   34  C   UNL     1     -22.563  -8.022   0.510  1.00  0.00    -0.023 C 
HETATM   35  C   UNL     1     -21.241  -8.336   1.208  1.00  0.00     0.009 C 
HETATM   36  C   UNL     1     -22.315  -7.094  -0.679  1.00  0.00     0.009 C 
ENDBRANCH  33  34
ENDBRANCH  32  33
ENDBRANCH  31  32
ENDBRANCH  29  31
ENDBRANCH   1  29
TORSDOF 11
BEGIN_RES ARG D 557
REMARK  4 active torsions:
REMARK  status: ('A' for Active; 'I' for Inactive)
REMARK    1  A    between atoms: CA   and  CB  
REMARK    2  A    between atoms: CB   and  CG  
REMARK    3  A    between atoms: CG   and  CD  
REMARK    4  A    between atoms: CD   and  NE  
REMARK       I    between atoms: NE   and  CZ  
REMARK       I    between atoms: CZ   and  NH1 
REMARK       I    between atoms: CZ   and  NH2 
ROOT
ATOM      1  CA  ARG D 557     -26.217   2.705 -17.014  1.00 35.49     0.159 C 
ENDROOT
BRANCH   1   2
ATOM      2  CB  ARG D 557     -26.789   1.319 -17.183  1.00 35.49     0.034 C 
BRANCH   2   3
ATOM      3  CG  ARG D 557     -26.534   0.362 -16.099  1.00 35.49     0.027 C 
BRANCH   3   4
ATOM      4  CD  ARG D 557     -25.095   0.043 -15.955  1.00 35.49     0.116 C 
BRANCH   4   5
ATOM      5  NE  ARG D 557     -24.815  -0.657 -14.730  1.00 35.49    -0.212 N 
ATOM      6  CZ  ARG D 557     -23.835  -1.513 -14.541  1.00 35.49     0.666 C 
ATOM      7  NH1 ARG D 557     -22.985  -1.840 -15.497  1.00 35.49    -0.235 N 
ATOM      8  NH2 ARG D 557     -23.717  -2.039 -13.357  1.00 35.49    -0.235 N 
ATOM      9  HH  ARG D 557     -23.042  -1.504 -16.283  1.00 35.49     0.174 HD
ATOM     10  HH  ARG D 557     -22.364  -2.401 -15.315  1.00 35.49     0.174 HD
ATOM     11  HH  ARG D 557     -24.276  -1.804 -12.757  1.00 35.49     0.174 HD
ATOM     12  HH  ARG D 557     -23.095  -2.592 -13.196  1.00 35.49     0.174 HD
ATOM     13  HE  ARG D 557     -25.357  -0.562 -14.082  1.00 35.49     0.178 HD
ENDBRANCH   4   5
ENDBRANCH   3   4
ENDBRANCH   2   3
ENDBRANCH   1   2
END_RES ARG D 557
BEGIN_RES GLU D 570
REMARK  3 active torsions:
REMARK  status: ('A' for Active; 'I' for Inactive)
REMARK    5  A    between atoms: CA   and  CB  
REMARK    6  A    between atoms: CB   and  CG  
REMARK    7  A    between atoms: CG   and  CD  
ROOT
ATOM     14  CA  GLU D 570     -18.033  -6.348 -13.375  1.00 32.92     0.160 C 
ENDROOT
BRANCH  14  15
ATOM     15  CB  GLU D 570     -19.500  -6.345 -13.794  1.00 32.92     0.043 C 
BRANCH  15  16
ATOM     16  CG  GLU D 570     -20.449  -5.566 -12.957  1.00 32.92     0.100 C 
BRANCH  16  17
ATOM     17  CD  GLU D 570     -21.668  -5.105 -13.723  1.00 32.92     0.185 C 
ATOM     18  OE1 GLU D 570     -21.547  -4.795 -14.923  1.00 32.92    -0.647 OA
ATOM     19  OE2 GLU D 570     -22.752  -5.038 -13.110  1.00 32.92    -0.647 OA
ENDBRANCH  16  17
ENDBRANCH  15  16
ENDBRANCH  14  15
END_RES GLU D 570
ENDMDL
MODEL 5
REMARK VINA RESULT:      -8.6      3.099      5.696
REMARK  11 active torsions:
REMARK  status: ('A' for Active; 'I' for Inactive)
REMARK    1  A    between atoms: C_2  and  C_4 
REMARK    2  A    between atoms: C_4  and  C_5 
REMARK    3  A    between atoms: C_5  and  C_6 
REMARK    4  A    between atoms: C_6  and  C_7 
REMARK    5  A    between atoms: C_7  and  C_9 
REMARK    6  A    between atoms: C_24  and  O_26 
REMARK    7  A    between atoms: O_26  and  C_27 
REMARK    8  A    between atoms: C_27  and  C_29 
REMARK    9  A    between atoms: C_29  and  C_30 
REMARK   10  A    between atoms: C_30  and  C_31 
REMARK   11  A    between atoms: C_31  and  O_33 
ROOT
HETATM    1  C   UNL     1     -20.643 -10.387  -0.299  1.00  0.00    -0.002 C 
HETATM    2  C   UNL     1     -21.946 -11.262   0.410  1.00  0.00     0.006 C 
HETATM    3  C   UNL     1     -23.228 -10.444  -0.006  1.00  0.00     0.006 C 
HETATM    4  C   UNL     1     -22.640  -9.487  -1.041  1.00  0.00    -0.001 C 
HETATM    5  C   UNL     1     -21.401  -8.955  -0.313  1.00  0.00    -0.036 C 
HETATM    6  C   UNL     1     -20.970  -7.721  -1.110  1.00  0.00     0.010 C 
HETATM    7  C   UNL     1     -19.742  -8.138  -1.787  1.00  0.00     0.007 C 
HETATM    8  C   UNL     1     -20.243  -9.243  -2.714  1.00  0.00     0.003 C 
HETATM    9  C   UNL     1     -21.943 -10.279  -2.255  1.00  0.00    -0.001 C 
HETATM   10  C   UNL     1     -21.907 -12.209  -2.831  1.00  0.00     0.033 C 
HETATM   11  C   UNL     1     -20.250 -12.836  -3.560  1.00  0.00    -0.023 C 
HETATM   12  C   UNL     1     -19.071 -11.999  -3.924  1.00  0.00    -0.072 C 
HETATM   13  C   UNL     1     -18.728 -10.183  -3.489  1.00  0.00    -0.017 C 
HETATM   14  C   UNL     1     -18.181  -9.584  -4.851  1.00  0.00     0.016 C 
HETATM   15  C   UNL     1     -16.985 -10.437  -5.340  1.00  0.00     0.034 C 
HETATM   16  C   UNL     1     -17.538 -11.693  -5.984  1.00  0.00     0.136 C 
HETATM   17  C   UNL     1     -18.215 -12.641  -4.994  1.00  0.00     0.067 C 
HETATM   18  C   UNL     1     -17.438  -9.678  -2.589  1.00  0.00     0.020 C 
HETATM   19  C   UNL     1     -21.463  -8.458   1.140  1.00  0.00     0.016 C 
ENDROOT
BRANCH  16  20
HETATM   20  O   UNL     1     -16.553 -12.349  -6.798  1.00  0.00    -0.316 OA
BRANCH  20  21
HETATM   21  C   UNL     1     -16.897 -13.464  -7.485  1.00  0.00     0.259 C 
HETATM   22  O   UNL     1     -16.551 -14.611  -7.240  1.00  0.00    -0.265 OA
BRANCH  21  23
HETATM   23  C   UNL     1     -17.800 -13.084  -8.613  1.00  0.00     0.121 C 
BRANCH  23  24
HETATM   24  C   UNL     1     -18.840 -14.174  -8.799  1.00  0.00     0.119 C 
BRANCH  24  25
HETATM   25  C   UNL     1     -19.910 -14.068  -7.752  1.00  0.00     0.139 C 
HETATM   26  O   UNL     1     -20.211 -14.949  -6.963  1.00  0.00    -0.650 OA
BRANCH  25  27
HETATM   27  O   UNL     1     -20.527 -12.865  -7.775  1.00  0.00    -0.776 OA
HETATM   28  H   UNL     1     -21.373 -12.873  -8.262  1.00  0.00     0.167 HD
ENDBRANCH  25  27
ENDBRANCH  24  25
ENDBRANCH  23  24
ENDBRANCH  21  23
ENDBRANCH  20  21
ENDBRANCH  16  20
BRANCH   1  29
HETATM   29  C   UNL     1     -20.116 -11.179  -1.956  1.00  0.00    -0.014 C 
HETATM   30  C   UNL     1     -18.720 -12.067  -1.418  1.00  0.00     0.010 C 
BRANCH  29  31
HETATM   31  C   UNL     1     -20.890 -10.659  -3.899  1.00  0.00     0.005 C 
BRANCH  31  32
HETATM   32  C   UNL     1     -21.856  -9.138  -4.474  1.00  0.00     0.001 C 
BRANCH  32  33
HETATM   33  C   UNL     1     -21.324  -8.157  -5.645  1.00  0.00     0.004 C 
BRANCH  33  34
HETATM   34  C   UNL     1     -20.560  -6.793  -5.451  1.00  0.00    -0.023 C 
HETATM   35  C   UNL     1     -20.179  -6.000  -6.700  1.00  0.00     0.009 C 
HETATM   36  C   UNL     1     -21.126  -5.850  -4.390  1.00  0.00     0.009 C 
ENDBRANCH  33  34
ENDBRANCH  32  33
ENDBRANCH  31  32
ENDBRANCH  29  31
ENDBRANCH   1  29
TORSDOF 11
BEGIN_RES ARG D 557
REMARK  4 active torsions:
REMARK  status: ('A' for Active; 'I' for Inactive)
REMARK    1  A    between atoms: CA   and  CB  
REMARK    2  A    between atoms: CB   and  CG  
REMARK    3  A    between atoms: CG   and  CD  
REMARK    4  A    between atoms: CD   and  NE  
REMARK       I    between atoms: NE   and  CZ  
REMARK       I    between atoms: CZ   and  NH1 
REMARK       I    between atoms: CZ   and  NH2 
ROOT
ATOM      1  CA  ARG D 557     -26.217   2.705 -17.014  1.00 35.49     0.159 C 
ENDROOT
BRANCH   1   2
ATOM      2  CB  ARG D 557     -26.789   1.319 -17.183  1.00 35.49     0.034 C 
BRANCH   2   3
ATOM      3  CG  ARG D 557     -25.840   0.201 -17.126  1.00 35.49     0.027 C 
BRANCH   3   4
ATOM      4  CD  ARG D 557     -24.762   0.426 -16.136  1.00 35.49     0.116 C 
BRANCH   4   5
ATOM      5  NE  ARG D 557     -24.874  -0.453 -15.002  1.00 35.49    -0.212 N 
ATOM      6  CZ  ARG D 557     -24.036  -1.417 -14.691  1.00 35.49     0.666 C 
ATOM      7  NH1 ARG D 557     -22.973  -1.696 -15.423  1.00 35.49    -0.235 N 
ATOM      8  NH2 ARG D 557     -24.283  -2.102 -13.613  1.00 35.49    -0.235 N 
ATOM      9  HH  ARG D 557     -22.790  -1.256 -16.135  1.00 35.49     0.174 HD
ATOM     10  HH  ARG D 557     -22.461  -2.334 -15.169  1.00 35.49     0.174 HD
ATOM     11  HH  ARG D 557     -24.973  -1.895 -13.156  1.00 35.49     0.174 HD
ATOM     12  HH  ARG D 557     -23.763  -2.729 -13.378  1.00 35.49     0.174 HD
ATOM     13  HE  ARG D 557     -25.569  -0.391 -14.516  1.00 35.49     0.178 HD
ENDBRANCH   4   5
ENDBRANCH   3   4
ENDBRANCH   2   3
ENDBRANCH   1   2
END_RES ARG D 557
BEGIN_RES GLU D 570
REMARK  3 active torsions:
REMARK  status: ('A' for Active; 'I' for Inactive)
REMARK    5  A    between atoms: CA   and  CB  
REMARK    6  A    between atoms: CB   and  CG  
REMARK    7  A    between atoms: CG   and  CD  
ROOT
ATOM     14  CA  GLU D 570     -18.033  -6.348 -13.375  1.00 32.92     0.160 C 
ENDROOT
BRANCH  14  15
ATOM     15  CB  GLU D 570     -19.500  -6.345 -13.794  1.00 32.92     0.043 C 
BRANCH  15  16
ATOM     16  CG  GLU D 570     -20.448  -5.562 -12.960  1.00 32.92     0.100 C 
BRANCH  16  17
ATOM     17  CD  GLU D 570     -21.638  -5.054 -13.741  1.00 32.92     0.185 C 
ATOM     18  OE1 GLU D 570     -21.586  -5.044 -14.986  1.00 32.92    -0.647 OA
ATOM     19  OE2 GLU D 570     -22.626  -4.645 -13.100  1.00 32.92    -0.647 OA
ENDBRANCH  16  17
ENDBRANCH  15  16
ENDBRANCH  14  15
END_RES GLU D 570
ENDMDL
MODEL 6
REMARK VINA RESULT:      -8.6      3.605      6.064
REMARK  11 active torsions:
REMARK  status: ('A' for Active; 'I' for Inactive)
REMARK    1  A    between atoms: C_2  and  C_4 
REMARK    2  A    between atoms: C_4  and  C_5 
REMARK    3  A    between atoms: C_5  and  C_6 
REMARK    4  A    between atoms: C_6  and  C_7 
REMARK    5  A    between atoms: C_7  and  C_9 
REMARK    6  A    between atoms: C_24  and  O_26 
REMARK    7  A    between atoms: O_26  and  C_27 
REMARK    8  A    between atoms: C_27  and  C_29 
REMARK    9  A    between atoms: C_29  and  C_30 
REMARK   10  A    between atoms: C_30  and  C_31 
REMARK   11  A    between atoms: C_31  and  O_33 
ROOT
HETATM    1  C   UNL     1     -20.549 -10.418  -0.452  1.00  0.00    -0.002 C 
HETATM    2  C   UNL     1     -21.647 -11.473   0.351  1.00  0.00     0.006 C 
HETATM    3  C   UNL     1     -23.068 -10.966  -0.103  1.00  0.00     0.006 C 
HETATM    4  C   UNL     1     -22.688 -10.000  -1.224  1.00  0.00    -0.001 C 
HETATM    5  C   UNL     1     -21.578  -9.173  -0.567  1.00  0.00    -0.036 C 
HETATM    6  C   UNL     1     -21.406  -7.948  -1.470  1.00  0.00     0.010 C 
HETATM    7  C   UNL     1     -20.122  -8.166  -2.135  1.00  0.00     0.007 C 
HETATM    8  C   UNL     1     -20.394  -9.422  -2.959  1.00  0.00     0.003 C 
HETATM    9  C   UNL     1     -21.851 -10.735  -2.384  1.00  0.00    -0.001 C 
HETATM   10  C   UNL     1     -21.430 -12.660  -2.803  1.00  0.00     0.033 C 
HETATM   11  C   UNL     1     -19.684 -13.002  -3.512  1.00  0.00    -0.023 C 
HETATM   12  C   UNL     1     -18.699 -11.980  -3.966  1.00  0.00    -0.072 C 
HETATM   13  C   UNL     1     -18.725 -10.102  -3.686  1.00  0.00    -0.017 C 
HETATM   14  C   UNL     1     -18.314  -9.522  -5.103  1.00  0.00     0.016 C 
HETATM   15  C   UNL     1     -16.972 -10.157  -5.545  1.00  0.00     0.034 C 
HETATM   16  C   UNL     1     -17.264 -11.546  -6.074  1.00  0.00     0.136 C 
HETATM   17  C   UNL     1     -17.735 -12.525  -4.998  1.00  0.00     0.067 C 
HETATM   18  C   UNL     1     -17.558  -9.277  -2.856  1.00  0.00     0.020 C 
HETATM   19  C   UNL     1     -21.734  -8.579   0.842  1.00  0.00     0.016 C 
ENDROOT
BRANCH  16  20
HETATM   20  O   UNL     1     -16.171 -12.059  -6.853  1.00  0.00    -0.316 OA
BRANCH  20  21
HETATM   21  C   UNL     1     -15.276 -12.892  -6.271  1.00  0.00     0.259 C 
HETATM   22  O   UNL     1     -15.325 -14.113  -6.239  1.00  0.00    -0.265 OA
BRANCH  21  23
HETATM   23  C   UNL     1     -14.177 -12.082  -5.664  1.00  0.00     0.121 C 
BRANCH  23  24
HETATM   24  C   UNL     1     -13.629 -12.822  -4.458  1.00  0.00     0.119 C 
BRANCH  24  25
HETATM   25  C   UNL     1     -14.494 -12.586  -3.254  1.00  0.00     0.139 C 
HETATM   26  O   UNL     1     -15.000 -11.518  -2.951  1.00  0.00    -0.650 OA
BRANCH  25  27
HETATM   27  O   UNL     1     -14.654 -13.708  -2.516  1.00  0.00    -0.776 OA
HETATM   28  H   UNL     1     -14.764 -14.514  -3.054  1.00  0.00     0.167 HD
ENDBRANCH  25  27
ENDBRANCH  24  25
ENDBRANCH  23  24
ENDBRANCH  21  23
ENDBRANCH  20  21
ENDBRANCH  16  20
BRANCH   1  29
HETATM   29  C   UNL     1     -19.880 -11.225  -2.050  1.00  0.00    -0.014 C 
HETATM   30  C   UNL     1     -18.474 -12.020  -1.403  1.00  0.00     0.010 C 
BRANCH  29  31
HETATM   31  C   UNL     1     -20.559 -10.800  -4.051  1.00  0.00     0.005 C 
BRANCH  31  32
HETATM   32  C   UNL     1     -21.755 -11.743  -5.173  1.00  0.00     0.001 C 
BRANCH  32  33
HETATM   33  C   UNL     1     -21.487 -11.955  -6.754  1.00  0.00     0.004 C 
BRANCH  33  34
HETATM   34  C   UNL     1     -20.974 -13.271  -7.451  1.00  0.00    -0.023 C 
HETATM   35  C   UNL     1     -19.676 -13.199  -8.254  1.00  0.00     0.009 C 
HETATM   36  C   UNL     1     -20.982 -14.534  -6.590  1.00  0.00     0.009 C 
ENDBRANCH  33  34
ENDBRANCH  32  33
ENDBRANCH  31  32
ENDBRANCH  29  31
ENDBRANCH   1  29
TORSDOF 11
BEGIN_RES ARG D 557
REMARK  4 active torsions:
REMARK  status: ('A' for Active; 'I' for Inactive)
REMARK    1  A    between atoms: CA   and  CB  
REMARK    2  A    between atoms: CB   and  CG  
REMARK    3  A    between atoms: CG   and  CD  
REMARK    4  A    between atoms: CD   and  NE  
REMARK       I    between atoms: NE   and  CZ  
REMARK       I    between atoms: CZ   and  NH1 
REMARK       I    between atoms: CZ   and  NH2 
ROOT
ATOM      1  CA  ARG D 557     -26.217   2.705 -17.014  1.00 35.49     0.159 C 
ENDROOT
BRANCH   1   2
ATOM      2  CB  ARG D 557     -26.789   1.319 -17.183  1.00 35.49     0.034 C 
BRANCH   2   3
ATOM      3  CG  ARG D 557     -28.232   1.226 -17.434  1.00 35.49     0.027 C 
BRANCH   3   4
ATOM      4  CD  ARG D 557     -28.909   0.300 -16.498  1.00 35.49     0.116 C 
BRANCH   4   5
ATOM      5  NE  ARG D 557     -29.304  -0.927 -17.139  1.00 35.49    -0.212 N 
ATOM      6  CZ  ARG D 557     -28.682  -2.080 -17.040  1.00 35.49     0.666 C 
ATOM      7  NH1 ARG D 557     -27.582  -2.233 -16.327  1.00 35.49    -0.235 N 
ATOM      8  NH2 ARG D 557     -29.194  -3.095 -17.674  1.00 35.49    -0.235 N 
ATOM      9  HH  ARG D 557     -27.228  -1.580 -15.900  1.00 35.49     0.174 HD
ATOM     10  HH  ARG D 557     -27.221  -3.010 -16.297  1.00 35.49     0.174 HD
ATOM     11  HH  ARG D 557     -29.910  -2.968 -18.120  1.00 35.49     0.174 HD
ATOM     12  HH  ARG D 557     -28.823  -3.856 -17.631  1.00 35.49     0.174 HD
ATOM     13  HE  ARG D 557     -29.963  -0.902 -17.677  1.00 35.49     0.178 HD
ENDBRANCH   4   5
ENDBRANCH   3   4
ENDBRANCH   2   3
ENDBRANCH   1   2
END_RES ARG D 557
BEGIN_RES GLU D 570
REMARK  3 active torsions:
REMARK  status: ('A' for Active; 'I' for Inactive)
REMARK    5  A    between atoms: CA   and  CB  
REMARK    6  A    between atoms: CB   and  CG  
REMARK    7  A    between atoms: CG   and  CD  
ROOT
ATOM     14  CA  GLU D 570     -18.033  -6.348 -13.375  1.00 32.92     0.160 C 
ENDROOT
BRANCH  14  15
ATOM     15  CB  GLU D 570     -19.500  -6.345 -13.794  1.00 32.92     0.043 C 
BRANCH  15  16
ATOM     16  CG  GLU D 570     -20.449  -5.564 -12.959  1.00 32.92     0.100 C 
BRANCH  16  17
ATOM     17  CD  GLU D 570     -21.698  -5.160 -13.707  1.00 32.92     0.185 C 
ATOM     18  OE1 GLU D 570     -22.755  -4.986 -13.071  1.00 32.92    -0.647 OA
ATOM     19  OE2 GLU D 570     -21.621  -5.031 -14.945  1.00 32.92    -0.647 OA
ENDBRANCH  16  17
ENDBRANCH  15  16
ENDBRANCH  14  15
END_RES GLU D 570
ENDMDL
MODEL 7
REMARK VINA RESULT:      -8.6      1.879      4.476
REMARK  11 active torsions:
REMARK  status: ('A' for Active; 'I' for Inactive)
REMARK    1  A    between atoms: C_2  and  C_4 
REMARK    2  A    between atoms: C_4  and  C_5 
REMARK    3  A    between atoms: C_5  and  C_6 
REMARK    4  A    between atoms: C_6  and  C_7 
REMARK    5  A    between atoms: C_7  and  C_9 
REMARK    6  A    between atoms: C_24  and  O_26 
REMARK    7  A    between atoms: O_26  and  C_27 
REMARK    8  A    between atoms: C_27  and  C_29 
REMARK    9  A    between atoms: C_29  and  C_30 
REMARK   10  A    between atoms: C_30  and  C_31 
REMARK   11  A    between atoms: C_31  and  O_33 
ROOT
HETATM    1  C   UNL     1     -17.383 -13.948  -1.604  1.00  0.00    -0.002 C 
HETATM    2  C   UNL     1     -18.007 -15.331  -0.790  1.00  0.00     0.006 C 
HETATM    3  C   UNL     1     -17.867 -14.972   0.738  1.00  0.00     0.006 C 
HETATM    4  C   UNL     1     -17.518 -13.487   0.658  1.00  0.00    -0.001 C 
HETATM    5  C   UNL     1     -16.408 -13.478  -0.398  1.00  0.00    -0.036 C 
HETATM    6  C   UNL     1     -15.743 -12.106  -0.266  1.00  0.00     0.010 C 
HETATM    7  C   UNL     1     -16.163 -11.383  -1.466  1.00  0.00     0.007 C 
HETATM    8  C   UNL     1     -17.674 -11.282  -1.270  1.00  0.00     0.003 C 
HETATM    9  C   UNL     1     -18.655 -12.649  -0.112  1.00  0.00    -0.001 C 
HETATM   10  C   UNL     1     -20.519 -13.075  -0.747  1.00  0.00     0.033 C 
HETATM   11  C   UNL     1     -21.038 -12.282  -2.413  1.00  0.00    -0.023 C 
HETATM   12  C   UNL     1     -20.287 -11.240  -3.168  1.00  0.00    -0.072 C 
HETATM   13  C   UNL     1     -18.504 -10.641  -2.907  1.00  0.00    -0.017 C 
HETATM   14  C   UNL     1     -18.632  -9.066  -3.033  1.00  0.00     0.016 C 
HETATM   15  C   UNL     1     -19.311  -8.715  -4.380  1.00  0.00     0.034 C 
HETATM   16  C   UNL     1     -20.802  -8.936  -4.224  1.00  0.00     0.136 C 
HETATM   17  C   UNL     1     -21.188 -10.405  -4.052  1.00  0.00     0.067 C 
HETATM   18  C   UNL     1     -17.311 -10.774  -4.042  1.00  0.00     0.020 C 
HETATM   19  C   UNL     1     -15.234 -14.469  -0.351  1.00  0.00     0.016 C 
ENDROOT
BRANCH  16  20
HETATM   20  O   UNL     1     -21.546  -8.283  -5.265  1.00  0.00    -0.316 OA
BRANCH  20  21
HETATM   21  C   UNL     1     -21.740  -6.945  -5.201  1.00  0.00     0.259 C 
HETATM   22  O   UNL     1     -22.342  -6.332  -4.332  1.00  0.00    -0.265 OA
BRANCH  21  23
HETATM   23  C   UNL     1     -21.080  -6.299  -6.376  1.00  0.00     0.121 C 
BRANCH  23  24
HETATM   24  C   UNL     1     -20.697  -4.878  -6.005  1.00  0.00     0.119 C 
BRANCH  24  25
HETATM   25  C   UNL     1     -20.734  -3.988  -7.214  1.00  0.00     0.139 C 
HETATM   26  O   UNL     1     -19.838  -3.881  -8.036  1.00  0.00    -0.650 OA
BRANCH  25  27
HETATM   27  O   UNL     1     -21.890  -3.293  -7.299  1.00  0.00    -0.776 OA
HETATM   28  H   UNL     1     -21.759  -2.339  -7.454  1.00  0.00     0.167 HD
ENDBRANCH  25  27
ENDBRANCH  24  25
ENDBRANCH  23  24
ENDBRANCH  21  23
ENDBRANCH  20  21
ENDBRANCH  16  20
BRANCH   1  29
HETATM   29  C   UNL     1     -18.800 -12.792  -2.160  1.00  0.00    -0.014 C 
HETATM   30  C   UNL     1     -19.075 -13.424  -3.758  1.00  0.00     0.010 C 
BRANCH  29  31
HETATM   31  C   UNL     1     -19.439 -11.005  -1.137  1.00  0.00     0.005 C 
BRANCH  31  32
HETATM   32  C   UNL     1     -20.403 -10.787   0.475  1.00  0.00     0.001 C 
BRANCH  32  33
HETATM   33  C   UNL     1     -21.163  -9.411   0.859  1.00  0.00     0.004 C 
BRANCH  33  34
HETATM   34  C   UNL     1     -22.165  -8.607  -0.051  1.00  0.00    -0.023 C 
HETATM   35  C   UNL     1     -23.384  -7.970   0.613  1.00  0.00     0.009 C 
HETATM   36  C   UNL     1     -21.537  -7.623  -1.037  1.00  0.00     0.009 C 
ENDBRANCH  33  34
ENDBRANCH  32  33
ENDBRANCH  31  32
ENDBRANCH  29  31
ENDBRANCH   1  29
TORSDOF 11
BEGIN_RES ARG D 557
REMARK  4 active torsions:
REMARK  status: ('A' for Active; 'I' for Inactive)
REMARK    1  A    between atoms: CA   and  CB  
REMARK    2  A    between atoms: CB   and  CG  
REMARK    3  A    between atoms: CG   and  CD  
REMARK    4  A    between atoms: CD   and  NE  
REMARK       I    between atoms: NE   and  CZ  
REMARK       I    between atoms: CZ   and  NH1 
REMARK       I    between atoms: CZ   and  NH2 
ROOT
ATOM      1  CA  ARG D 557     -26.217   2.705 -17.014  1.00 35.49     0.159 C 
ENDROOT
BRANCH   1   2
ATOM      2  CB  ARG D 557     -26.789   1.319 -17.183  1.00 35.49     0.034 C 
BRANCH   2   3
ATOM      3  CG  ARG D 557     -25.916   0.195 -16.823  1.00 35.49     0.027 C 
BRANCH   3   4
ATOM      4  CD  ARG D 557     -26.647  -0.888 -16.127  1.00 35.49     0.116 C 
BRANCH   4   5
ATOM      5  NE  ARG D 557     -25.855  -1.500 -15.093  1.00 35.49    -0.212 N 
ATOM      6  CZ  ARG D 557     -25.875  -2.771 -14.761  1.00 35.49     0.666 C 
ATOM      7  NH1 ARG D 557     -26.664  -3.647 -15.356  1.00 35.49    -0.235 N 
ATOM      8  NH2 ARG D 557     -25.073  -3.157 -13.812  1.00 35.49    -0.235 N 
ATOM      9  HH  ARG D 557     -27.199  -3.416 -15.985  1.00 35.49     0.174 HD
ATOM     10  HH  ARG D 557     -26.632  -4.464 -15.100  1.00 35.49     0.174 HD
ATOM     11  HH  ARG D 557     -24.569  -2.571 -13.451  1.00 35.49     0.174 HD
ATOM     12  HH  ARG D 557     -25.054  -3.970 -13.573  1.00 35.49     0.174 HD
ATOM     13  HE  ARG D 557     -25.371  -0.995 -14.609  1.00 35.49     0.178 HD
ENDBRANCH   4   5
ENDBRANCH   3   4
ENDBRANCH   2   3
ENDBRANCH   1   2
END_RES ARG D 557
BEGIN_RES GLU D 570
REMARK  3 active torsions:
REMARK  status: ('A' for Active; 'I' for Inactive)
REMARK    5  A    between atoms: CA   and  CB  
REMARK    6  A    between atoms: CB   and  CG  
REMARK    7  A    between atoms: CG   and  CD  
ROOT
ATOM     14  CA  GLU D 570     -18.033  -6.348 -13.375  1.00 32.92     0.160 C 
ENDROOT
BRANCH  14  15
ATOM     15  CB  GLU D 570     -19.500  -6.345 -13.794  1.00 32.92     0.043 C 
BRANCH  15  16
ATOM     16  CG  GLU D 570     -20.444  -5.543 -12.974  1.00 32.92     0.100 C 
BRANCH  16  17
ATOM     17  CD  GLU D 570     -21.699  -5.160 -13.725  1.00 32.92     0.185 C 
ATOM     18  OE1 GLU D 570     -21.634  -4.971 -14.955  1.00 32.92    -0.647 OA
ATOM     19  OE2 GLU D 570     -22.754  -5.033 -13.074  1.00 32.92    -0.647 OA
ENDBRANCH  16  17
ENDBRANCH  15  16
ENDBRANCH  14  15
END_RES GLU D 570
ENDMDL
MODEL 8
REMARK VINA RESULT:      -8.5     13.708     17.780
REMARK  11 active torsions:
REMARK  status: ('A' for Active; 'I' for Inactive)
REMARK    1  A    between atoms: C_2  and  C_4 
REMARK    2  A    between atoms: C_4  and  C_5 
REMARK    3  A    between atoms: C_5  and  C_6 
REMARK    4  A    between atoms: C_6  and  C_7 
REMARK    5  A    between atoms: C_7  and  C_9 
REMARK    6  A    between atoms: C_24  and  O_26 
REMARK    7  A    between atoms: O_26  and  C_27 
REMARK    8  A    between atoms: C_27  and  C_29 
REMARK    9  A    between atoms: C_29  and  C_30 
REMARK   10  A    between atoms: C_30  and  C_31 
REMARK   11  A    between atoms: C_31  and  O_33 
ROOT
HETATM    1  C   UNL     1     -26.341   8.423  -3.133  1.00  0.00    -0.002 C 
HETATM    2  C   UNL     1     -26.670   6.860  -3.778  1.00  0.00     0.006 C 
HETATM    3  C   UNL     1     -25.893   6.841  -5.149  1.00  0.00     0.006 C 
HETATM    4  C   UNL     1     -25.047   8.106  -5.023  1.00  0.00    -0.001 C 
HETATM    5  C   UNL     1     -26.084   9.136  -4.564  1.00  0.00    -0.036 C 
HETATM    6  C   UNL     1     -25.416  10.498  -4.780  1.00  0.00     0.010 C 
HETATM    7  C   UNL     1     -25.123  10.975  -3.429  1.00  0.00     0.007 C 
HETATM    8  C   UNL     1     -24.115   9.941  -2.933  1.00  0.00     0.003 C 
HETATM    9  C   UNL     1     -24.095   8.059  -3.727  1.00  0.00    -0.001 C 
HETATM   10  C   UNL     1     -23.592   6.619  -2.411  1.00  0.00     0.033 C 
HETATM   11  C   UNL     1     -23.374   7.184  -0.594  1.00  0.00    -0.023 C 
HETATM   12  C   UNL     1     -23.341   8.591  -0.103  1.00  0.00    -0.072 C 
HETATM   13  C   UNL     1     -23.818  10.179  -1.027  1.00  0.00    -0.017 C 
HETATM   14  C   UNL     1     -22.654  11.184  -0.640  1.00  0.00     0.016 C 
HETATM   15  C   UNL     1     -22.540  11.264   0.903  1.00  0.00     0.034 C 
HETATM   16  C   UNL     1     -21.792  10.036   1.381  1.00  0.00     0.136 C 
HETATM   17  C   UNL     1     -22.569   8.734   1.191  1.00  0.00     0.067 C 
HETATM   18  C   UNL     1     -25.035  11.191  -0.553  1.00  0.00     0.020 C 
HETATM   19  C   UNL     1     -27.450   9.277  -5.254  1.00  0.00     0.016 C 
ENDROOT
BRANCH  16  20
HETATM   20  O   UNL     1     -21.302  10.202   2.722  1.00  0.00    -0.316 OA
BRANCH  20  21
HETATM   21  C   UNL     1     -20.156   9.584   3.090  1.00  0.00     0.259 C 
HETATM   22  O   UNL     1     -20.037   8.699   3.924  1.00  0.00    -0.265 OA
BRANCH  21  23
HETATM   23  C   UNL     1     -19.021  10.146   2.296  1.00  0.00     0.121 C 
BRANCH  23  24
HETATM   24  C   UNL     1     -17.916   9.109   2.216  1.00  0.00     0.119 C 
BRANCH  24  25
HETATM   25  C   UNL     1     -16.779   9.477   3.124  1.00  0.00     0.139 C 
HETATM   26  O   UNL     1     -15.770  10.071   2.781  1.00  0.00    -0.650 OA
BRANCH  25  27
HETATM   27  O   UNL     1     -16.990   9.067   4.395  1.00  0.00    -0.776 OA
HETATM   28  H   UNL     1     -16.618   9.672   5.065  1.00  0.00     0.167 HD
ENDBRANCH  25  27
ENDBRANCH  24  25
ENDBRANCH  23  24
ENDBRANCH  21  23
ENDBRANCH  20  21
ENDBRANCH  16  20
BRANCH   1  29
HETATM   29  C   UNL     1     -24.917   8.344  -1.862  1.00  0.00    -0.014 C 
HETATM   30  C   UNL     1     -25.845   8.176  -0.400  1.00  0.00     0.010 C 
BRANCH  29  31
HETATM   31  C   UNL     1     -22.846   8.791  -2.265  1.00  0.00     0.005 C 
BRANCH  31  32
HETATM   32  C   UNL     1     -21.817   8.550  -3.833  1.00  0.00     0.001 C 
BRANCH  32  33
HETATM   33  C   UNL     1     -20.522   9.457  -4.176  1.00  0.00     0.004 C 
BRANCH  33  34
HETATM   34  C   UNL     1     -20.496  11.020  -4.372  1.00  0.00    -0.023 C 
HETATM   35  C   UNL     1     -21.720  11.684  -5.001  1.00  0.00     0.009 C 
HETATM   36  C   UNL     1     -20.019  11.840  -3.175  1.00  0.00     0.009 C 
ENDBRANCH  33  34
ENDBRANCH  32  33
ENDBRANCH  31  32
ENDBRANCH  29  31
ENDBRANCH   1  29
TORSDOF 11
BEGIN_RES ARG D 557
REMARK  4 active torsions:
REMARK  status: ('A' for Active; 'I' for Inactive)
REMARK    1  A    between atoms: CA   and  CB  
REMARK    2  A    between atoms: CB   and  CG  
REMARK    3  A    between atoms: CG   and  CD  
REMARK    4  A    between atoms: CD   and  NE  
REMARK       I    between atoms: NE   and  CZ  
REMARK       I    between atoms: CZ   and  NH1 
REMARK       I    between atoms: CZ   and  NH2 
ROOT
ATOM      1  CA  ARG D 557     -26.217   2.705 -17.014  1.00 35.49     0.159 C 
ENDROOT
BRANCH   1   2
ATOM      2  CB  ARG D 557     -26.789   1.319 -17.183  1.00 35.49     0.034 C 
BRANCH   2   3
ATOM      3  CG  ARG D 557     -25.842   0.200 -17.105  1.00 35.49     0.027 C 
BRANCH   3   4
ATOM      4  CD  ARG D 557     -24.766   0.438 -16.116  1.00 35.49     0.116 C 
BRANCH   4   5
ATOM      5  NE  ARG D 557     -24.860  -0.450 -14.988  1.00 35.49    -0.212 N 
ATOM      6  CZ  ARG D 557     -24.010  -1.407 -14.691  1.00 35.49     0.666 C 
ATOM      7  NH1 ARG D 557     -22.950  -1.670 -15.434  1.00 35.49    -0.235 N 
ATOM      8  NH2 ARG D 557     -24.240  -2.103 -13.616  1.00 35.49    -0.235 N 
ATOM      9  HH  ARG D 557     -22.778  -1.223 -16.145  1.00 35.49     0.174 HD
ATOM     10  HH  ARG D 557     -22.429  -2.305 -15.190  1.00 35.49     0.174 HD
ATOM     11  HH  ARG D 557     -24.928  -1.906 -13.152  1.00 35.49     0.174 HD
ATOM     12  HH  ARG D 557     -23.712  -2.727 -13.390  1.00 35.49     0.174 HD
ATOM     13  HE  ARG D 557     -25.552  -0.399 -14.496  1.00 35.49     0.178 HD
ENDBRANCH   4   5
ENDBRANCH   3   4
ENDBRANCH   2   3
ENDBRANCH   1   2
END_RES ARG D 557
BEGIN_RES GLU D 570
REMARK  3 active torsions:
REMARK  status: ('A' for Active; 'I' for Inactive)
REMARK    5  A    between atoms: CA   and  CB  
REMARK    6  A    between atoms: CB   and  CG  
REMARK    7  A    between atoms: CG   and  CD  
ROOT
ATOM     14  CA  GLU D 570     -18.033  -6.348 -13.375  1.00 32.92     0.160 C 
ENDROOT
BRANCH  14  15
ATOM     15  CB  GLU D 570     -19.500  -6.345 -13.794  1.00 32.92     0.043 C 
BRANCH  15  16
ATOM     16  CG  GLU D 570     -20.445  -5.543 -12.974  1.00 32.92     0.100 C 
BRANCH  16  17
ATOM     17  CD  GLU D 570     -21.657  -5.085 -13.750  1.00 32.92     0.185 C 
ATOM     18  OE1 GLU D 570     -21.604  -5.057 -14.995  1.00 32.92    -0.647 OA
ATOM     19  OE2 GLU D 570     -22.665  -4.734 -13.107  1.00 32.92    -0.647 OA
ENDBRANCH  16  17
ENDBRANCH  15  16
ENDBRANCH  14  15
END_RES GLU D 570
ENDMDL
MODEL 9
REMARK VINA RESULT:      -8.5      1.876      2.967
REMARK  11 active torsions:
REMARK  status: ('A' for Active; 'I' for Inactive)
REMARK    1  A    between atoms: C_2  and  C_4 
REMARK    2  A    between atoms: C_4  and  C_5 
REMARK    3  A    between atoms: C_5  and  C_6 
REMARK    4  A    between atoms: C_6  and  C_7 
REMARK    5  A    between atoms: C_7  and  C_9 
REMARK    6  A    between atoms: C_24  and  O_26 
REMARK    7  A    between atoms: O_26  and  C_27 
REMARK    8  A    between atoms: C_27  and  C_29 
REMARK    9  A    between atoms: C_29  and  C_30 
REMARK   10  A    between atoms: C_30  and  C_31 
REMARK   11  A    between atoms: C_31  and  O_33 
ROOT
HETATM    1  C   UNL     1     -18.092 -11.623  -1.899  1.00  0.00    -0.002 C 
HETATM    2  C   UNL     1     -17.368 -12.980  -2.674  1.00  0.00     0.006 C 
HETATM    3  C   UNL     1     -18.338 -14.176  -2.338  1.00  0.00     0.006 C 
HETATM    4  C   UNL     1     -19.532 -13.427  -1.749  1.00  0.00    -0.001 C 
HETATM    5  C   UNL     1     -18.853 -12.480  -0.754  1.00  0.00    -0.036 C 
HETATM    6  C   UNL     1     -19.982 -11.970   0.146  1.00  0.00     0.010 C 
HETATM    7  C   UNL     1     -20.158 -10.573  -0.252  1.00  0.00     0.007 C 
HETATM    8  C   UNL     1     -20.625 -10.705  -1.699  1.00  0.00     0.003 C 
HETATM    9  C   UNL     1     -20.138 -12.362  -2.791  1.00  0.00    -0.001 C 
HETATM   10  C   UNL     1     -19.842 -11.995  -4.750  1.00  0.00     0.033 C 
HETATM   11  C   UNL     1     -19.890 -10.153  -5.274  1.00  0.00    -0.023 C 
HETATM   12  C   UNL     1     -20.317  -9.004  -4.427  1.00  0.00    -0.072 C 
HETATM   13  C   UNL     1     -20.613  -8.959  -2.552  1.00  0.00    -0.017 C 
HETATM   14  C   UNL     1     -21.957  -8.128  -2.419  1.00  0.00     0.016 C 
HETATM   15  C   UNL     1     -21.792  -6.770  -3.147  1.00  0.00     0.034 C 
HETATM   16  C   UNL     1     -21.957  -7.014  -4.633  1.00  0.00     0.136 C 
HETATM   17  C   UNL     1     -20.826  -7.838  -5.248  1.00  0.00     0.067 C 
HETATM   18  C   UNL     1     -19.760  -8.006  -1.506  1.00  0.00     0.020 C 
HETATM   19  C   UNL     1     -17.782 -12.971   0.234  1.00  0.00     0.016 C 
ENDROOT
BRANCH  16  20
HETATM   20  O   UNL     1     -22.206  -5.791  -5.347  1.00  0.00    -0.316 OA
BRANCH  20  21
HETATM   21  C   UNL     1     -21.183  -5.179  -5.989  1.00  0.00     0.259 C 
HETATM   22  O   UNL     1     -20.117  -4.830  -5.503  1.00  0.00    -0.265 OA
BRANCH  21  23
HETATM   23  C   UNL     1     -21.548  -4.996  -7.426  1.00  0.00     0.121 C 
BRANCH  23  24
HETATM   24  C   UNL     1     -22.924  -4.359  -7.507  1.00  0.00     0.119 C 
BRANCH  24  25
HETATM   25  C   UNL     1     -23.252  -3.987  -8.923  1.00  0.00     0.139 C 
HETATM   26  O   UNL     1     -22.452  -3.562  -9.742  1.00  0.00    -0.650 OA
BRANCH  25  27
HETATM   27  O   UNL     1     -24.561  -4.171  -9.207  1.00  0.00    -0.776 OA
HETATM   28  H   UNL     1     -25.136  -4.150  -8.418  1.00  0.00     0.167 HD
ENDBRANCH  25  27
ENDBRANCH  24  25
ENDBRANCH  23  24
ENDBRANCH  21  23
ENDBRANCH  20  21
ENDBRANCH  16  20
BRANCH   1  29
HETATM   29  C   UNL     1     -19.125 -10.605  -3.142  1.00  0.00    -0.014 C 
HETATM   30  C   UNL     1     -18.000  -9.317  -3.464  1.00  0.00     0.010 C 
BRANCH  29  31
HETATM   31  C   UNL     1     -21.220 -10.889  -3.564  1.00  0.00     0.005 C 
BRANCH  31  32
HETATM   32  C   UNL     1     -22.516 -11.964  -2.703  1.00  0.00     0.001 C 
BRANCH  32  33
HETATM   33  C   UNL     1     -23.815 -11.343  -1.964  1.00  0.00     0.004 C 
BRANCH  33  34
HETATM   34  C   UNL     1     -24.048 -11.234  -0.410  1.00  0.00    -0.023 C 
HETATM   35  C   UNL     1     -23.507 -12.355   0.477  1.00  0.00     0.009 C 
HETATM   36  C   UNL     1     -23.740  -9.878   0.222  1.00  0.00     0.009 C 
ENDBRANCH  33  34
ENDBRANCH  32  33
ENDBRANCH  31  32
ENDBRANCH  29  31
ENDBRANCH   1  29
TORSDOF 11
BEGIN_RES ARG D 557
REMARK  4 active torsions:
REMARK  status: ('A' for Active; 'I' for Inactive)
REMARK    1  A    between atoms: CA   and  CB  
REMARK    2  A    between atoms: CB   and  CG  
REMARK    3  A    between atoms: CG   and  CD  
REMARK    4  A    between atoms: CD   and  NE  
REMARK       I    between atoms: NE   and  CZ  
REMARK       I    between atoms: CZ   and  NH1 
REMARK       I    between atoms: CZ   and  NH2 
ROOT
ATOM      1  CA  ARG D 557     -26.217   2.705 -17.014  1.00 35.49     0.159 C 
ENDROOT
BRANCH   1   2
ATOM      2  CB  ARG D 557     -26.789   1.319 -17.183  1.00 35.49     0.034 C 
BRANCH   2   3
ATOM      3  CG  ARG D 557     -28.235   1.225 -17.417  1.00 35.49     0.027 C 
BRANCH   3   4
ATOM      4  CD  ARG D 557     -28.898   0.288 -16.481  1.00 35.49     0.116 C 
BRANCH   4   5
ATOM      5  NE  ARG D 557     -29.274  -0.944 -17.123  1.00 35.49    -0.212 N 
ATOM      6  CZ  ARG D 557     -28.635  -2.088 -17.023  1.00 35.49     0.666 C 
ATOM      7  NH1 ARG D 557     -27.534  -2.225 -16.307  1.00 35.49    -0.235 N 
ATOM      8  NH2 ARG D 557     -29.130  -3.110 -17.658  1.00 35.49    -0.235 N 
ATOM      9  HH  ARG D 557     -27.191  -1.566 -15.879  1.00 35.49     0.174 HD
ATOM     10  HH  ARG D 557     -27.161  -2.996 -16.276  1.00 35.49     0.174 HD
ATOM     11  HH  ARG D 557     -29.847  -2.994 -18.106  1.00 35.49     0.174 HD
ATOM     12  HH  ARG D 557     -28.748  -3.866 -17.613  1.00 35.49     0.174 HD
ATOM     13  HE  ARG D 557     -29.931  -0.929 -17.662  1.00 35.49     0.178 HD
ENDBRANCH   4   5
ENDBRANCH   3   4
ENDBRANCH   2   3
ENDBRANCH   1   2
END_RES ARG D 557
BEGIN_RES GLU D 570
REMARK  3 active torsions:
REMARK  status: ('A' for Active; 'I' for Inactive)
REMARK    5  A    between atoms: CA   and  CB  
REMARK    6  A    between atoms: CB   and  CG  
REMARK    7  A    between atoms: CG   and  CD  
ROOT
ATOM     14  CA  GLU D 570     -18.033  -6.348 -13.375  1.00 32.92     0.160 C 
ENDROOT
BRANCH  14  15
ATOM     15  CB  GLU D 570     -19.500  -6.345 -13.794  1.00 32.92     0.043 C 
BRANCH  15  16
ATOM     16  CG  GLU D 570     -19.804  -6.066 -15.221  1.00 32.92     0.100 C 
BRANCH  16  17
ATOM     17  CD  GLU D 570     -21.281  -5.891 -15.486  1.00 32.92     0.185 C 
ATOM     18  OE1 GLU D 570     -21.720  -4.752 -15.737  1.00 32.92    -0.647 OA
ATOM     19  OE2 GLU D 570     -22.009  -6.901 -15.426  1.00 32.92    -0.647 OA
ENDBRANCH  16  17
ENDBRANCH  15  16
ENDBRANCH  14  15
END_RES GLU D 570
ENDMDL
