MODEL 1
REMARK VINA RESULT:      -7.5      0.000      0.000
REMARK  21 active torsions:
REMARK  status: ('A' for Active; 'I' for Inactive)
REMARK    1  A    between atoms: CB_2  and  CA_4 
REMARK    2  A    between atoms: CA_4  and  C_5 
REMARK    3  A    between atoms: CA_4  and  N_20 
REMARK       I    between atoms: C_5  and  N_7 
REMARK    4  A    between atoms: N_7  and  CA_8 
REMARK    5  A    between atoms: CA_8  and  CB_9 
REMARK    6  A    between atoms: CA_8  and  C_17 
REMARK    7  A    between atoms: CB_9  and  CG_10 
REMARK    8  A    between atoms: CZ_13  and  OH_16 
REMARK    9  A    between atoms: C_17  and  OXT_19 
REMARK       I    between atoms: N_20  and  C_21 
REMARK   10  A    between atoms: C_21  and  CA_23 
REMARK   11  A    between atoms: CA_23  and  CB_24 
REMARK   12  A    between atoms: CA_23  and  N_28 
REMARK   13  A    between atoms: CB_24  and  CG_25 
REMARK   14  A    between atoms: CG_25  and  OD2_27 
REMARK       I    between atoms: N_28  and  C_29 
REMARK   15  A    between atoms: C_29  and  CA_31 
REMARK   16  A    between atoms: CA_31  and  CB_32 
REMARK   17  A    between atoms: CA_31  and  N_37 
REMARK   18  A    between atoms: CB_32  and  CG_33 
REMARK   19  A    between atoms: CG_33  and  CD_34 
REMARK   20  A    between atoms: CD_34  and  CE_35 
REMARK   21  A    between atoms: CE_35  and  NZ_36 
REMARK       I    between atoms: N_37  and  C_47 
ROOT
ATOM      1  N   LYS A   1     -20.990  -9.563  -4.011  1.00  0.00    -0.346 N 
ATOM      2  C   LYS A   1     -21.768 -10.683  -3.807  1.00  0.00     0.241 C 
ATOM      3  O   LYS A   1     -22.986 -10.620  -3.683  1.00  0.00    -0.271 OA
ATOM      4  H   LYS A   1     -19.982  -9.675  -3.923  1.00  0.00     0.163 HD
ENDROOT
BRANCH   2   5
ATOM      5  CA  LYS A   1     -20.987 -12.021  -3.704  1.00  0.00     0.186 C 
BRANCH   5   6
ATOM      6  CB  LYS A   1     -21.223 -12.903  -4.934  1.00  0.00     0.144 C 
BRANCH   6   7
ATOM      7  CG  LYS A   1     -20.189 -12.633  -5.991  1.00  0.00     0.141 C 
ATOM      8  OD1 LYS A   1     -20.221 -11.672  -6.745  1.00  0.00    -0.650 OA
BRANCH   7   9
ATOM      9  OD2 LYS A   1     -19.214 -13.568  -6.058  1.00  0.00    -0.776 OA
ATOM     10  HD2 LYS A   1     -18.323 -13.236  -5.823  1.00  0.00     0.167 HD
ENDBRANCH   7   9
ENDBRANCH   6   7
ENDBRANCH   5   6
BRANCH   5  11
ATOM     11  N   LYS A   1     -19.577 -11.738  -3.398  1.00  0.00    -0.346 N 
ATOM     12  C   LYS A   1     -19.009 -11.908  -2.160  1.00  0.00     0.241 C 
ATOM     13  O   LYS A   1     -19.667 -12.309  -1.201  1.00  0.00    -0.271 OA
ATOM     14  H   LYS A   1     -18.987 -11.394  -4.157  1.00  0.00     0.163 HD
BRANCH  12  15
ATOM     15  CA  LYS A   1     -17.500 -11.578  -2.077  1.00  0.00     0.176 C 
BRANCH  15  16
ATOM     16  CB  LYS A   1     -17.243 -10.181  -2.659  1.00  0.00     0.035 C 
BRANCH  16  17
ATOM     17  CG  LYS A   1     -15.850  -9.990  -3.271  1.00  0.00     0.004 C 
BRANCH  17  18
ATOM     18  CD  LYS A   1     -15.885  -9.743  -4.783  1.00  0.00     0.030 C 
BRANCH  18  19
ATOM     19  CE  LYS A   1     -16.929 -10.590  -5.510  1.00  0.00     0.267 C 
BRANCH  19  20
ATOM     20  NZ  LYS A   1     -17.894  -9.770  -6.231  1.00  0.00     0.078 N 
ATOM     21  HZ1 LYS A   1     -17.765  -9.894  -7.235  1.00  0.00     0.312 HD
ATOM     22  HZ2 LYS A   1     -17.707  -8.787  -6.042  1.00  0.00     0.312 HD
ENDBRANCH  19  20
ENDBRANCH  18  19
ENDBRANCH  17  18
ENDBRANCH  16  17
ENDBRANCH  15  16
BRANCH  15  23
ATOM     23  N   LYS A   1     -17.032 -11.641  -0.695  1.00  0.00    -0.348 N 
HETATM   24  C   UNK A   0     -15.990 -12.447  -0.309  1.00  0.00     0.214 C 
HETATM   25  O   UNK A   0     -15.443 -13.234  -1.075  1.00  0.00    -0.274 OA
HETATM   26  C   UNK A   0     -15.545 -12.252   1.118  1.00  0.00     0.117 C 
ATOM     27  H   LYS A   1     -17.514 -11.084   0.001  1.00  0.00     0.163 HD
ENDBRANCH  15  23
ENDBRANCH  12  15
ENDBRANCH   5  11
ENDBRANCH   2   5
BRANCH   1  28
ATOM     28  CA  LYS A   1     -21.539  -8.205  -4.074  1.00  0.00     0.180 C 
BRANCH  28  29
ATOM     29  CB  LYS A   1     -21.028  -7.344  -2.882  1.00  0.00     0.009 C 
ATOM     30  CG1 LYS A   1     -22.160  -6.556  -2.209  1.00  0.00     0.012 C 
ATOM     31  CG2 LYS A   1     -20.296  -8.156  -1.810  1.00  0.00     0.012 C 
ENDBRANCH  28  29
BRANCH  28  32
ATOM     32  C   LYS A   1     -21.024  -7.527  -5.362  1.00  0.00     0.241 C 
ATOM     33  O   LYS A   1     -20.063  -7.978  -5.987  1.00  0.00    -0.271 OA
ATOM     34  N   LYS A   1     -21.632  -6.348  -5.708  1.00  0.00    -0.345 N 
ATOM     35  H   LYS A   1     -22.484  -6.054  -5.246  1.00  0.00     0.163 HD
BRANCH  34  36
ATOM     36  CA  LYS A   1     -21.123  -5.480  -6.779  1.00  0.00     0.186 C 
BRANCH  36  37
ATOM     37  CB  LYS A   1     -22.173  -4.546  -7.397  1.00  0.00     0.074 C 
BRANCH  37  38
ATOM     38  CG  LYS A   1     -22.141  -4.419  -8.898  1.00  0.00    -0.056 A 
ATOM     39  CD1 LYS A   1     -23.303  -4.595  -9.662  1.00  0.00     0.010 A 
ATOM     40  CE1 LYS A   1     -23.276  -4.391 -11.042  1.00  0.00     0.037 A 
ATOM     41  CZ  LYS A   1     -22.084  -4.019 -11.658  1.00  0.00     0.065 A 
ATOM     42  CE2 LYS A   1     -20.919  -3.882 -10.924  1.00  0.00     0.037 A 
ATOM     43  CD2 LYS A   1     -20.944  -4.080  -9.546  1.00  0.00     0.010 A 
BRANCH  41  44
ATOM     44  OH  LYS A   1     -22.028  -3.770 -12.998  1.00  0.00    -0.361 OA
ATOM     45  HH  LYS A   1     -21.311  -3.138 -13.164  1.00  0.00     0.217 HD
ENDBRANCH  41  44
ENDBRANCH  37  38
ENDBRANCH  36  37
BRANCH  36  46
ATOM     46  C   LYS A   1     -19.886  -4.711  -6.282  1.00  0.00     0.163 C 
ATOM     47  O   LYS A   1     -19.767  -4.280  -5.143  1.00  0.00    -0.648 OA
BRANCH  46  48
ATOM     48  OXT LYS A   1     -18.889  -4.591  -7.192  1.00  0.00    -0.775 OA
ATOM     49  HXT LYS A   1     -18.068  -4.174  -6.866  1.00  0.00     0.167 HD
ENDBRANCH  46  48
ENDBRANCH  36  46
ENDBRANCH  34  36
ENDBRANCH  28  32
ENDBRANCH   1  28
TORSDOF 21
BEGIN_RES ARG D 557
REMARK  4 active torsions:
REMARK  status: ('A' for Active; 'I' for Inactive)
REMARK    1  A    between atoms: CA   and  CB  
REMARK    2  A    between atoms: CB   and  CG  
REMARK    3  A    between atoms: CG   and  CD  
REMARK    4  A    between atoms: CD   and  NE  
REMARK       I    between atoms: NE   and  CZ  
REMARK       I    between atoms: CZ   and  NH1 
REMARK       I    between atoms: CZ   and  NH2 
ROOT
ATOM      1  CA  ARG D 557     -26.217   2.705 -17.014  1.00 35.49     0.159 C 
ENDROOT
BRANCH   1   2
ATOM      2  CB  ARG D 557     -26.789   1.319 -17.183  1.00 35.49     0.034 C 
BRANCH   2   3
ATOM      3  CG  ARG D 557     -25.913   0.195 -16.829  1.00 35.49     0.027 C 
BRANCH   3   4
ATOM      4  CD  ARG D 557     -26.643  -0.892 -16.137  1.00 35.49     0.116 C 
BRANCH   4   5
ATOM      5  NE  ARG D 557     -25.853  -1.499 -15.098  1.00 35.49    -0.212 N 
ATOM      6  CZ  ARG D 557     -25.882  -2.766 -14.751  1.00 35.49     0.666 C 
ATOM      7  NH1 ARG D 557     -26.680  -3.642 -15.334  1.00 35.49    -0.235 N 
ATOM      8  NH2 ARG D 557     -25.081  -3.147 -13.800  1.00 35.49    -0.235 N 
ATOM      9  HH  ARG D 557     -27.215  -3.413 -15.963  1.00 35.49     0.174 HD
ATOM     10  HH  ARG D 557     -26.654  -4.456 -15.067  1.00 35.49     0.174 HD
ATOM     11  HH  ARG D 557     -24.571  -2.561 -13.447  1.00 35.49     0.174 HD
ATOM     12  HH  ARG D 557     -25.069  -3.958 -13.551  1.00 35.49     0.174 HD
ATOM     13  HE  ARG D 557     -25.363  -0.992 -14.621  1.00 35.49     0.178 HD
ENDBRANCH   4   5
ENDBRANCH   3   4
ENDBRANCH   2   3
ENDBRANCH   1   2
END_RES ARG D 557
BEGIN_RES GLU D 570
REMARK  3 active torsions:
REMARK  status: ('A' for Active; 'I' for Inactive)
REMARK    5  A    between atoms: CA   and  CB  
REMARK    6  A    between atoms: CB   and  CG  
REMARK    7  A    between atoms: CG   and  CD  
ROOT
ATOM     14  CA  GLU D 570     -18.033  -6.348 -13.375  1.00 32.92     0.160 C 
ENDROOT
BRANCH  14  15
ATOM     15  CB  GLU D 570     -19.500  -6.345 -13.794  1.00 32.92     0.043 C 
BRANCH  15  16
ATOM     16  CG  GLU D 570     -19.804  -6.060 -15.220  1.00 32.92     0.100 C 
BRANCH  16  17
ATOM     17  CD  GLU D 570     -21.284  -5.915 -15.490  1.00 32.92     0.185 C 
ATOM     18  OE1 GLU D 570     -21.730  -4.803 -15.831  1.00 32.92    -0.647 OA
ATOM     19  OE2 GLU D 570     -22.007  -6.920 -15.341  1.00 32.92    -0.647 OA
ENDBRANCH  16  17
ENDBRANCH  15  16
ENDBRANCH  14  15
END_RES GLU D 570
ENDMDL
MODEL 2
REMARK VINA RESULT:      -7.3      2.051      3.894
REMARK  21 active torsions:
REMARK  status: ('A' for Active; 'I' for Inactive)
REMARK    1  A    between atoms: CB_2  and  CA_4 
REMARK    2  A    between atoms: CA_4  and  C_5 
REMARK    3  A    between atoms: CA_4  and  N_20 
REMARK       I    between atoms: C_5  and  N_7 
REMARK    4  A    between atoms: N_7  and  CA_8 
REMARK    5  A    between atoms: CA_8  and  CB_9 
REMARK    6  A    between atoms: CA_8  and  C_17 
REMARK    7  A    between atoms: CB_9  and  CG_10 
REMARK    8  A    between atoms: CZ_13  and  OH_16 
REMARK    9  A    between atoms: C_17  and  OXT_19 
REMARK       I    between atoms: N_20  and  C_21 
REMARK   10  A    between atoms: C_21  and  CA_23 
REMARK   11  A    between atoms: CA_23  and  CB_24 
REMARK   12  A    between atoms: CA_23  and  N_28 
REMARK   13  A    between atoms: CB_24  and  CG_25 
REMARK   14  A    between atoms: CG_25  and  OD2_27 
REMARK       I    between atoms: N_28  and  C_29 
REMARK   15  A    between atoms: C_29  and  CA_31 
REMARK   16  A    between atoms: CA_31  and  CB_32 
REMARK   17  A    between atoms: CA_31  and  N_37 
REMARK   18  A    between atoms: CB_32  and  CG_33 
REMARK   19  A    between atoms: CG_33  and  CD_34 
REMARK   20  A    between atoms: CD_34  and  CE_35 
REMARK   21  A    between atoms: CE_35  and  NZ_36 
REMARK       I    between atoms: N_37  and  C_47 
ROOT
ATOM      1  N   LYS A   1     -20.096 -10.211  -0.795  1.00  0.00    -0.346 N 
ATOM      2  C   LYS A   1     -19.644 -11.487  -1.059  1.00  0.00     0.241 C 
ATOM      3  O   LYS A   1     -20.390 -12.377  -1.453  1.00  0.00    -0.271 OA
ATOM      4  H   LYS A   1     -19.462  -9.585  -0.303  1.00  0.00     0.163 HD
ENDROOT
BRANCH   2   5
ATOM      5  CA  LYS A   1     -18.136 -11.724  -0.780  1.00  0.00     0.186 C 
BRANCH   5   6
ATOM      6  CB  LYS A   1     -17.927 -12.817   0.274  1.00  0.00     0.144 C 
BRANCH   6   7
ATOM      7  CG  LYS A   1     -16.506 -12.821   0.763  1.00  0.00     0.141 C 
ATOM      8  OD1 LYS A   1     -15.858 -13.836   0.969  1.00  0.00    -0.650 OA
BRANCH   7   9
ATOM      9  OD2 LYS A   1     -15.997 -11.587   0.985  1.00  0.00    -0.776 OA
ATOM     10  HD2 LYS A   1     -15.020 -11.561   1.047  1.00  0.00     0.167 HD
ENDBRANCH   7   9
ENDBRANCH   6   7
ENDBRANCH   5   6
BRANCH   5  11
ATOM     11  N   LYS A   1     -17.434 -11.941  -2.054  1.00  0.00    -0.346 N 
ATOM     12  C   LYS A   1     -16.360 -11.198  -2.476  1.00  0.00     0.241 C 
ATOM     13  O   LYS A   1     -15.912 -10.273  -1.799  1.00  0.00    -0.271 OA
ATOM     14  H   LYS A   1     -17.771 -12.691  -2.660  1.00  0.00     0.163 HD
BRANCH  12  15
ATOM     15  CA  LYS A   1     -15.760 -11.624  -3.837  1.00  0.00     0.176 C 
BRANCH  15  16
ATOM     16  CB  LYS A   1     -15.686 -10.410  -4.774  1.00  0.00     0.035 C 
BRANCH  16  17
ATOM     17  CG  LYS A   1     -16.530 -10.534  -6.047  1.00  0.00     0.004 C 
BRANCH  17  18
ATOM     18  CD  LYS A   1     -17.471 -11.744  -6.031  1.00  0.00     0.030 C 
BRANCH  18  19
ATOM     19  CE  LYS A   1     -18.454 -11.760  -7.202  1.00  0.00     0.267 C 
BRANCH  19  20
ATOM     20  NZ  LYS A   1     -19.828 -11.545  -6.765  1.00  0.00     0.078 N 
ATOM     21  HZ1 LYS A   1     -19.829 -11.164  -5.819  1.00  0.00     0.312 HD
ATOM     22  HZ2 LYS A   1     -20.306 -12.443  -6.709  1.00  0.00     0.312 HD
ENDBRANCH  19  20
ENDBRANCH  18  19
ENDBRANCH  17  18
ENDBRANCH  16  17
ENDBRANCH  15  16
BRANCH  15  23
ATOM     23  N   LYS A   1     -14.430 -12.201  -3.657  1.00  0.00    -0.348 N 
HETATM   24  C   UNK A   0     -14.239 -13.447  -3.114  1.00  0.00     0.214 C 
HETATM   25  O   UNK A   0     -15.159 -14.121  -2.661  1.00  0.00    -0.274 OA
HETATM   26  C   UNK A   0     -12.813 -13.937  -3.163  1.00  0.00     0.117 C 
ATOM     27  H   LYS A   1     -13.625 -11.646  -3.924  1.00  0.00     0.163 HD
ENDBRANCH  15  23
ENDBRANCH  12  15
ENDBRANCH   5  11
ENDBRANCH   2   5
BRANCH   1  28
ATOM     28  CA  LYS A   1     -21.500  -9.812  -0.938  1.00  0.00     0.180 C 
BRANCH  28  29
ATOM     29  CB  LYS A   1     -21.833  -8.607  -0.009  1.00  0.00     0.009 C 
ATOM     30  CG1 LYS A   1     -23.332  -8.514   0.304  1.00  0.00     0.012 C 
ATOM     31  CG2 LYS A   1     -21.060  -8.624   1.312  1.00  0.00     0.012 C 
ENDBRANCH  28  29
BRANCH  28  32
ATOM     32  C   LYS A   1     -21.727  -9.327  -2.388  1.00  0.00     0.241 C 
ATOM     33  O   LYS A   1     -22.156 -10.084  -3.260  1.00  0.00    -0.271 OA
ATOM     34  N   LYS A   1     -21.332  -8.044  -2.664  1.00  0.00    -0.345 N 
ATOM     35  H   LYS A   1     -21.085  -7.409  -1.914  1.00  0.00     0.163 HD
BRANCH  34  36
ATOM     36  CA  LYS A   1     -21.287  -7.507  -4.031  1.00  0.00     0.186 C 
BRANCH  36  37
ATOM     37  CB  LYS A   1     -20.948  -6.012  -4.119  1.00  0.00     0.074 C 
BRANCH  37  38
ATOM     38  CG  LYS A   1     -20.885  -5.432  -5.508  1.00  0.00    -0.056 A 
ATOM     39  CD1 LYS A   1     -19.673  -4.977  -6.046  1.00  0.00     0.010 A 
ATOM     40  CE1 LYS A   1     -19.613  -4.521  -7.363  1.00  0.00     0.037 A 
ATOM     41  CZ  LYS A   1     -20.770  -4.514  -8.139  1.00  0.00     0.065 A 
ATOM     42  CE2 LYS A   1     -21.981  -4.920  -7.611  1.00  0.00     0.037 A 
ATOM     43  CD2 LYS A   1     -22.042  -5.380  -6.298  1.00  0.00     0.010 A 
BRANCH  41  44
ATOM     44  OH  LYS A   1     -20.742  -4.114  -9.444  1.00  0.00    -0.361 OA
ATOM     45  HH  LYS A   1     -19.949  -4.486  -9.862  1.00  0.00     0.217 HD
ENDBRANCH  41  44
ENDBRANCH  37  38
ENDBRANCH  36  37
BRANCH  36  46
ATOM     46  C   LYS A   1     -20.347  -8.365  -4.896  1.00  0.00     0.163 C 
ATOM     47  O   LYS A   1     -19.153  -8.504  -4.670  1.00  0.00    -0.648 OA
BRANCH  46  48
ATOM     48  OXT LYS A   1     -20.955  -9.021  -5.916  1.00  0.00    -0.775 OA
ATOM     49  HXT LYS A   1     -21.537  -9.761  -5.654  1.00  0.00     0.167 HD
ENDBRANCH  46  48
ENDBRANCH  36  46
ENDBRANCH  34  36
ENDBRANCH  28  32
ENDBRANCH   1  28
TORSDOF 21
BEGIN_RES ARG D 557
REMARK  4 active torsions:
REMARK  status: ('A' for Active; 'I' for Inactive)
REMARK    1  A    between atoms: CA   and  CB  
REMARK    2  A    between atoms: CB   and  CG  
REMARK    3  A    between atoms: CG   and  CD  
REMARK    4  A    between atoms: CD   and  NE  
REMARK       I    between atoms: NE   and  CZ  
REMARK       I    between atoms: CZ   and  NH1 
REMARK       I    between atoms: CZ   and  NH2 
ROOT
ATOM      1  CA  ARG D 557     -26.217   2.705 -17.014  1.00 35.49     0.159 C 
ENDROOT
BRANCH   1   2
ATOM      2  CB  ARG D 557     -26.789   1.319 -17.183  1.00 35.49     0.034 C 
BRANCH   2   3
ATOM      3  CG  ARG D 557     -25.862   0.195 -17.004  1.00 35.49     0.027 C 
BRANCH   3   4
ATOM      4  CD  ARG D 557     -26.270  -0.702 -15.899  1.00 35.49     0.116 C 
BRANCH   4   5
ATOM      5  NE  ARG D 557     -25.209  -0.911 -14.949  1.00 35.49    -0.212 N 
ATOM      6  CZ  ARG D 557     -24.912  -2.051 -14.367  1.00 35.49     0.666 C 
ATOM      7  NH1 ARG D 557     -25.590  -3.161 -14.593  1.00 35.49    -0.235 N 
ATOM      8  NH2 ARG D 557     -23.901  -2.061 -13.547  1.00 35.49    -0.235 N 
ATOM      9  HH  ARG D 557     -26.257  -3.178 -15.131  1.00 35.49     0.174 HD
ATOM     10  HH  ARG D 557     -25.349  -3.875 -14.187  1.00 35.49     0.174 HD
ATOM     11  HH  ARG D 557     -23.477  -1.331 -13.426  1.00 35.49     0.174 HD
ATOM     12  HH  ARG D 557     -23.677  -2.779 -13.156  1.00 35.49     0.174 HD
ATOM     13  HE  ARG D 557     -24.766  -0.232 -14.690  1.00 35.49     0.178 HD
ENDBRANCH   4   5
ENDBRANCH   3   4
ENDBRANCH   2   3
ENDBRANCH   1   2
END_RES ARG D 557
BEGIN_RES GLU D 570
REMARK  3 active torsions:
REMARK  status: ('A' for Active; 'I' for Inactive)
REMARK    5  A    between atoms: CA   and  CB  
REMARK    6  A    between atoms: CB   and  CG  
REMARK    7  A    between atoms: CG   and  CD  
ROOT
ATOM     14  CA  GLU D 570     -18.033  -6.348 -13.375  1.00 32.92     0.160 C 
ENDROOT
BRANCH  14  15
ATOM     15  CB  GLU D 570     -19.500  -6.345 -13.794  1.00 32.92     0.043 C 
BRANCH  15  16
ATOM     16  CG  GLU D 570     -20.449  -5.563 -12.960  1.00 32.92     0.100 C 
BRANCH  16  17
ATOM     17  CD  GLU D 570     -21.674  -5.116 -13.722  1.00 32.92     0.185 C 
ATOM     18  OE1 GLU D 570     -21.624  -5.054 -14.966  1.00 32.92    -0.647 OA
ATOM     19  OE2 GLU D 570     -22.690  -4.808 -13.068  1.00 32.92    -0.647 OA
ENDBRANCH  16  17
ENDBRANCH  15  16
ENDBRANCH  14  15
END_RES GLU D 570
ENDMDL
MODEL 3
REMARK VINA RESULT:      -7.0      2.076      4.138
REMARK  21 active torsions:
REMARK  status: ('A' for Active; 'I' for Inactive)
REMARK    1  A    between atoms: CB_2  and  CA_4 
REMARK    2  A    between atoms: CA_4  and  C_5 
REMARK    3  A    between atoms: CA_4  and  N_20 
REMARK       I    between atoms: C_5  and  N_7 
REMARK    4  A    between atoms: N_7  and  CA_8 
REMARK    5  A    between atoms: CA_8  and  CB_9 
REMARK    6  A    between atoms: CA_8  and  C_17 
REMARK    7  A    between atoms: CB_9  and  CG_10 
REMARK    8  A    between atoms: CZ_13  and  OH_16 
REMARK    9  A    between atoms: C_17  and  OXT_19 
REMARK       I    between atoms: N_20  and  C_21 
REMARK   10  A    between atoms: C_21  and  CA_23 
REMARK   11  A    between atoms: CA_23  and  CB_24 
REMARK   12  A    between atoms: CA_23  and  N_28 
REMARK   13  A    between atoms: CB_24  and  CG_25 
REMARK   14  A    between atoms: CG_25  and  OD2_27 
REMARK       I    between atoms: N_28  and  C_29 
REMARK   15  A    between atoms: C_29  and  CA_31 
REMARK   16  A    between atoms: CA_31  and  CB_32 
REMARK   17  A    between atoms: CA_31  and  N_37 
REMARK   18  A    between atoms: CB_32  and  CG_33 
REMARK   19  A    between atoms: CG_33  and  CD_34 
REMARK   20  A    between atoms: CD_34  and  CE_35 
REMARK   21  A    between atoms: CE_35  and  NZ_36 
REMARK       I    between atoms: N_37  and  C_47 
ROOT
ATOM      1  N   LYS A   1     -20.051 -10.028  -0.956  1.00  0.00    -0.346 N 
ATOM      2  C   LYS A   1     -19.605 -11.327  -1.076  1.00  0.00     0.241 C 
ATOM      3  O   LYS A   1     -20.374 -12.275  -1.191  1.00  0.00    -0.271 OA
ATOM      4  H   LYS A   1     -19.367  -9.325  -0.683  1.00  0.00     0.163 HD
ENDROOT
BRANCH   2   5
ATOM      5  CA  LYS A   1     -18.064 -11.505  -1.012  1.00  0.00     0.186 C 
BRANCH   5   6
ATOM      6  CB  LYS A   1     -17.676 -12.721  -0.164  1.00  0.00     0.144 C 
BRANCH   6   7
ATOM      7  CG  LYS A   1     -16.243 -12.626   0.280  1.00  0.00     0.141 C 
ATOM      8  OD1 LYS A   1     -15.626 -11.576   0.370  1.00  0.00    -0.650 OA
BRANCH   7   9
ATOM      9  OD2 LYS A   1     -15.673 -13.822   0.557  1.00  0.00    -0.776 OA
ATOM     10  HD2 LYS A   1     -15.220 -13.859   1.424  1.00  0.00     0.167 HD
ENDBRANCH   7   9
ENDBRANCH   6   7
ENDBRANCH   5   6
BRANCH   5  11
ATOM     11  N   LYS A   1     -17.516 -11.493  -2.376  1.00  0.00    -0.346 N 
ATOM     12  C   LYS A   1     -17.231 -10.350  -3.081  1.00  0.00     0.241 C 
ATOM     13  O   LYS A   1     -17.432  -9.234  -2.603  1.00  0.00    -0.271 OA
ATOM     14  H   LYS A   1     -17.339 -12.393  -2.825  1.00  0.00     0.163 HD
BRANCH  12  15
ATOM     15  CA  LYS A   1     -16.631 -10.577  -4.488  1.00  0.00     0.176 C 
BRANCH  15  16
ATOM     16  CB  LYS A   1     -15.106 -10.715  -4.385  1.00  0.00     0.035 C 
BRANCH  16  17
ATOM     17  CG  LYS A   1     -14.607 -12.150  -4.181  1.00  0.00     0.004 C 
BRANCH  17  18
ATOM     18  CD  LYS A   1     -13.344 -12.469  -4.988  1.00  0.00     0.030 C 
BRANCH  18  19
ATOM     19  CE  LYS A   1     -13.631 -13.231  -6.282  1.00  0.00     0.267 C 
BRANCH  19  20
ATOM     20  NZ  LYS A   1     -14.759 -14.143  -6.142  1.00  0.00     0.078 N 
ATOM     21  HZ1 LYS A   1     -15.552 -13.791  -6.678  1.00  0.00     0.312 HD
ATOM     22  HZ2 LYS A   1     -15.060 -14.158  -5.168  1.00  0.00     0.312 HD
ENDBRANCH  19  20
ENDBRANCH  18  19
ENDBRANCH  17  18
ENDBRANCH  16  17
ENDBRANCH  15  16
BRANCH  15  23
ATOM     23  N   LYS A   1     -17.204 -11.769  -5.108  1.00  0.00    -0.348 N 
HETATM   24  C   UNK A   0     -18.038 -11.703  -6.196  1.00  0.00     0.214 C 
HETATM   25  O   UNK A   0     -18.431 -10.639  -6.664  1.00  0.00    -0.274 OA
HETATM   26  C   UNK A   0     -18.392 -13.041  -6.794  1.00  0.00     0.117 C 
ATOM     27  H   LYS A   1     -16.990 -12.672  -4.700  1.00  0.00     0.163 HD
ENDBRANCH  15  23
ENDBRANCH  12  15
ENDBRANCH   5  11
ENDBRANCH   2   5
BRANCH   1  28
ATOM     28  CA  LYS A   1     -21.472  -9.667  -0.931  1.00  0.00     0.180 C 
BRANCH  28  29
ATOM     29  CB  LYS A   1     -21.728  -8.484   0.049  1.00  0.00     0.009 C 
ATOM     30  CG1 LYS A   1     -23.223  -8.273   0.324  1.00  0.00     0.012 C 
ATOM     31  CG2 LYS A   1     -21.003  -8.634   1.389  1.00  0.00     0.012 C 
ENDBRANCH  28  29
BRANCH  28  32
ATOM     32  C   LYS A   1     -21.876  -9.170  -2.337  1.00  0.00     0.241 C 
ATOM     33  O   LYS A   1     -22.535  -9.875  -3.104  1.00  0.00    -0.271 OA
ATOM     34  N   LYS A   1     -21.378  -7.950  -2.713  1.00  0.00    -0.345 N 
ATOM     35  H   LYS A   1     -20.933  -7.345  -2.034  1.00  0.00     0.163 HD
BRANCH  34  36
ATOM     36  CA  LYS A   1     -21.496  -7.435  -4.084  1.00  0.00     0.186 C 
BRANCH  36  37
ATOM     37  CB  LYS A   1     -21.139  -5.951  -4.242  1.00  0.00     0.074 C 
BRANCH  37  38
ATOM     38  CG  LYS A   1     -20.990  -5.456  -5.658  1.00  0.00    -0.056 A 
ATOM     39  CD1 LYS A   1     -22.108  -5.296  -6.487  1.00  0.00     0.010 A 
ATOM     40  CE1 LYS A   1     -21.966  -4.756  -7.766  1.00  0.00     0.037 A 
ATOM     41  CZ  LYS A   1     -20.702  -4.383  -8.216  1.00  0.00     0.065 A 
ATOM     42  CE2 LYS A   1     -19.583  -4.572  -7.426  1.00  0.00     0.037 A 
ATOM     43  CD2 LYS A   1     -19.723  -5.107  -6.147  1.00  0.00     0.010 A 
BRANCH  41  44
ATOM     44  OH  LYS A   1     -20.529  -3.814  -9.444  1.00  0.00    -0.361 OA
ATOM     45  HH  LYS A   1     -21.327  -3.306  -9.662  1.00  0.00     0.217 HD
ENDBRANCH  41  44
ENDBRANCH  37  38
ENDBRANCH  36  37
BRANCH  36  46
ATOM     46  C   LYS A   1     -20.694  -8.329  -5.046  1.00  0.00     0.163 C 
ATOM     47  O   LYS A   1     -21.181  -8.890  -6.018  1.00  0.00    -0.648 OA
BRANCH  46  48
ATOM     48  OXT LYS A   1     -19.368  -8.410  -4.775  1.00  0.00    -0.775 OA
ATOM     49  HXT LYS A   1     -18.838  -7.627  -5.023  1.00  0.00     0.167 HD
ENDBRANCH  46  48
ENDBRANCH  36  46
ENDBRANCH  34  36
ENDBRANCH  28  32
ENDBRANCH   1  28
TORSDOF 21
BEGIN_RES ARG D 557
REMARK  4 active torsions:
REMARK  status: ('A' for Active; 'I' for Inactive)
REMARK    1  A    between atoms: CA   and  CB  
REMARK    2  A    between atoms: CB   and  CG  
REMARK    3  A    between atoms: CG   and  CD  
REMARK    4  A    between atoms: CD   and  NE  
REMARK       I    between atoms: NE   and  CZ  
REMARK       I    between atoms: CZ   and  NH1 
REMARK       I    between atoms: CZ   and  NH2 
ROOT
ATOM      1  CA  ARG D 557     -26.217   2.705 -17.014  1.00 35.49     0.159 C 
ENDROOT
BRANCH   1   2
ATOM      2  CB  ARG D 557     -26.789   1.319 -17.183  1.00 35.49     0.034 C 
BRANCH   2   3
ATOM      3  CG  ARG D 557     -25.863   0.195 -16.999  1.00 35.49     0.027 C 
BRANCH   3   4
ATOM      4  CD  ARG D 557     -26.266  -0.691 -15.883  1.00 35.49     0.116 C 
BRANCH   4   5
ATOM      5  NE  ARG D 557     -25.201  -0.889 -14.935  1.00 35.49    -0.212 N 
ATOM      6  CZ  ARG D 557     -24.883  -2.028 -14.363  1.00 35.49     0.666 C 
ATOM      7  NH1 ARG D 557     -25.543  -3.148 -14.598  1.00 35.49    -0.235 N 
ATOM      8  NH2 ARG D 557     -23.872  -2.028 -13.544  1.00 35.49    -0.235 N 
ATOM      9  HH  ARG D 557     -26.210  -3.172 -15.135  1.00 35.49     0.174 HD
ATOM     10  HH  ARG D 557     -25.289  -3.861 -14.198  1.00 35.49     0.174 HD
ATOM     11  HH  ARG D 557     -23.460  -1.292 -13.417  1.00 35.49     0.174 HD
ATOM     12  HH  ARG D 557     -23.635  -2.745 -13.159  1.00 35.49     0.174 HD
ATOM     13  HE  ARG D 557     -24.769  -0.205 -14.671  1.00 35.49     0.178 HD
ENDBRANCH   4   5
ENDBRANCH   3   4
ENDBRANCH   2   3
ENDBRANCH   1   2
END_RES ARG D 557
BEGIN_RES GLU D 570
REMARK  3 active torsions:
REMARK  status: ('A' for Active; 'I' for Inactive)
REMARK    5  A    between atoms: CA   and  CB  
REMARK    6  A    between atoms: CB   and  CG  
REMARK    7  A    between atoms: CG   and  CD  
ROOT
ATOM     14  CA  GLU D 570     -18.033  -6.348 -13.375  1.00 32.92     0.160 C 
ENDROOT
BRANCH  14  15
ATOM     15  CB  GLU D 570     -19.500  -6.345 -13.794  1.00 32.92     0.043 C 
BRANCH  15  16
ATOM     16  CG  GLU D 570     -20.449  -5.566 -12.958  1.00 32.92     0.100 C 
BRANCH  16  17
ATOM     17  CD  GLU D 570     -21.700  -5.165 -13.704  1.00 32.92     0.185 C 
ATOM     18  OE1 GLU D 570     -21.709  -5.227 -14.948  1.00 32.92    -0.647 OA
ATOM     19  OE2 GLU D 570     -22.677  -4.769 -13.037  1.00 32.92    -0.647 OA
ENDBRANCH  16  17
ENDBRANCH  15  16
ENDBRANCH  14  15
END_RES GLU D 570
ENDMDL
MODEL 4
REMARK VINA RESULT:      -6.9      2.777      7.082
REMARK  21 active torsions:
REMARK  status: ('A' for Active; 'I' for Inactive)
REMARK    1  A    between atoms: CB_2  and  CA_4 
REMARK    2  A    between atoms: CA_4  and  C_5 
REMARK    3  A    between atoms: CA_4  and  N_20 
REMARK       I    between atoms: C_5  and  N_7 
REMARK    4  A    between atoms: N_7  and  CA_8 
REMARK    5  A    between atoms: CA_8  and  CB_9 
REMARK    6  A    between atoms: CA_8  and  C_17 
REMARK    7  A    between atoms: CB_9  and  CG_10 
REMARK    8  A    between atoms: CZ_13  and  OH_16 
REMARK    9  A    between atoms: C_17  and  OXT_19 
REMARK       I    between atoms: N_20  and  C_21 
REMARK   10  A    between atoms: C_21  and  CA_23 
REMARK   11  A    between atoms: CA_23  and  CB_24 
REMARK   12  A    between atoms: CA_23  and  N_28 
REMARK   13  A    between atoms: CB_24  and  CG_25 
REMARK   14  A    between atoms: CG_25  and  OD2_27 
REMARK       I    between atoms: N_28  and  C_29 
REMARK   15  A    between atoms: C_29  and  CA_31 
REMARK   16  A    between atoms: CA_31  and  CB_32 
REMARK   17  A    between atoms: CA_31  and  N_37 
REMARK   18  A    between atoms: CB_32  and  CG_33 
REMARK   19  A    between atoms: CG_33  and  CD_34 
REMARK   20  A    between atoms: CD_34  and  CE_35 
REMARK   21  A    between atoms: CE_35  and  NZ_36 
REMARK       I    between atoms: N_37  and  C_47 
ROOT
ATOM      1  N   LYS A   1     -19.418  -8.678  -5.593  1.00  0.00    -0.346 N 
ATOM      2  C   LYS A   1     -18.380  -9.364  -4.998  1.00  0.00     0.241 C 
ATOM      3  O   LYS A   1     -18.080  -9.205  -3.819  1.00  0.00    -0.271 OA
ATOM      4  H   LYS A   1     -19.486  -8.728  -6.607  1.00  0.00     0.163 HD
ENDROOT
BRANCH   2   5
ATOM      5  CA  LYS A   1     -17.594 -10.319  -5.937  1.00  0.00     0.186 C 
BRANCH   5   6
ATOM      6  CB  LYS A   1     -16.081 -10.113  -5.805  1.00  0.00     0.144 C 
BRANCH   6   7
ATOM      7  CG  LYS A   1     -15.371 -11.433  -5.699  1.00  0.00     0.141 C 
ATOM      8  OD1 LYS A   1     -14.961 -11.904  -4.649  1.00  0.00    -0.650 OA
BRANCH   7   9
ATOM      9  OD2 LYS A   1     -15.197 -12.061  -6.885  1.00  0.00    -0.776 OA
ATOM     10  HD2 LYS A   1     -14.956 -11.464  -7.623  1.00  0.00     0.167 HD
ENDBRANCH   7   9
ENDBRANCH   6   7
ENDBRANCH   5   6
BRANCH   5  11
ATOM     11  N   LYS A   1     -18.059 -11.698  -5.728  1.00  0.00    -0.346 N 
ATOM     12  C   LYS A   1     -19.239 -12.195  -6.222  1.00  0.00     0.241 C 
ATOM     13  O   LYS A   1     -20.005 -11.494  -6.881  1.00  0.00    -0.271 OA
ATOM     14  H   LYS A   1     -17.464 -12.321  -5.180  1.00  0.00     0.163 HD
BRANCH  12  15
ATOM     15  CA  LYS A   1     -19.509 -13.685  -5.905  1.00  0.00     0.176 C 
BRANCH  15  16
ATOM     16  CB  LYS A   1     -20.885 -13.832  -5.242  1.00  0.00     0.035 C 
BRANCH  16  17
ATOM     17  CG  LYS A   1     -21.027 -13.110  -3.897  1.00  0.00     0.004 C 
BRANCH  17  18
ATOM     18  CD  LYS A   1     -22.401 -13.307  -3.249  1.00  0.00     0.030 C 
BRANCH  18  19
ATOM     19  CE  LYS A   1     -22.595 -14.702  -2.657  1.00  0.00     0.267 C 
BRANCH  19  20
ATOM     20  NZ  LYS A   1     -23.984 -14.954  -2.293  1.00  0.00     0.078 N 
ATOM     21  HZ1 LYS A   1     -24.021 -15.655  -1.553  1.00  0.00     0.312 HD
ATOM     22  HZ2 LYS A   1     -24.471 -15.361  -3.091  1.00  0.00     0.312 HD
ENDBRANCH  19  20
ENDBRANCH  18  19
ENDBRANCH  17  18
ENDBRANCH  16  17
ENDBRANCH  15  16
BRANCH  15  23
ATOM     23  N   LYS A   1     -19.449 -14.491  -7.122  1.00  0.00    -0.348 N 
HETATM   24  C   UNK A   0     -18.265 -14.778  -7.754  1.00  0.00     0.214 C 
HETATM   25  O   UNK A   0     -17.191 -14.304  -7.396  1.00  0.00    -0.274 OA
HETATM   26  C   UNK A   0     -18.387 -15.757  -8.894  1.00  0.00     0.117 C 
ATOM     27  H   LYS A   1     -20.318 -14.827  -7.519  1.00  0.00     0.163 HD
ENDBRANCH  15  23
ENDBRANCH  12  15
ENDBRANCH   5  11
ENDBRANCH   2   5
BRANCH   1  28
ATOM     28  CA  LYS A   1     -20.234  -7.688  -4.885  1.00  0.00     0.180 C 
BRANCH  28  29
ATOM     29  CB  LYS A   1     -21.249  -7.010  -5.852  1.00  0.00     0.009 C 
ATOM     30  CG1 LYS A   1     -22.324  -6.215  -5.100  1.00  0.00     0.012 C 
ATOM     31  CG2 LYS A   1     -20.589  -6.085  -6.878  1.00  0.00     0.012 C 
ENDBRANCH  28  29
BRANCH  28  32
ATOM     32  C   LYS A   1     -21.070  -8.419  -3.811  1.00  0.00     0.241 C 
ATOM     33  O   LYS A   1     -21.869  -9.308  -4.111  1.00  0.00    -0.271 OA
ATOM     34  N   LYS A   1     -20.942  -7.956  -2.527  1.00  0.00    -0.345 N 
ATOM     35  H   LYS A   1     -20.206  -7.303  -2.287  1.00  0.00     0.163 HD
BRANCH  34  36
ATOM     36  CA  LYS A   1     -21.817  -8.402  -1.434  1.00  0.00     0.186 C 
BRANCH  36  37
ATOM     37  CB  LYS A   1     -21.125  -9.274  -0.377  1.00  0.00     0.074 C 
BRANCH  37  38
ATOM     38  CG  LYS A   1     -21.837 -10.549  -0.005  1.00  0.00    -0.056 A 
ATOM     39  CD1 LYS A   1     -23.162 -10.776  -0.400  1.00  0.00     0.010 A 
ATOM     40  CE1 LYS A   1     -23.780 -11.996  -0.122  1.00  0.00     0.037 A 
ATOM     41  CZ  LYS A   1     -23.073 -12.984   0.557  1.00  0.00     0.065 A 
ATOM     42  CE2 LYS A   1     -21.779 -12.760   0.990  1.00  0.00     0.037 A 
ATOM     43  CD2 LYS A   1     -21.158 -11.545   0.710  1.00  0.00     0.010 A 
BRANCH  41  44
ATOM     44  OH  LYS A   1     -23.630 -14.204   0.810  1.00  0.00    -0.361 OA
ATOM     45  HH  LYS A   1     -22.952 -14.886   0.672  1.00  0.00     0.217 HD
ENDBRANCH  41  44
ENDBRANCH  37  38
ENDBRANCH  36  37
BRANCH  36  46
ATOM     46  C   LYS A   1     -22.527  -7.188  -0.808  1.00  0.00     0.163 C 
ATOM     47  O   LYS A   1     -22.384  -6.039  -1.203  1.00  0.00    -0.648 OA
BRANCH  46  48
ATOM     48  OXT LYS A   1     -23.388  -7.489   0.195  1.00  0.00    -0.775 OA
ATOM     49  HXT LYS A   1     -23.980  -8.248   0.030  1.00  0.00     0.167 HD
ENDBRANCH  46  48
ENDBRANCH  36  46
ENDBRANCH  34  36
ENDBRANCH  28  32
ENDBRANCH   1  28
TORSDOF 21
BEGIN_RES ARG D 557
REMARK  4 active torsions:
REMARK  status: ('A' for Active; 'I' for Inactive)
REMARK    1  A    between atoms: CA   and  CB  
REMARK    2  A    between atoms: CB   and  CG  
REMARK    3  A    between atoms: CG   and  CD  
REMARK    4  A    between atoms: CD   and  NE  
REMARK       I    between atoms: NE   and  CZ  
REMARK       I    between atoms: CZ   and  NH1 
REMARK       I    between atoms: CZ   and  NH2 
ROOT
ATOM      1  CA  ARG D 557     -26.217   2.705 -17.014  1.00 35.49     0.159 C 
ENDROOT
BRANCH   1   2
ATOM      2  CB  ARG D 557     -26.789   1.319 -17.183  1.00 35.49     0.034 C 
BRANCH   2   3
ATOM      3  CG  ARG D 557     -25.863   0.195 -16.997  1.00 35.49     0.027 C 
BRANCH   3   4
ATOM      4  CD  ARG D 557     -26.272  -0.695 -15.887  1.00 35.49     0.116 C 
BRANCH   4   5
ATOM      5  NE  ARG D 557     -25.211  -0.896 -14.935  1.00 35.49    -0.212 N 
ATOM      6  CZ  ARG D 557     -24.903  -2.036 -14.358  1.00 35.49     0.666 C 
ATOM      7  NH1 ARG D 557     -25.569  -3.152 -14.591  1.00 35.49    -0.235 N 
ATOM      8  NH2 ARG D 557     -23.894  -2.039 -13.535  1.00 35.49    -0.235 N 
ATOM      9  HH  ARG D 557     -26.234  -3.173 -15.130  1.00 35.49     0.174 HD
ATOM     10  HH  ARG D 557     -25.321  -3.866 -14.188  1.00 35.49     0.174 HD
ATOM     11  HH  ARG D 557     -23.478  -1.305 -13.410  1.00 35.49     0.174 HD
ATOM     12  HH  ARG D 557     -23.663  -2.756 -13.147  1.00 35.49     0.174 HD
ATOM     13  HE  ARG D 557     -24.776  -0.215 -14.672  1.00 35.49     0.178 HD
ENDBRANCH   4   5
ENDBRANCH   3   4
ENDBRANCH   2   3
ENDBRANCH   1   2
END_RES ARG D 557
BEGIN_RES GLU D 570
REMARK  3 active torsions:
REMARK  status: ('A' for Active; 'I' for Inactive)
REMARK    5  A    between atoms: CA   and  CB  
REMARK    6  A    between atoms: CB   and  CG  
REMARK    7  A    between atoms: CG   and  CD  
ROOT
ATOM     14  CA  GLU D 570     -18.033  -6.348 -13.375  1.00 32.92     0.160 C 
ENDROOT
BRANCH  14  15
ATOM     15  CB  GLU D 570     -19.500  -6.345 -13.794  1.00 32.92     0.043 C 
BRANCH  15  16
ATOM     16  CG  GLU D 570     -20.447  -5.555 -12.966  1.00 32.92     0.100 C 
BRANCH  16  17
ATOM     17  CD  GLU D 570     -21.679  -5.124 -13.727  1.00 32.92     0.185 C 
ATOM     18  OE1 GLU D 570     -22.719  -4.857 -13.095  1.00 32.92    -0.647 OA
ATOM     19  OE2 GLU D 570     -21.608  -5.070 -14.971  1.00 32.92    -0.647 OA
ENDBRANCH  16  17
ENDBRANCH  15  16
ENDBRANCH  14  15
END_RES GLU D 570
ENDMDL
MODEL 5
REMARK VINA RESULT:      -6.9      1.648      2.675
REMARK  21 active torsions:
REMARK  status: ('A' for Active; 'I' for Inactive)
REMARK    1  A    between atoms: CB_2  and  CA_4 
REMARK    2  A    between atoms: CA_4  and  C_5 
REMARK    3  A    between atoms: CA_4  and  N_20 
REMARK       I    between atoms: C_5  and  N_7 
REMARK    4  A    between atoms: N_7  and  CA_8 
REMARK    5  A    between atoms: CA_8  and  CB_9 
REMARK    6  A    between atoms: CA_8  and  C_17 
REMARK    7  A    between atoms: CB_9  and  CG_10 
REMARK    8  A    between atoms: CZ_13  and  OH_16 
REMARK    9  A    between atoms: C_17  and  OXT_19 
REMARK       I    between atoms: N_20  and  C_21 
REMARK   10  A    between atoms: C_21  and  CA_23 
REMARK   11  A    between atoms: CA_23  and  CB_24 
REMARK   12  A    between atoms: CA_23  and  N_28 
REMARK   13  A    between atoms: CB_24  and  CG_25 
REMARK   14  A    between atoms: CG_25  and  OD2_27 
REMARK       I    between atoms: N_28  and  C_29 
REMARK   15  A    between atoms: C_29  and  CA_31 
REMARK   16  A    between atoms: CA_31  and  CB_32 
REMARK   17  A    between atoms: CA_31  and  N_37 
REMARK   18  A    between atoms: CB_32  and  CG_33 
REMARK   19  A    between atoms: CG_33  and  CD_34 
REMARK   20  A    between atoms: CD_34  and  CE_35 
REMARK   21  A    between atoms: CE_35  and  NZ_36 
REMARK       I    between atoms: N_37  and  C_47 
ROOT
ATOM      1  N   LYS A   1     -20.225  -9.375  -4.005  1.00  0.00    -0.346 N 
ATOM      2  C   LYS A   1     -20.625 -10.667  -4.274  1.00  0.00     0.241 C 
ATOM      3  O   LYS A   1     -21.754 -10.933  -4.674  1.00  0.00    -0.271 OA
ATOM      4  H   LYS A   1     -19.345  -9.255  -3.509  1.00  0.00     0.163 HD
ENDROOT
BRANCH   2   5
ATOM      5  CA  LYS A   1     -19.559 -11.761  -3.995  1.00  0.00     0.186 C 
BRANCH   5   6
ATOM      6  CB  LYS A   1     -18.296 -11.538  -4.833  1.00  0.00     0.144 C 
BRANCH   6   7
ATOM      7  CG  LYS A   1     -18.648 -11.291  -6.273  1.00  0.00     0.141 C 
ATOM      8  OD1 LYS A   1     -19.098 -12.146  -7.021  1.00  0.00    -0.650 OA
BRANCH   7   9
ATOM      9  OD2 LYS A   1     -18.400 -10.028  -6.691  1.00  0.00    -0.776 OA
ATOM     10  HD2 LYS A   1     -18.112  -9.420  -5.980  1.00  0.00     0.167 HD
ENDBRANCH   7   9
ENDBRANCH   6   7
ENDBRANCH   5   6
BRANCH   5  11
ATOM     11  N   LYS A   1     -19.339 -11.866  -2.545  1.00  0.00    -0.346 N 
ATOM     12  C   LYS A   1     -19.912 -12.824  -1.747  1.00  0.00     0.241 C 
ATOM     13  O   LYS A   1     -20.674 -13.672  -2.208  1.00  0.00    -0.271 OA
ATOM     14  H   LYS A   1     -18.720 -11.180  -2.109  1.00  0.00     0.163 HD
BRANCH  12  15
ATOM     15  CA  LYS A   1     -19.511 -12.762  -0.254  1.00  0.00     0.176 C 
BRANCH  15  16
ATOM     16  CB  LYS A   1     -18.059 -13.230  -0.088  1.00  0.00     0.035 C 
BRANCH  16  17
ATOM     17  CG  LYS A   1     -17.176 -12.289   0.739  1.00  0.00     0.004 C 
BRANCH  17  18
ATOM     18  CD  LYS A   1     -15.890 -11.877   0.014  1.00  0.00     0.030 C 
BRANCH  18  19
ATOM     19  CE  LYS A   1     -16.022 -11.898  -1.509  1.00  0.00     0.267 C 
BRANCH  19  20
ATOM     20  NZ  LYS A   1     -15.712 -10.604  -2.103  1.00  0.00     0.078 N 
ATOM     21  HZ1 LYS A   1     -15.930  -9.862  -1.438  1.00  0.00     0.312 HD
ATOM     22  HZ2 LYS A   1     -16.319 -10.450  -2.907  1.00  0.00     0.312 HD
ENDBRANCH  19  20
ENDBRANCH  18  19
ENDBRANCH  17  18
ENDBRANCH  16  17
ENDBRANCH  15  16
BRANCH  15  23
ATOM     23  N   LYS A   1     -19.666 -11.406   0.266  1.00  0.00    -0.348 N 
HETATM   24  C   UNK A   0     -20.856 -10.944   0.769  1.00  0.00     0.214 C 
HETATM   25  O   UNK A   0     -21.891 -11.604   0.733  1.00  0.00    -0.274 OA
HETATM   26  C   UNK A   0     -20.777  -9.582   1.411  1.00  0.00     0.117 C 
ATOM     27  H   LYS A   1     -18.867 -10.784   0.230  1.00  0.00     0.163 HD
ENDBRANCH  15  23
ENDBRANCH  12  15
ENDBRANCH   5  11
ENDBRANCH   2   5
BRANCH   1  28
ATOM     28  CA  LYS A   1     -21.111  -8.216  -4.147  1.00  0.00     0.180 C 
BRANCH  28  29
ATOM     29  CB  LYS A   1     -20.930  -7.228  -2.957  1.00  0.00     0.009 C 
ATOM     30  CG1 LYS A   1     -22.246  -6.542  -2.568  1.00  0.00     0.012 C 
ATOM     31  CG2 LYS A   1     -20.334  -7.882  -1.707  1.00  0.00     0.012 C 
ENDBRANCH  28  29
BRANCH  28  32
ATOM     32  C   LYS A   1     -20.710  -7.445  -5.425  1.00  0.00     0.241 C 
ATOM     33  O   LYS A   1     -19.654  -7.683  -6.015  1.00  0.00    -0.271 OA
ATOM     34  N   LYS A   1     -21.542  -6.424  -5.801  1.00  0.00    -0.345 N 
ATOM     35  H   LYS A   1     -22.452  -6.316  -5.369  1.00  0.00     0.163 HD
BRANCH  34  36
ATOM     36  CA  LYS A   1     -21.194  -5.469  -6.862  1.00  0.00     0.186 C 
BRANCH  36  37
ATOM     37  CB  LYS A   1     -22.303  -4.465  -7.208  1.00  0.00     0.074 C 
BRANCH  37  38
ATOM     38  CG  LYS A   1     -22.621  -4.313  -8.673  1.00  0.00    -0.056 A 
ATOM     39  CD1 LYS A   1     -21.627  -4.470  -9.647  1.00  0.00     0.010 A 
ATOM     40  CE1 LYS A   1     -21.953  -4.411 -11.002  1.00  0.00     0.037 A 
ATOM     41  CZ  LYS A   1     -23.274  -4.186 -11.381  1.00  0.00     0.065 A 
ATOM     42  CE2 LYS A   1     -24.260  -3.988 -10.432  1.00  0.00     0.037 A 
ATOM     43  CD2 LYS A   1     -23.938  -4.051  -9.078  1.00  0.00     0.010 A 
BRANCH  41  44
ATOM     44  OH  LYS A   1     -23.638  -4.163 -12.696  1.00  0.00    -0.361 OA
ATOM     45  HH  LYS A   1     -24.274  -4.879 -12.851  1.00  0.00     0.217 HD
ENDBRANCH  41  44
ENDBRANCH  37  38
ENDBRANCH  36  37
BRANCH  36  46
ATOM     46  C   LYS A   1     -19.867  -4.770  -6.519  1.00  0.00     0.163 C 
ATOM     47  O   LYS A   1     -19.023  -4.468  -7.351  1.00  0.00    -0.648 OA
BRANCH  46  48
ATOM     48  OXT LYS A   1     -19.716  -4.449  -5.210  1.00  0.00    -0.775 OA
ATOM     49  HXT LYS A   1     -19.173  -5.068  -4.684  1.00  0.00     0.167 HD
ENDBRANCH  46  48
ENDBRANCH  36  46
ENDBRANCH  34  36
ENDBRANCH  28  32
ENDBRANCH   1  28
TORSDOF 21
BEGIN_RES ARG D 557
REMARK  4 active torsions:
REMARK  status: ('A' for Active; 'I' for Inactive)
REMARK    1  A    between atoms: CA   and  CB  
REMARK    2  A    between atoms: CB   and  CG  
REMARK    3  A    between atoms: CG   and  CD  
REMARK    4  A    between atoms: CD   and  NE  
REMARK       I    between atoms: NE   and  CZ  
REMARK       I    between atoms: CZ   and  NH1 
REMARK       I    between atoms: CZ   and  NH2 
ROOT
ATOM      1  CA  ARG D 557     -26.217   2.705 -17.014  1.00 35.49     0.159 C 
ENDROOT
BRANCH   1   2
ATOM      2  CB  ARG D 557     -26.789   1.319 -17.183  1.00 35.49     0.034 C 
BRANCH   2   3
ATOM      3  CG  ARG D 557     -25.891   0.194 -16.895  1.00 35.49     0.027 C 
BRANCH   3   4
ATOM      4  CD  ARG D 557     -24.987   0.471 -15.756  1.00 35.49     0.116 C 
BRANCH   4   5
ATOM      5  NE  ARG D 557     -23.902  -0.472 -15.683  1.00 35.49    -0.212 N 
ATOM      6  CZ  ARG D 557     -23.829  -1.498 -14.866  1.00 35.49     0.666 C 
ATOM      7  NH1 ARG D 557     -24.774  -1.772 -13.985  1.00 35.49    -0.235 N 
ATOM      8  NH2 ARG D 557     -22.779  -2.262 -14.953  1.00 35.49    -0.235 N 
ATOM      9  HH  ARG D 557     -25.475  -1.284 -13.912  1.00 35.49     0.174 HD
ATOM     10  HH  ARG D 557     -24.674  -2.456 -13.480  1.00 35.49     0.174 HD
ATOM     11  HH  ARG D 557     -22.189  -2.065 -15.536  1.00 35.49     0.174 HD
ATOM     12  HH  ARG D 557     -22.699  -2.936 -14.445  1.00 35.49     0.174 HD
ATOM     13  HE  ARG D 557     -23.216  -0.329 -16.165  1.00 35.49     0.178 HD
ENDBRANCH   4   5
ENDBRANCH   3   4
ENDBRANCH   2   3
ENDBRANCH   1   2
END_RES ARG D 557
BEGIN_RES GLU D 570
REMARK  3 active torsions:
REMARK  status: ('A' for Active; 'I' for Inactive)
REMARK    5  A    between atoms: CA   and  CB  
REMARK    6  A    between atoms: CB   and  CG  
REMARK    7  A    between atoms: CG   and  CD  
ROOT
ATOM     14  CA  GLU D 570     -18.033  -6.348 -13.375  1.00 32.92     0.160 C 
ENDROOT
BRANCH  14  15
ATOM     15  CB  GLU D 570     -19.500  -6.345 -13.794  1.00 32.92     0.043 C 
BRANCH  15  16
ATOM     16  CG  GLU D 570     -19.796  -6.271 -15.248  1.00 32.92     0.100 C 
BRANCH  16  17
ATOM     17  CD  GLU D 570     -21.026  -5.450 -15.558  1.00 32.92     0.185 C 
ATOM     18  OE1 GLU D 570     -21.759  -5.081 -14.621  1.00 32.92    -0.647 OA
ATOM     19  OE2 GLU D 570     -21.269  -5.188 -16.753  1.00 32.92    -0.647 OA
ENDBRANCH  16  17
ENDBRANCH  15  16
ENDBRANCH  14  15
END_RES GLU D 570
ENDMDL
MODEL 6
REMARK VINA RESULT:      -6.9      2.435      4.801
REMARK  21 active torsions:
REMARK  status: ('A' for Active; 'I' for Inactive)
REMARK    1  A    between atoms: CB_2  and  CA_4 
REMARK    2  A    between atoms: CA_4  and  C_5 
REMARK    3  A    between atoms: CA_4  and  N_20 
REMARK       I    between atoms: C_5  and  N_7 
REMARK    4  A    between atoms: N_7  and  CA_8 
REMARK    5  A    between atoms: CA_8  and  CB_9 
REMARK    6  A    between atoms: CA_8  and  C_17 
REMARK    7  A    between atoms: CB_9  and  CG_10 
REMARK    8  A    between atoms: CZ_13  and  OH_16 
REMARK    9  A    between atoms: C_17  and  OXT_19 
REMARK       I    between atoms: N_20  and  C_21 
REMARK   10  A    between atoms: C_21  and  CA_23 
REMARK   11  A    between atoms: CA_23  and  CB_24 
REMARK   12  A    between atoms: CA_23  and  N_28 
REMARK   13  A    between atoms: CB_24  and  CG_25 
REMARK   14  A    between atoms: CG_25  and  OD2_27 
REMARK       I    between atoms: N_28  and  C_29 
REMARK   15  A    between atoms: C_29  and  CA_31 
REMARK   16  A    between atoms: CA_31  and  CB_32 
REMARK   17  A    between atoms: CA_31  and  N_37 
REMARK   18  A    between atoms: CB_32  and  CG_33 
REMARK   19  A    between atoms: CG_33  and  CD_34 
REMARK   20  A    between atoms: CD_34  and  CE_35 
REMARK   21  A    between atoms: CE_35  and  NZ_36 
REMARK       I    between atoms: N_37  and  C_47 
ROOT
ATOM      1  N   LYS A   1     -19.770 -11.187  -3.819  1.00  0.00    -0.346 N 
ATOM      2  C   LYS A   1     -18.532 -11.704  -3.499  1.00  0.00     0.241 C 
ATOM      3  O   LYS A   1     -17.629 -11.797  -4.323  1.00  0.00    -0.271 OA
ATOM      4  H   LYS A   1     -20.516 -11.310  -3.138  1.00  0.00     0.163 HD
ENDROOT
BRANCH   2   5
ATOM      5  CA  LYS A   1     -18.381 -12.197  -2.035  1.00  0.00     0.186 C 
BRANCH   5   6
ATOM      6  CB  LYS A   1     -17.412 -11.312  -1.243  1.00  0.00     0.144 C 
BRANCH   6   7
ATOM      7  CG  LYS A   1     -16.838 -12.062  -0.075  1.00  0.00     0.141 C 
ATOM      8  OD1 LYS A   1     -15.909 -11.655   0.606  1.00  0.00    -0.650 OA
BRANCH   7   9
ATOM      9  OD2 LYS A   1     -17.427 -13.259   0.154  1.00  0.00    -0.776 OA
ATOM     10  HD2 LYS A   1     -17.041 -14.000  -0.357  1.00  0.00     0.167 HD
ENDBRANCH   7   9
ENDBRANCH   6   7
ENDBRANCH   5   6
BRANCH   5  11
ATOM     11  N   LYS A   1     -19.714 -12.357  -1.436  1.00  0.00    -0.346 N 
ATOM     12  C   LYS A   1     -20.481 -11.316  -0.975  1.00  0.00     0.241 C 
ATOM     13  O   LYS A   1     -20.084 -10.153  -1.029  1.00  0.00    -0.271 OA
ATOM     14  H   LYS A   1     -20.089 -13.304  -1.358  1.00  0.00     0.163 HD
BRANCH  12  15
ATOM     15  CA  LYS A   1     -21.865 -11.717  -0.413  1.00  0.00     0.176 C 
BRANCH  15  16
ATOM     16  CB  LYS A   1     -22.929 -10.721  -0.897  1.00  0.00     0.035 C 
BRANCH  16  17
ATOM     17  CG  LYS A   1     -23.480  -9.796   0.194  1.00  0.00     0.004 C 
BRANCH  17  18
ATOM     18  CD  LYS A   1     -23.043  -8.337   0.023  1.00  0.00     0.030 C 
BRANCH  18  19
ATOM     19  CE  LYS A   1     -22.146  -7.838   1.157  1.00  0.00     0.267 C 
BRANCH  19  20
ATOM     20  NZ  LYS A   1     -21.033  -8.744   1.412  1.00  0.00     0.078 N 
ATOM     21  HZ1 LYS A   1     -20.745  -9.186   0.539  1.00  0.00     0.312 HD
ATOM     22  HZ2 LYS A   1     -21.348  -9.499   2.020  1.00  0.00     0.312 HD
ENDBRANCH  19  20
ENDBRANCH  18  19
ENDBRANCH  17  18
ENDBRANCH  16  17
ENDBRANCH  15  16
BRANCH  15  23
ATOM     23  N   LYS A   1     -22.219 -13.072  -0.830  1.00  0.00    -0.348 N 
HETATM   24  C   UNK A   0     -23.031 -13.882  -0.076  1.00  0.00     0.214 C 
HETATM   25  O   UNK A   0     -23.439 -13.562   1.036  1.00  0.00    -0.274 OA
HETATM   26  C   UNK A   0     -23.416 -15.177  -0.747  1.00  0.00     0.117 C 
ATOM     27  H   LYS A   1     -21.829 -13.426  -1.695  1.00  0.00     0.163 HD
ENDBRANCH  15  23
ENDBRANCH  12  15
ENDBRANCH   5  11
ENDBRANCH   2   5
BRANCH   1  28
ATOM     28  CA  LYS A   1     -20.123 -10.728  -5.166  1.00  0.00     0.180 C 
BRANCH  28  29
ATOM     29  CB  LYS A   1     -21.587 -11.121  -5.521  1.00  0.00     0.009 C 
ATOM     30  CG1 LYS A   1     -21.670 -11.945  -6.813  1.00  0.00     0.012 C 
ATOM     31  CG2 LYS A   1     -22.301 -11.890  -4.406  1.00  0.00     0.012 C 
ENDBRANCH  28  29
BRANCH  28  32
ATOM     32  C   LYS A   1     -20.062  -9.185  -5.191  1.00  0.00     0.241 C 
ATOM     33  O   LYS A   1     -19.051  -8.586  -5.564  1.00  0.00    -0.271 OA
ATOM     34  N   LYS A   1     -21.152  -8.529  -4.682  1.00  0.00    -0.345 N 
ATOM     35  H   LYS A   1     -22.008  -9.033  -4.483  1.00  0.00     0.163 HD
BRANCH  34  36
ATOM     36  CA  LYS A   1     -21.164  -7.079  -4.443  1.00  0.00     0.186 C 
BRANCH  36  37
ATOM     37  CB  LYS A   1     -22.204  -6.304  -5.263  1.00  0.00     0.074 C 
BRANCH  37  38
ATOM     38  CG  LYS A   1     -21.679  -5.572  -6.471  1.00  0.00    -0.056 A 
ATOM     39  CD1 LYS A   1     -20.399  -5.838  -6.975  1.00  0.00     0.010 A 
ATOM     40  CE1 LYS A   1     -19.959  -5.216  -8.144  1.00  0.00     0.037 A 
ATOM     41  CZ  LYS A   1     -20.799  -4.321  -8.803  1.00  0.00     0.065 A 
ATOM     42  CE2 LYS A   1     -22.049  -4.018  -8.297  1.00  0.00     0.037 A 
ATOM     43  CD2 LYS A   1     -22.492  -4.641  -7.133  1.00  0.00     0.010 A 
BRANCH  41  44
ATOM     44  OH  LYS A   1     -20.419  -3.725  -9.970  1.00  0.00    -0.361 OA
ATOM     45  HH  LYS A   1     -19.777  -3.027  -9.765  1.00  0.00     0.217 HD
ENDBRANCH  41  44
ENDBRANCH  37  38
ENDBRANCH  36  37
BRANCH  36  46
ATOM     46  C   LYS A   1     -21.293  -6.802  -2.935  1.00  0.00     0.163 C 
ATOM     47  O   LYS A   1     -22.065  -5.981  -2.459  1.00  0.00    -0.648 OA
BRANCH  46  48
ATOM     48  OXT LYS A   1     -20.521  -7.587  -2.144  1.00  0.00    -0.775 OA
ATOM     49  HXT LYS A   1     -20.853  -7.729  -1.237  1.00  0.00     0.167 HD
ENDBRANCH  46  48
ENDBRANCH  36  46
ENDBRANCH  34  36
ENDBRANCH  28  32
ENDBRANCH   1  28
TORSDOF 21
BEGIN_RES ARG D 557
REMARK  4 active torsions:
REMARK  status: ('A' for Active; 'I' for Inactive)
REMARK    1  A    between atoms: CA   and  CB  
REMARK    2  A    between atoms: CB   and  CG  
REMARK    3  A    between atoms: CG   and  CD  
REMARK    4  A    between atoms: CD   and  NE  
REMARK       I    between atoms: NE   and  CZ  
REMARK       I    between atoms: CZ   and  NH1 
REMARK       I    between atoms: CZ   and  NH2 
ROOT
ATOM      1  CA  ARG D 557     -26.217   2.705 -17.014  1.00 35.49     0.159 C 
ENDROOT
BRANCH   1   2
ATOM      2  CB  ARG D 557     -26.789   1.319 -17.183  1.00 35.49     0.034 C 
BRANCH   2   3
ATOM      3  CG  ARG D 557     -25.862   0.195 -17.002  1.00 35.49     0.027 C 
BRANCH   3   4
ATOM      4  CD  ARG D 557     -26.280  -0.710 -15.906  1.00 35.49     0.116 C 
BRANCH   4   5
ATOM      5  NE  ARG D 557     -25.231  -0.914 -14.942  1.00 35.49    -0.212 N 
ATOM      6  CZ  ARG D 557     -24.972  -2.040 -14.316  1.00 35.49     0.666 C 
ATOM      7  NH1 ARG D 557     -25.683  -3.136 -14.505  1.00 35.49    -0.235 N 
ATOM      8  NH2 ARG D 557     -23.967  -2.050 -13.489  1.00 35.49    -0.235 N 
ATOM      9  HH  ARG D 557     -26.347  -3.153 -15.046  1.00 35.49     0.174 HD
ATOM     10  HH  ARG D 557     -25.466  -3.842 -14.071  1.00 35.49     0.174 HD
ATOM     11  HH  ARG D 557     -23.521  -1.329 -13.393  1.00 35.49     0.174 HD
ATOM     12  HH  ARG D 557     -23.767  -2.759 -13.070  1.00 35.49     0.174 HD
ATOM     13  HE  ARG D 557     -24.769  -0.240 -14.706  1.00 35.49     0.178 HD
ENDBRANCH   4   5
ENDBRANCH   3   4
ENDBRANCH   2   3
ENDBRANCH   1   2
END_RES ARG D 557
BEGIN_RES GLU D 570
REMARK  3 active torsions:
REMARK  status: ('A' for Active; 'I' for Inactive)
REMARK    5  A    between atoms: CA   and  CB  
REMARK    6  A    between atoms: CB   and  CG  
REMARK    7  A    between atoms: CG   and  CD  
ROOT
ATOM     14  CA  GLU D 570     -18.033  -6.348 -13.375  1.00 32.92     0.160 C 
ENDROOT
BRANCH  14  15
ATOM     15  CB  GLU D 570     -19.500  -6.345 -13.794  1.00 32.92     0.043 C 
BRANCH  15  16
ATOM     16  CG  GLU D 570     -20.451  -5.575 -12.951  1.00 32.92     0.100 C 
BRANCH  16  17
ATOM     17  CD  GLU D 570     -21.737  -5.240 -13.670  1.00 32.92     0.185 C 
ATOM     18  OE1 GLU D 570     -21.908  -5.657 -14.832  1.00 32.92    -0.647 OA
ATOM     19  OE2 GLU D 570     -22.577  -4.540 -13.070  1.00 32.92    -0.647 OA
ENDBRANCH  16  17
ENDBRANCH  15  16
ENDBRANCH  14  15
END_RES GLU D 570
ENDMDL
MODEL 7
REMARK VINA RESULT:      -6.8      1.737      3.262
REMARK  21 active torsions:
REMARK  status: ('A' for Active; 'I' for Inactive)
REMARK    1  A    between atoms: CB_2  and  CA_4 
REMARK    2  A    between atoms: CA_4  and  C_5 
REMARK    3  A    between atoms: CA_4  and  N_20 
REMARK       I    between atoms: C_5  and  N_7 
REMARK    4  A    between atoms: N_7  and  CA_8 
REMARK    5  A    between atoms: CA_8  and  CB_9 
REMARK    6  A    between atoms: CA_8  and  C_17 
REMARK    7  A    between atoms: CB_9  and  CG_10 
REMARK    8  A    between atoms: CZ_13  and  OH_16 
REMARK    9  A    between atoms: C_17  and  OXT_19 
REMARK       I    between atoms: N_20  and  C_21 
REMARK   10  A    between atoms: C_21  and  CA_23 
REMARK   11  A    between atoms: CA_23  and  CB_24 
REMARK   12  A    between atoms: CA_23  and  N_28 
REMARK   13  A    between atoms: CB_24  and  CG_25 
REMARK   14  A    between atoms: CG_25  and  OD2_27 
REMARK       I    between atoms: N_28  and  C_29 
REMARK   15  A    between atoms: C_29  and  CA_31 
REMARK   16  A    between atoms: CA_31  and  CB_32 
REMARK   17  A    between atoms: CA_31  and  N_37 
REMARK   18  A    between atoms: CB_32  and  CG_33 
REMARK   19  A    between atoms: CG_33  and  CD_34 
REMARK   20  A    between atoms: CD_34  and  CE_35 
REMARK   21  A    between atoms: CE_35  and  NZ_36 
REMARK       I    between atoms: N_37  and  C_47 
ROOT
ATOM      1  N   LYS A   1     -19.322  -9.723  -4.407  1.00  0.00    -0.346 N 
ATOM      2  C   LYS A   1     -18.777 -10.935  -4.778  1.00  0.00     0.241 C 
ATOM      3  O   LYS A   1     -19.262 -11.625  -5.668  1.00  0.00    -0.271 OA
ATOM      4  H   LYS A   1     -18.975  -9.301  -3.549  1.00  0.00     0.163 HD
ENDROOT
BRANCH   2   5
ATOM      5  CA  LYS A   1     -17.534 -11.379  -3.960  1.00  0.00     0.186 C 
BRANCH   5   6
ATOM      6  CB  LYS A   1     -16.256 -10.711  -4.478  1.00  0.00     0.144 C 
BRANCH   6   7
ATOM      7  CG  LYS A   1     -15.048 -11.539  -4.141  1.00  0.00     0.141 C 
ATOM      8  OD1 LYS A   1     -14.828 -12.004  -3.033  1.00  0.00    -0.650 OA
BRANCH   7   9
ATOM      9  OD2 LYS A   1     -14.195 -11.713  -5.177  1.00  0.00    -0.776 OA
ATOM     10  HD2 LYS A   1     -13.325 -11.278  -5.057  1.00  0.00     0.167 HD
ENDBRANCH   7   9
ENDBRANCH   6   7
ENDBRANCH   5   6
BRANCH   5  11
ATOM     11  N   LYS A   1     -17.803 -11.190  -2.527  1.00  0.00    -0.346 N 
ATOM     12  C   LYS A   1     -18.339 -12.155  -1.711  1.00  0.00     0.241 C 
ATOM     13  O   LYS A   1     -18.645 -13.264  -2.144  1.00  0.00    -0.271 OA
ATOM     14  H   LYS A   1     -17.575 -10.282  -2.117  1.00  0.00     0.163 HD
BRANCH  12  15
ATOM     15  CA  LYS A   1     -18.504 -11.745  -0.229  1.00  0.00     0.176 C 
BRANCH  15  16
ATOM     16  CB  LYS A   1     -19.993 -11.744   0.146  1.00  0.00     0.035 C 
BRANCH  16  17
ATOM     17  CG  LYS A   1     -20.466 -10.484   0.880  1.00  0.00     0.004 C 
BRANCH  17  18
ATOM     18  CD  LYS A   1     -21.775  -9.916   0.321  1.00  0.00     0.030 C 
BRANCH  18  19
ATOM     19  CE  LYS A   1     -21.997  -8.447   0.679  1.00  0.00     0.267 C 
BRANCH  19  20
ATOM     20  NZ  LYS A   1     -23.402  -8.070   0.593  1.00  0.00     0.078 N 
ATOM     21  HZ1 LYS A   1     -23.644  -7.472   1.383  1.00  0.00     0.312 HD
ATOM     22  HZ2 LYS A   1     -23.980  -8.904   0.683  1.00  0.00     0.312 HD
ENDBRANCH  19  20
ENDBRANCH  18  19
ENDBRANCH  17  18
ENDBRANCH  16  17
ENDBRANCH  15  16
BRANCH  15  23
ATOM     23  N   LYS A   1     -17.767 -12.655   0.644  1.00  0.00    -0.348 N 
HETATM   24  C   UNK A   0     -16.456 -12.438   0.990  1.00  0.00     0.214 C 
HETATM   25  O   UNK A   0     -15.790 -11.521   0.521  1.00  0.00    -0.274 OA
HETATM   26  C   UNK A   0     -15.919 -13.391   2.028  1.00  0.00     0.117 C 
ATOM     27  H   LYS A   1     -18.240 -13.484   0.983  1.00  0.00     0.163 HD
ENDBRANCH  15  23
ENDBRANCH  12  15
ENDBRANCH   5  11
ENDBRANCH   2   5
BRANCH   1  28
ATOM     28  CA  LYS A   1     -20.532  -9.167  -5.020  1.00  0.00     0.180 C 
BRANCH  28  29
ATOM     29  CB  LYS A   1     -21.467  -8.548  -3.941  1.00  0.00     0.009 C 
ATOM     30  CG1 LYS A   1     -22.347  -9.605  -3.260  1.00  0.00     0.012 C 
ATOM     31  CG2 LYS A   1     -20.718  -7.768  -2.857  1.00  0.00     0.012 C 
ENDBRANCH  28  29
BRANCH  28  32
ATOM     32  C   LYS A   1     -20.119  -8.012  -5.960  1.00  0.00     0.241 C 
ATOM     33  O   LYS A   1     -18.953  -7.873  -6.335  1.00  0.00    -0.271 OA
ATOM     34  N   LYS A   1     -21.098  -7.105  -6.269  1.00  0.00    -0.345 N 
ATOM     35  H   LYS A   1     -22.066  -7.296  -6.041  1.00  0.00     0.163 HD
BRANCH  34  36
ATOM     36  CA  LYS A   1     -20.818  -5.847  -6.975  1.00  0.00     0.186 C 
BRANCH  36  37
ATOM     37  CB  LYS A   1     -22.066  -5.080  -7.434  1.00  0.00     0.074 C 
BRANCH  37  38
ATOM     38  CG  LYS A   1     -22.009  -4.499  -8.823  1.00  0.00    -0.056 A 
ATOM     39  CD1 LYS A   1     -20.817  -4.503  -9.558  1.00  0.00     0.010 A 
ATOM     40  CE1 LYS A   1     -20.799  -4.041 -10.874  1.00  0.00     0.037 A 
ATOM     41  CZ  LYS A   1     -21.975  -3.566 -11.451  1.00  0.00     0.065 A 
ATOM     42  CE2 LYS A   1     -23.151  -3.517 -10.725  1.00  0.00     0.037 A 
ATOM     43  CD2 LYS A   1     -23.172  -3.983  -9.412  1.00  0.00     0.010 A 
BRANCH  41  44
ATOM     44  OH  LYS A   1     -22.005  -3.145 -12.748  1.00  0.00    -0.361 OA
ATOM     45  HH  LYS A   1     -21.097  -2.950 -13.029  1.00  0.00     0.217 HD
ENDBRANCH  41  44
ENDBRANCH  37  38
ENDBRANCH  36  37
BRANCH  36  46
ATOM     46  C   LYS A   1     -19.881  -4.971  -6.124  1.00  0.00     0.163 C 
ATOM     47  O   LYS A   1     -18.842  -4.481  -6.545  1.00  0.00    -0.648 OA
BRANCH  46  48
ATOM     48  OXT LYS A   1     -20.321  -4.724  -4.866  1.00  0.00    -0.775 OA
ATOM     49  HXT LYS A   1     -20.813  -3.889  -4.747  1.00  0.00     0.167 HD
ENDBRANCH  46  48
ENDBRANCH  36  46
ENDBRANCH  34  36
ENDBRANCH  28  32
ENDBRANCH   1  28
TORSDOF 21
BEGIN_RES ARG D 557
REMARK  4 active torsions:
REMARK  status: ('A' for Active; 'I' for Inactive)
REMARK    1  A    between atoms: CA   and  CB  
REMARK    2  A    between atoms: CB   and  CG  
REMARK    3  A    between atoms: CG   and  CD  
REMARK    4  A    between atoms: CD   and  NE  
REMARK       I    between atoms: NE   and  CZ  
REMARK       I    between atoms: CZ   and  NH1 
REMARK       I    between atoms: CZ   and  NH2 
ROOT
ATOM      1  CA  ARG D 557     -26.217   2.705 -17.014  1.00 35.49     0.159 C 
ENDROOT
BRANCH   1   2
ATOM      2  CB  ARG D 557     -26.789   1.319 -17.183  1.00 35.49     0.034 C 
BRANCH   2   3
ATOM      3  CG  ARG D 557     -25.912   0.195 -16.832  1.00 35.49     0.027 C 
BRANCH   3   4
ATOM      4  CD  ARG D 557     -26.625  -0.864 -16.081  1.00 35.49     0.116 C 
BRANCH   4   5
ATOM      5  NE  ARG D 557     -25.781  -1.496 -15.102  1.00 35.49    -0.212 N 
ATOM      6  CZ  ARG D 557     -25.826  -2.762 -14.752  1.00 35.49     0.666 C 
ATOM      7  NH1 ARG D 557     -26.692  -3.611 -15.272  1.00 35.49    -0.235 N 
ATOM      8  NH2 ARG D 557     -24.968  -3.169 -13.862  1.00 35.49    -0.235 N 
ATOM      9  HH  ARG D 557     -27.264  -3.365 -15.861  1.00 35.49     0.174 HD
ATOM     10  HH  ARG D 557     -26.673  -4.426 -15.007  1.00 35.49     0.174 HD
ATOM     11  HH  ARG D 557     -24.415  -2.600 -13.549  1.00 35.49     0.174 HD
ATOM     12  HH  ARG D 557     -24.964  -3.980 -13.613  1.00 35.49     0.174 HD
ATOM     13  HE  ARG D 557     -25.241  -1.006 -14.664  1.00 35.49     0.178 HD
ENDBRANCH   4   5
ENDBRANCH   3   4
ENDBRANCH   2   3
ENDBRANCH   1   2
END_RES ARG D 557
BEGIN_RES GLU D 570
REMARK  3 active torsions:
REMARK  status: ('A' for Active; 'I' for Inactive)
REMARK    5  A    between atoms: CA   and  CB  
REMARK    6  A    between atoms: CB   and  CG  
REMARK    7  A    between atoms: CG   and  CD  
ROOT
ATOM     14  CA  GLU D 570     -18.033  -6.348 -13.375  1.00 32.92     0.160 C 
ENDROOT
BRANCH  14  15
ATOM     15  CB  GLU D 570     -19.500  -6.345 -13.794  1.00 32.92     0.043 C 
BRANCH  15  16
ATOM     16  CG  GLU D 570     -19.799  -6.172 -15.239  1.00 32.92     0.100 C 
BRANCH  16  17
ATOM     17  CD  GLU D 570     -21.126  -5.495 -15.489  1.00 32.92     0.185 C 
ATOM     18  OE1 GLU D 570     -21.951  -5.418 -14.559  1.00 32.92    -0.647 OA
ATOM     19  OE2 GLU D 570     -21.351  -5.052 -16.633  1.00 32.92    -0.647 OA
ENDBRANCH  16  17
ENDBRANCH  15  16
ENDBRANCH  14  15
END_RES GLU D 570
ENDMDL
MODEL 8
REMARK VINA RESULT:      -6.8      2.402      8.379
REMARK  21 active torsions:
REMARK  status: ('A' for Active; 'I' for Inactive)
REMARK    1  A    between atoms: CB_2  and  CA_4 
REMARK    2  A    between atoms: CA_4  and  C_5 
REMARK    3  A    between atoms: CA_4  and  N_20 
REMARK       I    between atoms: C_5  and  N_7 
REMARK    4  A    between atoms: N_7  and  CA_8 
REMARK    5  A    between atoms: CA_8  and  CB_9 
REMARK    6  A    between atoms: CA_8  and  C_17 
REMARK    7  A    between atoms: CB_9  and  CG_10 
REMARK    8  A    between atoms: CZ_13  and  OH_16 
REMARK    9  A    between atoms: C_17  and  OXT_19 
REMARK       I    between atoms: N_20  and  C_21 
REMARK   10  A    between atoms: C_21  and  CA_23 
REMARK   11  A    between atoms: CA_23  and  CB_24 
REMARK   12  A    between atoms: CA_23  and  N_28 
REMARK   13  A    between atoms: CB_24  and  CG_25 
REMARK   14  A    between atoms: CG_25  and  OD2_27 
REMARK       I    between atoms: N_28  and  C_29 
REMARK   15  A    between atoms: C_29  and  CA_31 
REMARK   16  A    between atoms: CA_31  and  CB_32 
REMARK   17  A    between atoms: CA_31  and  N_37 
REMARK   18  A    between atoms: CB_32  and  CG_33 
REMARK   19  A    between atoms: CG_33  and  CD_34 
REMARK   20  A    between atoms: CD_34  and  CE_35 
REMARK   21  A    between atoms: CE_35  and  NZ_36 
REMARK       I    between atoms: N_37  and  C_47 
ROOT
ATOM      1  N   LYS A   1     -19.939  -9.932  -3.624  1.00  0.00    -0.346 N 
ATOM      2  C   LYS A   1     -21.066  -9.579  -4.337  1.00  0.00     0.241 C 
ATOM      3  O   LYS A   1     -21.581 -10.329  -5.160  1.00  0.00    -0.271 OA
ATOM      4  H   LYS A   1     -19.471  -9.195  -3.101  1.00  0.00     0.163 HD
ENDROOT
BRANCH   2   5
ATOM      5  CA  LYS A   1     -21.608  -8.152  -4.053  1.00  0.00     0.186 C 
BRANCH   5   6
ATOM      6  CB  LYS A   1     -21.103  -7.618  -2.709  1.00  0.00     0.144 C 
BRANCH   6   7
ATOM      7  CG  LYS A   1     -21.480  -6.174  -2.533  1.00  0.00     0.141 C 
ATOM      8  OD1 LYS A   1     -20.828  -5.240  -2.974  1.00  0.00    -0.650 OA
BRANCH   7   9
ATOM      9  OD2 LYS A   1     -22.610  -5.986  -1.812  1.00  0.00    -0.776 OA
ATOM     10  HD2 LYS A   1     -22.453  -5.697  -0.890  1.00  0.00     0.167 HD
ENDBRANCH   7   9
ENDBRANCH   6   7
ENDBRANCH   5   6
BRANCH   5  11
ATOM     11  N   LYS A   1     -21.335  -7.290  -5.212  1.00  0.00    -0.346 N 
ATOM     12  C   LYS A   1     -22.222  -6.368  -5.711  1.00  0.00     0.241 C 
ATOM     13  O   LYS A   1     -23.334  -6.210  -5.210  1.00  0.00    -0.271 OA
ATOM     14  H   LYS A   1     -20.429  -7.386  -5.672  1.00  0.00     0.163 HD
BRANCH  12  15
ATOM     15  CA  LYS A   1     -21.708  -5.548  -6.918  1.00  0.00     0.176 C 
BRANCH  15  16
ATOM     16  CB  LYS A   1     -22.670  -4.386  -7.201  1.00  0.00     0.035 C 
BRANCH  16  17
ATOM     17  CG  LYS A   1     -22.763  -3.978  -8.676  1.00  0.00     0.004 C 
BRANCH  17  18
ATOM     18  CD  LYS A   1     -24.123  -4.299  -9.305  1.00  0.00     0.030 C 
BRANCH  18  19
ATOM     19  CE  LYS A   1     -24.509  -3.340 -10.432  1.00  0.00     0.267 C 
BRANCH  19  20
ATOM     20  NZ  LYS A   1     -23.371  -3.006 -11.279  1.00  0.00     0.078 N 
ATOM     21  HZ1 LYS A   1     -22.757  -2.358 -10.787  1.00  0.00     0.312 HD
ATOM     22  HZ2 LYS A   1     -23.703  -2.509 -12.105  1.00  0.00     0.312 HD
ENDBRANCH  19  20
ENDBRANCH  18  19
ENDBRANCH  17  18
ENDBRANCH  16  17
ENDBRANCH  15  16
BRANCH  15  23
ATOM     23  N   LYS A   1     -20.365  -5.036  -6.661  1.00  0.00    -0.348 N 
HETATM   24  C   UNK A   0     -19.442  -4.861  -7.662  1.00  0.00     0.214 C 
HETATM   25  O   UNK A   0     -19.650  -5.206  -8.821  1.00  0.00    -0.274 OA
HETATM   26  C   UNK A   0     -18.174  -4.170  -7.229  1.00  0.00     0.117 C 
ATOM     27  H   LYS A   1     -20.105  -4.827  -5.704  1.00  0.00     0.163 HD
ENDBRANCH  15  23
ENDBRANCH  12  15
ENDBRANCH   5  11
ENDBRANCH   2   5
BRANCH   1  28
ATOM     28  CA  LYS A   1     -19.247 -11.212  -3.800  1.00  0.00     0.180 C 
BRANCH  28  29
ATOM     29  CB  LYS A   1     -17.738 -10.990  -4.113  1.00  0.00     0.009 C 
ATOM     30  CG1 LYS A   1     -17.369 -11.438  -5.534  1.00  0.00     0.012 C 
ATOM     31  CG2 LYS A   1     -17.283  -9.539  -3.927  1.00  0.00     0.012 C 
ENDBRANCH  28  29
BRANCH  28  32
ATOM     32  C   LYS A   1     -19.311 -11.991  -2.468  1.00  0.00     0.241 C 
ATOM     33  O   LYS A   1     -19.860 -13.092  -2.391  1.00  0.00    -0.271 OA
ATOM     34  N   LYS A   1     -18.811 -11.347  -1.367  1.00  0.00    -0.345 N 
ATOM     35  H   LYS A   1     -18.271 -10.496  -1.470  1.00  0.00     0.163 HD
BRANCH  34  36
ATOM     36  CA  LYS A   1     -18.986 -11.861  -0.001  1.00  0.00     0.186 C 
BRANCH  36  37
ATOM     37  CB  LYS A   1     -20.447 -12.062   0.424  1.00  0.00     0.074 C 
BRANCH  37  38
ATOM     38  CG  LYS A   1     -21.327 -10.840   0.360  1.00  0.00    -0.056 A 
ATOM     39  CD1 LYS A   1     -22.613 -10.906  -0.192  1.00  0.00     0.010 A 
ATOM     40  CE1 LYS A   1     -23.448  -9.788  -0.167  1.00  0.00     0.037 A 
ATOM     41  CZ  LYS A   1     -22.991  -8.603   0.404  1.00  0.00     0.065 A 
ATOM     42  CE2 LYS A   1     -21.709  -8.510   0.915  1.00  0.00     0.037 A 
ATOM     43  CD2 LYS A   1     -20.876  -9.626   0.896  1.00  0.00     0.010 A 
BRANCH  41  44
ATOM     44  OH  LYS A   1     -23.793  -7.502   0.484  1.00  0.00    -0.361 OA
ATOM     45  HH  LYS A   1     -24.403  -7.511  -0.272  1.00  0.00     0.217 HD
ENDBRANCH  41  44
ENDBRANCH  37  38
ENDBRANCH  36  37
BRANCH  36  46
ATOM     46  C   LYS A   1     -18.148 -13.138   0.184  1.00  0.00     0.163 C 
ATOM     47  O   LYS A   1     -18.618 -14.215   0.525  1.00  0.00    -0.648 OA
BRANCH  46  48
ATOM     48  OXT LYS A   1     -16.833 -13.004  -0.119  1.00  0.00    -0.775 OA
ATOM     49  HXT LYS A   1     -16.232 -13.637   0.321  1.00  0.00     0.167 HD
ENDBRANCH  46  48
ENDBRANCH  36  46
ENDBRANCH  34  36
ENDBRANCH  28  32
ENDBRANCH   1  28
TORSDOF 21
BEGIN_RES ARG D 557
REMARK  4 active torsions:
REMARK  status: ('A' for Active; 'I' for Inactive)
REMARK    1  A    between atoms: CA   and  CB  
REMARK    2  A    between atoms: CB   and  CG  
REMARK    3  A    between atoms: CG   and  CD  
REMARK    4  A    between atoms: CD   and  NE  
REMARK       I    between atoms: NE   and  CZ  
REMARK       I    between atoms: CZ   and  NH1 
REMARK       I    between atoms: CZ   and  NH2 
ROOT
ATOM      1  CA  ARG D 557     -26.217   2.705 -17.014  1.00 35.49     0.159 C 
ENDROOT
BRANCH   1   2
ATOM      2  CB  ARG D 557     -26.789   1.319 -17.183  1.00 35.49     0.034 C 
BRANCH   2   3
ATOM      3  CG  ARG D 557     -28.149   1.099 -16.675  1.00 35.49     0.027 C 
BRANCH   3   4
ATOM      4  CD  ARG D 557     -28.787  -0.096 -17.272  1.00 35.49     0.116 C 
BRANCH   4   5
ATOM      5  NE  ARG D 557     -28.168  -1.319 -16.833  1.00 35.49    -0.212 N 
ATOM      6  CZ  ARG D 557     -28.641  -2.530 -17.022  1.00 35.49     0.666 C 
ATOM      7  NH1 ARG D 557     -29.782  -2.757 -17.645  1.00 35.49    -0.235 N 
ATOM      8  NH2 ARG D 557     -27.934  -3.527 -16.574  1.00 35.49    -0.235 N 
ATOM      9  HH  ARG D 557     -30.262  -2.116 -17.950  1.00 35.49     0.174 HD
ATOM     10  HH  ARG D 557     -30.039  -3.569 -17.742  1.00 35.49     0.174 HD
ATOM     11  HH  ARG D 557     -27.197  -3.351 -16.182  1.00 35.49     0.174 HD
ATOM     12  HH  ARG D 557     -28.205  -4.324 -16.681  1.00 35.49     0.174 HD
ATOM     13  HE  ARG D 557     -27.464  -1.262 -16.359  1.00 35.49     0.178 HD
ENDBRANCH   4   5
ENDBRANCH   3   4
ENDBRANCH   2   3
ENDBRANCH   1   2
END_RES ARG D 557
BEGIN_RES GLU D 570
REMARK  3 active torsions:
REMARK  status: ('A' for Active; 'I' for Inactive)
REMARK    5  A    between atoms: CA   and  CB  
REMARK    6  A    between atoms: CB   and  CG  
REMARK    7  A    between atoms: CG   and  CD  
ROOT
ATOM     14  CA  GLU D 570     -18.033  -6.348 -13.375  1.00 32.92     0.160 C 
ENDROOT
BRANCH  14  15
ATOM     15  CB  GLU D 570     -19.500  -6.345 -13.794  1.00 32.92     0.043 C 
BRANCH  15  16
ATOM     16  CG  GLU D 570     -20.444  -5.542 -12.975  1.00 32.92     0.100 C 
BRANCH  16  17
ATOM     17  CD  GLU D 570     -21.738  -5.239 -13.694  1.00 32.92     0.185 C 
ATOM     18  OE1 GLU D 570     -22.323  -6.158 -14.299  1.00 32.92    -0.647 OA
ATOM     19  OE2 GLU D 570     -22.162  -4.067 -13.665  1.00 32.92    -0.647 OA
ENDBRANCH  16  17
ENDBRANCH  15  16
ENDBRANCH  14  15
END_RES GLU D 570
ENDMDL
MODEL 9
REMARK VINA RESULT:      -6.8      2.416      7.597
REMARK  21 active torsions:
REMARK  status: ('A' for Active; 'I' for Inactive)
REMARK    1  A    between atoms: CB_2  and  CA_4 
REMARK    2  A    between atoms: CA_4  and  C_5 
REMARK    3  A    between atoms: CA_4  and  N_20 
REMARK       I    between atoms: C_5  and  N_7 
REMARK    4  A    between atoms: N_7  and  CA_8 
REMARK    5  A    between atoms: CA_8  and  CB_9 
REMARK    6  A    between atoms: CA_8  and  C_17 
REMARK    7  A    between atoms: CB_9  and  CG_10 
REMARK    8  A    between atoms: CZ_13  and  OH_16 
REMARK    9  A    between atoms: C_17  and  OXT_19 
REMARK       I    between atoms: N_20  and  C_21 
REMARK   10  A    between atoms: C_21  and  CA_23 
REMARK   11  A    between atoms: CA_23  and  CB_24 
REMARK   12  A    between atoms: CA_23  and  N_28 
REMARK   13  A    between atoms: CB_24  and  CG_25 
REMARK   14  A    between atoms: CG_25  and  OD2_27 
REMARK       I    between atoms: N_28  and  C_29 
REMARK   15  A    between atoms: C_29  and  CA_31 
REMARK   16  A    between atoms: CA_31  and  CB_32 
REMARK   17  A    between atoms: CA_31  and  N_37 
REMARK   18  A    between atoms: CB_32  and  CG_33 
REMARK   19  A    between atoms: CG_33  and  CD_34 
REMARK   20  A    between atoms: CD_34  and  CE_35 
REMARK   21  A    between atoms: CE_35  and  NZ_36 
REMARK       I    between atoms: N_37  and  C_47 
ROOT
ATOM      1  N   LYS A   1     -17.727 -11.792  -5.066  1.00  0.00    -0.346 N 
ATOM      2  C   LYS A   1     -18.858 -12.573  -4.947  1.00  0.00     0.241 C 
ATOM      3  O   LYS A   1     -18.938 -13.490  -4.137  1.00  0.00    -0.271 OA
ATOM      4  H   LYS A   1     -17.669 -11.178  -5.875  1.00  0.00     0.163 HD
ENDROOT
BRANCH   2   5
ATOM      5  CA  LYS A   1     -20.002 -12.235  -5.941  1.00  0.00     0.186 C 
BRANCH   5   6
ATOM      6  CB  LYS A   1     -20.876 -13.461  -6.226  1.00  0.00     0.144 C 
BRANCH   6   7
ATOM      7  CG  LYS A   1     -22.171 -13.380  -5.469  1.00  0.00     0.141 C 
ATOM      8  OD1 LYS A   1     -23.209 -12.937  -5.939  1.00  0.00    -0.650 OA
BRANCH   7   9
ATOM      9  OD2 LYS A   1     -22.091 -13.824  -4.194  1.00  0.00    -0.776 OA
ATOM     10  HD2 LYS A   1     -22.918 -14.227  -3.857  1.00  0.00     0.167 HD
ENDBRANCH   7   9
ENDBRANCH   6   7
ENDBRANCH   5   6
BRANCH   5  11
ATOM     11  N   LYS A   1     -20.726 -11.048  -5.462  1.00  0.00    -0.346 N 
ATOM     12  C   LYS A   1     -20.249  -9.764  -5.560  1.00  0.00     0.241 C 
ATOM     13  O   LYS A   1     -19.151  -9.524  -6.060  1.00  0.00    -0.271 OA
ATOM     14  H   LYS A   1     -21.639 -11.192  -5.029  1.00  0.00     0.163 HD
BRANCH  12  15
ATOM     15  CA  LYS A   1     -21.196  -8.668  -5.019  1.00  0.00     0.176 C 
BRANCH  15  16
ATOM     16  CB  LYS A   1     -21.498  -8.929  -3.537  1.00  0.00     0.035 C 
BRANCH  16  17
ATOM     17  CG  LYS A   1     -20.313  -8.695  -2.592  1.00  0.00     0.004 C 
BRANCH  17  18
ATOM     18  CD  LYS A   1     -20.562  -7.572  -1.581  1.00  0.00     0.030 C 
BRANCH  18  19
ATOM     19  CE  LYS A   1     -22.035  -7.181  -1.462  1.00  0.00     0.267 C 
BRANCH  19  20
ATOM     20  NZ  LYS A   1     -22.271  -5.803  -1.875  1.00  0.00     0.078 N 
ATOM     21  HZ1 LYS A   1     -22.818  -5.322  -1.162  1.00  0.00     0.312 HD
ATOM     22  HZ2 LYS A   1     -22.842  -5.799  -2.719  1.00  0.00     0.312 HD
ENDBRANCH  19  20
ENDBRANCH  18  19
ENDBRANCH  17  18
ENDBRANCH  16  17
ENDBRANCH  15  16
BRANCH  15  23
ATOM     23  N   LYS A   1     -20.602  -7.344  -5.185  1.00  0.00    -0.348 N 
HETATM   24  C   UNK A   0     -21.352  -6.195  -5.158  1.00  0.00     0.214 C 
HETATM   25  O   UNK A   0     -22.577  -6.205  -5.085  1.00  0.00    -0.274 OA
HETATM   26  C   UNK A   0     -20.544  -4.921  -5.179  1.00  0.00     0.117 C 
ATOM     27  H   LYS A   1     -19.604  -7.282  -5.347  1.00  0.00     0.163 HD
ENDBRANCH  15  23
ENDBRANCH  12  15
ENDBRANCH   5  11
ENDBRANCH   2   5
BRANCH   1  28
ATOM     28  CA  LYS A   1     -16.521 -12.000  -4.259  1.00  0.00     0.180 C 
BRANCH  28  29
ATOM     29  CB  LYS A   1     -15.317 -11.205  -4.844  1.00  0.00     0.009 C 
ATOM     30  CG1 LYS A   1     -14.204 -12.130  -5.353  1.00  0.00     0.012 C 
ATOM     31  CG2 LYS A   1     -15.708 -10.248  -5.973  1.00  0.00     0.012 C 
ENDBRANCH  28  29
BRANCH  28  32
ATOM     32  C   LYS A   1     -16.775 -11.437  -2.843  1.00  0.00     0.241 C 
ATOM     33  O   LYS A   1     -16.484 -10.276  -2.550  1.00  0.00    -0.271 OA
ATOM     34  N   LYS A   1     -17.247 -12.327  -1.914  1.00  0.00    -0.345 N 
ATOM     35  H   LYS A   1     -17.580 -13.240  -2.201  1.00  0.00     0.163 HD
BRANCH  34  36
ATOM     36  CA  LYS A   1     -17.342 -12.004  -0.484  1.00  0.00     0.186 C 
BRANCH  36  37
ATOM     37  CB  LYS A   1     -18.554 -12.617   0.231  1.00  0.00     0.074 C 
BRANCH  37  38
ATOM     38  CG  LYS A   1     -19.882 -11.957  -0.039  1.00  0.00    -0.056 A 
ATOM     39  CD1 LYS A   1     -20.725 -12.422  -1.056  1.00  0.00     0.010 A 
ATOM     40  CE1 LYS A   1     -21.988 -11.857  -1.238  1.00  0.00     0.037 A 
ATOM     41  CZ  LYS A   1     -22.401 -10.819  -0.406  1.00  0.00     0.065 A 
ATOM     42  CE2 LYS A   1     -21.564 -10.321   0.575  1.00  0.00     0.037 A 
ATOM     43  CD2 LYS A   1     -20.305 -10.887   0.762  1.00  0.00     0.010 A 
BRANCH  41  44
ATOM     44  OH  LYS A   1     -23.644 -10.269  -0.527  1.00  0.00    -0.361 OA
ATOM     45  HH  LYS A   1     -23.776 -10.008  -1.453  1.00  0.00     0.217 HD
ENDBRANCH  41  44
ENDBRANCH  37  38
ENDBRANCH  36  37
BRANCH  36  46
ATOM     46  C   LYS A   1     -16.018 -12.356   0.217  1.00  0.00     0.163 C 
ATOM     47  O   LYS A   1     -15.542 -11.703   1.135  1.00  0.00    -0.648 OA
BRANCH  46  48
ATOM     48  OXT LYS A   1     -15.430 -13.497  -0.220  1.00  0.00    -0.775 OA
ATOM     49  HXT LYS A   1     -14.459 -13.457  -0.325  1.00  0.00     0.167 HD
ENDBRANCH  46  48
ENDBRANCH  36  46
ENDBRANCH  34  36
ENDBRANCH  28  32
ENDBRANCH   1  28
TORSDOF 21
BEGIN_RES ARG D 557
REMARK  4 active torsions:
REMARK  status: ('A' for Active; 'I' for Inactive)
REMARK    1  A    between atoms: CA   and  CB  
REMARK    2  A    between atoms: CB   and  CG  
REMARK    3  A    between atoms: CG   and  CD  
REMARK    4  A    between atoms: CD   and  NE  
REMARK       I    between atoms: NE   and  CZ  
REMARK       I    between atoms: CZ   and  NH1 
REMARK       I    between atoms: CZ   and  NH2 
ROOT
ATOM      1  CA  ARG D 557     -26.217   2.705 -17.014  1.00 35.49     0.159 C 
ENDROOT
BRANCH   1   2
ATOM      2  CB  ARG D 557     -26.789   1.319 -17.183  1.00 35.49     0.034 C 
BRANCH   2   3
ATOM      3  CG  ARG D 557     -28.225   1.161 -16.923  1.00 35.49     0.027 C 
BRANCH   3   4
ATOM      4  CD  ARG D 557     -28.608  -0.255 -16.715  1.00 35.49     0.116 C 
BRANCH   4   5
ATOM      5  NE  ARG D 557     -27.595  -0.992 -16.007  1.00 35.49    -0.212 N 
ATOM      6  CZ  ARG D 557     -27.404  -2.291 -16.072  1.00 35.49     0.666 C 
ATOM      7  NH1 ARG D 557     -28.160  -3.083 -16.810  1.00 35.49    -0.235 N 
ATOM      8  NH2 ARG D 557     -26.422  -2.789 -15.378  1.00 35.49    -0.235 N 
ATOM      9  HH  ARG D 557     -28.810  -2.776 -17.277  1.00 35.49     0.174 HD
ATOM     10  HH  ARG D 557     -27.987  -3.922 -16.816  1.00 35.49     0.174 HD
ATOM     11  HH  ARG D 557     -25.946  -2.253 -14.917  1.00 35.49     0.174 HD
ATOM     12  HH  ARG D 557     -26.266  -3.622 -15.398  1.00 35.49     0.174 HD
ATOM     13  HE  ARG D 557     -27.108  -0.571 -15.452  1.00 35.49     0.178 HD
ENDBRANCH   4   5
ENDBRANCH   3   4
ENDBRANCH   2   3
ENDBRANCH   1   2
END_RES ARG D 557
BEGIN_RES GLU D 570
REMARK  3 active torsions:
REMARK  status: ('A' for Active; 'I' for Inactive)
REMARK    5  A    between atoms: CA   and  CB  
REMARK    6  A    between atoms: CB   and  CG  
REMARK    7  A    between atoms: CG   and  CD  
ROOT
ATOM     14  CA  GLU D 570     -18.033  -6.348 -13.375  1.00 32.92     0.160 C 
ENDROOT
BRANCH  14  15
ATOM     15  CB  GLU D 570     -19.500  -6.345 -13.794  1.00 32.92     0.043 C 
BRANCH  15  16
ATOM     16  CG  GLU D 570     -19.805  -6.039 -15.215  1.00 32.92     0.100 C 
BRANCH  16  17
ATOM     17  CD  GLU D 570     -21.253  -5.667 -15.441  1.00 32.92     0.185 C 
ATOM     18  OE1 GLU D 570     -21.548  -4.943 -16.410  1.00 32.92    -0.647 OA
ATOM     19  OE2 GLU D 570     -22.098  -6.092 -14.629  1.00 32.92    -0.647 OA
ENDBRANCH  16  17
ENDBRANCH  15  16
ENDBRANCH  14  15
END_RES GLU D 570
ENDMDL
