MODEL 1
REMARK VINA RESULT:      -6.8      0.000      0.000
REMARK  20 active torsions:
REMARK  status: ('A' for Active; 'I' for Inactive)
REMARK    1  A    between atoms: C_2  and  C_3 
REMARK    2  A    between atoms: C_3  and  C_4 
REMARK    3  A    between atoms: C_4  and  C_5 
REMARK    4  A    between atoms: C_5  and  C_6 
REMARK    5  A    between atoms: C_5  and  C_8 
REMARK    6  A    between atoms: C_8  and  O_9 
REMARK    7  A    between atoms: O_9  and  C_10 
REMARK    8  A    between atoms: C_10  and  C_12 
REMARK    9  A    between atoms: C_12  and  C_25 
REMARK   10  A    between atoms: C_13  and  C_14 
REMARK   11  A    between atoms: C_16  and  O_23 
REMARK   12  A    between atoms: C_17  and  O_22 
REMARK   13  A    between atoms: C_18  and  O_20 
REMARK   14  A    between atoms: C_25  and  O_27 
REMARK   15  A    between atoms: O_27  and  C_28 
REMARK   16  A    between atoms: C_28  and  C_29 
REMARK   17  A    between atoms: C_29  and  C_30 
REMARK   18  A    between atoms: C_29  and  C_32 
REMARK   19  A    between atoms: C_32  and  C_33 
REMARK   20  A    between atoms: C_33  and  C_34 
ROOT
HETATM    1  C   UNL     1     -20.395  -8.565  -5.070  1.00  0.00     0.115 C 
HETATM    2  C   UNL     1     -19.042  -8.526  -5.156  1.00  0.00     0.035 C 
ENDROOT
BRANCH   1   3
HETATM    3  C   UNL     1     -21.141  -9.827  -4.779  1.00  0.00     0.299 C 
HETATM    4  O   UNL     1     -21.335 -10.717  -5.600  1.00  0.00    -0.259 OA
BRANCH   3   5
HETATM    5  O   UNL     1     -21.664  -9.823  -3.518  1.00  0.00    -0.317 OA
BRANCH   5   6
HETATM    6  C   UNL     1     -21.049 -10.728  -2.575  1.00  0.00     0.183 C 
BRANCH   6   7
HETATM    7  C   UNL     1     -20.272 -10.038  -1.432  1.00  0.00     0.010 C 
BRANCH   7   8
HETATM    8  C   UNL     1     -20.468  -8.498  -1.402  1.00  0.00     0.007 C 
BRANCH   8   9
HETATM    9  C   UNL     1     -21.341  -8.042  -0.220  1.00  0.00     0.000 C 
BRANCH   9  10
HETATM   10  C   UNL     1     -22.521  -7.157  -0.624  1.00  0.00    -0.005 C 
HETATM   11  C   UNL     1     -22.160  -6.311  -1.841  1.00  0.00     0.005 C 
ENDBRANCH   9  10
ENDBRANCH   8   9
ENDBRANCH   7   8
BRANCH   7  12
HETATM   12  C   UNL     1     -20.625 -10.714  -0.078  1.00  0.00     0.002 C 
HETATM   13  C   UNL     1     -21.509 -11.954  -0.180  1.00  0.00     0.005 C 
ENDBRANCH   7  12
ENDBRANCH   6   7
ENDBRANCH   5   6
ENDBRANCH   3   5
ENDBRANCH   1   3
BRANCH   1  14
HETATM   14  C   UNL     1     -21.158  -7.358  -5.524  1.00  0.00     0.299 C 
HETATM   15  O   UNL     1     -22.318  -7.131  -5.207  1.00  0.00    -0.259 OA
BRANCH  14  16
HETATM   16  O   UNL     1     -20.485  -6.640  -6.475  1.00  0.00    -0.317 OA
BRANCH  16  17
HETATM   17  C   UNL     1     -20.309  -5.253  -6.133  1.00  0.00     0.183 C 
BRANCH  17  18
HETATM   18  C   UNL     1     -20.378  -4.273  -7.320  1.00  0.00     0.010 C 
BRANCH  18  19
HETATM   19  C   UNL     1     -20.086  -4.945  -8.683  1.00  0.00     0.002 C 
HETATM   20  C   UNL     1     -20.088  -4.014  -9.889  1.00  0.00     0.005 C 
ENDBRANCH  18  19
BRANCH  18  21
HETATM   21  C   UNL     1     -21.751  -3.545  -7.346  1.00  0.00     0.007 C 
BRANCH  21  22
HETATM   22  C   UNL     1     -22.918  -4.445  -7.770  1.00  0.00     0.000 C 
BRANCH  22  23
HETATM   23  C   UNL     1     -23.690  -3.877  -8.961  1.00  0.00    -0.005 C 
HETATM   24  C   UNL     1     -23.670  -4.850 -10.132  1.00  0.00     0.005 C 
ENDBRANCH  22  23
ENDBRANCH  21  22
ENDBRANCH  18  21
ENDBRANCH  17  18
ENDBRANCH  16  17
ENDBRANCH  14  16
ENDBRANCH   1  14
BRANCH   2  25
HETATM   25  C   UNL     1     -18.052  -9.587  -4.900  1.00  0.00    -0.029 A 
HETATM   26  C   UNL     1     -17.493  -9.774  -3.625  1.00  0.00     0.051 A 
HETATM   27  C   UNL     1     -16.579 -10.812  -3.388  1.00  0.00     0.104 A 
HETATM   28  C   UNL     1     -16.209 -11.644  -4.450  1.00  0.00     0.133 A 
HETATM   29  C   UNL     1     -16.832 -11.531  -5.699  1.00  0.00     0.104 A 
HETATM   30  C   UNL     1     -17.734 -10.485  -5.922  1.00  0.00     0.051 A 
BRANCH  27  31
HETATM   31  O   UNL     1     -16.037 -10.858  -2.127  1.00  0.00    -0.353 OA
HETATM   32  C   UNL     1     -16.740 -11.651  -1.167  1.00  0.00     0.210 C 
ENDBRANCH  27  31
BRANCH  28  33
HETATM   33  O   UNL     1     -15.130 -12.475  -4.323  1.00  0.00    -0.356 OA
HETATM   34  H   UNL     1     -14.363 -11.872  -4.297  1.00  0.00     0.218 HD
ENDBRANCH  28  33
BRANCH  29  35
HETATM   35  O   UNL     1     -16.589 -12.320  -6.794  1.00  0.00    -0.353 OA
HETATM   36  C   UNL     1     -17.745 -12.780  -7.491  1.00  0.00     0.210 C 
ENDBRANCH  29  35
ENDBRANCH   2  25
TORSDOF 20
BEGIN_RES ARG D 557
REMARK  4 active torsions:
REMARK  status: ('A' for Active; 'I' for Inactive)
REMARK    1  A    between atoms: CA   and  CB  
REMARK    2  A    between atoms: CB   and  CG  
REMARK    3  A    between atoms: CG   and  CD  
REMARK    4  A    between atoms: CD   and  NE  
REMARK       I    between atoms: NE   and  CZ  
REMARK       I    between atoms: CZ   and  NH1 
REMARK       I    between atoms: CZ   and  NH2 
ROOT
ATOM      1  CA  ARG D 557     -26.217   2.705 -17.014  1.00 35.49     0.159 C 
ENDROOT
BRANCH   1   2
ATOM      2  CB  ARG D 557     -26.789   1.319 -17.183  1.00 35.49     0.034 C 
BRANCH   2   3
ATOM      3  CG  ARG D 557     -25.837   0.202 -17.144  1.00 35.49     0.027 C 
BRANCH   3   4
ATOM      4  CD  ARG D 557     -24.762   0.411 -16.148  1.00 35.49     0.116 C 
BRANCH   4   5
ATOM      5  NE  ARG D 557     -24.910  -0.447 -15.002  1.00 35.49    -0.212 N 
ATOM      6  CZ  ARG D 557     -24.093  -1.417 -14.659  1.00 35.49     0.666 C 
ATOM      7  NH1 ARG D 557     -23.021  -1.725 -15.364  1.00 35.49    -0.235 N 
ATOM      8  NH2 ARG D 557     -24.372  -2.080 -13.574  1.00 35.49    -0.235 N 
ATOM      9  HH  ARG D 557     -22.817  -1.300 -16.080  1.00 35.49     0.174 HD
ATOM     10  HH  ARG D 557     -22.524  -2.367 -15.090  1.00 35.49     0.174 HD
ATOM     11  HH  ARG D 557     -25.067  -1.855 -13.134  1.00 35.49     0.174 HD
ATOM     12  HH  ARG D 557     -23.866  -2.711 -13.318  1.00 35.49     0.174 HD
ATOM     13  HE  ARG D 557     -25.613  -0.366 -14.531  1.00 35.49     0.178 HD
ENDBRANCH   4   5
ENDBRANCH   3   4
ENDBRANCH   2   3
ENDBRANCH   1   2
END_RES ARG D 557
BEGIN_RES GLU D 570
REMARK  3 active torsions:
REMARK  status: ('A' for Active; 'I' for Inactive)
REMARK    5  A    between atoms: CA   and  CB  
REMARK    6  A    between atoms: CB   and  CG  
REMARK    7  A    between atoms: CG   and  CD  
ROOT
ATOM     14  CA  GLU D 570     -18.033  -6.348 -13.375  1.00 32.92     0.160 C 
ENDROOT
BRANCH  14  15
ATOM     15  CB  GLU D 570     -19.500  -6.345 -13.794  1.00 32.92     0.043 C 
BRANCH  15  16
ATOM     16  CG  GLU D 570     -20.445  -5.545 -12.972  1.00 32.92     0.100 C 
BRANCH  16  17
ATOM     17  CD  GLU D 570     -21.727  -5.217 -13.701  1.00 32.92     0.185 C 
ATOM     18  OE1 GLU D 570     -22.302  -4.138 -13.458  1.00 32.92    -0.647 OA
ATOM     19  OE2 GLU D 570     -22.170  -6.054 -14.512  1.00 32.92    -0.647 OA
ENDBRANCH  16  17
ENDBRANCH  15  16
ENDBRANCH  14  15
END_RES GLU D 570
ENDMDL
MODEL 2
REMARK VINA RESULT:      -6.7      1.997      2.595
REMARK  20 active torsions:
REMARK  status: ('A' for Active; 'I' for Inactive)
REMARK    1  A    between atoms: C_2  and  C_3 
REMARK    2  A    between atoms: C_3  and  C_4 
REMARK    3  A    between atoms: C_4  and  C_5 
REMARK    4  A    between atoms: C_5  and  C_6 
REMARK    5  A    between atoms: C_5  and  C_8 
REMARK    6  A    between atoms: C_8  and  O_9 
REMARK    7  A    between atoms: O_9  and  C_10 
REMARK    8  A    between atoms: C_10  and  C_12 
REMARK    9  A    between atoms: C_12  and  C_25 
REMARK   10  A    between atoms: C_13  and  C_14 
REMARK   11  A    between atoms: C_16  and  O_23 
REMARK   12  A    between atoms: C_17  and  O_22 
REMARK   13  A    between atoms: C_18  and  O_20 
REMARK   14  A    between atoms: C_25  and  O_27 
REMARK   15  A    between atoms: O_27  and  C_28 
REMARK   16  A    between atoms: C_28  and  C_29 
REMARK   17  A    between atoms: C_29  and  C_30 
REMARK   18  A    between atoms: C_29  and  C_32 
REMARK   19  A    between atoms: C_32  and  C_33 
REMARK   20  A    between atoms: C_33  and  C_34 
ROOT
HETATM    1  C   UNL     1     -20.518  -8.772  -5.016  1.00  0.00     0.115 C 
HETATM    2  C   UNL     1     -19.225  -8.552  -4.674  1.00  0.00     0.035 C 
ENDROOT
BRANCH   1   3
HETATM    3  C   UNL     1     -21.079 -10.147  -5.183  1.00  0.00     0.299 C 
HETATM    4  O   UNL     1     -20.869 -10.862  -6.157  1.00  0.00    -0.259 OA
BRANCH   3   5
HETATM    5  O   UNL     1     -21.930 -10.471  -4.167  1.00  0.00    -0.317 OA
BRANCH   5   6
HETATM    6  C   UNL     1     -21.410 -11.378  -3.170  1.00  0.00     0.183 C 
BRANCH   6   7
HETATM    7  C   UNL     1     -21.807 -11.036  -1.717  1.00  0.00     0.010 C 
BRANCH   7   8
HETATM    8  C   UNL     1     -21.202  -9.696  -1.217  1.00  0.00     0.007 C 
BRANCH   8   9
HETATM    9  C   UNL     1     -21.200  -9.591   0.319  1.00  0.00     0.000 C 
BRANCH   9  10
HETATM   10  C   UNL     1     -21.697  -8.247   0.850  1.00  0.00    -0.005 C 
HETATM   11  C   UNL     1     -23.181  -8.070   0.547  1.00  0.00     0.005 C 
ENDBRANCH   9  10
ENDBRANCH   8   9
ENDBRANCH   7   8
BRANCH   7  12
HETATM   12  C   UNL     1     -23.354 -11.085  -1.574  1.00  0.00     0.002 C 
HETATM   13  C   UNL     1     -23.877 -12.007  -0.477  1.00  0.00     0.005 C 
ENDBRANCH   7  12
ENDBRANCH   6   7
ENDBRANCH   5   6
ENDBRANCH   3   5
ENDBRANCH   1   3
BRANCH   1  14
HETATM   14  C   UNL     1     -21.329  -7.597  -5.475  1.00  0.00     0.299 C 
HETATM   15  O   UNL     1     -22.321  -7.187  -4.887  1.00  0.00    -0.259 OA
BRANCH  14  16
HETATM   16  O   UNL     1     -20.952  -7.152  -6.713  1.00  0.00    -0.317 OA
BRANCH  16  17
HETATM   17  C   UNL     1     -20.749  -5.730  -6.778  1.00  0.00     0.183 C 
BRANCH  17  18
HETATM   18  C   UNL     1     -21.286  -5.050  -8.052  1.00  0.00     0.010 C 
BRANCH  18  19
HETATM   19  C   UNL     1     -22.426  -4.042  -7.771  1.00  0.00     0.002 C 
HETATM   20  C   UNL     1     -23.554  -4.022  -8.795  1.00  0.00     0.005 C 
ENDBRANCH  18  19
BRANCH  18  21
HETATM   21  C   UNL     1     -20.128  -4.372  -8.836  1.00  0.00     0.007 C 
BRANCH  21  22
HETATM   22  C   UNL     1     -20.153  -4.660 -10.343  1.00  0.00     0.000 C 
BRANCH  22  23
HETATM   23  C   UNL     1     -20.666  -3.471 -11.156  1.00  0.00    -0.005 C 
HETATM   24  C   UNL     1     -21.811  -3.893 -12.067  1.00  0.00     0.005 C 
ENDBRANCH  22  23
ENDBRANCH  21  22
ENDBRANCH  18  21
ENDBRANCH  17  18
ENDBRANCH  16  17
ENDBRANCH  14  16
ENDBRANCH   1  14
BRANCH   2  25
HETATM   25  C   UNL     1     -18.173  -9.515  -4.307  1.00  0.00    -0.029 A 
HETATM   26  C   UNL     1     -18.039  -9.987  -2.990  1.00  0.00     0.051 A 
HETATM   27  C   UNL     1     -17.055 -10.932  -2.664  1.00  0.00     0.104 A 
HETATM   28  C   UNL     1     -16.186 -11.379  -3.666  1.00  0.00     0.133 A 
HETATM   29  C   UNL     1     -16.371 -10.993  -4.999  1.00  0.00     0.104 A 
HETATM   30  C   UNL     1     -17.351 -10.043  -5.307  1.00  0.00     0.051 A 
BRANCH  27  31
HETATM   31  O   UNL     1     -16.962 -11.269  -1.336  1.00  0.00    -0.353 OA
HETATM   32  C   UNL     1     -18.062 -12.005  -0.793  1.00  0.00     0.210 C 
ENDBRANCH  27  31
BRANCH  28  33
HETATM   33  O   UNL     1     -15.058 -12.077  -3.330  1.00  0.00    -0.356 OA
HETATM   34  H   UNL     1     -15.318 -12.593  -2.544  1.00  0.00     0.218 HD
ENDBRANCH  28  33
BRANCH  29  35
HETATM   35  O   UNL     1     -15.617 -11.404  -6.068  1.00  0.00    -0.353 OA
HETATM   36  C   UNL     1     -16.195 -12.433  -6.869  1.00  0.00     0.210 C 
ENDBRANCH  29  35
ENDBRANCH   2  25
TORSDOF 20
BEGIN_RES ARG D 557
REMARK  4 active torsions:
REMARK  status: ('A' for Active; 'I' for Inactive)
REMARK    1  A    between atoms: CA   and  CB  
REMARK    2  A    between atoms: CB   and  CG  
REMARK    3  A    between atoms: CG   and  CD  
REMARK    4  A    between atoms: CD   and  NE  
REMARK       I    between atoms: NE   and  CZ  
REMARK       I    between atoms: CZ   and  NH1 
REMARK       I    between atoms: CZ   and  NH2 
ROOT
ATOM      1  CA  ARG D 557     -26.217   2.705 -17.014  1.00 35.49     0.159 C 
ENDROOT
BRANCH   1   2
ATOM      2  CB  ARG D 557     -26.789   1.319 -17.183  1.00 35.49     0.034 C 
BRANCH   2   3
ATOM      3  CG  ARG D 557     -28.228   1.227 -17.459  1.00 35.49     0.027 C 
BRANCH   3   4
ATOM      4  CD  ARG D 557     -28.924   0.311 -16.528  1.00 35.49     0.116 C 
BRANCH   4   5
ATOM      5  NE  ARG D 557     -29.298  -0.926 -17.162  1.00 35.49    -0.212 N 
ATOM      6  CZ  ARG D 557     -28.666  -2.072 -17.042  1.00 35.49     0.666 C 
ATOM      7  NH1 ARG D 557     -27.574  -2.207 -16.312  1.00 35.49    -0.235 N 
ATOM      8  NH2 ARG D 557     -29.159  -3.098 -17.673  1.00 35.49    -0.235 N 
ATOM      9  HH  ARG D 557     -27.234  -1.546 -15.886  1.00 35.49     0.174 HD
ATOM     10  HH  ARG D 557     -27.207  -2.980 -16.269  1.00 35.49     0.174 HD
ATOM     11  HH  ARG D 557     -29.869  -2.983 -18.131  1.00 35.49     0.174 HD
ATOM     12  HH  ARG D 557     -28.781  -3.855 -17.616  1.00 35.49     0.174 HD
ATOM     13  HE  ARG D 557     -29.948  -0.914 -17.709  1.00 35.49     0.178 HD
ENDBRANCH   4   5
ENDBRANCH   3   4
ENDBRANCH   2   3
ENDBRANCH   1   2
END_RES ARG D 557
BEGIN_RES GLU D 570
REMARK  3 active torsions:
REMARK  status: ('A' for Active; 'I' for Inactive)
REMARK    5  A    between atoms: CA   and  CB  
REMARK    6  A    between atoms: CB   and  CG  
REMARK    7  A    between atoms: CG   and  CD  
ROOT
ATOM     14  CA  GLU D 570     -18.033  -6.348 -13.375  1.00 32.92     0.160 C 
ENDROOT
BRANCH  14  15
ATOM     15  CB  GLU D 570     -19.500  -6.345 -13.794  1.00 32.92     0.043 C 
BRANCH  15  16
ATOM     16  CG  GLU D 570     -20.092  -7.639 -14.223  1.00 32.92     0.100 C 
BRANCH  16  17
ATOM     17  CD  GLU D 570     -20.615  -7.606 -15.640  1.00 32.92     0.185 C 
ATOM     18  OE1 GLU D 570     -20.548  -6.543 -16.286  1.00 32.92    -0.647 OA
ATOM     19  OE2 GLU D 570     -21.113  -8.652 -16.103  1.00 32.92    -0.647 OA
ENDBRANCH  16  17
ENDBRANCH  15  16
ENDBRANCH  14  15
END_RES GLU D 570
ENDMDL
MODEL 3
REMARK VINA RESULT:      -6.6      1.326      2.474
REMARK  20 active torsions:
REMARK  status: ('A' for Active; 'I' for Inactive)
REMARK    1  A    between atoms: C_2  and  C_3 
REMARK    2  A    between atoms: C_3  and  C_4 
REMARK    3  A    between atoms: C_4  and  C_5 
REMARK    4  A    between atoms: C_5  and  C_6 
REMARK    5  A    between atoms: C_5  and  C_8 
REMARK    6  A    between atoms: C_8  and  O_9 
REMARK    7  A    between atoms: O_9  and  C_10 
REMARK    8  A    between atoms: C_10  and  C_12 
REMARK    9  A    between atoms: C_12  and  C_25 
REMARK   10  A    between atoms: C_13  and  C_14 
REMARK   11  A    between atoms: C_16  and  O_23 
REMARK   12  A    between atoms: C_17  and  O_22 
REMARK   13  A    between atoms: C_18  and  O_20 
REMARK   14  A    between atoms: C_25  and  O_27 
REMARK   15  A    between atoms: O_27  and  C_28 
REMARK   16  A    between atoms: C_28  and  C_29 
REMARK   17  A    between atoms: C_29  and  C_30 
REMARK   18  A    between atoms: C_29  and  C_32 
REMARK   19  A    between atoms: C_32  and  C_33 
REMARK   20  A    between atoms: C_33  and  C_34 
ROOT
HETATM    1  C   UNL     1     -20.509  -8.855  -5.004  1.00  0.00     0.115 C 
HETATM    2  C   UNL     1     -19.207  -8.603  -4.718  1.00  0.00     0.035 C 
ENDROOT
BRANCH   1   3
HETATM    3  C   UNL     1     -21.028 -10.241  -5.213  1.00  0.00     0.299 C 
HETATM    4  O   UNL     1     -20.846 -10.898  -6.233  1.00  0.00    -0.259 OA
BRANCH   3   5
HETATM    5  O   UNL     1     -21.811 -10.648  -4.172  1.00  0.00    -0.317 OA
BRANCH   5   6
HETATM    6  C   UNL     1     -21.125 -11.302  -3.082  1.00  0.00     0.183 C 
BRANCH   6   7
HETATM    7  C   UNL     1     -21.631 -10.912  -1.676  1.00  0.00     0.010 C 
BRANCH   7   8
HETATM    8  C   UNL     1     -20.980  -9.612  -1.131  1.00  0.00     0.007 C 
BRANCH   8   9
HETATM    9  C   UNL     1     -21.774  -8.351  -1.518  1.00  0.00     0.000 C 
BRANCH   9  10
HETATM   10  C   UNL     1     -22.175  -7.480  -0.328  1.00  0.00    -0.005 C 
HETATM   11  C   UNL     1     -21.838  -8.181   0.984  1.00  0.00     0.005 C 
ENDBRANCH   9  10
ENDBRANCH   8   9
ENDBRANCH   7   8
BRANCH   7  12
HETATM   12  C   UNL     1     -23.183 -10.848  -1.678  1.00  0.00     0.002 C 
HETATM   13  C   UNL     1     -23.847 -11.085  -0.325  1.00  0.00     0.005 C 
ENDBRANCH   7  12
ENDBRANCH   6   7
ENDBRANCH   5   6
ENDBRANCH   3   5
ENDBRANCH   1   3
BRANCH   1  14
HETATM   14  C   UNL     1     -21.384  -7.691  -5.358  1.00  0.00     0.299 C 
HETATM   15  O   UNL     1     -22.433  -7.433  -4.784  1.00  0.00    -0.259 OA
BRANCH  14  16
HETATM   16  O   UNL     1     -20.980  -7.063  -6.505  1.00  0.00    -0.317 OA
BRANCH  16  17
HETATM   17  C   UNL     1     -21.794  -5.931  -6.860  1.00  0.00     0.183 C 
BRANCH  17  18
HETATM   18  C   UNL     1     -21.134  -4.556  -6.643  1.00  0.00     0.010 C 
BRANCH  18  19
HETATM   19  C   UNL     1     -19.620  -4.648  -6.337  1.00  0.00     0.002 C 
HETATM   20  C   UNL     1     -18.692  -4.383  -7.516  1.00  0.00     0.005 C 
ENDBRANCH  18  19
BRANCH  18  21
HETATM   21  C   UNL     1     -21.396  -3.628  -7.861  1.00  0.00     0.007 C 
BRANCH  21  22
HETATM   22  C   UNL     1     -22.181  -4.303  -8.993  1.00  0.00     0.000 C 
BRANCH  22  23
HETATM   23  C   UNL     1     -21.774  -3.787 -10.374  1.00  0.00    -0.005 C 
HETATM   24  C   UNL     1     -20.428  -4.364 -10.791  1.00  0.00     0.005 C 
ENDBRANCH  22  23
ENDBRANCH  21  22
ENDBRANCH  18  21
ENDBRANCH  17  18
ENDBRANCH  16  17
ENDBRANCH  14  16
ENDBRANCH   1  14
BRANCH   2  25
HETATM   25  C   UNL     1     -18.103  -9.542  -4.456  1.00  0.00    -0.029 A 
HETATM   26  C   UNL     1     -17.296 -10.031  -5.498  1.00  0.00     0.051 A 
HETATM   27  C   UNL     1     -16.225 -10.896  -5.229  1.00  0.00     0.104 A 
HETATM   28  C   UNL     1     -15.988 -11.290  -3.907  1.00  0.00     0.133 A 
HETATM   29  C   UNL     1     -16.721 -10.734  -2.852  1.00  0.00     0.104 A 
HETATM   30  C   UNL     1     -17.792  -9.880  -3.137  1.00  0.00     0.051 A 
BRANCH  27  31
HETATM   31  O   UNL     1     -15.548 -11.373  -6.325  1.00  0.00    -0.353 OA
HETATM   32  C   UNL     1     -16.161 -12.462  -7.020  1.00  0.00     0.210 C 
ENDBRANCH  27  31
BRANCH  28  33
HETATM   33  O   UNL     1     -15.141 -12.333  -3.647  1.00  0.00    -0.356 OA
HETATM   34  H   UNL     1     -14.646 -12.050  -2.855  1.00  0.00     0.218 HD
ENDBRANCH  28  33
BRANCH  29  35
HETATM   35  O   UNL     1     -16.544 -11.005  -1.519  1.00  0.00    -0.353 OA
HETATM   36  C   UNL     1     -17.509 -11.878  -0.935  1.00  0.00     0.210 C 
ENDBRANCH  29  35
ENDBRANCH   2  25
TORSDOF 20
BEGIN_RES ARG D 557
REMARK  4 active torsions:
REMARK  status: ('A' for Active; 'I' for Inactive)
REMARK    1  A    between atoms: CA   and  CB  
REMARK    2  A    between atoms: CB   and  CG  
REMARK    3  A    between atoms: CG   and  CD  
REMARK    4  A    between atoms: CD   and  NE  
REMARK       I    between atoms: NE   and  CZ  
REMARK       I    between atoms: CZ   and  NH1 
REMARK       I    between atoms: CZ   and  NH2 
ROOT
ATOM      1  CA  ARG D 557     -26.217   2.705 -17.014  1.00 35.49     0.159 C 
ENDROOT
BRANCH   1   2
ATOM      2  CB  ARG D 557     -26.789   1.319 -17.183  1.00 35.49     0.034 C 
BRANCH   2   3
ATOM      3  CG  ARG D 557     -25.865   0.195 -16.991  1.00 35.49     0.027 C 
BRANCH   3   4
ATOM      4  CD  ARG D 557     -26.306  -0.721 -15.914  1.00 35.49     0.116 C 
BRANCH   4   5
ATOM      5  NE  ARG D 557     -25.275  -0.944 -14.935  1.00 35.49    -0.212 N 
ATOM      6  CZ  ARG D 557     -25.020  -2.084 -14.334  1.00 35.49     0.666 C 
ATOM      7  NH1 ARG D 557     -25.720  -3.180 -14.565  1.00 35.49    -0.235 N 
ATOM      8  NH2 ARG D 557     -24.031  -2.110 -13.489  1.00 35.49    -0.235 N 
ATOM      9  HH  ARG D 557     -26.374  -3.186 -15.119  1.00 35.49     0.174 HD
ATOM     10  HH  ARG D 557     -25.506  -3.895 -14.146  1.00 35.49     0.174 HD
ATOM     11  HH  ARG D 557     -23.592  -1.389 -13.365  1.00 35.49     0.174 HD
ATOM     12  HH  ARG D 557     -23.834  -2.829 -13.084  1.00 35.49     0.174 HD
ATOM     13  HE  ARG D 557     -24.822  -0.274 -14.672  1.00 35.49     0.178 HD
ENDBRANCH   4   5
ENDBRANCH   3   4
ENDBRANCH   2   3
ENDBRANCH   1   2
END_RES ARG D 557
BEGIN_RES GLU D 570
REMARK  3 active torsions:
REMARK  status: ('A' for Active; 'I' for Inactive)
REMARK    5  A    between atoms: CA   and  CB  
REMARK    6  A    between atoms: CB   and  CG  
REMARK    7  A    between atoms: CG   and  CD  
ROOT
ATOM     14  CA  GLU D 570     -18.033  -6.348 -13.375  1.00 32.92     0.160 C 
ENDROOT
BRANCH  14  15
ATOM     15  CB  GLU D 570     -19.500  -6.345 -13.794  1.00 32.92     0.043 C 
BRANCH  15  16
ATOM     16  CG  GLU D 570     -20.098  -7.643 -14.201  1.00 32.92     0.100 C 
BRANCH  16  17
ATOM     17  CD  GLU D 570     -21.094  -7.504 -15.329  1.00 32.92     0.185 C 
ATOM     18  OE1 GLU D 570     -21.902  -6.556 -15.311  1.00 32.92    -0.647 OA
ATOM     19  OE2 GLU D 570     -21.076  -8.363 -16.233  1.00 32.92    -0.647 OA
ENDBRANCH  16  17
ENDBRANCH  15  16
ENDBRANCH  14  15
END_RES GLU D 570
ENDMDL
MODEL 4
REMARK VINA RESULT:      -6.5      1.972      3.055
REMARK  20 active torsions:
REMARK  status: ('A' for Active; 'I' for Inactive)
REMARK    1  A    between atoms: C_2  and  C_3 
REMARK    2  A    between atoms: C_3  and  C_4 
REMARK    3  A    between atoms: C_4  and  C_5 
REMARK    4  A    between atoms: C_5  and  C_6 
REMARK    5  A    between atoms: C_5  and  C_8 
REMARK    6  A    between atoms: C_8  and  O_9 
REMARK    7  A    between atoms: O_9  and  C_10 
REMARK    8  A    between atoms: C_10  and  C_12 
REMARK    9  A    between atoms: C_12  and  C_25 
REMARK   10  A    between atoms: C_13  and  C_14 
REMARK   11  A    between atoms: C_16  and  O_23 
REMARK   12  A    between atoms: C_17  and  O_22 
REMARK   13  A    between atoms: C_18  and  O_20 
REMARK   14  A    between atoms: C_25  and  O_27 
REMARK   15  A    between atoms: O_27  and  C_28 
REMARK   16  A    between atoms: C_28  and  C_29 
REMARK   17  A    between atoms: C_29  and  C_30 
REMARK   18  A    between atoms: C_29  and  C_32 
REMARK   19  A    between atoms: C_32  and  C_33 
REMARK   20  A    between atoms: C_33  and  C_34 
ROOT
HETATM    1  C   UNL     1     -20.375  -8.612  -4.759  1.00  0.00     0.115 C 
HETATM    2  C   UNL     1     -19.105  -8.665  -4.288  1.00  0.00     0.035 C 
ENDROOT
BRANCH   1   3
HETATM    3  C   UNL     1     -21.171  -9.842  -5.050  1.00  0.00     0.299 C 
HETATM    4  O   UNL     1     -20.991 -10.564  -6.026  1.00  0.00    -0.259 OA
BRANCH   3   5
HETATM    5  O   UNL     1     -22.186 -10.011  -4.153  1.00  0.00    -0.317 OA
BRANCH   5   6
HETATM    6  C   UNL     1     -22.011 -11.075  -3.192  1.00  0.00     0.183 C 
BRANCH   6   7
HETATM    7  C   UNL     1     -21.875 -10.605  -1.727  1.00  0.00     0.010 C 
BRANCH   7   8
HETATM    8  C   UNL     1     -21.954  -9.063  -1.570  1.00  0.00     0.007 C 
BRANCH   8   9
HETATM    9  C   UNL     1     -21.012  -8.536  -0.472  1.00  0.00     0.000 C 
BRANCH   9  10
HETATM   10  C   UNL     1     -21.710  -8.241   0.856  1.00  0.00    -0.005 C 
HETATM   11  C   UNL     1     -23.198  -7.989   0.632  1.00  0.00     0.005 C 
ENDBRANCH   9  10
ENDBRANCH   8   9
ENDBRANCH   7   8
BRANCH   7  12
HETATM   12  C   UNL     1     -22.911 -11.352  -0.841  1.00  0.00     0.002 C 
HETATM   13  C   UNL     1     -23.525 -12.600  -1.468  1.00  0.00     0.005 C 
ENDBRANCH   7  12
ENDBRANCH   6   7
ENDBRANCH   5   6
ENDBRANCH   3   5
ENDBRANCH   1   3
BRANCH   1  14
HETATM   14  C   UNL     1     -20.892  -7.285  -5.226  1.00  0.00     0.299 C 
HETATM   15  O   UNL     1     -21.488  -6.497  -4.502  1.00  0.00    -0.259 OA
BRANCH  14  16
HETATM   16  O   UNL     1     -20.793  -7.132  -6.581  1.00  0.00    -0.317 OA
BRANCH  16  17
HETATM   17  C   UNL     1     -20.296  -5.842  -6.982  1.00  0.00     0.183 C 
BRANCH  17  18
HETATM   18  C   UNL     1     -21.109  -5.142  -8.088  1.00  0.00     0.010 C 
BRANCH  18  19
HETATM   19  C   UNL     1     -22.333  -4.366  -7.547  1.00  0.00     0.002 C 
HETATM   20  C   UNL     1     -23.440  -4.094  -8.558  1.00  0.00     0.005 C 
ENDBRANCH  18  19
BRANCH  18  21
HETATM   21  C   UNL     1     -20.193  -4.213  -8.931  1.00  0.00     0.007 C 
BRANCH  21  22
HETATM   22  C   UNL     1     -20.173  -4.558 -10.426  1.00  0.00     0.000 C 
BRANCH  22  23
HETATM   23  C   UNL     1     -20.915  -3.524 -11.273  1.00  0.00    -0.005 C 
HETATM   24  C   UNL     1     -22.025  -4.183 -12.080  1.00  0.00     0.005 C 
ENDBRANCH  22  23
ENDBRANCH  21  22
ENDBRANCH  18  21
ENDBRANCH  17  18
ENDBRANCH  16  17
ENDBRANCH  14  16
ENDBRANCH   1  14
BRANCH   2  25
HETATM   25  C   UNL     1     -18.301  -9.829  -3.879  1.00  0.00    -0.029 A 
HETATM   26  C   UNL     1     -17.476 -10.506  -4.792  1.00  0.00     0.051 A 
HETATM   27  C   UNL     1     -16.688 -11.592  -4.380  1.00  0.00     0.104 A 
HETATM   28  C   UNL     1     -16.757 -12.010  -3.046  1.00  0.00     0.133 A 
HETATM   29  C   UNL     1     -17.497 -11.283  -2.105  1.00  0.00     0.104 A 
HETATM   30  C   UNL     1     -18.285 -10.210  -2.534  1.00  0.00     0.051 A 
BRANCH  27  31
HETATM   31  O   UNL     1     -15.978 -12.228  -5.367  1.00  0.00    -0.353 OA
HETATM   32  C   UNL     1     -14.617 -11.819  -5.529  1.00  0.00     0.210 C 
ENDBRANCH  27  31
BRANCH  28  33
HETATM   33  O   UNL     1     -16.224 -13.215  -2.680  1.00  0.00    -0.356 OA
HETATM   34  H   UNL     1     -15.534 -13.388  -3.348  1.00  0.00     0.218 HD
ENDBRANCH  28  33
BRANCH  29  35
HETATM   35  O   UNL     1     -17.597 -11.567  -0.767  1.00  0.00    -0.353 OA
HETATM   36  C   UNL     1     -18.850 -12.101  -0.343  1.00  0.00     0.210 C 
ENDBRANCH  29  35
ENDBRANCH   2  25
TORSDOF 20
BEGIN_RES ARG D 557
REMARK  4 active torsions:
REMARK  status: ('A' for Active; 'I' for Inactive)
REMARK    1  A    between atoms: CA   and  CB  
REMARK    2  A    between atoms: CB   and  CG  
REMARK    3  A    between atoms: CG   and  CD  
REMARK    4  A    between atoms: CD   and  NE  
REMARK       I    between atoms: NE   and  CZ  
REMARK       I    between atoms: CZ   and  NH1 
REMARK       I    between atoms: CZ   and  NH2 
ROOT
ATOM      1  CA  ARG D 557     -26.217   2.705 -17.014  1.00 35.49     0.159 C 
ENDROOT
BRANCH   1   2
ATOM      2  CB  ARG D 557     -26.789   1.319 -17.183  1.00 35.49     0.034 C 
BRANCH   2   3
ATOM      3  CG  ARG D 557     -28.231   1.226 -17.443  1.00 35.49     0.027 C 
BRANCH   3   4
ATOM      4  CD  ARG D 557     -28.916   0.307 -16.506  1.00 35.49     0.116 C 
BRANCH   4   5
ATOM      5  NE  ARG D 557     -29.316  -0.919 -17.144  1.00 35.49    -0.212 N 
ATOM      6  CZ  ARG D 557     -28.696  -2.074 -17.046  1.00 35.49     0.666 C 
ATOM      7  NH1 ARG D 557     -27.593  -2.229 -16.336  1.00 35.49    -0.235 N 
ATOM      8  NH2 ARG D 557     -29.213  -3.088 -17.676  1.00 35.49    -0.235 N 
ATOM      9  HH  ARG D 557     -27.237  -1.575 -15.912  1.00 35.49     0.174 HD
ATOM     10  HH  ARG D 557     -27.234  -3.006 -16.307  1.00 35.49     0.174 HD
ATOM     11  HH  ARG D 557     -29.930  -2.960 -18.120  1.00 35.49     0.174 HD
ATOM     12  HH  ARG D 557     -28.844  -3.850 -17.633  1.00 35.49     0.174 HD
ATOM     13  HE  ARG D 557     -29.976  -0.894 -17.679  1.00 35.49     0.178 HD
ENDBRANCH   4   5
ENDBRANCH   3   4
ENDBRANCH   2   3
ENDBRANCH   1   2
END_RES ARG D 557
BEGIN_RES GLU D 570
REMARK  3 active torsions:
REMARK  status: ('A' for Active; 'I' for Inactive)
REMARK    5  A    between atoms: CA   and  CB  
REMARK    6  A    between atoms: CB   and  CG  
REMARK    7  A    between atoms: CG   and  CD  
ROOT
ATOM     14  CA  GLU D 570     -18.033  -6.348 -13.375  1.00 32.92     0.160 C 
ENDROOT
BRANCH  14  15
ATOM     15  CB  GLU D 570     -19.500  -6.345 -13.794  1.00 32.92     0.043 C 
BRANCH  15  16
ATOM     16  CG  GLU D 570     -19.802  -6.099 -15.228  1.00 32.92     0.100 C 
BRANCH  16  17
ATOM     17  CD  GLU D 570     -21.260  -5.791 -15.479  1.00 32.92     0.185 C 
ATOM     18  OE1 GLU D 570     -21.588  -4.629 -15.787  1.00 32.92    -0.647 OA
ATOM     19  OE2 GLU D 570     -22.084  -6.717 -15.349  1.00 32.92    -0.647 OA
ENDBRANCH  16  17
ENDBRANCH  15  16
ENDBRANCH  14  15
END_RES GLU D 570
ENDMDL
MODEL 5
REMARK VINA RESULT:      -6.4      1.608      3.039
REMARK  20 active torsions:
REMARK  status: ('A' for Active; 'I' for Inactive)
REMARK    1  A    between atoms: C_2  and  C_3 
REMARK    2  A    between atoms: C_3  and  C_4 
REMARK    3  A    between atoms: C_4  and  C_5 
REMARK    4  A    between atoms: C_5  and  C_6 
REMARK    5  A    between atoms: C_5  and  C_8 
REMARK    6  A    between atoms: C_8  and  O_9 
REMARK    7  A    between atoms: O_9  and  C_10 
REMARK    8  A    between atoms: C_10  and  C_12 
REMARK    9  A    between atoms: C_12  and  C_25 
REMARK   10  A    between atoms: C_13  and  C_14 
REMARK   11  A    between atoms: C_16  and  O_23 
REMARK   12  A    between atoms: C_17  and  O_22 
REMARK   13  A    between atoms: C_18  and  O_20 
REMARK   14  A    between atoms: C_25  and  O_27 
REMARK   15  A    between atoms: O_27  and  C_28 
REMARK   16  A    between atoms: C_28  and  C_29 
REMARK   17  A    between atoms: C_29  and  C_30 
REMARK   18  A    between atoms: C_29  and  C_32 
REMARK   19  A    between atoms: C_32  and  C_33 
REMARK   20  A    between atoms: C_33  and  C_34 
ROOT
HETATM    1  C   UNL     1     -20.647  -7.963  -4.372  1.00  0.00     0.115 C 
HETATM    2  C   UNL     1     -19.526  -8.231  -5.085  1.00  0.00     0.035 C 
ENDROOT
BRANCH   1   3
HETATM    3  C   UNL     1     -21.236  -8.942  -3.409  1.00  0.00     0.299 C 
HETATM    4  O   UNL     1     -22.028  -9.825  -3.723  1.00  0.00    -0.259 OA
BRANCH   3   5
HETATM    5  O   UNL     1     -20.862  -8.674  -2.124  1.00  0.00    -0.317 OA
BRANCH   5   6
HETATM    6  C   UNL     1     -20.566  -9.821  -1.298  1.00  0.00     0.183 C 
BRANCH   6   7
HETATM    7  C   UNL     1     -21.555 -10.049  -0.134  1.00  0.00     0.010 C 
BRANCH   7   8
HETATM    8  C   UNL     1     -21.165 -11.247   0.774  1.00  0.00     0.007 C 
BRANCH   8   9
HETATM    9  C   UNL     1     -22.205 -12.382   0.726  1.00  0.00     0.000 C 
BRANCH   9  10
HETATM   10  C   UNL     1     -23.583 -11.941   0.234  1.00  0.00    -0.005 C 
HETATM   11  C   UNL     1     -23.962 -12.695  -1.037  1.00  0.00     0.005 C 
ENDBRANCH   9  10
ENDBRANCH   8   9
ENDBRANCH   7   8
BRANCH   7  12
HETATM   12  C   UNL     1     -21.737  -8.728   0.663  1.00  0.00     0.002 C 
HETATM   13  C   UNL     1     -23.119  -8.089   0.558  1.00  0.00     0.005 C 
ENDBRANCH   7  12
ENDBRANCH   6   7
ENDBRANCH   5   6
ENDBRANCH   3   5
ENDBRANCH   1   3
BRANCH   1  14
HETATM   14  C   UNL     1     -21.442  -6.749  -4.749  1.00  0.00     0.299 C 
HETATM   15  O   UNL     1     -22.208  -6.176  -3.986  1.00  0.00    -0.259 OA
BRANCH  14  16
HETATM   16  O   UNL     1     -21.360  -6.465  -6.086  1.00  0.00    -0.317 OA
BRANCH  16  17
HETATM   17  C   UNL     1     -22.126  -5.312  -6.478  1.00  0.00     0.183 C 
BRANCH  17  18
HETATM   18  C   UNL     1     -21.390  -4.322  -7.401  1.00  0.00     0.010 C 
BRANCH  18  19
HETATM   19  C   UNL     1     -20.133  -4.928  -8.068  1.00  0.00     0.002 C 
HETATM   20  C   UNL     1     -18.800  -4.517  -7.456  1.00  0.00     0.005 C 
ENDBRANCH  18  19
BRANCH  18  21
HETATM   21  C   UNL     1     -22.362  -3.749  -8.470  1.00  0.00     0.007 C 
BRANCH  21  22
HETATM   22  C   UNL     1     -22.430  -4.588  -9.753  1.00  0.00     0.000 C 
BRANCH  22  23
HETATM   23  C   UNL     1     -23.840  -4.637 -10.343  1.00  0.00    -0.005 C 
HETATM   24  C   UNL     1     -24.686  -3.486  -9.818  1.00  0.00     0.005 C 
ENDBRANCH  22  23
ENDBRANCH  21  22
ENDBRANCH  18  21
ENDBRANCH  17  18
ENDBRANCH  16  17
ENDBRANCH  14  16
ENDBRANCH   1  14
BRANCH   2  25
HETATM   25  C   UNL     1     -18.627  -9.396  -5.022  1.00  0.00    -0.029 A 
HETATM   26  C   UNL     1     -18.577 -10.339  -6.062  1.00  0.00     0.051 A 
HETATM   27  C   UNL     1     -17.689 -11.424  -6.004  1.00  0.00     0.104 A 
HETATM   28  C   UNL     1     -16.871 -11.571  -4.878  1.00  0.00     0.133 A 
HETATM   29  C   UNL     1     -16.841 -10.587  -3.883  1.00  0.00     0.104 A 
HETATM   30  C   UNL     1     -17.739  -9.516  -3.950  1.00  0.00     0.051 A 
BRANCH  27  31
HETATM   31  O   UNL     1     -17.774 -12.326  -7.036  1.00  0.00    -0.353 OA
HETATM   32  C   UNL     1     -19.094 -12.716  -7.426  1.00  0.00     0.210 C 
ENDBRANCH  27  31
BRANCH  28  33
HETATM   33  O   UNL     1     -16.207 -12.747  -4.665  1.00  0.00    -0.356 OA
HETATM   34  H   UNL     1     -15.424 -12.691  -5.244  1.00  0.00     0.218 HD
ENDBRANCH  28  33
BRANCH  29  35
HETATM   35  O   UNL     1     -16.047 -10.597  -2.764  1.00  0.00    -0.353 OA
HETATM   36  C   UNL     1     -16.604 -11.241  -1.620  1.00  0.00     0.210 C 
ENDBRANCH  29  35
ENDBRANCH   2  25
TORSDOF 20
BEGIN_RES ARG D 557
REMARK  4 active torsions:
REMARK  status: ('A' for Active; 'I' for Inactive)
REMARK    1  A    between atoms: CA   and  CB  
REMARK    2  A    between atoms: CB   and  CG  
REMARK    3  A    between atoms: CG   and  CD  
REMARK    4  A    between atoms: CD   and  NE  
REMARK       I    between atoms: NE   and  CZ  
REMARK       I    between atoms: CZ   and  NH1 
REMARK       I    between atoms: CZ   and  NH2 
ROOT
ATOM      1  CA  ARG D 557     -26.217   2.705 -17.014  1.00 35.49     0.159 C 
ENDROOT
BRANCH   1   2
ATOM      2  CB  ARG D 557     -26.789   1.319 -17.183  1.00 35.49     0.034 C 
BRANCH   2   3
ATOM      3  CG  ARG D 557     -28.232   1.168 -16.962  1.00 35.49     0.027 C 
BRANCH   3   4
ATOM      4  CD  ARG D 557     -28.620  -0.237 -16.705  1.00 35.49     0.116 C 
BRANCH   4   5
ATOM      5  NE  ARG D 557     -27.603  -0.958 -15.986  1.00 35.49    -0.212 N 
ATOM      6  CZ  ARG D 557     -27.389  -2.253 -16.049  1.00 35.49     0.666 C 
ATOM      7  NH1 ARG D 557     -28.122  -3.057 -16.796  1.00 35.49    -0.235 N 
ATOM      8  NH2 ARG D 557     -26.407  -2.734 -15.343  1.00 35.49    -0.235 N 
ATOM      9  HH  ARG D 557     -28.772  -2.762 -17.270  1.00 35.49     0.174 HD
ATOM     10  HH  ARG D 557     -27.934  -3.893 -16.800  1.00 35.49     0.174 HD
ATOM     11  HH  ARG D 557     -25.946  -2.190 -14.876  1.00 35.49     0.174 HD
ATOM     12  HH  ARG D 557     -26.236  -3.565 -15.361  1.00 35.49     0.174 HD
ATOM     13  HE  ARG D 557     -27.131  -0.528 -15.424  1.00 35.49     0.178 HD
ENDBRANCH   4   5
ENDBRANCH   3   4
ENDBRANCH   2   3
ENDBRANCH   1   2
END_RES ARG D 557
BEGIN_RES GLU D 570
REMARK  3 active torsions:
REMARK  status: ('A' for Active; 'I' for Inactive)
REMARK    5  A    between atoms: CA   and  CB  
REMARK    6  A    between atoms: CB   and  CG  
REMARK    7  A    between atoms: CG   and  CD  
ROOT
ATOM     14  CA  GLU D 570     -18.033  -6.348 -13.375  1.00 32.92     0.160 C 
ENDROOT
BRANCH  14  15
ATOM     15  CB  GLU D 570     -19.500  -6.345 -13.794  1.00 32.92     0.043 C 
BRANCH  15  16
ATOM     16  CG  GLU D 570     -20.444  -5.541 -12.976  1.00 32.92     0.100 C 
BRANCH  16  17
ATOM     17  CD  GLU D 570     -21.748  -5.261 -13.685  1.00 32.92     0.185 C 
ATOM     18  OE1 GLU D 570     -22.292  -4.150 -13.536  1.00 32.92    -0.647 OA
ATOM     19  OE2 GLU D 570     -22.240  -6.169 -14.384  1.00 32.92    -0.647 OA
ENDBRANCH  16  17
ENDBRANCH  15  16
ENDBRANCH  14  15
END_RES GLU D 570
ENDMDL
MODEL 6
REMARK VINA RESULT:      -6.4      7.021     13.186
REMARK  20 active torsions:
REMARK  status: ('A' for Active; 'I' for Inactive)
REMARK    1  A    between atoms: C_2  and  C_3 
REMARK    2  A    between atoms: C_3  and  C_4 
REMARK    3  A    between atoms: C_4  and  C_5 
REMARK    4  A    between atoms: C_5  and  C_6 
REMARK    5  A    between atoms: C_5  and  C_8 
REMARK    6  A    between atoms: C_8  and  O_9 
REMARK    7  A    between atoms: O_9  and  C_10 
REMARK    8  A    between atoms: C_10  and  C_12 
REMARK    9  A    between atoms: C_12  and  C_25 
REMARK   10  A    between atoms: C_13  and  C_14 
REMARK   11  A    between atoms: C_16  and  O_23 
REMARK   12  A    between atoms: C_17  and  O_22 
REMARK   13  A    between atoms: C_18  and  O_20 
REMARK   14  A    between atoms: C_25  and  O_27 
REMARK   15  A    between atoms: O_27  and  C_28 
REMARK   16  A    between atoms: C_28  and  C_29 
REMARK   17  A    between atoms: C_29  and  C_30 
REMARK   18  A    between atoms: C_29  and  C_32 
REMARK   19  A    between atoms: C_32  and  C_33 
REMARK   20  A    between atoms: C_33  and  C_34 
ROOT
HETATM    1  C   UNL     1     -24.269  -6.235 -15.918  1.00  0.00     0.115 C 
HETATM    2  C   UNL     1     -23.692  -6.431 -17.129  1.00  0.00     0.035 C 
ENDROOT
BRANCH   1   3
HETATM    3  C   UNL     1     -25.739  -6.392 -15.698  1.00  0.00     0.299 C 
HETATM    4  O   UNL     1     -26.299  -7.472 -15.535  1.00  0.00    -0.259 OA
BRANCH   3   5
HETATM    5  O   UNL     1     -26.395  -5.200 -15.798  1.00  0.00    -0.317 OA
BRANCH   5   6
HETATM    6  C   UNL     1     -27.771  -5.268 -16.232  1.00  0.00     0.183 C 
BRANCH   6   7
HETATM    7  C   UNL     1     -28.183  -4.174 -17.242  1.00  0.00     0.010 C 
BRANCH   7   8
HETATM    8  C   UNL     1     -29.616  -4.372 -17.807  1.00  0.00     0.007 C 
BRANCH   8   9
HETATM    9  C   UNL     1     -30.475  -5.289 -16.918  1.00  0.00     0.000 C 
BRANCH   9  10
HETATM   10  C   UNL     1     -31.853  -4.717 -16.585  1.00  0.00    -0.005 C 
HETATM   11  C   UNL     1     -32.223  -3.611 -17.569  1.00  0.00     0.005 C 
ENDBRANCH   9  10
ENDBRANCH   8   9
ENDBRANCH   7   8
BRANCH   7  12
HETATM   12  C   UNL     1     -27.977  -2.772 -16.606  1.00  0.00     0.002 C 
HETATM   13  C   UNL     1     -28.972  -1.703 -17.049  1.00  0.00     0.005 C 
ENDBRANCH   7  12
ENDBRANCH   6   7
ENDBRANCH   5   6
ENDBRANCH   3   5
ENDBRANCH   1   3
BRANCH   1  14
HETATM   14  C   UNL     1     -23.437  -5.607 -14.841  1.00  0.00     0.299 C 
HETATM   15  O   UNL     1     -22.416  -4.968 -15.059  1.00  0.00    -0.259 OA
BRANCH  14  16
HETATM   16  O   UNL     1     -23.835  -5.982 -13.586  1.00  0.00    -0.317 OA
BRANCH  16  17
HETATM   17  C   UNL     1     -22.906  -5.614 -12.552  1.00  0.00     0.183 C 
BRANCH  17  18
HETATM   18  C   UNL     1     -23.305  -4.377 -11.723  1.00  0.00     0.010 C 
BRANCH  18  19
HETATM   19  C   UNL     1     -24.082  -4.732 -10.433  1.00  0.00     0.002 C 
HETATM   20  C   UNL     1     -24.453  -3.553  -9.543  1.00  0.00     0.005 C 
ENDBRANCH  18  19
BRANCH  18  21
HETATM   21  C   UNL     1     -22.054  -3.515 -11.397  1.00  0.00     0.007 C 
BRANCH  21  22
HETATM   22  C   UNL     1     -20.831  -4.338 -10.975  1.00  0.00     0.000 C 
BRANCH  22  23
HETATM   23  C   UNL     1     -20.340  -3.978  -9.573  1.00  0.00    -0.005 C 
HETATM   24  C   UNL     1     -20.893  -4.950  -8.540  1.00  0.00     0.005 C 
ENDBRANCH  22  23
ENDBRANCH  21  22
ENDBRANCH  18  21
ENDBRANCH  17  18
ENDBRANCH  16  17
ENDBRANCH  14  16
ENDBRANCH   1  14
BRANCH   2  25
HETATM   25  C   UNL     1     -24.287  -6.909 -18.388  1.00  0.00    -0.029 A 
HETATM   26  C   UNL     1     -25.625  -6.632 -18.717  1.00  0.00     0.051 A 
HETATM   27  C   UNL     1     -26.168  -7.063 -19.937  1.00  0.00     0.104 A 
HETATM   28  C   UNL     1     -25.364  -7.799 -20.814  1.00  0.00     0.133 A 
HETATM   29  C   UNL     1     -24.004  -7.995 -20.544  1.00  0.00     0.104 A 
HETATM   30  C   UNL     1     -23.480  -7.569 -19.319  1.00  0.00     0.051 A 
BRANCH  27  31
HETATM   31  O   UNL     1     -27.504  -6.805 -20.124  1.00  0.00    -0.353 OA
HETATM   32  C   UNL     1     -28.404  -7.454 -19.222  1.00  0.00     0.210 C 
ENDBRANCH  27  31
BRANCH  28  33
HETATM   33  O   UNL     1     -25.931  -8.461 -21.868  1.00  0.00    -0.356 OA
HETATM   34  H   UNL     1     -26.778  -8.000 -22.015  1.00  0.00     0.218 HD
ENDBRANCH  28  33
BRANCH  29  35
HETATM   35  O   UNL     1     -23.110  -8.654 -21.350  1.00  0.00    -0.353 OA
HETATM   36  C   UNL     1     -21.753  -8.630 -20.913  1.00  0.00     0.210 C 
ENDBRANCH  29  35
ENDBRANCH   2  25
TORSDOF 20
BEGIN_RES ARG D 557
REMARK  4 active torsions:
REMARK  status: ('A' for Active; 'I' for Inactive)
REMARK    1  A    between atoms: CA   and  CB  
REMARK    2  A    between atoms: CB   and  CG  
REMARK    3  A    between atoms: CG   and  CD  
REMARK    4  A    between atoms: CD   and  NE  
REMARK       I    between atoms: NE   and  CZ  
REMARK       I    between atoms: CZ   and  NH1 
REMARK       I    between atoms: CZ   and  NH2 
ROOT
ATOM      1  CA  ARG D 557     -26.217   2.705 -17.014  1.00 35.49     0.159 C 
ENDROOT
BRANCH   1   2
ATOM      2  CB  ARG D 557     -26.789   1.319 -17.183  1.00 35.49     0.034 C 
BRANCH   2   3
ATOM      3  CG  ARG D 557     -25.875   0.194 -16.951  1.00 35.49     0.027 C 
BRANCH   3   4
ATOM      4  CD  ARG D 557     -25.703  -0.106 -15.511  1.00 35.49     0.116 C 
BRANCH   4   5
ATOM      5  NE  ARG D 557     -24.407  -0.662 -15.224  1.00 35.49    -0.212 N 
ATOM      6  CZ  ARG D 557     -24.178  -1.842 -14.693  1.00 35.49     0.666 C 
ATOM      7  NH1 ARG D 557     -25.151  -2.662 -14.342  1.00 35.49    -0.235 N 
ATOM      8  NH2 ARG D 557     -22.937  -2.193 -14.522  1.00 35.49    -0.235 N 
ATOM      9  HH  ARG D 557     -25.975  -2.453 -14.447  1.00 35.49     0.174 HD
ATOM     10  HH  ARG D 557     -24.942  -3.421 -14.002  1.00 35.49     0.174 HD
ATOM     11  HH  ARG D 557     -22.329  -1.646 -14.765  1.00 35.49     0.174 HD
ATOM     12  HH  ARG D 557     -22.750  -2.949 -14.186  1.00 35.49     0.174 HD
ATOM     13  HE  ARG D 557     -23.724  -0.171 -15.352  1.00 35.49     0.178 HD
ENDBRANCH   4   5
ENDBRANCH   3   4
ENDBRANCH   2   3
ENDBRANCH   1   2
END_RES ARG D 557
BEGIN_RES GLU D 570
REMARK  3 active torsions:
REMARK  status: ('A' for Active; 'I' for Inactive)
REMARK    5  A    between atoms: CA   and  CB  
REMARK    6  A    between atoms: CB   and  CG  
REMARK    7  A    between atoms: CG   and  CD  
ROOT
ATOM     14  CA  GLU D 570     -18.033  -6.348 -13.375  1.00 32.92     0.160 C 
ENDROOT
BRANCH  14  15
ATOM     15  CB  GLU D 570     -19.500  -6.345 -13.794  1.00 32.92     0.043 C 
BRANCH  15  16
ATOM     16  CG  GLU D 570     -20.102  -7.645 -14.189  1.00 32.92     0.100 C 
BRANCH  16  17
ATOM     17  CD  GLU D 570     -20.527  -7.681 -15.639  1.00 32.92     0.185 C 
ATOM     18  OE1 GLU D 570     -21.192  -8.650 -16.050  1.00 32.92    -0.647 OA
ATOM     19  OE2 GLU D 570     -20.175  -6.738 -16.375  1.00 32.92    -0.647 OA
ENDBRANCH  16  17
ENDBRANCH  15  16
ENDBRANCH  14  15
END_RES GLU D 570
ENDMDL
MODEL 7
REMARK VINA RESULT:      -6.4      1.963      6.854
REMARK  20 active torsions:
REMARK  status: ('A' for Active; 'I' for Inactive)
REMARK    1  A    between atoms: C_2  and  C_3 
REMARK    2  A    between atoms: C_3  and  C_4 
REMARK    3  A    between atoms: C_4  and  C_5 
REMARK    4  A    between atoms: C_5  and  C_6 
REMARK    5  A    between atoms: C_5  and  C_8 
REMARK    6  A    between atoms: C_8  and  O_9 
REMARK    7  A    between atoms: O_9  and  C_10 
REMARK    8  A    between atoms: C_10  and  C_12 
REMARK    9  A    between atoms: C_12  and  C_25 
REMARK   10  A    between atoms: C_13  and  C_14 
REMARK   11  A    between atoms: C_16  and  O_23 
REMARK   12  A    between atoms: C_17  and  O_22 
REMARK   13  A    between atoms: C_18  and  O_20 
REMARK   14  A    between atoms: C_25  and  O_27 
REMARK   15  A    between atoms: O_27  and  C_28 
REMARK   16  A    between atoms: C_28  and  C_29 
REMARK   17  A    between atoms: C_29  and  C_30 
REMARK   18  A    between atoms: C_29  and  C_32 
REMARK   19  A    between atoms: C_32  and  C_33 
REMARK   20  A    between atoms: C_33  and  C_34 
ROOT
HETATM    1  C   UNL     1     -20.939  -6.865  -4.080  1.00  0.00     0.115 C 
HETATM    2  C   UNL     1     -21.095  -5.636  -4.631  1.00  0.00     0.035 C 
ENDROOT
BRANCH   1   3
HETATM    3  C   UNL     1     -20.587  -8.067  -4.895  1.00  0.00     0.299 C 
HETATM    4  O   UNL     1     -21.411  -8.841  -5.373  1.00  0.00    -0.259 OA
BRANCH   3   5
HETATM    5  O   UNL     1     -19.237  -8.254  -4.960  1.00  0.00    -0.317 OA
BRANCH   5   6
HETATM    6  C   UNL     1     -18.758  -9.556  -4.558  1.00  0.00     0.183 C 
BRANCH   6   7
HETATM    7  C   UNL     1     -17.726  -9.537  -3.408  1.00  0.00     0.010 C 
BRANCH   7   8
HETATM    8  C   UNL     1     -18.016 -10.594  -2.308  1.00  0.00     0.007 C 
BRANCH   8   9
HETATM    9  C   UNL     1     -16.727 -11.185  -1.709  1.00  0.00     0.000 C 
BRANCH   9  10
HETATM   10  C   UNL     1     -16.947 -12.466  -0.905  1.00  0.00    -0.005 C 
HETATM   11  C   UNL     1     -17.613 -12.150   0.430  1.00  0.00     0.005 C 
ENDBRANCH   9  10
ENDBRANCH   8   9
ENDBRANCH   7   8
BRANCH   7  12
HETATM   12  C   UNL     1     -16.291  -9.658  -3.992  1.00  0.00     0.002 C 
HETATM   13  C   UNL     1     -16.218 -10.043  -5.467  1.00  0.00     0.005 C 
ENDBRANCH   7  12
ENDBRANCH   6   7
ENDBRANCH   5   6
ENDBRANCH   3   5
ENDBRANCH   1   3
BRANCH   1  14
HETATM   14  C   UNL     1     -21.374  -7.054  -2.658  1.00  0.00     0.299 C 
HETATM   15  O   UNL     1     -22.282  -6.419  -2.137  1.00  0.00    -0.259 OA
BRANCH  14  16
HETATM   16  O   UNL     1     -20.529  -7.870  -1.957  1.00  0.00    -0.317 OA
BRANCH  16  17
HETATM   17  C   UNL     1     -21.200  -8.944  -1.273  1.00  0.00     0.183 C 
BRANCH  17  18
HETATM   18  C   UNL     1     -20.910  -9.040   0.237  1.00  0.00     0.010 C 
BRANCH  18  19
HETATM   19  C   UNL     1     -21.842  -8.151   1.094  1.00  0.00     0.002 C 
HETATM   20  C   UNL     1     -23.294  -8.086   0.637  1.00  0.00     0.005 C 
ENDBRANCH  18  19
BRANCH  18  21
HETATM   21  C   UNL     1     -20.969 -10.519   0.709  1.00  0.00     0.007 C 
BRANCH  21  22
HETATM   22  C   UNL     1     -21.651 -11.460  -0.292  1.00  0.00     0.000 C 
BRANCH  22  23
HETATM   23  C   UNL     1     -23.047 -11.885   0.164  1.00  0.00    -0.005 C 
HETATM   24  C   UNL     1     -24.108 -11.385  -0.807  1.00  0.00     0.005 C 
ENDBRANCH  22  23
ENDBRANCH  21  22
ENDBRANCH  18  21
ENDBRANCH  17  18
ENDBRANCH  16  17
ENDBRANCH  14  16
ENDBRANCH   1  14
BRANCH   2  25
HETATM   25  C   UNL     1     -20.873  -5.191  -6.017  1.00  0.00    -0.029 A 
HETATM   26  C   UNL     1     -19.599  -4.804  -6.466  1.00  0.00     0.051 A 
HETATM   27  C   UNL     1     -19.396  -4.417  -7.800  1.00  0.00     0.104 A 
HETATM   28  C   UNL     1     -20.489  -4.396  -8.673  1.00  0.00     0.133 A 
HETATM   29  C   UNL     1     -21.740  -4.874  -8.265  1.00  0.00     0.104 A 
HETATM   30  C   UNL     1     -21.930  -5.247  -6.930  1.00  0.00     0.051 A 
BRANCH  27  31
HETATM   31  O   UNL     1     -18.130  -3.986  -8.113  1.00  0.00    -0.353 OA
HETATM   32  C   UNL     1     -17.144  -4.123  -7.086  1.00  0.00     0.210 C 
ENDBRANCH  27  31
BRANCH  28  33
HETATM   33  O   UNL     1     -20.383  -3.770  -9.885  1.00  0.00    -0.356 OA
HETATM   34  H   UNL     1     -19.875  -2.959  -9.694  1.00  0.00     0.218 HD
ENDBRANCH  28  33
BRANCH  29  35
HETATM   35  O   UNL     1     -22.866  -4.948  -9.045  1.00  0.00    -0.353 OA
HETATM   36  C   UNL     1     -23.710  -3.799  -9.019  1.00  0.00     0.210 C 
ENDBRANCH  29  35
ENDBRANCH   2  25
TORSDOF 20
BEGIN_RES ARG D 557
REMARK  4 active torsions:
REMARK  status: ('A' for Active; 'I' for Inactive)
REMARK    1  A    between atoms: CA   and  CB  
REMARK    2  A    between atoms: CB   and  CG  
REMARK    3  A    between atoms: CG   and  CD  
REMARK    4  A    between atoms: CD   and  NE  
REMARK       I    between atoms: NE   and  CZ  
REMARK       I    between atoms: CZ   and  NH1 
REMARK       I    between atoms: CZ   and  NH2 
ROOT
ATOM      1  CA  ARG D 557     -26.217   2.705 -17.014  1.00 35.49     0.159 C 
ENDROOT
BRANCH   1   2
ATOM      2  CB  ARG D 557     -26.789   1.319 -17.183  1.00 35.49     0.034 C 
BRANCH   2   3
ATOM      3  CG  ARG D 557     -25.862   0.195 -17.003  1.00 35.49     0.027 C 
BRANCH   3   4
ATOM      4  CD  ARG D 557     -26.262  -0.693 -15.887  1.00 35.49     0.116 C 
BRANCH   4   5
ATOM      5  NE  ARG D 557     -25.195  -0.889 -14.941  1.00 35.49    -0.212 N 
ATOM      6  CZ  ARG D 557     -24.880  -2.026 -14.363  1.00 35.49     0.666 C 
ATOM      7  NH1 ARG D 557     -25.545  -3.144 -14.590  1.00 35.49    -0.235 N 
ATOM      8  NH2 ARG D 557     -23.868  -2.024 -13.546  1.00 35.49    -0.235 N 
ATOM      9  HH  ARG D 557     -26.213  -3.169 -15.125  1.00 35.49     0.174 HD
ATOM     10  HH  ARG D 557     -25.292  -3.857 -14.186  1.00 35.49     0.174 HD
ATOM     11  HH  ARG D 557     -23.453  -1.289 -13.424  1.00 35.49     0.174 HD
ATOM     12  HH  ARG D 557     -23.632  -2.740 -13.157  1.00 35.49     0.174 HD
ATOM     13  HE  ARG D 557     -24.761  -0.205 -14.682  1.00 35.49     0.178 HD
ENDBRANCH   4   5
ENDBRANCH   3   4
ENDBRANCH   2   3
ENDBRANCH   1   2
END_RES ARG D 557
BEGIN_RES GLU D 570
REMARK  3 active torsions:
REMARK  status: ('A' for Active; 'I' for Inactive)
REMARK    5  A    between atoms: CA   and  CB  
REMARK    6  A    between atoms: CB   and  CG  
REMARK    7  A    between atoms: CG   and  CD  
ROOT
ATOM     14  CA  GLU D 570     -18.033  -6.348 -13.375  1.00 32.92     0.160 C 
ENDROOT
BRANCH  14  15
ATOM     15  CB  GLU D 570     -19.500  -6.345 -13.794  1.00 32.92     0.043 C 
BRANCH  15  16
ATOM     16  CG  GLU D 570     -20.448  -5.560 -12.962  1.00 32.92     0.100 C 
BRANCH  16  17
ATOM     17  CD  GLU D 570     -21.679  -5.124 -13.723  1.00 32.92     0.185 C 
ATOM     18  OE1 GLU D 570     -21.626  -5.047 -14.965  1.00 32.92    -0.647 OA
ATOM     19  OE2 GLU D 570     -22.701  -4.841 -13.068  1.00 32.92    -0.647 OA
ENDBRANCH  16  17
ENDBRANCH  15  16
ENDBRANCH  14  15
END_RES GLU D 570
ENDMDL
MODEL 8
REMARK VINA RESULT:      -6.3      1.997      6.436
REMARK  20 active torsions:
REMARK  status: ('A' for Active; 'I' for Inactive)
REMARK    1  A    between atoms: C_2  and  C_3 
REMARK    2  A    between atoms: C_3  and  C_4 
REMARK    3  A    between atoms: C_4  and  C_5 
REMARK    4  A    between atoms: C_5  and  C_6 
REMARK    5  A    between atoms: C_5  and  C_8 
REMARK    6  A    between atoms: C_8  and  O_9 
REMARK    7  A    between atoms: O_9  and  C_10 
REMARK    8  A    between atoms: C_10  and  C_12 
REMARK    9  A    between atoms: C_12  and  C_25 
REMARK   10  A    between atoms: C_13  and  C_14 
REMARK   11  A    between atoms: C_16  and  O_23 
REMARK   12  A    between atoms: C_17  and  O_22 
REMARK   13  A    between atoms: C_18  and  O_20 
REMARK   14  A    between atoms: C_25  and  O_27 
REMARK   15  A    between atoms: O_27  and  C_28 
REMARK   16  A    between atoms: C_28  and  C_29 
REMARK   17  A    between atoms: C_29  and  C_30 
REMARK   18  A    between atoms: C_29  and  C_32 
REMARK   19  A    between atoms: C_32  and  C_33 
REMARK   20  A    between atoms: C_33  and  C_34 
ROOT
HETATM    1  C   UNL     1     -19.169 -10.472  -5.705  1.00  0.00     0.115 C 
HETATM    2  C   UNL     1     -18.940  -9.322  -5.023  1.00  0.00     0.035 C 
ENDROOT
BRANCH   1   3
HETATM    3  C   UNL     1     -20.519 -11.110  -5.765  1.00  0.00     0.299 C 
HETATM    4  O   UNL     1     -21.323 -10.935  -6.675  1.00  0.00    -0.259 OA
BRANCH   3   5
HETATM    5  O   UNL     1     -20.785 -11.833  -4.639  1.00  0.00    -0.317 OA
BRANCH   5   6
HETATM    6  C   UNL     1     -22.011 -11.503  -3.950  1.00  0.00     0.183 C 
BRANCH   6   7
HETATM    7  C   UNL     1     -21.947 -11.653  -2.414  1.00  0.00     0.010 C 
BRANCH   7   8
HETATM    8  C   UNL     1     -23.065 -12.566  -1.841  1.00  0.00     0.007 C 
BRANCH   8   9
HETATM    9  C   UNL     1     -24.073 -11.787  -0.976  1.00  0.00     0.000 C 
BRANCH   9  10
HETATM   10  C   UNL     1     -23.692 -11.708   0.502  1.00  0.00    -0.005 C 
HETATM   11  C   UNL     1     -23.183 -13.059   0.994  1.00  0.00     0.005 C 
ENDBRANCH   9  10
ENDBRANCH   8   9
ENDBRANCH   7   8
BRANCH   7  12
HETATM   12  C   UNL     1     -20.524 -12.114  -1.993  1.00  0.00     0.002 C 
HETATM   13  C   UNL     1     -20.020 -11.546  -0.669  1.00  0.00     0.005 C 
ENDBRANCH   7  12
ENDBRANCH   6   7
ENDBRANCH   5   6
ENDBRANCH   3   5
ENDBRANCH   1   3
BRANCH   1  14
HETATM   14  C   UNL     1     -17.980 -11.238  -6.200  1.00  0.00     0.299 C 
HETATM   15  O   UNL     1     -18.058 -12.335  -6.739  1.00  0.00    -0.259 OA
BRANCH  14  16
HETATM   16  O   UNL     1     -16.795 -10.670  -5.818  1.00  0.00    -0.317 OA
BRANCH  16  17
HETATM   17  C   UNL     1     -15.644 -11.477  -6.123  1.00  0.00     0.183 C 
BRANCH  17  18
HETATM   18  C   UNL     1     -15.221 -12.459  -5.014  1.00  0.00     0.010 C 
BRANCH  18  19
HETATM   19  C   UNL     1     -14.054 -13.385  -5.432  1.00  0.00     0.002 C 
HETATM   20  C   UNL     1     -13.150 -12.848  -6.534  1.00  0.00     0.005 C 
ENDBRANCH  18  19
BRANCH  18  21
HETATM   21  C   UNL     1     -14.877 -11.691  -3.708  1.00  0.00     0.007 C 
BRANCH  21  22
HETATM   22  C   UNL     1     -15.898 -11.901  -2.582  1.00  0.00     0.000 C 
BRANCH  22  23
HETATM   23  C   UNL     1     -16.765 -10.665  -2.342  1.00  0.00    -0.005 C 
HETATM   24  C   UNL     1     -16.018  -9.397  -2.732  1.00  0.00     0.005 C 
ENDBRANCH  22  23
ENDBRANCH  21  22
ENDBRANCH  18  21
ENDBRANCH  17  18
ENDBRANCH  16  17
ENDBRANCH  14  16
ENDBRANCH   1  14
BRANCH   2  25
HETATM   25  C   UNL     1     -19.889  -8.437  -4.327  1.00  0.00    -0.029 A 
HETATM   26  C   UNL     1     -20.748  -7.581  -5.038  1.00  0.00     0.051 A 
HETATM   27  C   UNL     1     -21.673  -6.770  -4.363  1.00  0.00     0.104 A 
HETATM   28  C   UNL     1     -21.709  -6.804  -2.964  1.00  0.00     0.133 A 
HETATM   29  C   UNL     1     -20.929  -7.722  -2.250  1.00  0.00     0.104 A 
HETATM   30  C   UNL     1     -20.006  -8.517  -2.937  1.00  0.00     0.051 A 
BRANCH  27  31
HETATM   31  O   UNL     1     -22.410  -5.918  -5.148  1.00  0.00    -0.353 OA
HETATM   32  C   UNL     1     -21.751  -5.397  -6.305  1.00  0.00     0.210 C 
ENDBRANCH  27  31
BRANCH  28  33
HETATM   33  O   UNL     1     -22.392  -5.839  -2.275  1.00  0.00    -0.356 OA
HETATM   34  H   UNL     1     -21.712  -5.176  -2.050  1.00  0.00     0.218 HD
ENDBRANCH  28  33
BRANCH  29  35
HETATM   35  O   UNL     1     -20.919  -7.880  -0.887  1.00  0.00    -0.353 OA
HETATM   36  C   UNL     1     -22.071  -8.510  -0.331  1.00  0.00     0.210 C 
ENDBRANCH  29  35
ENDBRANCH   2  25
TORSDOF 20
BEGIN_RES ARG D 557
REMARK  4 active torsions:
REMARK  status: ('A' for Active; 'I' for Inactive)
REMARK    1  A    between atoms: CA   and  CB  
REMARK    2  A    between atoms: CB   and  CG  
REMARK    3  A    between atoms: CG   and  CD  
REMARK    4  A    between atoms: CD   and  NE  
REMARK       I    between atoms: NE   and  CZ  
REMARK       I    between atoms: CZ   and  NH1 
REMARK       I    between atoms: CZ   and  NH2 
ROOT
ATOM      1  CA  ARG D 557     -26.217   2.705 -17.014  1.00 35.49     0.159 C 
ENDROOT
BRANCH   1   2
ATOM      2  CB  ARG D 557     -26.789   1.319 -17.183  1.00 35.49     0.034 C 
BRANCH   2   3
ATOM      3  CG  ARG D 557     -25.935   0.197 -16.774  1.00 35.49     0.027 C 
BRANCH   3   4
ATOM      4  CD  ARG D 557     -26.694  -0.865 -16.076  1.00 35.49     0.116 C 
BRANCH   4   5
ATOM      5  NE  ARG D 557     -25.962  -1.415 -14.966  1.00 35.49    -0.212 N 
ATOM      6  CZ  ARG D 557     -25.922  -2.684 -14.626  1.00 35.49     0.666 C 
ATOM      7  NH1 ARG D 557     -26.586  -3.616 -15.284  1.00 35.49    -0.235 N 
ATOM      8  NH2 ARG D 557     -25.187  -3.008 -13.601  1.00 35.49    -0.235 N 
ATOM      9  HH  ARG D 557     -27.073  -3.426 -15.962  1.00 35.49     0.174 HD
ATOM     10  HH  ARG D 557     -26.519  -4.428 -15.017  1.00 35.49     0.174 HD
ATOM     11  HH  ARG D 557     -24.764  -2.385 -13.200  1.00 35.49     0.174 HD
ATOM     12  HH  ARG D 557     -25.133  -3.817 -13.354  1.00 35.49     0.174 HD
ATOM     13  HE  ARG D 557     -25.564  -0.875 -14.443  1.00 35.49     0.178 HD
ENDBRANCH   4   5
ENDBRANCH   3   4
ENDBRANCH   2   3
ENDBRANCH   1   2
END_RES ARG D 557
BEGIN_RES GLU D 570
REMARK  3 active torsions:
REMARK  status: ('A' for Active; 'I' for Inactive)
REMARK    5  A    between atoms: CA   and  CB  
REMARK    6  A    between atoms: CB   and  CG  
REMARK    7  A    between atoms: CG   and  CD  
ROOT
ATOM     14  CA  GLU D 570     -18.033  -6.348 -13.375  1.00 32.92     0.160 C 
ENDROOT
BRANCH  14  15
ATOM     15  CB  GLU D 570     -19.500  -6.345 -13.794  1.00 32.92     0.043 C 
BRANCH  15  16
ATOM     16  CG  GLU D 570     -19.804  -6.058 -15.220  1.00 32.92     0.100 C 
BRANCH  16  17
ATOM     17  CD  GLU D 570     -21.125  -5.349 -15.410  1.00 32.92     0.185 C 
ATOM     18  OE1 GLU D 570     -21.801  -5.051 -14.407  1.00 32.92    -0.647 OA
ATOM     19  OE2 GLU D 570     -21.495  -5.105 -16.575  1.00 32.92    -0.647 OA
ENDBRANCH  16  17
ENDBRANCH  15  16
ENDBRANCH  14  15
END_RES GLU D 570
ENDMDL
MODEL 9
REMARK VINA RESULT:      -6.2      6.907     12.756
REMARK  20 active torsions:
REMARK  status: ('A' for Active; 'I' for Inactive)
REMARK    1  A    between atoms: C_2  and  C_3 
REMARK    2  A    between atoms: C_3  and  C_4 
REMARK    3  A    between atoms: C_4  and  C_5 
REMARK    4  A    between atoms: C_5  and  C_6 
REMARK    5  A    between atoms: C_5  and  C_8 
REMARK    6  A    between atoms: C_8  and  O_9 
REMARK    7  A    between atoms: O_9  and  C_10 
REMARK    8  A    between atoms: C_10  and  C_12 
REMARK    9  A    between atoms: C_12  and  C_25 
REMARK   10  A    between atoms: C_13  and  C_14 
REMARK   11  A    between atoms: C_16  and  O_23 
REMARK   12  A    between atoms: C_17  and  O_22 
REMARK   13  A    between atoms: C_18  and  O_20 
REMARK   14  A    between atoms: C_25  and  O_27 
REMARK   15  A    between atoms: O_27  and  C_28 
REMARK   16  A    between atoms: C_28  and  C_29 
REMARK   17  A    between atoms: C_29  and  C_30 
REMARK   18  A    between atoms: C_29  and  C_32 
REMARK   19  A    between atoms: C_32  and  C_33 
REMARK   20  A    between atoms: C_33  and  C_34 
ROOT
HETATM    1  C   UNL     1     -23.246  -6.439 -16.152  1.00  0.00     0.115 C 
HETATM    2  C   UNL     1     -22.741  -6.202 -17.388  1.00  0.00     0.035 C 
ENDROOT
BRANCH   1   3
HETATM    3  C   UNL     1     -24.289  -7.480 -15.900  1.00  0.00     0.299 C 
HETATM    4  O   UNL     1     -24.188  -8.653 -16.245  1.00  0.00    -0.259 OA
BRANCH   3   5
HETATM    5  O   UNL     1     -25.406  -6.947 -15.326  1.00  0.00    -0.317 OA
BRANCH   5   6
HETATM    6  C   UNL     1     -26.608  -6.984 -16.127  1.00  0.00     0.183 C 
BRANCH   6   7
HETATM    7  C   UNL     1     -27.072  -5.609 -16.657  1.00  0.00     0.010 C 
BRANCH   7   8
HETATM    8  C   UNL     1     -28.249  -5.708 -17.665  1.00  0.00     0.007 C 
BRANCH   8   9
HETATM    9  C   UNL     1     -29.568  -5.171 -17.080  1.00  0.00     0.000 C 
BRANCH   9  10
HETATM   10  C   UNL     1     -30.102  -3.929 -17.793  1.00  0.00    -0.005 C 
HETATM   11  C   UNL     1     -31.575  -3.714 -17.457  1.00  0.00     0.005 C 
ENDBRANCH   9  10
ENDBRANCH   8   9
ENDBRANCH   7   8
BRANCH   7  12
HETATM   12  C   UNL     1     -27.384  -4.667 -15.462  1.00  0.00     0.002 C 
HETATM   13  C   UNL     1     -26.830  -3.251 -15.587  1.00  0.00     0.005 C 
ENDBRANCH   7  12
ENDBRANCH   6   7
ENDBRANCH   5   6
ENDBRANCH   3   5
ENDBRANCH   1   3
BRANCH   1  14
HETATM   14  C   UNL     1     -22.921  -5.460 -15.065  1.00  0.00     0.299 C 
HETATM   15  O   UNL     1     -22.456  -4.347 -15.273  1.00  0.00    -0.259 OA
BRANCH  14  16
HETATM   16  O   UNL     1     -23.023  -6.010 -13.816  1.00  0.00    -0.317 OA
BRANCH  16  17
HETATM   17  C   UNL     1     -23.646  -5.144 -12.852  1.00  0.00     0.183 C 
BRANCH  17  18
HETATM   18  C   UNL     1     -22.834  -4.905 -11.565  1.00  0.00     0.010 C 
BRANCH  18  19
HETATM   19  C   UNL     1     -21.786  -3.775 -11.707  1.00  0.00     0.002 C 
HETATM   20  C   UNL     1     -20.377  -4.122 -11.242  1.00  0.00     0.005 C 
ENDBRANCH  18  19
BRANCH  18  21
HETATM   21  C   UNL     1     -23.783  -4.632 -10.365  1.00  0.00     0.007 C 
BRANCH  21  22
HETATM   22  C   UNL     1     -23.163  -3.744  -9.279  1.00  0.00     0.000 C 
BRANCH  22  23
HETATM   23  C   UNL     1     -22.428  -4.555  -8.211  1.00  0.00    -0.005 C 
HETATM   24  C   UNL     1     -21.524  -3.657  -7.378  1.00  0.00     0.005 C 
ENDBRANCH  22  23
ENDBRANCH  21  22
ENDBRANCH  18  21
ENDBRANCH  17  18
ENDBRANCH  16  17
ENDBRANCH  14  16
ENDBRANCH   1  14
BRANCH   2  25
HETATM   25  C   UNL     1     -22.985  -6.912 -18.655  1.00  0.00    -0.029 A 
HETATM   26  C   UNL     1     -21.948  -7.575 -19.333  1.00  0.00     0.051 A 
HETATM   27  C   UNL     1     -22.202  -8.279 -20.520  1.00  0.00     0.104 A 
HETATM   28  C   UNL     1     -23.502  -8.287 -21.037  1.00  0.00     0.133 A 
HETATM   29  C   UNL     1     -24.561  -7.715 -20.321  1.00  0.00     0.104 A 
HETATM   30  C   UNL     1     -24.290  -7.010 -19.144  1.00  0.00     0.051 A 
BRANCH  27  31
HETATM   31  O   UNL     1     -21.106  -8.826 -21.140  1.00  0.00    -0.353 OA
HETATM   32  C   UNL     1     -21.331  -9.396 -22.432  1.00  0.00     0.210 C 
ENDBRANCH  27  31
BRANCH  28  33
HETATM   33  O   UNL     1     -23.726  -8.720 -22.315  1.00  0.00    -0.356 OA
HETATM   34  H   UNL     1     -22.833  -8.849 -22.687  1.00  0.00     0.218 HD
ENDBRANCH  28  33
BRANCH  29  35
HETATM   35  O   UNL     1     -25.878  -7.707 -20.703  1.00  0.00    -0.353 OA
HETATM   36  C   UNL     1     -26.580  -6.488 -20.467  1.00  0.00     0.210 C 
ENDBRANCH  29  35
ENDBRANCH   2  25
TORSDOF 20
BEGIN_RES ARG D 557
REMARK  4 active torsions:
REMARK  status: ('A' for Active; 'I' for Inactive)
REMARK    1  A    between atoms: CA   and  CB  
REMARK    2  A    between atoms: CB   and  CG  
REMARK    3  A    between atoms: CG   and  CD  
REMARK    4  A    between atoms: CD   and  NE  
REMARK       I    between atoms: NE   and  CZ  
REMARK       I    between atoms: CZ   and  NH1 
REMARK       I    between atoms: CZ   and  NH2 
ROOT
ATOM      1  CA  ARG D 557     -26.217   2.705 -17.014  1.00 35.49     0.159 C 
ENDROOT
BRANCH   1   2
ATOM      2  CB  ARG D 557     -26.789   1.319 -17.183  1.00 35.49     0.034 C 
BRANCH   2   3
ATOM      3  CG  ARG D 557     -25.838   0.202 -17.140  1.00 35.49     0.027 C 
BRANCH   3   4
ATOM      4  CD  ARG D 557     -24.689   0.472 -16.245  1.00 35.49     0.116 C 
BRANCH   4   5
ATOM      5  NE  ARG D 557     -24.723  -0.342 -15.059  1.00 35.49    -0.212 N 
ATOM      6  CZ  ARG D 557     -23.856  -1.279 -14.746  1.00 35.49     0.666 C 
ATOM      7  NH1 ARG D 557     -22.836  -1.590 -15.524  1.00 35.49    -0.235 N 
ATOM      8  NH2 ARG D 557     -24.030  -1.904 -13.618  1.00 35.49    -0.235 N 
ATOM      9  HH  ARG D 557     -22.702  -1.190 -16.270  1.00 35.49     0.174 HD
ATOM     10  HH  ARG D 557     -22.302  -2.209 -15.267  1.00 35.49     0.174 HD
ATOM     11  HH  ARG D 557     -24.693  -1.677 -13.132  1.00 35.49     0.174 HD
ATOM     12  HH  ARG D 557     -23.489  -2.513 -13.380  1.00 35.49     0.174 HD
ATOM     13  HE  ARG D 557     -25.388  -0.258 -14.536  1.00 35.49     0.178 HD
ENDBRANCH   4   5
ENDBRANCH   3   4
ENDBRANCH   2   3
ENDBRANCH   1   2
END_RES ARG D 557
BEGIN_RES GLU D 570
REMARK  3 active torsions:
REMARK  status: ('A' for Active; 'I' for Inactive)
REMARK    5  A    between atoms: CA   and  CB  
REMARK    6  A    between atoms: CB   and  CG  
REMARK    7  A    between atoms: CG   and  CD  
ROOT
ATOM     14  CA  GLU D 570     -18.033  -6.348 -13.375  1.00 32.92     0.160 C 
ENDROOT
BRANCH  14  15
ATOM     15  CB  GLU D 570     -19.500  -6.345 -13.794  1.00 32.92     0.043 C 
BRANCH  15  16
ATOM     16  CG  GLU D 570     -19.817  -6.778 -15.179  1.00 32.92     0.100 C 
BRANCH  16  17
ATOM     17  CD  GLU D 570     -20.321  -8.201 -15.252  1.00 32.92     0.185 C 
ATOM     18  OE1 GLU D 570     -20.684  -8.659 -16.352  1.00 32.92    -0.647 OA
ATOM     19  OE2 GLU D 570     -20.368  -8.858 -14.194  1.00 32.92    -0.647 OA
ENDBRANCH  16  17
ENDBRANCH  15  16
ENDBRANCH  14  15
END_RES GLU D 570
ENDMDL
