MODEL 1
REMARK VINA RESULT:      -4.8      0.000      0.000
REMARK  2 active torsions:
REMARK  status: ('A' for Active; 'I' for Inactive)
REMARK    1  A    between atoms: C_2  and  C_4 
REMARK    2  A    between atoms: C_4  and  O_6 
ROOT
HETATM    1  C   UNL     1     -24.906  -1.592 -14.619  1.00  0.00     0.213 C 
HETATM    2  O   UNL     1     -25.930  -2.241 -14.646  1.00  0.00    -0.644 OA
ENDROOT
BRANCH   1   3
HETATM    3  C   UNL     1     -23.532  -2.202 -14.364  1.00  0.00     0.218 C 
HETATM    4  C   UNL     1     -23.223  -2.606 -12.956  1.00  0.00     0.103 C 
HETATM    5  O   UNL     1     -22.774  -2.322 -15.321  1.00  0.00    -0.286 OA
ENDBRANCH   1   3
BRANCH   1   6
HETATM    6  O   UNL     1     -24.804  -0.261 -14.803  1.00  0.00    -0.771 OA
HETATM    7  H   UNL     1     -24.540   0.162 -13.952  1.00  0.00     0.168 HD
ENDBRANCH   1   6
TORSDOF 2
BEGIN_RES ARG D 557
REMARK  4 active torsions:
REMARK  status: ('A' for Active; 'I' for Inactive)
REMARK    1  A    between atoms: CA   and  CB  
REMARK    2  A    between atoms: CB   and  CG  
REMARK    3  A    between atoms: CG   and  CD  
REMARK    4  A    between atoms: CD   and  NE  
REMARK       I    between atoms: NE   and  CZ  
REMARK       I    between atoms: CZ   and  NH1 
REMARK       I    between atoms: CZ   and  NH2 
ROOT
ATOM      1  CA  ARG D 557     -26.217   2.705 -17.014  1.00 35.49     0.159 C 
ENDROOT
BRANCH   1   2
ATOM      2  CB  ARG D 557     -26.789   1.319 -17.183  1.00 35.49     0.034 C 
BRANCH   2   3
ATOM      3  CG  ARG D 557     -28.237   1.225 -17.407  1.00 35.49     0.027 C 
BRANCH   3   4
ATOM      4  CD  ARG D 557     -28.898   0.315 -16.444  1.00 35.49     0.116 C 
BRANCH   4   5
ATOM      5  NE  ARG D 557     -28.201  -0.937 -16.313  1.00 35.49    -0.212 N 
ATOM      6  CZ  ARG D 557     -28.576  -2.084 -16.834  1.00 35.49     0.666 C 
ATOM      7  NH1 ARG D 557     -29.681  -2.211 -17.546  1.00 35.49    -0.235 N 
ATOM      8  NH2 ARG D 557     -27.809  -3.115 -16.631  1.00 35.49    -0.235 N 
ATOM      9  HH  ARG D 557     -30.200  -1.545 -17.693  1.00 35.49     0.174 HD
ATOM     10  HH  ARG D 557     -29.874  -2.983 -17.863  1.00 35.49     0.174 HD
ATOM     11  HH  ARG D 557     -27.098  -3.001 -16.174  1.00 35.49     0.174 HD
ATOM     12  HH  ARG D 557     -28.016  -3.871 -16.955  1.00 35.49     0.174 HD
ATOM     13  HE  ARG D 557     -27.516  -0.962 -15.809  1.00 35.49     0.178 HD
ENDBRANCH   4   5
ENDBRANCH   3   4
ENDBRANCH   2   3
ENDBRANCH   1   2
END_RES ARG D 557
BEGIN_RES GLU D 570
REMARK  3 active torsions:
REMARK  status: ('A' for Active; 'I' for Inactive)
REMARK    5  A    between atoms: CA   and  CB  
REMARK    6  A    between atoms: CB   and  CG  
REMARK    7  A    between atoms: CG   and  CD  
ROOT
ATOM     14  CA  GLU D 570     -18.033  -6.348 -13.375  1.00 32.92     0.160 C 
ENDROOT
BRANCH  14  15
ATOM     15  CB  GLU D 570     -19.500  -6.345 -13.794  1.00 32.92     0.043 C 
BRANCH  15  16
ATOM     16  CG  GLU D 570     -19.804  -6.064 -15.221  1.00 32.92     0.100 C 
BRANCH  16  17
ATOM     17  CD  GLU D 570     -21.206  -5.544 -15.434  1.00 32.92     0.185 C 
ATOM     18  OE1 GLU D 570     -22.007  -5.555 -14.479  1.00 32.92    -0.647 OA
ATOM     19  OE2 GLU D 570     -21.513  -5.137 -16.572  1.00 32.92    -0.647 OA
ENDBRANCH  16  17
ENDBRANCH  15  16
ENDBRANCH  14  15
END_RES GLU D 570
ENDMDL
MODEL 2
REMARK VINA RESULT:      -4.8      3.332      3.977
REMARK  2 active torsions:
REMARK  status: ('A' for Active; 'I' for Inactive)
REMARK    1  A    between atoms: C_2  and  C_4 
REMARK    2  A    between atoms: C_4  and  O_6 
ROOT
HETATM    1  C   UNL     1     -24.183  -3.408  -9.985  1.00  0.00     0.213 C 
HETATM    2  O   UNL     1     -25.012  -3.195 -10.845  1.00  0.00    -0.644 OA
ENDROOT
BRANCH   1   3
HETATM    3  C   UNL     1     -22.686  -3.488 -10.264  1.00  0.00     0.218 C 
HETATM    4  C   UNL     1     -21.888  -4.425  -9.412  1.00  0.00     0.103 C 
HETATM    5  O   UNL     1     -22.235  -2.784 -11.162  1.00  0.00    -0.286 OA
ENDBRANCH   1   3
BRANCH   1   6
HETATM    6  O   UNL     1     -24.430  -3.608  -8.676  1.00  0.00    -0.771 OA
HETATM    7  H   UNL     1     -23.957  -2.920  -8.150  1.00  0.00     0.168 HD
ENDBRANCH   1   6
TORSDOF 2
BEGIN_RES ARG D 557
REMARK  4 active torsions:
REMARK  status: ('A' for Active; 'I' for Inactive)
REMARK    1  A    between atoms: CA   and  CB  
REMARK    2  A    between atoms: CB   and  CG  
REMARK    3  A    between atoms: CG   and  CD  
REMARK    4  A    between atoms: CD   and  NE  
REMARK       I    between atoms: NE   and  CZ  
REMARK       I    between atoms: CZ   and  NH1 
REMARK       I    between atoms: CZ   and  NH2 
ROOT
ATOM      1  CA  ARG D 557     -26.217   2.705 -17.014  1.00 35.49     0.159 C 
ENDROOT
BRANCH   1   2
ATOM      2  CB  ARG D 557     -26.789   1.319 -17.183  1.00 35.49     0.034 C 
BRANCH   2   3
ATOM      3  CG  ARG D 557     -25.869   0.194 -16.973  1.00 35.49     0.027 C 
BRANCH   3   4
ATOM      4  CD  ARG D 557     -26.313  -0.701 -15.881  1.00 35.49     0.116 C 
BRANCH   4   5
ATOM      5  NE  ARG D 557     -25.261  -0.966 -14.935  1.00 35.49    -0.212 N 
ATOM      6  CZ  ARG D 557     -25.019  -2.121 -14.358  1.00 35.49     0.666 C 
ATOM      7  NH1 ARG D 557     -25.753  -3.195 -14.585  1.00 35.49    -0.235 N 
ATOM      8  NH2 ARG D 557     -24.008  -2.184 -13.541  1.00 35.49    -0.235 N 
ATOM      9  HH  ARG D 557     -26.422  -3.177 -15.121  1.00 35.49     0.174 HD
ATOM     10  HH  ARG D 557     -25.546  -3.922 -14.182  1.00 35.49     0.174 HD
ATOM     11  HH  ARG D 557     -23.547  -1.477 -13.419  1.00 35.49     0.174 HD
ATOM     12  HH  ARG D 557     -23.818  -2.914 -13.153  1.00 35.49     0.174 HD
ATOM     13  HE  ARG D 557     -24.784  -0.311 -14.675  1.00 35.49     0.178 HD
ENDBRANCH   4   5
ENDBRANCH   3   4
ENDBRANCH   2   3
ENDBRANCH   1   2
END_RES ARG D 557
BEGIN_RES GLU D 570
REMARK  3 active torsions:
REMARK  status: ('A' for Active; 'I' for Inactive)
REMARK    5  A    between atoms: CA   and  CB  
REMARK    6  A    between atoms: CB   and  CG  
REMARK    7  A    between atoms: CG   and  CD  
ROOT
ATOM     14  CA  GLU D 570     -18.033  -6.348 -13.375  1.00 32.92     0.160 C 
ENDROOT
BRANCH  14  15
ATOM     15  CB  GLU D 570     -19.500  -6.345 -13.794  1.00 32.92     0.043 C 
BRANCH  15  16
ATOM     16  CG  GLU D 570     -20.433  -5.490 -13.015  1.00 32.92     0.100 C 
BRANCH  16  17
ATOM     17  CD  GLU D 570     -21.691  -5.145 -13.777  1.00 32.92     0.185 C 
ATOM     18  OE1 GLU D 570     -22.788  -5.193 -13.187  1.00 32.92    -0.647 OA
ATOM     19  OE2 GLU D 570     -21.581  -4.840 -14.981  1.00 32.92    -0.647 OA
ENDBRANCH  16  17
ENDBRANCH  15  16
ENDBRANCH  14  15
END_RES GLU D 570
ENDMDL
MODEL 3
REMARK VINA RESULT:      -4.5      2.912      3.645
REMARK  2 active torsions:
REMARK  status: ('A' for Active; 'I' for Inactive)
REMARK    1  A    between atoms: C_2  and  C_4 
REMARK    2  A    between atoms: C_4  and  O_6 
ROOT
HETATM    1  C   UNL     1     -26.032  -6.603 -15.998  1.00  0.00     0.213 C 
HETATM    2  O   UNL     1     -26.323  -5.619 -16.645  1.00  0.00    -0.644 OA
ENDROOT
BRANCH   1   3
HETATM    3  C   UNL     1     -24.597  -6.987 -15.654  1.00  0.00     0.218 C 
HETATM    4  C   UNL     1     -23.890  -6.131 -14.649  1.00  0.00     0.103 C 
HETATM    5  O   UNL     1     -24.117  -7.965 -16.218  1.00  0.00    -0.286 OA
ENDBRANCH   1   3
BRANCH   1   6
HETATM    6  O   UNL     1     -26.896  -7.502 -15.487  1.00  0.00    -0.771 OA
HETATM    7  H   UNL     1     -27.166  -7.212 -14.583  1.00  0.00     0.168 HD
ENDBRANCH   1   6
TORSDOF 2
BEGIN_RES ARG D 557
REMARK  4 active torsions:
REMARK  status: ('A' for Active; 'I' for Inactive)
REMARK    1  A    between atoms: CA   and  CB  
REMARK    2  A    between atoms: CB   and  CG  
REMARK    3  A    between atoms: CG   and  CD  
REMARK    4  A    between atoms: CD   and  NE  
REMARK       I    between atoms: NE   and  CZ  
REMARK       I    between atoms: CZ   and  NH1 
REMARK       I    between atoms: CZ   and  NH2 
ROOT
ATOM      1  CA  ARG D 557     -26.217   2.705 -17.014  1.00 35.49     0.159 C 
ENDROOT
BRANCH   1   2
ATOM      2  CB  ARG D 557     -26.789   1.319 -17.183  1.00 35.49     0.034 C 
BRANCH   2   3
ATOM      3  CG  ARG D 557     -28.223   1.158 -16.911  1.00 35.49     0.027 C 
BRANCH   3   4
ATOM      4  CD  ARG D 557     -28.604  -0.259 -16.712  1.00 35.49     0.116 C 
BRANCH   4   5
ATOM      5  NE  ARG D 557     -27.586  -1.002 -16.016  1.00 35.49    -0.212 N 
ATOM      6  CZ  ARG D 557     -27.404  -2.302 -16.083  1.00 35.49     0.666 C 
ATOM      7  NH1 ARG D 557     -28.173  -3.090 -16.811  1.00 35.49    -0.235 N 
ATOM      8  NH2 ARG D 557     -26.416  -2.804 -15.400  1.00 35.49    -0.235 N 
ATOM      9  HH  ARG D 557     -28.827  -2.780 -17.270  1.00 35.49     0.174 HD
ATOM     10  HH  ARG D 557     -28.004  -3.930 -16.817  1.00 35.49     0.174 HD
ATOM     11  HH  ARG D 557     -25.932  -2.270 -14.944  1.00 35.49     0.174 HD
ATOM     12  HH  ARG D 557     -26.265  -3.638 -15.421  1.00 35.49     0.174 HD
ATOM     13  HE  ARG D 557     -27.091  -0.582 -15.467  1.00 35.49     0.178 HD
ENDBRANCH   4   5
ENDBRANCH   3   4
ENDBRANCH   2   3
ENDBRANCH   1   2
END_RES ARG D 557
BEGIN_RES GLU D 570
REMARK  3 active torsions:
REMARK  status: ('A' for Active; 'I' for Inactive)
REMARK    5  A    between atoms: CA   and  CB  
REMARK    6  A    between atoms: CB   and  CG  
REMARK    7  A    between atoms: CG   and  CD  
ROOT
ATOM     14  CA  GLU D 570     -18.033  -6.348 -13.375  1.00 32.92     0.160 C 
ENDROOT
BRANCH  14  15
ATOM     15  CB  GLU D 570     -19.500  -6.345 -13.794  1.00 32.92     0.043 C 
BRANCH  15  16
ATOM     16  CG  GLU D 570     -20.094  -7.640 -14.217  1.00 32.92     0.100 C 
BRANCH  16  17
ATOM     17  CD  GLU D 570     -20.593  -7.621 -15.643  1.00 32.92     0.185 C 
ATOM     18  OE1 GLU D 570     -20.816  -8.703 -16.220  1.00 32.92    -0.647 OA
ATOM     19  OE2 GLU D 570     -20.746  -6.514 -16.194  1.00 32.92    -0.647 OA
ENDBRANCH  16  17
ENDBRANCH  15  16
ENDBRANCH  14  15
END_RES GLU D 570
ENDMDL
MODEL 4
REMARK VINA RESULT:      -4.5      9.650     10.610
REMARK  2 active torsions:
REMARK  status: ('A' for Active; 'I' for Inactive)
REMARK    1  A    between atoms: C_2  and  C_4 
REMARK    2  A    between atoms: C_4  and  O_6 
ROOT
HETATM    1  C   UNL     1      -9.707   5.649 -19.268  1.00  0.00     0.213 C 
HETATM    2  O   UNL     1      -8.910   6.073 -20.078  1.00  0.00    -0.644 OA
ENDROOT
BRANCH   1   3
HETATM    3  C   UNL     1     -10.993   4.925 -19.655  1.00  0.00     0.218 C 
HETATM    4  C   UNL     1     -10.932   4.036 -20.858  1.00  0.00     0.103 C 
HETATM    5  O   UNL     1     -11.986   5.116 -18.960  1.00  0.00    -0.286 OA
ENDBRANCH   1   3
BRANCH   1   6
HETATM    6  O   UNL     1      -9.603   5.740 -17.928  1.00  0.00    -0.771 OA
HETATM    7  H   UNL     1      -9.995   6.596 -17.632  1.00  0.00     0.168 HD
ENDBRANCH   1   6
TORSDOF 2
BEGIN_RES ARG D 557
REMARK  4 active torsions:
REMARK  status: ('A' for Active; 'I' for Inactive)
REMARK    1  A    between atoms: CA   and  CB  
REMARK    2  A    between atoms: CB   and  CG  
REMARK    3  A    between atoms: CG   and  CD  
REMARK    4  A    between atoms: CD   and  NE  
REMARK       I    between atoms: NE   and  CZ  
REMARK       I    between atoms: CZ   and  NH1 
REMARK       I    between atoms: CZ   and  NH2 
ROOT
ATOM      1  CA  ARG D 557     -26.217   2.705 -17.014  1.00 35.49     0.159 C 
ENDROOT
BRANCH   1   2
ATOM      2  CB  ARG D 557     -26.789   1.319 -17.183  1.00 35.49     0.034 C 
BRANCH   2   3
ATOM      3  CG  ARG D 557     -25.835   0.203 -17.160  1.00 35.49     0.027 C 
BRANCH   3   4
ATOM      4  CD  ARG D 557     -24.748   0.411 -16.177  1.00 35.49     0.116 C 
BRANCH   4   5
ATOM      5  NE  ARG D 557     -24.893  -0.434 -15.020  1.00 35.49    -0.212 N 
ATOM      6  CZ  ARG D 557     -24.079  -1.404 -14.671  1.00 35.49     0.666 C 
ATOM      7  NH1 ARG D 557     -23.011  -1.724 -15.379  1.00 35.49    -0.235 N 
ATOM      8  NH2 ARG D 557     -24.354  -2.054 -13.577  1.00 35.49    -0.235 N 
ATOM      9  HH  ARG D 557     -22.810  -1.308 -16.100  1.00 35.49     0.174 HD
ATOM     10  HH  ARG D 557     -22.515  -2.364 -15.100  1.00 35.49     0.174 HD
ATOM     11  HH  ARG D 557     -25.046  -1.820 -13.136  1.00 35.49     0.174 HD
ATOM     12  HH  ARG D 557     -23.850  -2.684 -13.317  1.00 35.49     0.174 HD
ATOM     13  HE  ARG D 557     -25.594  -0.345 -14.547  1.00 35.49     0.178 HD
ENDBRANCH   4   5
ENDBRANCH   3   4
ENDBRANCH   2   3
ENDBRANCH   1   2
END_RES ARG D 557
BEGIN_RES GLU D 570
REMARK  3 active torsions:
REMARK  status: ('A' for Active; 'I' for Inactive)
REMARK    5  A    between atoms: CA   and  CB  
REMARK    6  A    between atoms: CB   and  CG  
REMARK    7  A    between atoms: CG   and  CD  
ROOT
ATOM     14  CA  GLU D 570     -18.033  -6.348 -13.375  1.00 32.92     0.160 C 
ENDROOT
BRANCH  14  15
ATOM     15  CB  GLU D 570     -19.500  -6.345 -13.794  1.00 32.92     0.043 C 
BRANCH  15  16
ATOM     16  CG  GLU D 570     -20.442  -5.530 -12.984  1.00 32.92     0.100 C 
BRANCH  16  17
ATOM     17  CD  GLU D 570     -21.737  -5.237 -13.704  1.00 32.92     0.185 C 
ATOM     18  OE1 GLU D 570     -22.301  -4.142 -13.515  1.00 32.92    -0.647 OA
ATOM     19  OE2 GLU D 570     -22.203  -6.119 -14.452  1.00 32.92    -0.647 OA
ENDBRANCH  16  17
ENDBRANCH  15  16
ENDBRANCH  14  15
END_RES GLU D 570
ENDMDL
MODEL 5
REMARK VINA RESULT:      -4.5      2.824      3.779
REMARK  2 active torsions:
REMARK  status: ('A' for Active; 'I' for Inactive)
REMARK    1  A    between atoms: C_2  and  C_4 
REMARK    2  A    between atoms: C_4  and  O_6 
ROOT
HETATM    1  C   UNL     1     -25.345  -6.624 -15.729  1.00  0.00     0.213 C 
HETATM    2  O   UNL     1     -24.800  -7.708 -15.741  1.00  0.00    -0.644 OA
ENDROOT
BRANCH   1   3
HETATM    3  C   UNL     1     -26.739  -6.378 -16.298  1.00  0.00     0.218 C 
HETATM    4  C   UNL     1     -27.869  -7.129 -15.666  1.00  0.00     0.103 C 
HETATM    5  O   UNL     1     -26.842  -5.587 -17.230  1.00  0.00    -0.286 OA
ENDBRANCH   1   3
BRANCH   1   6
HETATM    6  O   UNL     1     -24.833  -5.483 -15.227  1.00  0.00    -0.771 OA
HETATM    7  H   UNL     1     -25.197  -4.717 -15.732  1.00  0.00     0.168 HD
ENDBRANCH   1   6
TORSDOF 2
BEGIN_RES ARG D 557
REMARK  4 active torsions:
REMARK  status: ('A' for Active; 'I' for Inactive)
REMARK    1  A    between atoms: CA   and  CB  
REMARK    2  A    between atoms: CB   and  CG  
REMARK    3  A    between atoms: CG   and  CD  
REMARK    4  A    between atoms: CD   and  NE  
REMARK       I    between atoms: NE   and  CZ  
REMARK       I    between atoms: CZ   and  NH1 
REMARK       I    between atoms: CZ   and  NH2 
ROOT
ATOM      1  CA  ARG D 557     -26.217   2.705 -17.014  1.00 35.49     0.159 C 
ENDROOT
BRANCH   1   2
ATOM      2  CB  ARG D 557     -26.789   1.319 -17.183  1.00 35.49     0.034 C 
BRANCH   2   3
ATOM      3  CG  ARG D 557     -28.225   1.161 -16.925  1.00 35.49     0.027 C 
BRANCH   3   4
ATOM      4  CD  ARG D 557     -28.622  -0.259 -16.792  1.00 35.49     0.116 C 
BRANCH   4   5
ATOM      5  NE  ARG D 557     -27.627  -1.038 -16.103  1.00 35.49    -0.212 N 
ATOM      6  CZ  ARG D 557     -27.497  -2.345 -16.163  1.00 35.49     0.666 C 
ATOM      7  NH1 ARG D 557     -28.305  -3.106 -16.879  1.00 35.49    -0.235 N 
ATOM      8  NH2 ARG D 557     -26.523  -2.883 -15.488  1.00 35.49    -0.235 N 
ATOM      9  HH  ARG D 557     -28.951  -2.773 -17.332  1.00 35.49     0.174 HD
ATOM     10  HH  ARG D 557     -28.170  -3.952 -16.882  1.00 35.49     0.174 HD
ATOM     11  HH  ARG D 557     -26.013  -2.366 -15.041  1.00 35.49     0.174 HD
ATOM     12  HH  ARG D 557     -26.405  -3.722 -15.506  1.00 35.49     0.174 HD
ATOM     13  HE  ARG D 557     -27.110  -0.636 -15.561  1.00 35.49     0.178 HD
ENDBRANCH   4   5
ENDBRANCH   3   4
ENDBRANCH   2   3
ENDBRANCH   1   2
END_RES ARG D 557
BEGIN_RES GLU D 570
REMARK  3 active torsions:
REMARK  status: ('A' for Active; 'I' for Inactive)
REMARK    5  A    between atoms: CA   and  CB  
REMARK    6  A    between atoms: CB   and  CG  
REMARK    7  A    between atoms: CG   and  CD  
ROOT
ATOM     14  CA  GLU D 570     -18.033  -6.348 -13.375  1.00 32.92     0.160 C 
ENDROOT
BRANCH  14  15
ATOM     15  CB  GLU D 570     -19.500  -6.345 -13.794  1.00 32.92     0.043 C 
BRANCH  15  16
ATOM     16  CG  GLU D 570     -20.432  -5.486 -13.018  1.00 32.92     0.100 C 
BRANCH  16  17
ATOM     17  CD  GLU D 570     -21.778  -5.326 -13.684  1.00 32.92     0.185 C 
ATOM     18  OE1 GLU D 570     -22.129  -6.154 -14.547  1.00 32.92    -0.647 OA
ATOM     19  OE2 GLU D 570     -22.483  -4.352 -13.352  1.00 32.92    -0.647 OA
ENDBRANCH  16  17
ENDBRANCH  15  16
ENDBRANCH  14  15
END_RES GLU D 570
ENDMDL
MODEL 6
REMARK VINA RESULT:      -4.5      3.275      4.353
REMARK  2 active torsions:
REMARK  status: ('A' for Active; 'I' for Inactive)
REMARK    1  A    between atoms: C_2  and  C_4 
REMARK    2  A    between atoms: C_4  and  O_6 
ROOT
HETATM    1  C   UNL     1     -25.565  -6.025 -15.477  1.00  0.00     0.213 C 
HETATM    2  O   UNL     1     -25.393  -7.214 -15.302  1.00  0.00    -0.644 OA
ENDROOT
BRANCH   1   3
HETATM    3  C   UNL     1     -26.769  -5.450 -16.215  1.00  0.00     0.218 C 
HETATM    4  C   UNL     1     -27.163  -4.047 -15.875  1.00  0.00     0.103 C 
HETATM    5  O   UNL     1     -27.332  -6.169 -17.034  1.00  0.00    -0.286 OA
ENDBRANCH   1   3
BRANCH   1   6
HETATM    6  O   UNL     1     -24.748  -5.037 -15.065  1.00  0.00    -0.771 OA
HETATM    7  H   UNL     1     -24.953  -4.821 -14.124  1.00  0.00     0.168 HD
ENDBRANCH   1   6
TORSDOF 2
BEGIN_RES ARG D 557
REMARK  4 active torsions:
REMARK  status: ('A' for Active; 'I' for Inactive)
REMARK    1  A    between atoms: CA   and  CB  
REMARK    2  A    between atoms: CB   and  CG  
REMARK    3  A    between atoms: CG   and  CD  
REMARK    4  A    between atoms: CD   and  NE  
REMARK       I    between atoms: NE   and  CZ  
REMARK       I    between atoms: CZ   and  NH1 
REMARK       I    between atoms: CZ   and  NH2 
ROOT
ATOM      1  CA  ARG D 557     -26.217   2.705 -17.014  1.00 35.49     0.159 C 
ENDROOT
BRANCH   1   2
ATOM      2  CB  ARG D 557     -26.789   1.319 -17.183  1.00 35.49     0.034 C 
BRANCH   2   3
ATOM      3  CG  ARG D 557     -25.836   0.203 -17.153  1.00 35.49     0.027 C 
BRANCH   3   4
ATOM      4  CD  ARG D 557     -24.807   0.367 -16.102  1.00 35.49     0.116 C 
BRANCH   4   5
ATOM      5  NE  ARG D 557     -25.008  -0.536 -14.999  1.00 35.49    -0.212 N 
ATOM      6  CZ  ARG D 557     -24.200  -1.510 -14.646  1.00 35.49     0.666 C 
ATOM      7  NH1 ARG D 557     -23.085  -1.778 -15.301  1.00 35.49    -0.235 N 
ATOM      8  NH2 ARG D 557     -24.531  -2.217 -13.605  1.00 35.49    -0.235 N 
ATOM      9  HH  ARG D 557     -22.847  -1.324 -15.987  1.00 35.49     0.174 HD
ATOM     10  HH  ARG D 557     -22.595  -2.424 -15.023  1.00 35.49     0.174 HD
ATOM     11  HH  ARG D 557     -25.253  -2.016 -13.198  1.00 35.49     0.174 HD
ATOM     12  HH  ARG D 557     -24.032  -2.852 -13.345  1.00 35.49     0.174 HD
ATOM     13  HE  ARG D 557     -25.739  -0.481 -14.567  1.00 35.49     0.178 HD
ENDBRANCH   4   5
ENDBRANCH   3   4
ENDBRANCH   2   3
ENDBRANCH   1   2
END_RES ARG D 557
BEGIN_RES GLU D 570
REMARK  3 active torsions:
REMARK  status: ('A' for Active; 'I' for Inactive)
REMARK    5  A    between atoms: CA   and  CB  
REMARK    6  A    between atoms: CB   and  CG  
REMARK    7  A    between atoms: CG   and  CD  
ROOT
ATOM     14  CA  GLU D 570     -18.033  -6.348 -13.375  1.00 32.92     0.160 C 
ENDROOT
BRANCH  14  15
ATOM     15  CB  GLU D 570     -19.500  -6.345 -13.794  1.00 32.92     0.043 C 
BRANCH  15  16
ATOM     16  CG  GLU D 570     -20.441  -5.528 -12.985  1.00 32.92     0.100 C 
BRANCH  16  17
ATOM     17  CD  GLU D 570     -21.654  -5.080 -13.767  1.00 32.92     0.185 C 
ATOM     18  OE1 GLU D 570     -22.423  -4.240 -13.262  1.00 32.92    -0.647 OA
ATOM     19  OE2 GLU D 570     -21.846  -5.586 -14.890  1.00 32.92    -0.647 OA
ENDBRANCH  16  17
ENDBRANCH  15  16
ENDBRANCH  14  15
END_RES GLU D 570
ENDMDL
MODEL 7
REMARK VINA RESULT:      -4.3      2.489      3.096
REMARK  2 active torsions:
REMARK  status: ('A' for Active; 'I' for Inactive)
REMARK    1  A    between atoms: C_2  and  C_4 
REMARK    2  A    between atoms: C_4  and  O_6 
ROOT
HETATM    1  C   UNL     1     -24.613  -3.438  -9.792  1.00  0.00     0.213 C 
HETATM    2  O   UNL     1     -23.876  -3.750  -8.880  1.00  0.00    -0.644 OA
ENDROOT
BRANCH   1   3
HETATM    3  C   UNL     1     -24.130  -3.212 -11.221  1.00  0.00     0.218 C 
HETATM    4  C   UNL     1     -22.651  -3.244 -11.448  1.00  0.00     0.103 C 
HETATM    5  O   UNL     1     -24.979  -3.021 -12.086  1.00  0.00    -0.286 OA
ENDBRANCH   1   3
BRANCH   1   6
HETATM    6  O   UNL     1     -25.943  -3.241  -9.707  1.00  0.00    -0.771 OA
HETATM    7  H   UNL     1     -26.185  -3.082  -8.764  1.00  0.00     0.168 HD
ENDBRANCH   1   6
TORSDOF 2
BEGIN_RES ARG D 557
REMARK  4 active torsions:
REMARK  status: ('A' for Active; 'I' for Inactive)
REMARK    1  A    between atoms: CA   and  CB  
REMARK    2  A    between atoms: CB   and  CG  
REMARK    3  A    between atoms: CG   and  CD  
REMARK    4  A    between atoms: CD   and  NE  
REMARK       I    between atoms: NE   and  CZ  
REMARK       I    between atoms: CZ   and  NH1 
REMARK       I    between atoms: CZ   and  NH2 
ROOT
ATOM      1  CA  ARG D 557     -26.217   2.705 -17.014  1.00 35.49     0.159 C 
ENDROOT
BRANCH   1   2
ATOM      2  CB  ARG D 557     -26.789   1.319 -17.183  1.00 35.49     0.034 C 
BRANCH   2   3
ATOM      3  CG  ARG D 557     -28.214   1.150 -16.874  1.00 35.49     0.027 C 
BRANCH   3   4
ATOM      4  CD  ARG D 557     -28.588  -0.271 -16.694  1.00 35.49     0.116 C 
BRANCH   4   5
ATOM      5  NE  ARG D 557     -27.583  -1.010 -15.975  1.00 35.49    -0.212 N 
ATOM      6  CZ  ARG D 557     -27.386  -2.307 -16.046  1.00 35.49     0.666 C 
ATOM      7  NH1 ARG D 557     -28.127  -3.097 -16.801  1.00 35.49    -0.235 N 
ATOM      8  NH2 ARG D 557     -26.414  -2.806 -15.339  1.00 35.49    -0.235 N 
ATOM      9  HH  ARG D 557     -28.771  -2.790 -17.276  1.00 35.49     0.174 HD
ATOM     10  HH  ARG D 557     -27.950  -3.935 -16.809  1.00 35.49     0.174 HD
ATOM     11  HH  ARG D 557     -25.947  -2.271 -14.867  1.00 35.49     0.174 HD
ATOM     12  HH  ARG D 557     -26.253  -3.638 -15.362  1.00 35.49     0.174 HD
ATOM     13  HE  ARG D 557     -27.108  -0.590 -15.409  1.00 35.49     0.178 HD
ENDBRANCH   4   5
ENDBRANCH   3   4
ENDBRANCH   2   3
ENDBRANCH   1   2
END_RES ARG D 557
BEGIN_RES GLU D 570
REMARK  3 active torsions:
REMARK  status: ('A' for Active; 'I' for Inactive)
REMARK    5  A    between atoms: CA   and  CB  
REMARK    6  A    between atoms: CB   and  CG  
REMARK    7  A    between atoms: CG   and  CD  
ROOT
ATOM     14  CA  GLU D 570     -18.033  -6.348 -13.375  1.00 32.92     0.160 C 
ENDROOT
BRANCH  14  15
ATOM     15  CB  GLU D 570     -19.500  -6.345 -13.794  1.00 32.92     0.043 C 
BRANCH  15  16
ATOM     16  CG  GLU D 570     -19.797  -6.248 -15.247  1.00 32.92     0.100 C 
BRANCH  16  17
ATOM     17  CD  GLU D 570     -21.036  -5.435 -15.542  1.00 32.92     0.185 C 
ATOM     18  OE1 GLU D 570     -21.333  -5.194 -16.728  1.00 32.92    -0.647 OA
ATOM     19  OE2 GLU D 570     -21.707  -5.021 -14.576  1.00 32.92    -0.647 OA
ENDBRANCH  16  17
ENDBRANCH  15  16
ENDBRANCH  14  15
END_RES GLU D 570
ENDMDL
MODEL 8
REMARK VINA RESULT:      -4.2      9.415     10.220
REMARK  2 active torsions:
REMARK  status: ('A' for Active; 'I' for Inactive)
REMARK    1  A    between atoms: C_2  and  C_4 
REMARK    2  A    between atoms: C_4  and  O_6 
ROOT
HETATM    1  C   UNL     1      -9.693   5.708 -19.317  1.00  0.00     0.213 C 
HETATM    2  O   UNL     1      -8.904   6.151 -20.125  1.00  0.00    -0.644 OA
ENDROOT
BRANCH   1   3
HETATM    3  C   UNL     1     -10.983   4.994 -19.707  1.00  0.00     0.218 C 
HETATM    4  C   UNL     1     -10.951   4.175 -20.959  1.00  0.00     0.103 C 
HETATM    5  O   UNL     1     -11.957   5.136 -18.974  1.00  0.00    -0.286 OA
ENDBRANCH   1   3
BRANCH   1   6
HETATM    6  O   UNL     1      -9.573   5.767 -17.976  1.00  0.00    -0.771 OA
HETATM    7  H   UNL     1     -10.473   5.756 -17.571  1.00  0.00     0.168 HD
ENDBRANCH   1   6
TORSDOF 2
BEGIN_RES ARG D 557
REMARK  4 active torsions:
REMARK  status: ('A' for Active; 'I' for Inactive)
REMARK    1  A    between atoms: CA   and  CB  
REMARK    2  A    between atoms: CB   and  CG  
REMARK    3  A    between atoms: CG   and  CD  
REMARK    4  A    between atoms: CD   and  NE  
REMARK       I    between atoms: NE   and  CZ  
REMARK       I    between atoms: CZ   and  NH1 
REMARK       I    between atoms: CZ   and  NH2 
ROOT
ATOM      1  CA  ARG D 557     -26.217   2.705 -17.014  1.00 35.49     0.159 C 
ENDROOT
BRANCH   1   2
ATOM      2  CB  ARG D 557     -26.789   1.319 -17.183  1.00 35.49     0.034 C 
BRANCH   2   3
ATOM      3  CG  ARG D 557     -28.234   1.226 -17.426  1.00 35.49     0.027 C 
BRANCH   3   4
ATOM      4  CD  ARG D 557     -28.904   0.293 -16.491  1.00 35.49     0.116 C 
BRANCH   4   5
ATOM      5  NE  ARG D 557     -29.291  -0.935 -17.135  1.00 35.49    -0.212 N 
ATOM      6  CZ  ARG D 557     -28.668  -2.087 -17.029  1.00 35.49     0.666 C 
ATOM      7  NH1 ARG D 557     -27.573  -2.238 -16.306  1.00 35.49    -0.235 N 
ATOM      8  NH2 ARG D 557     -29.172  -3.103 -17.667  1.00 35.49    -0.235 N 
ATOM      9  HH  ARG D 557     -27.225  -1.583 -15.876  1.00 35.49     0.174 HD
ATOM     10  HH  ARG D 557     -27.212  -3.014 -16.272  1.00 35.49     0.174 HD
ATOM     11  HH  ARG D 557     -29.884  -2.978 -18.120  1.00 35.49     0.174 HD
ATOM     12  HH  ARG D 557     -28.800  -3.864 -17.620  1.00 35.49     0.174 HD
ATOM     13  HE  ARG D 557     -29.944  -0.912 -17.679  1.00 35.49     0.178 HD
ENDBRANCH   4   5
ENDBRANCH   3   4
ENDBRANCH   2   3
ENDBRANCH   1   2
END_RES ARG D 557
BEGIN_RES GLU D 570
REMARK  3 active torsions:
REMARK  status: ('A' for Active; 'I' for Inactive)
REMARK    5  A    between atoms: CA   and  CB  
REMARK    6  A    between atoms: CB   and  CG  
REMARK    7  A    between atoms: CG   and  CD  
ROOT
ATOM     14  CA  GLU D 570     -18.033  -6.348 -13.375  1.00 32.92     0.160 C 
ENDROOT
BRANCH  14  15
ATOM     15  CB  GLU D 570     -19.500  -6.345 -13.794  1.00 32.92     0.043 C 
BRANCH  15  16
ATOM     16  CG  GLU D 570     -19.801  -6.112 -15.230  1.00 32.92     0.100 C 
BRANCH  16  17
ATOM     17  CD  GLU D 570     -21.098  -5.368 -15.447  1.00 32.92     0.185 C 
ATOM     18  OE1 GLU D 570     -21.758  -5.000 -14.456  1.00 32.92    -0.647 OA
ATOM     19  OE2 GLU D 570     -21.467  -5.165 -16.621  1.00 32.92    -0.647 OA
ENDBRANCH  16  17
ENDBRANCH  15  16
ENDBRANCH  14  15
END_RES GLU D 570
ENDMDL
MODEL 9
REMARK VINA RESULT:      -4.0      2.870      3.383
REMARK  2 active torsions:
REMARK  status: ('A' for Active; 'I' for Inactive)
REMARK    1  A    between atoms: C_2  and  C_4 
REMARK    2  A    between atoms: C_4  and  O_6 
ROOT
HETATM    1  C   UNL     1     -24.593  -3.308 -10.373  1.00  0.00     0.213 C 
HETATM    2  O   UNL     1     -24.374  -2.946 -11.510  1.00  0.00    -0.644 OA
ENDROOT
BRANCH   1   3
HETATM    3  C   UNL     1     -23.511  -3.837  -9.438  1.00  0.00     0.218 C 
HETATM    4  C   UNL     1     -22.149  -4.040 -10.026  1.00  0.00     0.103 C 
HETATM    5  O   UNL     1     -23.824  -4.058  -8.272  1.00  0.00    -0.286 OA
ENDBRANCH   1   3
BRANCH   1   6
HETATM    6  O   UNL     1     -25.791  -3.308  -9.757  1.00  0.00    -0.771 OA
HETATM    7  H   UNL     1     -26.380  -3.966 -10.197  1.00  0.00     0.168 HD
ENDBRANCH   1   6
TORSDOF 2
BEGIN_RES ARG D 557
REMARK  4 active torsions:
REMARK  status: ('A' for Active; 'I' for Inactive)
REMARK    1  A    between atoms: CA   and  CB  
REMARK    2  A    between atoms: CB   and  CG  
REMARK    3  A    between atoms: CG   and  CD  
REMARK    4  A    between atoms: CD   and  NE  
REMARK       I    between atoms: NE   and  CZ  
REMARK       I    between atoms: CZ   and  NH1 
REMARK       I    between atoms: CZ   and  NH2 
ROOT
ATOM      1  CA  ARG D 557     -26.217   2.705 -17.014  1.00 35.49     0.159 C 
ENDROOT
BRANCH   1   2
ATOM      2  CB  ARG D 557     -26.789   1.319 -17.183  1.00 35.49     0.034 C 
BRANCH   2   3
ATOM      3  CG  ARG D 557     -28.179   1.121 -16.755  1.00 35.49     0.027 C 
BRANCH   3   4
ATOM      4  CD  ARG D 557     -28.786  -0.091 -17.351  1.00 35.49     0.116 C 
BRANCH   4   5
ATOM      5  NE  ARG D 557     -28.176  -1.299 -16.861  1.00 35.49    -0.212 N 
ATOM      6  CZ  ARG D 557     -28.648  -2.516 -17.016  1.00 35.49     0.666 C 
ATOM      7  NH1 ARG D 557     -29.781  -2.761 -17.649  1.00 35.49    -0.235 N 
ATOM      8  NH2 ARG D 557     -27.951  -3.498 -16.524  1.00 35.49    -0.235 N 
ATOM      9  HH  ARG D 557     -30.255  -2.130 -17.983  1.00 35.49     0.174 HD
ATOM     10  HH  ARG D 557     -30.038  -3.575 -17.722  1.00 35.49     0.174 HD
ATOM     11  HH  ARG D 557     -27.219  -3.310 -16.127  1.00 35.49     0.174 HD
ATOM     12  HH  ARG D 557     -28.221  -4.297 -16.608  1.00 35.49     0.174 HD
ATOM     13  HE  ARG D 557     -27.479  -1.228 -16.379  1.00 35.49     0.178 HD
ENDBRANCH   4   5
ENDBRANCH   3   4
ENDBRANCH   2   3
ENDBRANCH   1   2
END_RES ARG D 557
BEGIN_RES GLU D 570
REMARK  3 active torsions:
REMARK  status: ('A' for Active; 'I' for Inactive)
REMARK    5  A    between atoms: CA   and  CB  
REMARK    6  A    between atoms: CB   and  CG  
REMARK    7  A    between atoms: CG   and  CD  
ROOT
ATOM     14  CA  GLU D 570     -18.033  -6.348 -13.375  1.00 32.92     0.160 C 
ENDROOT
BRANCH  14  15
ATOM     15  CB  GLU D 570     -19.500  -6.345 -13.794  1.00 32.92     0.043 C 
BRANCH  15  16
ATOM     16  CG  GLU D 570     -20.443  -5.534 -12.981  1.00 32.92     0.100 C 
BRANCH  16  17
ATOM     17  CD  GLU D 570     -21.735  -5.232 -13.703  1.00 32.92     0.185 C 
ATOM     18  OE1 GLU D 570     -22.244  -4.101 -13.585  1.00 32.92    -0.647 OA
ATOM     19  OE2 GLU D 570     -22.253  -6.142 -14.380  1.00 32.92    -0.647 OA
ENDBRANCH  16  17
ENDBRANCH  15  16
ENDBRANCH  14  15
END_RES GLU D 570
ENDMDL
