MODEL 1
REMARK VINA RESULT:      -6.6      0.000      0.000
REMARK  11 active torsions:
REMARK  status: ('A' for Active; 'I' for Inactive)
REMARK    1  A    between atoms: C_1  and  C_2 
REMARK    2  A    between atoms: C_1  and  O_13 
REMARK    3  A    between atoms: C_2  and  C_3 
REMARK    4  A    between atoms: C_2  and  O_12 
REMARK    5  A    between atoms: C_3  and  C_4 
REMARK    6  A    between atoms: C_3  and  O_11 
REMARK    7  A    between atoms: C_4  and  C_5 
REMARK    8  A    between atoms: C_4  and  O_10 
REMARK    9  A    between atoms: C_5  and  C_6 
REMARK   10  A    between atoms: C_5  and  O_9 
REMARK   11  A    between atoms: C_6  and  O_8 
ROOT
HETATM    1  C   UNL     1     -23.045  -2.886 -12.008  1.00  0.00     0.188 C 
ENDROOT
BRANCH   1   2
HETATM    2  C   UNL     1     -24.023  -2.973 -13.209  1.00  0.00     0.180 C 
BRANCH   2   3
HETATM    3  C   UNL     1     -23.699  -1.928 -14.294  1.00  0.00     0.173 C 
BRANCH   3   4
HETATM    4  C   UNL     1     -24.966  -1.304 -14.900  1.00  0.00     0.198 C 
BRANCH   4   5
HETATM    5  O   UNL     1     -24.825   0.118 -14.904  1.00  0.00    -0.398 OA
HETATM    6  H   UNL     1     -24.472   0.383 -14.036  1.00  0.00     0.209 HD
ENDBRANCH   4   5
ENDBRANCH   3   4
BRANCH   3   7
HETATM    7  O   UNL     1     -22.911  -2.549 -15.323  1.00  0.00    -0.391 OA
HETATM    8  H   UNL     1     -23.191  -3.487 -15.362  1.00  0.00     0.210 HD
ENDBRANCH   3   7
ENDBRANCH   2   3
BRANCH   2   9
HETATM    9  O   UNL     1     -25.374  -2.823 -12.779  1.00  0.00    -0.390 OA
HETATM   10  H   UNL     1     -25.523  -3.359 -11.978  1.00  0.00     0.210 HD
ENDBRANCH   2   9
ENDBRANCH   1   2
BRANCH   1  11
HETATM   11  C   UNL     1     -23.269  -4.013 -10.983  1.00  0.00     0.246 C 
BRANCH  11  12
HETATM   12  C   UNL     1     -24.208  -3.547  -9.866  1.00  0.00     0.172 C 
HETATM   13  O   UNL     1     -25.389  -3.270 -10.025  1.00  0.00    -0.648 OA
BRANCH  12  14
HETATM   14  O   UNL     1     -23.585  -3.406  -8.668  1.00  0.00    -0.774 OA
HETATM   15  H   UNL     1     -24.230  -3.139  -7.965  1.00  0.00     0.167 HD
ENDBRANCH  12  14
ENDBRANCH  11  12
BRANCH  11  16
HETATM   16  O   UNL     1     -23.797  -5.167 -11.650  1.00  0.00    -0.382 OA
HETATM   17  H   UNL     1     -23.940  -4.935 -12.585  1.00  0.00     0.210 HD
ENDBRANCH  11  16
ENDBRANCH   1  11
BRANCH   1  18
HETATM   18  O   UNL     1     -21.661  -2.930 -12.425  1.00  0.00    -0.390 OA
HETATM   19  H   UNL     1     -21.516  -2.121 -12.975  1.00  0.00     0.210 HD
ENDBRANCH   1  18
TORSDOF 11
BEGIN_RES ARG D 557
REMARK  4 active torsions:
REMARK  status: ('A' for Active; 'I' for Inactive)
REMARK    1  A    between atoms: CA   and  CB  
REMARK    2  A    between atoms: CB   and  CG  
REMARK    3  A    between atoms: CG   and  CD  
REMARK    4  A    between atoms: CD   and  NE  
REMARK       I    between atoms: NE   and  CZ  
REMARK       I    between atoms: CZ   and  NH1 
REMARK       I    between atoms: CZ   and  NH2 
ROOT
ATOM      1  CA  ARG D 557     -26.217   2.705 -17.014  1.00 35.49     0.159 C 
ENDROOT
BRANCH   1   2
ATOM      2  CB  ARG D 557     -26.789   1.319 -17.183  1.00 35.49     0.034 C 
BRANCH   2   3
ATOM      3  CG  ARG D 557     -28.231   1.227 -17.444  1.00 35.49     0.027 C 
BRANCH   3   4
ATOM      4  CD  ARG D 557     -28.917   0.314 -16.501  1.00 35.49     0.116 C 
BRANCH   4   5
ATOM      5  NE  ARG D 557     -28.179  -0.903 -16.290  1.00 35.49    -0.212 N 
ATOM      6  CZ  ARG D 557     -28.487  -2.084 -16.778  1.00 35.49     0.666 C 
ATOM      7  NH1 ARG D 557     -29.555  -2.283 -17.529  1.00 35.49    -0.235 N 
ATOM      8  NH2 ARG D 557     -27.691  -3.075 -16.501  1.00 35.49    -0.235 N 
ATOM      9  HH  ARG D 557     -30.091  -1.645 -17.726  1.00 35.49     0.174 HD
ATOM     10  HH  ARG D 557     -29.704  -3.075 -17.822  1.00 35.49     0.174 HD
ATOM     11  HH  ARG D 557     -27.005  -2.915 -16.020  1.00 35.49     0.174 HD
ATOM     12  HH  ARG D 557     -27.855  -3.851 -16.802  1.00 35.49     0.174 HD
ATOM     13  HE  ARG D 557     -27.516  -0.881 -15.758  1.00 35.49     0.178 HD
ENDBRANCH   4   5
ENDBRANCH   3   4
ENDBRANCH   2   3
ENDBRANCH   1   2
END_RES ARG D 557
BEGIN_RES GLU D 570
REMARK  3 active torsions:
REMARK  status: ('A' for Active; 'I' for Inactive)
REMARK    5  A    between atoms: CA   and  CB  
REMARK    6  A    between atoms: CB   and  CG  
REMARK    7  A    between atoms: CG   and  CD  
ROOT
ATOM     14  CA  GLU D 570     -18.033  -6.348 -13.375  1.00 32.92     0.160 C 
ENDROOT
BRANCH  14  15
ATOM     15  CB  GLU D 570     -19.500  -6.345 -13.794  1.00 32.92     0.043 C 
BRANCH  15  16
ATOM     16  CG  GLU D 570     -19.813  -5.932 -15.186  1.00 32.92     0.100 C 
BRANCH  16  17
ATOM     17  CD  GLU D 570     -21.204  -5.361 -15.333  1.00 32.92     0.185 C 
ATOM     18  OE1 GLU D 570     -21.945  -5.306 -14.332  1.00 32.92    -0.647 OA
ATOM     19  OE2 GLU D 570     -21.564  -4.979 -16.464  1.00 32.92    -0.647 OA
ENDBRANCH  16  17
ENDBRANCH  15  16
ENDBRANCH  14  15
END_RES GLU D 570
ENDMDL
MODEL 2
REMARK VINA RESULT:      -6.5      1.174      3.704
REMARK  11 active torsions:
REMARK  status: ('A' for Active; 'I' for Inactive)
REMARK    1  A    between atoms: C_1  and  C_2 
REMARK    2  A    between atoms: C_1  and  O_13 
REMARK    3  A    between atoms: C_2  and  C_3 
REMARK    4  A    between atoms: C_2  and  O_12 
REMARK    5  A    between atoms: C_3  and  C_4 
REMARK    6  A    between atoms: C_3  and  O_11 
REMARK    7  A    between atoms: C_4  and  C_5 
REMARK    8  A    between atoms: C_4  and  O_10 
REMARK    9  A    between atoms: C_5  and  C_6 
REMARK   10  A    between atoms: C_5  and  O_9 
REMARK   11  A    between atoms: C_6  and  O_8 
ROOT
HETATM    1  C   UNL     1     -24.048  -2.883 -12.528  1.00  0.00     0.188 C 
ENDROOT
BRANCH   1   2
HETATM    2  C   UNL     1     -22.878  -3.890 -12.374  1.00  0.00     0.180 C 
BRANCH   2   3
HETATM    3  C   UNL     1     -22.298  -3.889 -10.947  1.00  0.00     0.173 C 
BRANCH   3   4
HETATM    4  C   UNL     1     -20.779  -4.116 -10.933  1.00  0.00     0.198 C 
BRANCH   4   5
HETATM    5  O   UNL     1     -20.127  -2.915 -11.353  1.00  0.00    -0.398 OA
HETATM    6  H   UNL     1     -20.807  -2.224 -11.439  1.00  0.00     0.209 HD
ENDBRANCH   4   5
ENDBRANCH   3   4
BRANCH   3   7
HETATM    7  O   UNL     1     -22.959  -4.904 -10.172  1.00  0.00    -0.391 OA
HETATM    8  H   UNL     1     -22.990  -4.575  -9.249  1.00  0.00     0.210 HD
ENDBRANCH   3   7
ENDBRANCH   2   3
BRANCH   2   9
HETATM    9  O   UNL     1     -21.844  -3.618 -13.318  1.00  0.00    -0.390 OA
HETATM   10  H   UNL     1     -21.625  -2.668 -13.297  1.00  0.00     0.210 HD
ENDBRANCH   2   9
ENDBRANCH   1   2
BRANCH   1  11
HETATM   11  C   UNL     1     -24.658  -2.900 -13.941  1.00  0.00     0.246 C 
BRANCH  11  12
HETATM   12  C   UNL     1     -24.162  -1.700 -14.756  1.00  0.00     0.172 C 
HETATM   13  O   UNL     1     -23.102  -1.669 -15.366  1.00  0.00    -0.648 OA
BRANCH  12  14
HETATM   14  O   UNL     1     -24.992  -0.629 -14.691  1.00  0.00    -0.774 OA
HETATM   15  H   UNL     1     -24.479   0.207 -14.551  1.00  0.00     0.167 HD
ENDBRANCH  12  14
ENDBRANCH  11  12
BRANCH  11  16
HETATM   16  O   UNL     1     -24.326  -4.134 -14.590  1.00  0.00    -0.382 OA
HETATM   17  H   UNL     1     -24.121  -4.791 -13.901  1.00  0.00     0.210 HD
ENDBRANCH  11  16
ENDBRANCH   1  11
BRANCH   1  18
HETATM   18  O   UNL     1     -25.112  -3.132 -11.579  1.00  0.00    -0.390 OA
HETATM   19  H   UNL     1     -24.679  -3.181 -10.691  1.00  0.00     0.210 HD
ENDBRANCH   1  18
TORSDOF 11
BEGIN_RES ARG D 557
REMARK  4 active torsions:
REMARK  status: ('A' for Active; 'I' for Inactive)
REMARK    1  A    between atoms: CA   and  CB  
REMARK    2  A    between atoms: CB   and  CG  
REMARK    3  A    between atoms: CG   and  CD  
REMARK    4  A    between atoms: CD   and  NE  
REMARK       I    between atoms: NE   and  CZ  
REMARK       I    between atoms: CZ   and  NH1 
REMARK       I    between atoms: CZ   and  NH2 
ROOT
ATOM      1  CA  ARG D 557     -26.217   2.705 -17.014  1.00 35.49     0.159 C 
ENDROOT
BRANCH   1   2
ATOM      2  CB  ARG D 557     -26.789   1.319 -17.183  1.00 35.49     0.034 C 
BRANCH   2   3
ATOM      3  CG  ARG D 557     -28.228   1.227 -17.458  1.00 35.49     0.027 C 
BRANCH   3   4
ATOM      4  CD  ARG D 557     -28.925   0.317 -16.521  1.00 35.49     0.116 C 
BRANCH   4   5
ATOM      5  NE  ARG D 557     -29.241  -0.949 -17.129  1.00 35.49    -0.212 N 
ATOM      6  CZ  ARG D 557     -28.558  -2.062 -16.983  1.00 35.49     0.666 C 
ATOM      7  NH1 ARG D 557     -27.463  -2.132 -16.248  1.00 35.49    -0.235 N 
ATOM      8  NH2 ARG D 557     -29.002  -3.123 -17.591  1.00 35.49    -0.235 N 
ATOM      9  HH  ARG D 557     -27.154  -1.447 -15.837  1.00 35.49     0.174 HD
ATOM     10  HH  ARG D 557     -27.061  -2.886 -16.187  1.00 35.49     0.174 HD
ATOM     11  HH  ARG D 557     -29.715  -3.051 -18.053  1.00 35.49     0.174 HD
ATOM     12  HH  ARG D 557     -28.590  -3.861 -17.518  1.00 35.49     0.174 HD
ATOM     13  HE  ARG D 557     -29.890  -0.978 -17.677  1.00 35.49     0.178 HD
ENDBRANCH   4   5
ENDBRANCH   3   4
ENDBRANCH   2   3
ENDBRANCH   1   2
END_RES ARG D 557
BEGIN_RES GLU D 570
REMARK  3 active torsions:
REMARK  status: ('A' for Active; 'I' for Inactive)
REMARK    5  A    between atoms: CA   and  CB  
REMARK    6  A    between atoms: CB   and  CG  
REMARK    7  A    between atoms: CG   and  CD  
ROOT
ATOM     14  CA  GLU D 570     -18.033  -6.348 -13.375  1.00 32.92     0.160 C 
ENDROOT
BRANCH  14  15
ATOM     15  CB  GLU D 570     -19.500  -6.345 -13.794  1.00 32.92     0.043 C 
BRANCH  15  16
ATOM     16  CG  GLU D 570     -19.810  -5.972 -15.198  1.00 32.92     0.100 C 
BRANCH  16  17
ATOM     17  CD  GLU D 570     -21.272  -5.660 -15.416  1.00 32.92     0.185 C 
ATOM     18  OE1 GLU D 570     -21.584  -4.704 -16.151  1.00 32.92    -0.647 OA
ATOM     19  OE2 GLU D 570     -22.115  -6.370 -14.833  1.00 32.92    -0.647 OA
ENDBRANCH  16  17
ENDBRANCH  15  16
ENDBRANCH  14  15
END_RES GLU D 570
ENDMDL
MODEL 3
REMARK VINA RESULT:      -6.3      1.119      3.915
REMARK  11 active torsions:
REMARK  status: ('A' for Active; 'I' for Inactive)
REMARK    1  A    between atoms: C_1  and  C_2 
REMARK    2  A    between atoms: C_1  and  O_13 
REMARK    3  A    between atoms: C_2  and  C_3 
REMARK    4  A    between atoms: C_2  and  O_12 
REMARK    5  A    between atoms: C_3  and  C_4 
REMARK    6  A    between atoms: C_3  and  O_11 
REMARK    7  A    between atoms: C_4  and  C_5 
REMARK    8  A    between atoms: C_4  and  O_10 
REMARK    9  A    between atoms: C_5  and  C_6 
REMARK   10  A    between atoms: C_5  and  O_9 
REMARK   11  A    between atoms: C_6  and  O_8 
ROOT
HETATM    1  C   UNL     1     -23.773  -2.844 -12.273  1.00  0.00     0.188 C 
ENDROOT
BRANCH   1   2
HETATM    2  C   UNL     1     -23.119  -3.649 -11.120  1.00  0.00     0.180 C 
BRANCH   2   3
HETATM    3  C   UNL     1     -23.927  -3.544  -9.812  1.00  0.00     0.173 C 
BRANCH   3   4
HETATM    4  C   UNL     1     -23.054  -3.766  -8.567  1.00  0.00     0.198 C 
BRANCH   4   5
HETATM    5  O   UNL     1     -23.877  -4.251  -7.505  1.00  0.00    -0.398 OA
HETATM    6  H   UNL     1     -23.989  -3.527  -6.864  1.00  0.00     0.209 HD
ENDBRANCH   4   5
ENDBRANCH   3   4
BRANCH   3   7
HETATM    7  O   UNL     1     -24.998  -4.503  -9.844  1.00  0.00    -0.391 OA
HETATM    8  H   UNL     1     -25.377  -4.468 -10.747  1.00  0.00     0.210 HD
ENDBRANCH   3   7
ENDBRANCH   2   3
BRANCH   2   9
HETATM    9  O   UNL     1     -21.777  -3.222 -10.896  1.00  0.00    -0.390 OA
HETATM   10  H   UNL     1     -21.717  -2.257 -11.019  1.00  0.00     0.210 HD
ENDBRANCH   2   9
ENDBRANCH   1   2
BRANCH   1  11
HETATM   11  C   UNL     1     -23.249  -3.267 -13.658  1.00  0.00     0.246 C 
BRANCH  11  12
HETATM   12  C   UNL     1     -23.269  -2.080 -14.627  1.00  0.00     0.172 C 
HETATM   13  O   UNL     1     -22.565  -1.989 -15.623  1.00  0.00    -0.648 OA
BRANCH  12  14
HETATM   14  O   UNL     1     -24.113  -1.089 -14.242  1.00  0.00    -0.774 OA
HETATM   15  H   UNL     1     -24.838  -1.445 -13.671  1.00  0.00     0.167 HD
ENDBRANCH  12  14
ENDBRANCH  11  12
BRANCH  11  16
HETATM   16  O   UNL     1     -21.925  -3.800 -13.525  1.00  0.00    -0.382 OA
HETATM   17  H   UNL     1     -21.930  -4.440 -12.791  1.00  0.00     0.210 HD
ENDBRANCH  11  16
ENDBRANCH   1  11
BRANCH   1  18
HETATM   18  O   UNL     1     -25.214  -2.973 -12.282  1.00  0.00    -0.390 OA
HETATM   19  H   UNL     1     -25.557  -2.231 -11.725  1.00  0.00     0.210 HD
ENDBRANCH   1  18
TORSDOF 11
BEGIN_RES ARG D 557
REMARK  4 active torsions:
REMARK  status: ('A' for Active; 'I' for Inactive)
REMARK    1  A    between atoms: CA   and  CB  
REMARK    2  A    between atoms: CB   and  CG  
REMARK    3  A    between atoms: CG   and  CD  
REMARK    4  A    between atoms: CD   and  NE  
REMARK       I    between atoms: NE   and  CZ  
REMARK       I    between atoms: CZ   and  NH1 
REMARK       I    between atoms: CZ   and  NH2 
ROOT
ATOM      1  CA  ARG D 557     -26.217   2.705 -17.014  1.00 35.49     0.159 C 
ENDROOT
BRANCH   1   2
ATOM      2  CB  ARG D 557     -26.789   1.319 -17.183  1.00 35.49     0.034 C 
BRANCH   2   3
ATOM      3  CG  ARG D 557     -28.216   1.152 -16.880  1.00 35.49     0.027 C 
BRANCH   3   4
ATOM      4  CD  ARG D 557     -28.596  -0.271 -16.722  1.00 35.49     0.116 C 
BRANCH   4   5
ATOM      5  NE  ARG D 557     -27.612  -1.016 -15.982  1.00 35.49    -0.212 N 
ATOM      6  CZ  ARG D 557     -27.422  -2.315 -16.049  1.00 35.49     0.666 C 
ATOM      7  NH1 ARG D 557     -28.151  -3.100 -16.820  1.00 35.49    -0.235 N 
ATOM      8  NH2 ARG D 557     -26.469  -2.820 -15.321  1.00 35.49    -0.235 N 
ATOM      9  HH  ARG D 557     -28.783  -2.788 -17.309  1.00 35.49     0.174 HD
ATOM     10  HH  ARG D 557     -27.980  -3.939 -16.825  1.00 35.49     0.174 HD
ATOM     11  HH  ARG D 557     -26.009  -2.289 -14.838  1.00 35.49     0.174 HD
ATOM     12  HH  ARG D 557     -26.314  -3.654 -15.340  1.00 35.49     0.174 HD
ATOM     13  HE  ARG D 557     -27.146  -0.600 -15.405  1.00 35.49     0.178 HD
ENDBRANCH   4   5
ENDBRANCH   3   4
ENDBRANCH   2   3
ENDBRANCH   1   2
END_RES ARG D 557
BEGIN_RES GLU D 570
REMARK  3 active torsions:
REMARK  status: ('A' for Active; 'I' for Inactive)
REMARK    5  A    between atoms: CA   and  CB  
REMARK    6  A    between atoms: CB   and  CG  
REMARK    7  A    between atoms: CG   and  CD  
ROOT
ATOM     14  CA  GLU D 570     -18.033  -6.348 -13.375  1.00 32.92     0.160 C 
ENDROOT
BRANCH  14  15
ATOM     15  CB  GLU D 570     -19.500  -6.345 -13.794  1.00 32.92     0.043 C 
BRANCH  15  16
ATOM     16  CG  GLU D 570     -19.796  -6.278 -15.248  1.00 32.92     0.100 C 
BRANCH  16  17
ATOM     17  CD  GLU D 570     -21.240  -5.942 -15.541  1.00 32.92     0.185 C 
ATOM     18  OE1 GLU D 570     -22.139  -6.564 -14.944  1.00 32.92    -0.647 OA
ATOM     19  OE2 GLU D 570     -21.474  -5.058 -16.388  1.00 32.92    -0.647 OA
ENDBRANCH  16  17
ENDBRANCH  15  16
ENDBRANCH  14  15
END_RES GLU D 570
ENDMDL
MODEL 4
REMARK VINA RESULT:      -6.2      0.992      1.977
REMARK  11 active torsions:
REMARK  status: ('A' for Active; 'I' for Inactive)
REMARK    1  A    between atoms: C_1  and  C_2 
REMARK    2  A    between atoms: C_1  and  O_13 
REMARK    3  A    between atoms: C_2  and  C_3 
REMARK    4  A    between atoms: C_2  and  O_12 
REMARK    5  A    between atoms: C_3  and  C_4 
REMARK    6  A    between atoms: C_3  and  O_11 
REMARK    7  A    between atoms: C_4  and  C_5 
REMARK    8  A    between atoms: C_4  and  O_10 
REMARK    9  A    between atoms: C_5  and  C_6 
REMARK   10  A    between atoms: C_5  and  O_9 
REMARK   11  A    between atoms: C_6  and  O_8 
ROOT
HETATM    1  C   UNL     1     -22.299  -3.663 -12.800  1.00  0.00     0.188 C 
ENDROOT
BRANCH   1   2
HETATM    2  C   UNL     1     -23.085  -2.660 -13.683  1.00  0.00     0.180 C 
BRANCH   2   3
HETATM    3  C   UNL     1     -24.596  -2.964 -13.698  1.00  0.00     0.173 C 
BRANCH   3   4
HETATM    4  C   UNL     1     -25.376  -2.004 -14.609  1.00  0.00     0.198 C 
BRANCH   4   5
HETATM    5  O   UNL     1     -24.805  -0.698 -14.503  1.00  0.00    -0.398 OA
HETATM    6  H   UNL     1     -25.538  -0.058 -14.458  1.00  0.00     0.209 HD
ENDBRANCH   4   5
ENDBRANCH   3   4
BRANCH   3   7
HETATM    7  O   UNL     1     -25.102  -2.893 -12.353  1.00  0.00    -0.391 OA
HETATM    8  H   UNL     1     -24.526  -2.263 -11.871  1.00  0.00     0.210 HD
ENDBRANCH   3   7
ENDBRANCH   2   3
BRANCH   2   9
HETATM    9  O   UNL     1     -22.580  -2.650 -15.017  1.00  0.00    -0.390 OA
HETATM   10  H   UNL     1     -21.728  -3.122 -15.046  1.00  0.00     0.210 HD
ENDBRANCH   2   9
ENDBRANCH   1   2
BRANCH   1  11
HETATM   11  C   UNL     1     -21.779  -3.021 -11.501  1.00  0.00     0.246 C 
BRANCH  11  12
HETATM   12  C   UNL     1     -22.327  -3.761 -10.276  1.00  0.00     0.172 C 
HETATM   13  O   UNL     1     -21.730  -4.644  -9.677  1.00  0.00    -0.648 OA
BRANCH  12  14
HETATM   14  O   UNL     1     -23.588  -3.385  -9.944  1.00  0.00    -0.774 OA
HETATM   15  H   UNL     1     -23.727  -2.421 -10.121  1.00  0.00     0.167 HD
ENDBRANCH  12  14
ENDBRANCH  11  12
BRANCH  11  16
HETATM   16  O   UNL     1     -20.345  -3.028 -11.506  1.00  0.00    -0.382 OA
HETATM   17  H   UNL     1     -20.039  -2.165 -11.173  1.00  0.00     0.210 HD
ENDBRANCH  11  16
ENDBRANCH   1  11
BRANCH   1  18
HETATM   18  O   UNL     1     -23.095  -4.816 -12.439  1.00  0.00    -0.390 OA
HETATM   19  H   UNL     1     -24.039  -4.528 -12.507  1.00  0.00     0.210 HD
ENDBRANCH   1  18
TORSDOF 11
BEGIN_RES ARG D 557
REMARK  4 active torsions:
REMARK  status: ('A' for Active; 'I' for Inactive)
REMARK    1  A    between atoms: CA   and  CB  
REMARK    2  A    between atoms: CB   and  CG  
REMARK    3  A    between atoms: CG   and  CD  
REMARK    4  A    between atoms: CD   and  NE  
REMARK       I    between atoms: NE   and  CZ  
REMARK       I    between atoms: CZ   and  NH1 
REMARK       I    between atoms: CZ   and  NH2 
ROOT
ATOM      1  CA  ARG D 557     -26.217   2.705 -17.014  1.00 35.49     0.159 C 
ENDROOT
BRANCH   1   2
ATOM      2  CB  ARG D 557     -26.789   1.319 -17.183  1.00 35.49     0.034 C 
BRANCH   2   3
ATOM      3  CG  ARG D 557     -28.228   1.227 -17.456  1.00 35.49     0.027 C 
BRANCH   3   4
ATOM      4  CD  ARG D 557     -28.923   0.313 -16.520  1.00 35.49     0.116 C 
BRANCH   4   5
ATOM      5  NE  ARG D 557     -28.248  -0.952 -16.397  1.00 35.49    -0.212 N 
ATOM      6  CZ  ARG D 557     -28.666  -2.097 -16.889  1.00 35.49     0.666 C 
ATOM      7  NH1 ARG D 557     -29.797  -2.209 -17.560  1.00 35.49    -0.235 N 
ATOM      8  NH2 ARG D 557     -27.914  -3.142 -16.699  1.00 35.49    -0.235 N 
ATOM      9  HH  ARG D 557     -30.306  -1.534 -17.699  1.00 35.49     0.174 HD
ATOM     10  HH  ARG D 557     -30.018  -2.981 -17.860  1.00 35.49     0.174 HD
ATOM     11  HH  ARG D 557     -27.186  -3.038 -16.268  1.00 35.49     0.174 HD
ATOM     12  HH  ARG D 557     -28.149  -3.897 -17.005  1.00 35.49     0.174 HD
ATOM     13  HE  ARG D 557     -27.547  -0.985 -15.917  1.00 35.49     0.178 HD
ENDBRANCH   4   5
ENDBRANCH   3   4
ENDBRANCH   2   3
ENDBRANCH   1   2
END_RES ARG D 557
BEGIN_RES GLU D 570
REMARK  3 active torsions:
REMARK  status: ('A' for Active; 'I' for Inactive)
REMARK    5  A    between atoms: CA   and  CB  
REMARK    6  A    between atoms: CB   and  CG  
REMARK    7  A    between atoms: CG   and  CD  
ROOT
ATOM     14  CA  GLU D 570     -18.033  -6.348 -13.375  1.00 32.92     0.160 C 
ENDROOT
BRANCH  14  15
ATOM     15  CB  GLU D 570     -19.500  -6.345 -13.794  1.00 32.92     0.043 C 
BRANCH  15  16
ATOM     16  CG  GLU D 570     -19.799  -6.173 -15.239  1.00 32.92     0.100 C 
BRANCH  16  17
ATOM     17  CD  GLU D 570     -21.254  -5.867 -15.508  1.00 32.92     0.185 C 
ATOM     18  OE1 GLU D 570     -21.544  -5.012 -16.367  1.00 32.92    -0.647 OA
ATOM     19  OE2 GLU D 570     -22.112  -6.477 -14.840  1.00 32.92    -0.647 OA
ENDBRANCH  16  17
ENDBRANCH  15  16
ENDBRANCH  14  15
END_RES GLU D 570
ENDMDL
MODEL 5
REMARK VINA RESULT:      -5.7      2.935      5.452
REMARK  11 active torsions:
REMARK  status: ('A' for Active; 'I' for Inactive)
REMARK    1  A    between atoms: C_1  and  C_2 
REMARK    2  A    between atoms: C_1  and  O_13 
REMARK    3  A    between atoms: C_2  and  C_3 
REMARK    4  A    between atoms: C_2  and  O_12 
REMARK    5  A    between atoms: C_3  and  C_4 
REMARK    6  A    between atoms: C_3  and  O_11 
REMARK    7  A    between atoms: C_4  and  C_5 
REMARK    8  A    between atoms: C_4  and  O_10 
REMARK    9  A    between atoms: C_5  and  C_6 
REMARK   10  A    between atoms: C_5  and  O_9 
REMARK   11  A    between atoms: C_6  and  O_8 
ROOT
HETATM    1  C   UNL     1     -23.039  -4.095  -8.252  1.00  0.00     0.188 C 
ENDROOT
BRANCH   1   2
HETATM    2  C   UNL     1     -21.753  -4.914  -7.970  1.00  0.00     0.180 C 
BRANCH   2   3
HETATM    3  C   UNL     1     -21.346  -4.856  -6.485  1.00  0.00     0.173 C 
BRANCH   3   4
HETATM    4  C   UNL     1     -19.899  -5.320  -6.257  1.00  0.00     0.198 C 
BRANCH   4   5
HETATM    5  O   UNL     1     -19.691  -6.549  -6.957  1.00  0.00    -0.398 OA
HETATM    6  H   UNL     1     -20.109  -7.258  -6.439  1.00  0.00     0.209 HD
ENDBRANCH   4   5
ENDBRANCH   3   4
BRANCH   3   7
HETATM    7  O   UNL     1     -22.253  -5.666  -5.717  1.00  0.00    -0.391 OA
HETATM    8  H   UNL     1     -21.962  -6.594  -5.829  1.00  0.00     0.210 HD
ENDBRANCH   3   7
ENDBRANCH   2   3
BRANCH   2   9
HETATM    9  O   UNL     1     -20.673  -4.466  -8.786  1.00  0.00    -0.390 OA
HETATM   10  H   UNL     1     -19.834  -4.571  -8.303  1.00  0.00     0.210 HD
ENDBRANCH   2   9
ENDBRANCH   1   2
BRANCH   1  11
HETATM   11  C   UNL     1     -23.724  -4.508  -9.568  1.00  0.00     0.246 C 
BRANCH  11  12
HETATM   12  C   UNL     1     -24.593  -3.366 -10.105  1.00  0.00     0.172 C 
HETATM   13  O   UNL     1     -24.607  -2.997 -11.271  1.00  0.00    -0.648 OA
BRANCH  12  14
HETATM   14  O   UNL     1     -25.317  -2.745  -9.140  1.00  0.00    -0.774 OA
HETATM   15  H   UNL     1     -26.229  -2.536  -9.463  1.00  0.00     0.167 HD
ENDBRANCH  12  14
ENDBRANCH  11  12
BRANCH  11  16
HETATM   16  O   UNL     1     -22.727  -4.890 -10.525  1.00  0.00    -0.382 OA
HETATM   17  H   UNL     1     -23.174  -5.055 -11.375  1.00  0.00     0.210 HD
ENDBRANCH  11  16
ENDBRANCH   1  11
BRANCH   1  18
HETATM   18  O   UNL     1     -24.011  -4.216  -7.187  1.00  0.00    -0.390 OA
HETATM   19  H   UNL     1     -24.714  -3.549  -7.381  1.00  0.00     0.210 HD
ENDBRANCH   1  18
TORSDOF 11
BEGIN_RES ARG D 557
REMARK  4 active torsions:
REMARK  status: ('A' for Active; 'I' for Inactive)
REMARK    1  A    between atoms: CA   and  CB  
REMARK    2  A    between atoms: CB   and  CG  
REMARK    3  A    between atoms: CG   and  CD  
REMARK    4  A    between atoms: CD   and  NE  
REMARK       I    between atoms: NE   and  CZ  
REMARK       I    between atoms: CZ   and  NH1 
REMARK       I    between atoms: CZ   and  NH2 
ROOT
ATOM      1  CA  ARG D 557     -26.217   2.705 -17.014  1.00 35.49     0.159 C 
ENDROOT
BRANCH   1   2
ATOM      2  CB  ARG D 557     -26.789   1.319 -17.183  1.00 35.49     0.034 C 
BRANCH   2   3
ATOM      3  CG  ARG D 557     -25.842   0.200 -17.112  1.00 35.49     0.027 C 
BRANCH   3   4
ATOM      4  CD  ARG D 557     -25.377  -0.059 -15.730  1.00 35.49     0.116 C 
BRANCH   4   5
ATOM      5  NE  ARG D 557     -25.685  -1.396 -15.296  1.00 35.49    -0.212 N 
ATOM      6  CZ  ARG D 557     -24.979  -2.110 -14.448  1.00 35.49     0.666 C 
ATOM      7  NH1 ARG D 557     -23.865  -1.662 -13.899  1.00 35.49    -0.235 N 
ATOM      8  NH2 ARG D 557     -25.419  -3.298 -14.151  1.00 35.49    -0.235 N 
ATOM      9  HH  ARG D 557     -23.558  -0.883 -14.078  1.00 35.49     0.174 HD
ATOM     10  HH  ARG D 557     -23.448  -2.172 -13.351  1.00 35.49     0.174 HD
ATOM     11  HH  ARG D 557     -26.145  -3.559 -14.516  1.00 35.49     0.174 HD
ATOM     12  HH  ARG D 557     -24.993  -3.787 -13.606  1.00 35.49     0.174 HD
ATOM     13  HE  ARG D 557     -26.347  -1.790 -15.655  1.00 35.49     0.178 HD
ENDBRANCH   4   5
ENDBRANCH   3   4
ENDBRANCH   2   3
ENDBRANCH   1   2
END_RES ARG D 557
BEGIN_RES GLU D 570
REMARK  3 active torsions:
REMARK  status: ('A' for Active; 'I' for Inactive)
REMARK    5  A    between atoms: CA   and  CB  
REMARK    6  A    between atoms: CB   and  CG  
REMARK    7  A    between atoms: CG   and  CD  
ROOT
ATOM     14  CA  GLU D 570     -18.033  -6.348 -13.375  1.00 32.92     0.160 C 
ENDROOT
BRANCH  14  15
ATOM     15  CB  GLU D 570     -19.500  -6.345 -13.794  1.00 32.92     0.043 C 
BRANCH  15  16
ATOM     16  CG  GLU D 570     -20.433  -5.490 -13.015  1.00 32.92     0.100 C 
BRANCH  16  17
ATOM     17  CD  GLU D 570     -21.743  -5.246 -13.727  1.00 32.92     0.185 C 
ATOM     18  OE1 GLU D 570     -22.431  -4.258 -13.407  1.00 32.92    -0.647 OA
ATOM     19  OE2 GLU D 570     -22.093  -6.061 -14.603  1.00 32.92    -0.647 OA
ENDBRANCH  16  17
ENDBRANCH  15  16
ENDBRANCH  14  15
END_RES GLU D 570
ENDMDL
MODEL 6
REMARK VINA RESULT:      -5.6      1.606      3.813
REMARK  11 active torsions:
REMARK  status: ('A' for Active; 'I' for Inactive)
REMARK    1  A    between atoms: C_1  and  C_2 
REMARK    2  A    between atoms: C_1  and  O_13 
REMARK    3  A    between atoms: C_2  and  C_3 
REMARK    4  A    between atoms: C_2  and  O_12 
REMARK    5  A    between atoms: C_3  and  C_4 
REMARK    6  A    between atoms: C_3  and  O_11 
REMARK    7  A    between atoms: C_4  and  C_5 
REMARK    8  A    between atoms: C_4  and  O_10 
REMARK    9  A    between atoms: C_5  and  C_6 
REMARK   10  A    between atoms: C_5  and  O_9 
REMARK   11  A    between atoms: C_6  and  O_8 
ROOT
HETATM    1  C   UNL     1     -23.797  -4.289 -13.154  1.00  0.00     0.188 C 
ENDROOT
BRANCH   1   2
HETATM    2  C   UNL     1     -23.323  -3.611 -11.842  1.00  0.00     0.180 C 
BRANCH   2   3
HETATM    3  C   UNL     1     -23.211  -4.616 -10.680  1.00  0.00     0.173 C 
BRANCH   3   4
HETATM    4  C   UNL     1     -24.450  -4.600  -9.772  1.00  0.00     0.198 C 
BRANCH   4   5
HETATM    5  O   UNL     1     -24.246  -3.646  -8.727  1.00  0.00    -0.398 OA
HETATM    6  H   UNL     1     -23.579  -4.012  -8.119  1.00  0.00     0.209 HD
ENDBRANCH   4   5
ENDBRANCH   3   4
BRANCH   3   7
HETATM    7  O   UNL     1     -22.030  -4.319  -9.914  1.00  0.00    -0.391 OA
HETATM    8  H   UNL     1     -21.491  -3.708 -10.459  1.00  0.00     0.210 HD
ENDBRANCH   3   7
ENDBRANCH   2   3
BRANCH   2   9
HETATM    9  O   UNL     1     -24.193  -2.543 -11.477  1.00  0.00    -0.390 OA
HETATM   10  H   UNL     1     -23.965  -2.227 -10.584  1.00  0.00     0.210 HD
ENDBRANCH   2   9
ENDBRANCH   1   2
BRANCH   1  11
HETATM   11  C   UNL     1     -24.570  -3.323 -14.070  1.00  0.00     0.246 C 
BRANCH  11  12
HETATM   12  C   UNL     1     -23.634  -2.247 -14.630  1.00  0.00     0.172 C 
HETATM   13  O   UNL     1     -22.707  -2.468 -15.398  1.00  0.00    -0.648 OA
BRANCH  12  14
HETATM   14  O   UNL     1     -23.891  -1.008 -14.142  1.00  0.00    -0.774 OA
HETATM   15  H   UNL     1     -24.345  -1.061 -13.264  1.00  0.00     0.167 HD
ENDBRANCH  12  14
ENDBRANCH  11  12
BRANCH  11  16
HETATM   16  O   UNL     1     -25.193  -4.064 -15.128  1.00  0.00    -0.382 OA
HETATM   17  H   UNL     1     -25.840  -3.481 -15.563  1.00  0.00     0.210 HD
ENDBRANCH  11  16
ENDBRANCH   1  11
BRANCH   1  18
HETATM   18  O   UNL     1     -22.696  -4.841 -13.914  1.00  0.00    -0.390 OA
HETATM   19  H   UNL     1     -22.138  -4.070 -14.183  1.00  0.00     0.210 HD
ENDBRANCH   1  18
TORSDOF 11
BEGIN_RES ARG D 557
REMARK  4 active torsions:
REMARK  status: ('A' for Active; 'I' for Inactive)
REMARK    1  A    between atoms: CA   and  CB  
REMARK    2  A    between atoms: CB   and  CG  
REMARK    3  A    between atoms: CG   and  CD  
REMARK    4  A    between atoms: CD   and  NE  
REMARK       I    between atoms: NE   and  CZ  
REMARK       I    between atoms: CZ   and  NH1 
REMARK       I    between atoms: CZ   and  NH2 
ROOT
ATOM      1  CA  ARG D 557     -26.217   2.705 -17.014  1.00 35.49     0.159 C 
ENDROOT
BRANCH   1   2
ATOM      2  CB  ARG D 557     -26.789   1.319 -17.183  1.00 35.49     0.034 C 
BRANCH   2   3
ATOM      3  CG  ARG D 557     -25.963   0.201 -16.711  1.00 35.49     0.027 C 
BRANCH   3   4
ATOM      4  CD  ARG D 557     -26.762  -0.841 -16.027  1.00 35.49     0.116 C 
BRANCH   4   5
ATOM      5  NE  ARG D 557     -27.988  -1.129 -16.725  1.00 35.49    -0.212 N 
ATOM      6  CZ  ARG D 557     -28.484  -2.327 -16.943  1.00 35.49     0.666 C 
ATOM      7  NH1 ARG D 557     -27.878  -3.429 -16.543  1.00 35.49    -0.235 N 
ATOM      8  NH2 ARG D 557     -29.619  -2.399 -17.575  1.00 35.49    -0.235 N 
ATOM      9  HH  ARG D 557     -27.132  -3.405 -16.123  1.00 35.49     0.174 HD
ATOM     10  HH  ARG D 557     -28.251  -4.182 -16.711  1.00 35.49     0.174 HD
ATOM     11  HH  ARG D 557     -29.991  -1.670 -17.815  1.00 35.49     0.174 HD
ATOM     12  HH  ARG D 557     -29.973  -3.154 -17.731  1.00 35.49     0.174 HD
ATOM     13  HE  ARG D 557     -28.406  -0.481 -17.081  1.00 35.49     0.178 HD
ENDBRANCH   4   5
ENDBRANCH   3   4
ENDBRANCH   2   3
ENDBRANCH   1   2
END_RES ARG D 557
BEGIN_RES GLU D 570
REMARK  3 active torsions:
REMARK  status: ('A' for Active; 'I' for Inactive)
REMARK    5  A    between atoms: CA   and  CB  
REMARK    6  A    between atoms: CB   and  CG  
REMARK    7  A    between atoms: CG   and  CD  
ROOT
ATOM     14  CA  GLU D 570     -18.033  -6.348 -13.375  1.00 32.92     0.160 C 
ENDROOT
BRANCH  14  15
ATOM     15  CB  GLU D 570     -19.500  -6.345 -13.794  1.00 32.92     0.043 C 
BRANCH  15  16
ATOM     16  CG  GLU D 570     -20.083  -7.632 -14.254  1.00 32.92     0.100 C 
BRANCH  16  17
ATOM     17  CD  GLU D 570     -20.856  -7.500 -15.546  1.00 32.92     0.185 C 
ATOM     18  OE1 GLU D 570     -21.153  -6.363 -15.960  1.00 32.92    -0.647 OA
ATOM     19  OE2 GLU D 570     -21.183  -8.545 -16.141  1.00 32.92    -0.647 OA
ENDBRANCH  16  17
ENDBRANCH  15  16
ENDBRANCH  14  15
END_RES GLU D 570
ENDMDL
MODEL 7
REMARK VINA RESULT:      -5.5      7.252      9.703
REMARK  11 active torsions:
REMARK  status: ('A' for Active; 'I' for Inactive)
REMARK    1  A    between atoms: C_1  and  C_2 
REMARK    2  A    between atoms: C_1  and  O_13 
REMARK    3  A    between atoms: C_2  and  C_3 
REMARK    4  A    between atoms: C_2  and  O_12 
REMARK    5  A    between atoms: C_3  and  C_4 
REMARK    6  A    between atoms: C_3  and  O_11 
REMARK    7  A    between atoms: C_4  and  C_5 
REMARK    8  A    between atoms: C_4  and  O_10 
REMARK    9  A    between atoms: C_5  and  C_6 
REMARK   10  A    between atoms: C_5  and  O_9 
REMARK   11  A    between atoms: C_6  and  O_8 
ROOT
HETATM    1  C   UNL     1     -35.310  -0.435 -14.101  1.00  0.00     0.188 C 
ENDROOT
BRANCH   1   2
HETATM    2  C   UNL     1     -34.837  -0.636 -12.638  1.00  0.00     0.180 C 
BRANCH   2   3
HETATM    3  C   UNL     1     -34.785  -2.125 -12.248  1.00  0.00     0.173 C 
BRANCH   3   4
HETATM    4  C   UNL     1     -33.688  -2.420 -11.214  1.00  0.00     0.198 C 
BRANCH   4   5
HETATM    5  O   UNL     1     -33.937  -1.645 -10.039  1.00  0.00    -0.398 OA
HETATM    6  H   UNL     1     -34.284  -0.781 -10.324  1.00  0.00     0.209 HD
ENDBRANCH   4   5
ENDBRANCH   3   4
BRANCH   3   7
HETATM    7  O   UNL     1     -34.577  -2.914 -13.432  1.00  0.00    -0.391 OA
HETATM    8  H   UNL     1     -34.796  -2.338 -14.194  1.00  0.00     0.210 HD
ENDBRANCH   3   7
ENDBRANCH   2   3
BRANCH   2   9
HETATM    9  O   UNL     1     -35.674   0.075 -11.729  1.00  0.00    -0.390 OA
HETATM   10  H   UNL     1     -36.308  -0.541 -11.319  1.00  0.00     0.210 HD
ENDBRANCH   2   9
ENDBRANCH   1   2
BRANCH   1  11
HETATM   11  C   UNL     1     -36.745   0.119 -14.186  1.00  0.00     0.246 C 
BRANCH  11  12
HETATM   12  C   UNL     1     -37.162   0.311 -15.647  1.00  0.00     0.172 C 
HETATM   13  O   UNL     1     -36.760  -0.374 -16.578  1.00  0.00    -0.648 OA
BRANCH  12  14
HETATM   14  O   UNL     1     -37.990   1.371 -15.832  1.00  0.00    -0.774 OA
HETATM   15  H   UNL     1     -37.580   2.037 -16.439  1.00  0.00     0.167 HD
ENDBRANCH  12  14
ENDBRANCH  11  12
BRANCH  11  16
HETATM   16  O   UNL     1     -37.641  -0.771 -13.508  1.00  0.00    -0.382 OA
HETATM   17  H   UNL     1     -37.980  -1.411 -14.159  1.00  0.00     0.210 HD
ENDBRANCH  11  16
ENDBRANCH   1  11
BRANCH   1  18
HETATM   18  O   UNL     1     -34.443   0.458 -14.839  1.00  0.00    -0.390 OA
HETATM   19  H   UNL     1     -33.524   0.122 -14.700  1.00  0.00     0.210 HD
ENDBRANCH   1  18
TORSDOF 11
BEGIN_RES ARG D 557
REMARK  4 active torsions:
REMARK  status: ('A' for Active; 'I' for Inactive)
REMARK    1  A    between atoms: CA   and  CB  
REMARK    2  A    between atoms: CB   and  CG  
REMARK    3  A    between atoms: CG   and  CD  
REMARK    4  A    between atoms: CD   and  NE  
REMARK       I    between atoms: NE   and  CZ  
REMARK       I    between atoms: CZ   and  NH1 
REMARK       I    between atoms: CZ   and  NH2 
ROOT
ATOM      1  CA  ARG D 557     -26.217   2.705 -17.014  1.00 35.49     0.159 C 
ENDROOT
BRANCH   1   2
ATOM      2  CB  ARG D 557     -26.789   1.319 -17.183  1.00 35.49     0.034 C 
BRANCH   2   3
ATOM      3  CG  ARG D 557     -28.158   1.105 -16.697  1.00 35.49     0.027 C 
BRANCH   3   4
ATOM      4  CD  ARG D 557     -28.793  -0.086 -17.306  1.00 35.49     0.116 C 
BRANCH   4   5
ATOM      5  NE  ARG D 557     -28.181  -1.312 -16.866  1.00 35.49    -0.212 N 
ATOM      6  CZ  ARG D 557     -28.671  -2.519 -17.036  1.00 35.49     0.666 C 
ATOM      7  NH1 ARG D 557     -29.825  -2.738 -17.639  1.00 35.49    -0.235 N 
ATOM      8  NH2 ARG D 557     -27.969  -3.520 -16.590  1.00 35.49    -0.235 N 
ATOM      9  HH  ARG D 557     -30.302  -2.094 -17.943  1.00 35.49     0.174 HD
ATOM     10  HH  ARG D 557     -30.092  -3.547 -17.724  1.00 35.49     0.174 HD
ATOM     11  HH  ARG D 557     -27.224  -3.349 -16.211  1.00 35.49     0.174 HD
ATOM     12  HH  ARG D 557     -28.250  -4.314 -16.685  1.00 35.49     0.174 HD
ATOM     13  HE  ARG D 557     -27.469  -1.259 -16.403  1.00 35.49     0.178 HD
ENDBRANCH   4   5
ENDBRANCH   3   4
ENDBRANCH   2   3
ENDBRANCH   1   2
END_RES ARG D 557
BEGIN_RES GLU D 570
REMARK  3 active torsions:
REMARK  status: ('A' for Active; 'I' for Inactive)
REMARK    5  A    between atoms: CA   and  CB  
REMARK    6  A    between atoms: CB   and  CG  
REMARK    7  A    between atoms: CG   and  CD  
ROOT
ATOM     14  CA  GLU D 570     -18.033  -6.348 -13.375  1.00 32.92     0.160 C 
ENDROOT
BRANCH  14  15
ATOM     15  CB  GLU D 570     -19.500  -6.345 -13.794  1.00 32.92     0.043 C 
BRANCH  15  16
ATOM     16  CG  GLU D 570     -20.452  -5.581 -12.948  1.00 32.92     0.100 C 
BRANCH  16  17
ATOM     17  CD  GLU D 570     -21.690  -5.146 -13.698  1.00 32.92     0.185 C 
ATOM     18  OE1 GLU D 570     -22.702  -4.812 -13.053  1.00 32.92    -0.647 OA
ATOM     19  OE2 GLU D 570     -21.651  -5.155 -14.944  1.00 32.92    -0.647 OA
ENDBRANCH  16  17
ENDBRANCH  15  16
ENDBRANCH  14  15
END_RES GLU D 570
ENDMDL
MODEL 8
REMARK VINA RESULT:      -5.4      1.596      2.920
REMARK  11 active torsions:
REMARK  status: ('A' for Active; 'I' for Inactive)
REMARK    1  A    between atoms: C_1  and  C_2 
REMARK    2  A    between atoms: C_1  and  O_13 
REMARK    3  A    between atoms: C_2  and  C_3 
REMARK    4  A    between atoms: C_2  and  O_12 
REMARK    5  A    between atoms: C_3  and  C_4 
REMARK    6  A    between atoms: C_3  and  O_11 
REMARK    7  A    between atoms: C_4  and  C_5 
REMARK    8  A    between atoms: C_4  and  O_10 
REMARK    9  A    between atoms: C_5  and  C_6 
REMARK   10  A    between atoms: C_5  and  O_9 
REMARK   11  A    between atoms: C_6  and  O_8 
ROOT
HETATM    1  C   UNL     1     -24.146  -4.137 -12.403  1.00  0.00     0.188 C 
ENDROOT
BRANCH   1   2
HETATM    2  C   UNL     1     -24.219  -2.632 -12.768  1.00  0.00     0.180 C 
BRANCH   2   3
HETATM    3  C   UNL     1     -24.621  -2.413 -14.239  1.00  0.00     0.173 C 
BRANCH   3   4
HETATM    4  C   UNL     1     -23.718  -1.390 -14.945  1.00  0.00     0.198 C 
BRANCH   4   5
HETATM    5  O   UNL     1     -22.641  -2.083 -15.581  1.00  0.00    -0.398 OA
HETATM    6  H   UNL     1     -21.809  -1.713 -15.237  1.00  0.00     0.209 HD
ENDBRANCH   4   5
ENDBRANCH   3   4
BRANCH   3   7
HETATM    7  O   UNL     1     -25.993  -1.984 -14.292  1.00  0.00    -0.391 OA
HETATM    8  H   UNL     1     -26.307  -2.165 -15.203  1.00  0.00     0.210 HD
ENDBRANCH   3   7
ENDBRANCH   2   3
BRANCH   2   9
HETATM    9  O   UNL     1     -22.979  -1.982 -12.502  1.00  0.00    -0.390 OA
HETATM   10  H   UNL     1     -23.144  -1.144 -12.033  1.00  0.00     0.210 HD
ENDBRANCH   2   9
ENDBRANCH   1   2
BRANCH   1  11
HETATM   11  C   UNL     1     -22.975  -4.855 -13.098  1.00  0.00     0.246 C 
BRANCH  11  12
HETATM   12  C   UNL     1     -23.454  -5.565 -14.368  1.00  0.00     0.172 C 
HETATM   13  O   UNL     1     -24.198  -6.536 -14.379  1.00  0.00    -0.648 OA
BRANCH  12  14
HETATM   14  O   UNL     1     -22.921  -5.048 -15.504  1.00  0.00    -0.774 OA
HETATM   15  H   UNL     1     -22.378  -4.244 -15.304  1.00  0.00     0.167 HD
ENDBRANCH  12  14
ENDBRANCH  11  12
BRANCH  11  16
HETATM   16  O   UNL     1     -21.943  -3.906 -13.397  1.00  0.00    -0.382 OA
HETATM   17  H   UNL     1     -21.116  -4.399 -13.551  1.00  0.00     0.210 HD
ENDBRANCH  11  16
ENDBRANCH   1  11
BRANCH   1  18
HETATM   18  O   UNL     1     -24.019  -4.350 -10.978  1.00  0.00    -0.390 OA
HETATM   19  H   UNL     1     -23.099  -4.683 -10.833  1.00  0.00     0.210 HD
ENDBRANCH   1  18
TORSDOF 11
BEGIN_RES ARG D 557
REMARK  4 active torsions:
REMARK  status: ('A' for Active; 'I' for Inactive)
REMARK    1  A    between atoms: CA   and  CB  
REMARK    2  A    between atoms: CB   and  CG  
REMARK    3  A    between atoms: CG   and  CD  
REMARK    4  A    between atoms: CD   and  NE  
REMARK       I    between atoms: NE   and  CZ  
REMARK       I    between atoms: CZ   and  NH1 
REMARK       I    between atoms: CZ   and  NH2 
ROOT
ATOM      1  CA  ARG D 557     -26.217   2.705 -17.014  1.00 35.49     0.159 C 
ENDROOT
BRANCH   1   2
ATOM      2  CB  ARG D 557     -26.789   1.319 -17.183  1.00 35.49     0.034 C 
BRANCH   2   3
ATOM      3  CG  ARG D 557     -28.169   1.114 -16.726  1.00 35.49     0.027 C 
BRANCH   3   4
ATOM      4  CD  ARG D 557     -28.734  -0.172 -17.197  1.00 35.49     0.116 C 
BRANCH   4   5
ATOM      5  NE  ARG D 557     -28.030  -1.304 -16.654  1.00 35.49    -0.212 N 
ATOM      6  CZ  ARG D 557     -28.336  -2.567 -16.856  1.00 35.49     0.666 C 
ATOM      7  NH1 ARG D 557     -29.366  -2.938 -17.593  1.00 35.49    -0.235 N 
ATOM      8  NH2 ARG D 557     -27.573  -3.464 -16.301  1.00 35.49    -0.235 N 
ATOM      9  HH  ARG D 557     -29.879  -2.364 -17.969  1.00 35.49     0.174 HD
ATOM     10  HH  ARG D 557     -29.515  -3.776 -17.691  1.00 35.49     0.174 HD
ATOM     11  HH  ARG D 557     -26.911  -3.195 -15.837  1.00 35.49     0.174 HD
ATOM     12  HH  ARG D 557     -27.736  -4.289 -16.412  1.00 35.49     0.174 HD
ATOM     13  HE  ARG D 557     -27.396  -1.156 -16.108  1.00 35.49     0.178 HD
ENDBRANCH   4   5
ENDBRANCH   3   4
ENDBRANCH   2   3
ENDBRANCH   1   2
END_RES ARG D 557
BEGIN_RES GLU D 570
REMARK  3 active torsions:
REMARK  status: ('A' for Active; 'I' for Inactive)
REMARK    5  A    between atoms: CA   and  CB  
REMARK    6  A    between atoms: CB   and  CG  
REMARK    7  A    between atoms: CG   and  CD  
ROOT
ATOM     14  CA  GLU D 570     -18.033  -6.348 -13.375  1.00 32.92     0.160 C 
ENDROOT
BRANCH  14  15
ATOM     15  CB  GLU D 570     -19.500  -6.345 -13.794  1.00 32.92     0.043 C 
BRANCH  15  16
ATOM     16  CG  GLU D 570     -19.796  -6.340 -15.250  1.00 32.92     0.100 C 
BRANCH  16  17
ATOM     17  CD  GLU D 570     -20.634  -7.519 -15.685  1.00 32.92     0.185 C 
ATOM     18  OE1 GLU D 570     -21.405  -7.388 -16.655  1.00 32.92    -0.647 OA
ATOM     19  OE2 GLU D 570     -20.530  -8.580 -15.039  1.00 32.92    -0.647 OA
ENDBRANCH  16  17
ENDBRANCH  15  16
ENDBRANCH  14  15
END_RES GLU D 570
ENDMDL
MODEL 9
REMARK VINA RESULT:      -5.3     11.595     13.141
REMARK  11 active torsions:
REMARK  status: ('A' for Active; 'I' for Inactive)
REMARK    1  A    between atoms: C_1  and  C_2 
REMARK    2  A    between atoms: C_1  and  O_13 
REMARK    3  A    between atoms: C_2  and  C_3 
REMARK    4  A    between atoms: C_2  and  O_12 
REMARK    5  A    between atoms: C_3  and  C_4 
REMARK    6  A    between atoms: C_3  and  O_11 
REMARK    7  A    between atoms: C_4  and  C_5 
REMARK    8  A    between atoms: C_4  and  O_10 
REMARK    9  A    between atoms: C_5  and  C_6 
REMARK   10  A    between atoms: C_5  and  O_9 
REMARK   11  A    between atoms: C_6  and  O_8 
ROOT
HETATM    1  C   UNL     1     -12.229   6.607 -19.905  1.00  0.00     0.188 C 
ENDROOT
BRANCH   1   2
HETATM    2  C   UNL     1     -12.451   5.182 -20.475  1.00  0.00     0.180 C 
BRANCH   2   3
HETATM    3  C   UNL     1     -13.941   4.790 -20.486  1.00  0.00     0.173 C 
BRANCH   3   4
HETATM    4  C   UNL     1     -14.538   4.803 -21.901  1.00  0.00     0.198 C 
BRANCH   4   5
HETATM    5  O   UNL     1     -15.010   6.120 -22.192  1.00  0.00    -0.398 OA
HETATM    6  H   UNL     1     -15.521   6.428 -21.423  1.00  0.00     0.209 HD
ENDBRANCH   4   5
ENDBRANCH   3   4
BRANCH   3   7
HETATM    7  O   UNL     1     -14.669   5.689 -19.631  1.00  0.00    -0.391 OA
HETATM    8  H   UNL     1     -15.449   5.193 -19.304  1.00  0.00     0.210 HD
ENDBRANCH   3   7
ENDBRANCH   2   3
BRANCH   2   9
HETATM    9  O   UNL     1     -11.701   4.216 -19.743  1.00  0.00    -0.390 OA
HETATM   10  H   UNL     1     -10.757   4.458 -19.755  1.00  0.00     0.210 HD
ENDBRANCH   2   9
ENDBRANCH   1   2
BRANCH   1  11
HETATM   11  C   UNL     1     -10.736   6.966 -19.784  1.00  0.00     0.246 C 
BRANCH  11  12
HETATM   12  C   UNL     1     -10.564   8.465 -19.517  1.00  0.00     0.172 C 
HETATM   13  O   UNL     1     -10.613   9.331 -20.380  1.00  0.00    -0.648 OA
BRANCH  12  14
HETATM   14  O   UNL     1     -10.285   8.750 -18.220  1.00  0.00    -0.774 OA
HETATM   15  H   UNL     1      -9.385   8.421 -17.972  1.00  0.00     0.167 HD
ENDBRANCH  12  14
ENDBRANCH  11  12
BRANCH  11  16
HETATM   16  O   UNL     1     -10.140   6.186 -18.739  1.00  0.00    -0.382 OA
HETATM   17  H   UNL     1      -9.397   5.688 -19.123  1.00  0.00     0.210 HD
ENDBRANCH  11  16
ENDBRANCH   1  11
BRANCH   1  18
HETATM   18  O   UNL     1     -12.869   7.624 -20.710  1.00  0.00    -0.390 OA
HETATM   19  H   UNL     1     -12.894   7.268 -21.632  1.00  0.00     0.210 HD
ENDBRANCH   1  18
TORSDOF 11
BEGIN_RES ARG D 557
REMARK  4 active torsions:
REMARK  status: ('A' for Active; 'I' for Inactive)
REMARK    1  A    between atoms: CA   and  CB  
REMARK    2  A    between atoms: CB   and  CG  
REMARK    3  A    between atoms: CG   and  CD  
REMARK    4  A    between atoms: CD   and  NE  
REMARK       I    between atoms: NE   and  CZ  
REMARK       I    between atoms: CZ   and  NH1 
REMARK       I    between atoms: CZ   and  NH2 
ROOT
ATOM      1  CA  ARG D 557     -26.217   2.705 -17.014  1.00 35.49     0.159 C 
ENDROOT
BRANCH   1   2
ATOM      2  CB  ARG D 557     -26.789   1.319 -17.183  1.00 35.49     0.034 C 
BRANCH   2   3
ATOM      3  CG  ARG D 557     -25.836   0.203 -17.155  1.00 35.49     0.027 C 
BRANCH   3   4
ATOM      4  CD  ARG D 557     -24.749   0.413 -16.171  1.00 35.49     0.116 C 
BRANCH   4   5
ATOM      5  NE  ARG D 557     -24.893  -0.433 -15.016  1.00 35.49    -0.212 N 
ATOM      6  CZ  ARG D 557     -24.080  -1.406 -14.671  1.00 35.49     0.666 C 
ATOM      7  NH1 ARG D 557     -23.016  -1.728 -15.384  1.00 35.49    -0.235 N 
ATOM      8  NH2 ARG D 557     -24.352  -2.058 -13.578  1.00 35.49    -0.235 N 
ATOM      9  HH  ARG D 557     -22.817  -1.312 -16.106  1.00 35.49     0.174 HD
ATOM     10  HH  ARG D 557     -22.521  -2.371 -15.109  1.00 35.49     0.174 HD
ATOM     11  HH  ARG D 557     -25.041  -1.823 -13.133  1.00 35.49     0.174 HD
ATOM     12  HH  ARG D 557     -23.849  -2.690 -13.321  1.00 35.49     0.174 HD
ATOM     13  HE  ARG D 557     -25.591  -0.343 -14.539  1.00 35.49     0.178 HD
ENDBRANCH   4   5
ENDBRANCH   3   4
ENDBRANCH   2   3
ENDBRANCH   1   2
END_RES ARG D 557
BEGIN_RES GLU D 570
REMARK  3 active torsions:
REMARK  status: ('A' for Active; 'I' for Inactive)
REMARK    5  A    between atoms: CA   and  CB  
REMARK    6  A    between atoms: CB   and  CG  
REMARK    7  A    between atoms: CG   and  CD  
ROOT
ATOM     14  CA  GLU D 570     -18.033  -6.348 -13.375  1.00 32.92     0.160 C 
ENDROOT
BRANCH  14  15
ATOM     15  CB  GLU D 570     -19.500  -6.345 -13.794  1.00 32.92     0.043 C 
BRANCH  15  16
ATOM     16  CG  GLU D 570     -20.441  -5.529 -12.985  1.00 32.92     0.100 C 
BRANCH  16  17
ATOM     17  CD  GLU D 570     -21.749  -5.262 -13.693  1.00 32.92     0.185 C 
ATOM     18  OE1 GLU D 570     -22.251  -6.160 -14.396  1.00 32.92    -0.647 OA
ATOM     19  OE2 GLU D 570     -22.269  -4.137 -13.556  1.00 32.92    -0.647 OA
ENDBRANCH  16  17
ENDBRANCH  15  16
ENDBRANCH  14  15
END_RES GLU D 570
ENDMDL
