MODEL 1
REMARK VINA RESULT:      -7.9      0.000      0.000
REMARK WARNING: 32 MAX_TORS EXCEEDED!!!
REMARK  37 active torsions:
REMARK  status: ('A' for Active; 'I' for Inactive)
REMARK    1  A    between atoms: C_2  and  C_3 
REMARK    2  A    between atoms: C_3  and  C_4 
REMARK    3  A    between atoms: C_4  and  C_5 
REMARK    4  A    between atoms: C_5  and  C_6 
REMARK    5  A    between atoms: C_6  and  C_7 
REMARK    6  A    between atoms: C_7  and  C_8 
REMARK    7  A    between atoms: C_8  and  C_9 
REMARK    8  A    between atoms: C_9  and  C_10 
REMARK    9  A    between atoms: C_10  and  C_11 
REMARK   10  A    between atoms: C_11  and  C_12 
REMARK   11  A    between atoms: C_12  and  C_13 
REMARK   12  A    between atoms: C_13  and  C_14 
REMARK   13  A    between atoms: C_14  and  C_15 
REMARK   14  A    between atoms: C_15  and  C_16 
REMARK   15  A    between atoms: C_16  and  C_17 
REMARK   16  A    between atoms: C_17  and  C_18 
REMARK   17  A    between atoms: C_18  and  O_20 
REMARK   18  A    between atoms: O_20  and  C_21 
REMARK   19  A    between atoms: C_21  and  C_22 
REMARK   20  A    between atoms: C_22  and  O_23 
REMARK   21  A    between atoms: O_23  and  C_24 
REMARK   22  A    between atoms: C_24  and  C_26 
REMARK   23  A    between atoms: C_26  and  C_27 
REMARK   24  A    between atoms: C_27  and  C_28 
REMARK   25  A    between atoms: C_28  and  C_29 
REMARK   26  A    between atoms: C_29  and  C_30 
REMARK   27  A    between atoms: C_30  and  C_31 
REMARK   28  A    between atoms: C_31  and  C_32 
REMARK   29  A    between atoms: C_32  and  C_33 
REMARK   30  A    between atoms: C_33  and  C_34 
REMARK   31  A    between atoms: C_34  and  C_35 
REMARK   32  A    between atoms: C_35  and  C_36 
REMARK   33  A    between atoms: C_36  and  C_37 
REMARK   34  A    between atoms: C_37  and  C_38 
REMARK   35  A    between atoms: C_38  and  C_39 
REMARK   36  A    between atoms: C_39  and  C_40 
REMARK   37  A    between atoms: C_40  and  C_41 
ROOT
HETATM    1  C   UNL     1     -24.412  -6.408 -15.172  1.00  0.00     0.205 C 
ENDROOT
BRANCH   1   2
HETATM    2  O   UNL     1     -25.329  -5.531 -15.856  1.00  0.00    -0.319 OA
BRANCH   2   3
HETATM    3  C   UNL     1     -26.246  -6.191 -16.641  1.00  0.00     0.258 C 
HETATM    4  O   UNL     1     -26.186  -6.265 -17.852  1.00  0.00    -0.265 OA
BRANCH   3   5
HETATM    5  C   UNL     1     -27.312  -6.861 -15.808  1.00  0.00     0.111 C 
BRANCH   5   6
HETATM    6  C   UNL     1     -28.636  -6.944 -16.565  1.00  0.00     0.010 C 
BRANCH   6   7
HETATM    7  C   UNL     1     -29.642  -5.895 -16.090  1.00  0.00     0.000 C 
BRANCH   7   8
HETATM    8  C   UNL     1     -30.806  -5.784 -17.068  1.00  0.00     0.000 C 
BRANCH   8   9
HETATM    9  C   UNL     1     -31.359  -4.366 -17.082  1.00  0.00     0.000 C 
BRANCH   9  10
HETATM   10  C   UNL     1     -32.806  -4.355 -16.615  1.00  0.00     0.000 C 
BRANCH  10  11
HETATM   11  C   UNL     1     -33.542  -3.168 -17.214  1.00  0.00     0.000 C 
BRANCH  11  12
HETATM   12  C   UNL     1     -34.672  -2.736 -16.297  1.00  0.00     0.000 C 
BRANCH  12  13
HETATM   13  C   UNL     1     -35.176  -1.363 -16.703  1.00  0.00     0.000 C 
BRANCH  13  14
HETATM   14  C   UNL     1     -35.895  -0.707 -15.538  1.00  0.00     0.000 C 
BRANCH  14  15
HETATM   15  C   UNL     1     -35.043   0.413 -14.969  1.00  0.00     0.000 C 
BRANCH  15  16
HETATM   16  C   UNL     1     -35.092   0.380 -13.451  1.00  0.00     0.000 C 
BRANCH  16  17
HETATM   17  C   UNL     1     -35.078  -1.058 -12.962  1.00  0.00     0.000 C 
BRANCH  17  18
HETATM   18  C   UNL     1     -35.690  -1.141 -11.573  1.00  0.00     0.000 C 
BRANCH  18  19
HETATM   19  C   UNL     1     -34.794  -1.957 -10.654  1.00  0.00    -0.000 C 
BRANCH  19  20
HETATM   20  C   UNL     1     -34.666  -3.387 -11.161  1.00  0.00    -0.005 C 
HETATM   21  C   UNL     1     -33.205  -3.762 -11.327  1.00  0.00     0.005 C 
ENDBRANCH  19  20
ENDBRANCH  18  19
ENDBRANCH  17  18
ENDBRANCH  16  17
ENDBRANCH  15  16
ENDBRANCH  14  15
ENDBRANCH  13  14
ENDBRANCH  12  13
ENDBRANCH  11  12
ENDBRANCH  10  11
ENDBRANCH   9  10
ENDBRANCH   8   9
ENDBRANCH   7   8
ENDBRANCH   6   7
ENDBRANCH   5   6
ENDBRANCH   3   5
ENDBRANCH   2   3
ENDBRANCH   1   2
BRANCH   1  22
HETATM   22  C   UNL     1     -23.774  -5.693 -13.984  1.00  0.00     0.205 C 
BRANCH  22  23
HETATM   23  O   UNL     1     -24.161  -4.304 -13.948  1.00  0.00    -0.319 OA
BRANCH  23  24
HETATM   24  C   UNL     1     -23.753  -3.634 -12.831  1.00  0.00     0.258 C 
HETATM   25  O   UNL     1     -24.475  -2.911 -12.155  1.00  0.00    -0.265 OA
BRANCH  24  26
HETATM   26  C   UNL     1     -22.316  -3.953 -12.474  1.00  0.00     0.111 C 
BRANCH  26  27
HETATM   27  C   UNL     1     -21.865  -3.190 -11.235  1.00  0.00     0.010 C 
BRANCH  27  28
HETATM   28  C   UNL     1     -21.647  -4.107 -10.033  1.00  0.00     0.000 C 
BRANCH  28  29
HETATM   29  C   UNL     1     -22.807  -3.986  -9.053  1.00  0.00     0.000 C 
BRANCH  29  30
HETATM   30  C   UNL     1     -22.381  -4.425  -7.660  1.00  0.00     0.000 C 
BRANCH  30  31
HETATM   31  C   UNL     1     -21.189  -3.608  -7.186  1.00  0.00     0.000 C 
BRANCH  31  32
HETATM   32  C   UNL     1     -20.213  -4.497  -6.432  1.00  0.00     0.000 C 
BRANCH  32  33
HETATM   33  C   UNL     1     -20.378  -5.942  -6.871  1.00  0.00     0.000 C 
BRANCH  33  34
HETATM   34  C   UNL     1     -20.369  -6.857  -5.661  1.00  0.00     0.000 C 
BRANCH  34  35
HETATM   35  C   UNL     1     -21.600  -6.607  -4.809  1.00  0.00     0.000 C 
BRANCH  35  36
HETATM   36  C   UNL     1     -21.629  -7.581  -3.644  1.00  0.00     0.000 C 
BRANCH  36  37
HETATM   37  C   UNL     1     -21.598  -6.819  -2.331  1.00  0.00     0.000 C 
BRANCH  37  38
HETATM   38  C   UNL     1     -21.456  -7.789  -1.170  1.00  0.00     0.000 C 
BRANCH  38  39
HETATM   39  C   UNL     1     -22.353  -7.360  -0.020  1.00  0.00     0.000 C 
BRANCH  39  40
HETATM   40  C   UNL     1     -23.259  -8.508   0.396  1.00  0.00    -0.000 C 
BRANCH  40  41
HETATM   41  C   UNL     1     -22.900  -9.777  -0.363  1.00  0.00    -0.005 C 
HETATM   42  C   UNL     1     -23.962 -10.841  -0.154  1.00  0.00     0.005 C 
ENDBRANCH  40  41
ENDBRANCH  39  40
ENDBRANCH  38  39
ENDBRANCH  37  38
ENDBRANCH  36  37
ENDBRANCH  35  36
ENDBRANCH  34  35
ENDBRANCH  33  34
ENDBRANCH  32  33
ENDBRANCH  31  32
ENDBRANCH  30  31
ENDBRANCH  29  30
ENDBRANCH  28  29
ENDBRANCH  27  28
ENDBRANCH  26  27
ENDBRANCH  24  26
ENDBRANCH  23  24
ENDBRANCH  22  23
ENDBRANCH   1  22
TORSDOF 37
BEGIN_RES ARG D 557
REMARK  4 active torsions:
REMARK  status: ('A' for Active; 'I' for Inactive)
REMARK    1  A    between atoms: CA   and  CB  
REMARK    2  A    between atoms: CB   and  CG  
REMARK    3  A    between atoms: CG   and  CD  
REMARK    4  A    between atoms: CD   and  NE  
REMARK       I    between atoms: NE   and  CZ  
REMARK       I    between atoms: CZ   and  NH1 
REMARK       I    between atoms: CZ   and  NH2 
ROOT
ATOM      1  CA  ARG D 557     -26.217   2.705 -17.014  1.00 35.49     0.159 C 
ENDROOT
BRANCH   1   2
ATOM      2  CB  ARG D 557     -26.789   1.319 -17.183  1.00 35.49     0.034 C 
BRANCH   2   3
ATOM      3  CG  ARG D 557     -28.226   1.162 -16.928  1.00 35.49     0.027 C 
BRANCH   3   4
ATOM      4  CD  ARG D 557     -28.577  -0.213 -16.504  1.00 35.49     0.116 C 
BRANCH   4   5
ATOM      5  NE  ARG D 557     -27.481  -0.874 -15.846  1.00 35.49    -0.212 N 
ATOM      6  CZ  ARG D 557     -27.198  -2.155 -15.924  1.00 35.49     0.666 C 
ATOM      7  NH1 ARG D 557     -27.926  -3.000 -16.630  1.00 35.49    -0.235 N 
ATOM      8  NH2 ARG D 557     -26.152  -2.578 -15.276  1.00 35.49    -0.235 N 
ATOM      9  HH  ARG D 557     -28.617  -2.743 -17.065  1.00 35.49     0.174 HD
ATOM     10  HH  ARG D 557     -27.691  -3.824 -16.646  1.00 35.49     0.174 HD
ATOM     11  HH  ARG D 557     -25.696  -2.008 -14.834  1.00 35.49     0.174 HD
ATOM     12  HH  ARG D 557     -25.935  -3.398 -15.305  1.00 35.49     0.174 HD
ATOM     13  HE  ARG D 557     -27.003  -0.417 -15.311  1.00 35.49     0.178 HD
ENDBRANCH   4   5
ENDBRANCH   3   4
ENDBRANCH   2   3
ENDBRANCH   1   2
END_RES ARG D 557
BEGIN_RES GLU D 570
REMARK  3 active torsions:
REMARK  status: ('A' for Active; 'I' for Inactive)
REMARK    5  A    between atoms: CA   and  CB  
REMARK    6  A    between atoms: CB   and  CG  
REMARK    7  A    between atoms: CG   and  CD  
ROOT
ATOM     14  CA  GLU D 570     -18.033  -6.348 -13.375  1.00 32.92     0.160 C 
ENDROOT
BRANCH  14  15
ATOM     15  CB  GLU D 570     -19.500  -6.345 -13.794  1.00 32.92     0.043 C 
BRANCH  15  16
ATOM     16  CG  GLU D 570     -20.039  -7.586 -14.409  1.00 32.92     0.100 C 
BRANCH  16  17
ATOM     17  CD  GLU D 570     -20.752  -7.333 -15.717  1.00 32.92     0.185 C 
ATOM     18  OE1 GLU D 570     -20.552  -6.260 -16.318  1.00 32.92    -0.647 OA
ATOM     19  OE2 GLU D 570     -21.532  -8.211 -16.136  1.00 32.92    -0.647 OA
ENDBRANCH  16  17
ENDBRANCH  15  16
ENDBRANCH  14  15
END_RES GLU D 570
ENDMDL
MODEL 2
REMARK VINA RESULT:      -7.4      3.551     13.565
REMARK WARNING: 32 MAX_TORS EXCEEDED!!!
REMARK  37 active torsions:
REMARK  status: ('A' for Active; 'I' for Inactive)
REMARK    1  A    between atoms: C_2  and  C_3 
REMARK    2  A    between atoms: C_3  and  C_4 
REMARK    3  A    between atoms: C_4  and  C_5 
REMARK    4  A    between atoms: C_5  and  C_6 
REMARK    5  A    between atoms: C_6  and  C_7 
REMARK    6  A    between atoms: C_7  and  C_8 
REMARK    7  A    between atoms: C_8  and  C_9 
REMARK    8  A    between atoms: C_9  and  C_10 
REMARK    9  A    between atoms: C_10  and  C_11 
REMARK   10  A    between atoms: C_11  and  C_12 
REMARK   11  A    between atoms: C_12  and  C_13 
REMARK   12  A    between atoms: C_13  and  C_14 
REMARK   13  A    between atoms: C_14  and  C_15 
REMARK   14  A    between atoms: C_15  and  C_16 
REMARK   15  A    between atoms: C_16  and  C_17 
REMARK   16  A    between atoms: C_17  and  C_18 
REMARK   17  A    between atoms: C_18  and  O_20 
REMARK   18  A    between atoms: O_20  and  C_21 
REMARK   19  A    between atoms: C_21  and  C_22 
REMARK   20  A    between atoms: C_22  and  O_23 
REMARK   21  A    between atoms: O_23  and  C_24 
REMARK   22  A    between atoms: C_24  and  C_26 
REMARK   23  A    between atoms: C_26  and  C_27 
REMARK   24  A    between atoms: C_27  and  C_28 
REMARK   25  A    between atoms: C_28  and  C_29 
REMARK   26  A    between atoms: C_29  and  C_30 
REMARK   27  A    between atoms: C_30  and  C_31 
REMARK   28  A    between atoms: C_31  and  C_32 
REMARK   29  A    between atoms: C_32  and  C_33 
REMARK   30  A    between atoms: C_33  and  C_34 
REMARK   31  A    between atoms: C_34  and  C_35 
REMARK   32  A    between atoms: C_35  and  C_36 
REMARK   33  A    between atoms: C_36  and  C_37 
REMARK   34  A    between atoms: C_37  and  C_38 
REMARK   35  A    between atoms: C_38  and  C_39 
REMARK   36  A    between atoms: C_39  and  C_40 
REMARK   37  A    between atoms: C_40  and  C_41 
ROOT
HETATM    1  C   UNL     1     -23.880  -4.567 -10.088  1.00  0.00     0.205 C 
ENDROOT
BRANCH   1   2
HETATM    2  O   UNL     1     -23.409  -4.370  -8.741  1.00  0.00    -0.319 OA
BRANCH   2   3
HETATM    3  C   UNL     1     -22.066  -4.085  -8.658  1.00  0.00     0.258 C 
HETATM    4  O   UNL     1     -21.324  -3.988  -9.615  1.00  0.00    -0.265 OA
BRANCH   3   5
HETATM    5  C   UNL     1     -21.633  -3.853  -7.230  1.00  0.00     0.111 C 
BRANCH   5   6
HETATM    6  C   UNL     1     -20.243  -4.430  -6.971  1.00  0.00     0.010 C 
BRANCH   6   7
HETATM    7  C   UNL     1     -20.192  -5.267  -5.693  1.00  0.00     0.000 C 
BRANCH   7   8
HETATM    8  C   UNL     1     -21.483  -6.060  -5.517  1.00  0.00     0.000 C 
BRANCH   8   9
HETATM    9  C   UNL     1     -21.198  -7.407  -4.868  1.00  0.00     0.000 C 
BRANCH   9  10
HETATM   10  C   UNL     1     -21.062  -7.253  -3.361  1.00  0.00     0.000 C 
BRANCH  10  11
HETATM   11  C   UNL     1     -22.116  -6.294  -2.834  1.00  0.00     0.000 C 
BRANCH  11  12
HETATM   12  C   UNL     1     -22.303  -6.491  -1.340  1.00  0.00     0.000 C 
BRANCH  12  13
HETATM   13  C   UNL     1     -21.466  -7.665  -0.862  1.00  0.00     0.000 C 
BRANCH  13  14
HETATM   14  C   UNL     1     -22.225  -8.447   0.195  1.00  0.00     0.000 C 
BRANCH  14  15
HETATM   15  C   UNL     1     -22.203  -9.927  -0.143  1.00  0.00     0.000 C 
BRANCH  15  16
HETATM   16  C   UNL     1     -23.619 -10.420  -0.391  1.00  0.00     0.000 C 
BRANCH  16  17
HETATM   17  C   UNL     1     -23.585 -11.708  -1.197  1.00  0.00     0.000 C 
BRANCH  17  18
HETATM   18  C   UNL     1     -23.893 -12.893  -0.296  1.00  0.00     0.000 C 
BRANCH  18  19
HETATM   19  C   UNL     1     -23.123 -14.119  -0.761  1.00  0.00    -0.000 C 
BRANCH  19  20
HETATM   20  C   UNL     1     -21.876 -14.323   0.088  1.00  0.00    -0.005 C 
HETATM   21  C   UNL     1     -22.047 -13.671   1.448  1.00  0.00     0.005 C 
ENDBRANCH  19  20
ENDBRANCH  18  19
ENDBRANCH  17  18
ENDBRANCH  16  17
ENDBRANCH  15  16
ENDBRANCH  14  15
ENDBRANCH  13  14
ENDBRANCH  12  13
ENDBRANCH  11  12
ENDBRANCH  10  11
ENDBRANCH   9  10
ENDBRANCH   8   9
ENDBRANCH   7   8
ENDBRANCH   6   7
ENDBRANCH   5   6
ENDBRANCH   3   5
ENDBRANCH   2   3
ENDBRANCH   1   2
BRANCH   1  22
HETATM   22  C   UNL     1     -24.659  -3.345 -10.567  1.00  0.00     0.205 C 
BRANCH  22  23
HETATM   23  O   UNL     1     -23.912  -2.613 -11.559  1.00  0.00    -0.319 OA
BRANCH  23  24
HETATM   24  C   UNL     1     -24.391  -2.739 -12.831  1.00  0.00     0.258 C 
HETATM   25  O   UNL     1     -25.547  -3.035 -13.109  1.00  0.00    -0.265 OA
BRANCH  24  26
HETATM   26  C   UNL     1     -23.343  -2.391 -13.867  1.00  0.00     0.111 C 
BRANCH  26  27
HETATM   27  C   UNL     1     -22.739  -3.642 -14.495  1.00  0.00     0.010 C 
BRANCH  27  28
HETATM   28  C   UNL     1     -22.374  -4.699 -13.453  1.00  0.00     0.000 C 
BRANCH  28  29
HETATM   29  C   UNL     1     -23.246  -5.936 -13.622  1.00  0.00     0.000 C 
BRANCH  29  30
HETATM   30  C   UNL     1     -24.165  -5.785 -14.825  1.00  0.00     0.000 C 
BRANCH  30  31
HETATM   31  C   UNL     1     -24.131  -7.041 -15.682  1.00  0.00     0.000 C 
BRANCH  31  32
HETATM   32  C   UNL     1     -25.404  -7.145 -16.507  1.00  0.00     0.000 C 
BRANCH  32  33
HETATM   33  C   UNL     1     -26.504  -6.309 -15.876  1.00  0.00     0.000 C 
BRANCH  33  34
HETATM   34  C   UNL     1     -27.655  -7.200 -15.449  1.00  0.00     0.000 C 
BRANCH  34  35
HETATM   35  C   UNL     1     -28.969  -6.452 -15.581  1.00  0.00     0.000 C 
BRANCH  35  36
HETATM   36  C   UNL     1     -28.948  -5.588 -16.830  1.00  0.00     0.000 C 
BRANCH  36  37
HETATM   37  C   UNL     1     -29.788  -6.232 -17.919  1.00  0.00     0.000 C 
BRANCH  37  38
HETATM   38  C   UNL     1     -28.902  -7.048 -18.844  1.00  0.00     0.000 C 
BRANCH  38  39
HETATM   39  C   UNL     1     -27.712  -6.216 -19.293  1.00  0.00     0.000 C 
BRANCH  39  40
HETATM   40  C   UNL     1     -26.944  -6.943 -20.386  1.00  0.00    -0.000 C 
BRANCH  40  41
HETATM   41  C   UNL     1     -25.444  -6.772 -20.193  1.00  0.00    -0.005 C 
HETATM   42  C   UNL     1     -24.687  -7.882 -20.898  1.00  0.00     0.005 C 
ENDBRANCH  40  41
ENDBRANCH  39  40
ENDBRANCH  38  39
ENDBRANCH  37  38
ENDBRANCH  36  37
ENDBRANCH  35  36
ENDBRANCH  34  35
ENDBRANCH  33  34
ENDBRANCH  32  33
ENDBRANCH  31  32
ENDBRANCH  30  31
ENDBRANCH  29  30
ENDBRANCH  28  29
ENDBRANCH  27  28
ENDBRANCH  26  27
ENDBRANCH  24  26
ENDBRANCH  23  24
ENDBRANCH  22  23
ENDBRANCH   1  22
TORSDOF 37
BEGIN_RES ARG D 557
REMARK  4 active torsions:
REMARK  status: ('A' for Active; 'I' for Inactive)
REMARK    1  A    between atoms: CA   and  CB  
REMARK    2  A    between atoms: CB   and  CG  
REMARK    3  A    between atoms: CG   and  CD  
REMARK    4  A    between atoms: CD   and  NE  
REMARK       I    between atoms: NE   and  CZ  
REMARK       I    between atoms: CZ   and  NH1 
REMARK       I    between atoms: CZ   and  NH2 
ROOT
ATOM      1  CA  ARG D 557     -26.217   2.705 -17.014  1.00 35.49     0.159 C 
ENDROOT
BRANCH   1   2
ATOM      2  CB  ARG D 557     -26.789   1.319 -17.183  1.00 35.49     0.034 C 
BRANCH   2   3
ATOM      3  CG  ARG D 557     -28.237   1.224 -17.405  1.00 35.49     0.027 C 
BRANCH   3   4
ATOM      4  CD  ARG D 557     -28.881   0.231 -16.515  1.00 35.49     0.116 C 
BRANCH   4   5
ATOM      5  NE  ARG D 557     -27.946  -0.752 -16.034  1.00 35.49    -0.212 N 
ATOM      6  CZ  ARG D 557     -27.874  -2.003 -16.432  1.00 35.49     0.666 C 
ATOM      7  NH1 ARG D 557     -28.692  -2.507 -17.337  1.00 35.49    -0.235 N 
ATOM      8  NH2 ARG D 557     -26.949  -2.749 -15.902  1.00 35.49    -0.235 N 
ATOM      9  HH  ARG D 557     -29.307  -2.034 -17.701  1.00 35.49     0.174 HD
ATOM     10  HH  ARG D 557     -28.596  -3.329 -17.560  1.00 35.49     0.174 HD
ATOM     11  HH  ARG D 557     -26.430  -2.394 -15.325  1.00 35.49     0.174 HD
ATOM     12  HH  ARG D 557     -26.869  -3.560 -16.136  1.00 35.49     0.174 HD
ATOM     13  HE  ARG D 557     -27.429  -0.532 -15.396  1.00 35.49     0.178 HD
ENDBRANCH   4   5
ENDBRANCH   3   4
ENDBRANCH   2   3
ENDBRANCH   1   2
END_RES ARG D 557
BEGIN_RES GLU D 570
REMARK  3 active torsions:
REMARK  status: ('A' for Active; 'I' for Inactive)
REMARK    5  A    between atoms: CA   and  CB  
REMARK    6  A    between atoms: CB   and  CG  
REMARK    7  A    between atoms: CG   and  CD  
ROOT
ATOM     14  CA  GLU D 570     -18.033  -6.348 -13.375  1.00 32.92     0.160 C 
ENDROOT
BRANCH  14  15
ATOM     15  CB  GLU D 570     -19.500  -6.345 -13.794  1.00 32.92     0.043 C 
BRANCH  15  16
ATOM     16  CG  GLU D 570     -20.089  -7.636 -14.234  1.00 32.92     0.100 C 
BRANCH  16  17
ATOM     17  CD  GLU D 570     -20.567  -7.608 -15.667  1.00 32.92     0.185 C 
ATOM     18  OE1 GLU D 570     -20.809  -8.684 -16.246  1.00 32.92    -0.647 OA
ATOM     19  OE2 GLU D 570     -20.686  -6.497 -16.222  1.00 32.92    -0.647 OA
ENDBRANCH  16  17
ENDBRANCH  15  16
ENDBRANCH  14  15
END_RES GLU D 570
ENDMDL
MODEL 3
REMARK VINA RESULT:      -7.3      3.384     13.779
REMARK WARNING: 32 MAX_TORS EXCEEDED!!!
REMARK  37 active torsions:
REMARK  status: ('A' for Active; 'I' for Inactive)
REMARK    1  A    between atoms: C_2  and  C_3 
REMARK    2  A    between atoms: C_3  and  C_4 
REMARK    3  A    between atoms: C_4  and  C_5 
REMARK    4  A    between atoms: C_5  and  C_6 
REMARK    5  A    between atoms: C_6  and  C_7 
REMARK    6  A    between atoms: C_7  and  C_8 
REMARK    7  A    between atoms: C_8  and  C_9 
REMARK    8  A    between atoms: C_9  and  C_10 
REMARK    9  A    between atoms: C_10  and  C_11 
REMARK   10  A    between atoms: C_11  and  C_12 
REMARK   11  A    between atoms: C_12  and  C_13 
REMARK   12  A    between atoms: C_13  and  C_14 
REMARK   13  A    between atoms: C_14  and  C_15 
REMARK   14  A    between atoms: C_15  and  C_16 
REMARK   15  A    between atoms: C_16  and  C_17 
REMARK   16  A    between atoms: C_17  and  C_18 
REMARK   17  A    between atoms: C_18  and  O_20 
REMARK   18  A    between atoms: O_20  and  C_21 
REMARK   19  A    between atoms: C_21  and  C_22 
REMARK   20  A    between atoms: C_22  and  O_23 
REMARK   21  A    between atoms: O_23  and  C_24 
REMARK   22  A    between atoms: C_24  and  C_26 
REMARK   23  A    between atoms: C_26  and  C_27 
REMARK   24  A    between atoms: C_27  and  C_28 
REMARK   25  A    between atoms: C_28  and  C_29 
REMARK   26  A    between atoms: C_29  and  C_30 
REMARK   27  A    between atoms: C_30  and  C_31 
REMARK   28  A    between atoms: C_31  and  C_32 
REMARK   29  A    between atoms: C_32  and  C_33 
REMARK   30  A    between atoms: C_33  and  C_34 
REMARK   31  A    between atoms: C_34  and  C_35 
REMARK   32  A    between atoms: C_35  and  C_36 
REMARK   33  A    between atoms: C_36  and  C_37 
REMARK   34  A    between atoms: C_37  and  C_38 
REMARK   35  A    between atoms: C_38  and  C_39 
REMARK   36  A    between atoms: C_39  and  C_40 
REMARK   37  A    between atoms: C_40  and  C_41 
ROOT
HETATM    1  C   UNL     1     -23.958  -4.062 -10.862  1.00  0.00     0.205 C 
ENDROOT
BRANCH   1   2
HETATM    2  O   UNL     1     -23.571  -3.541  -9.576  1.00  0.00    -0.319 OA
BRANCH   2   3
HETATM    3  C   UNL     1     -22.379  -4.044  -9.109  1.00  0.00     0.258 C 
HETATM    4  O   UNL     1     -21.374  -4.163  -9.780  1.00  0.00    -0.265 OA
BRANCH   3   5
HETATM    5  C   UNL     1     -22.455  -4.381  -7.639  1.00  0.00     0.111 C 
BRANCH   5   6
HETATM    6  C   UNL     1     -21.071  -4.362  -6.993  1.00  0.00     0.010 C 
BRANCH   6   7
HETATM    7  C   UNL     1     -20.621  -5.753  -6.545  1.00  0.00     0.000 C 
BRANCH   7   8
HETATM    8  C   UNL     1     -21.622  -6.353  -5.565  1.00  0.00     0.000 C 
BRANCH   8   9
HETATM    9  C   UNL     1     -21.253  -5.988  -4.134  1.00  0.00     0.000 C 
BRANCH   9  10
HETATM   10  C   UNL     1     -21.190  -7.236  -3.267  1.00  0.00     0.000 C 
BRANCH  10  11
HETATM   11  C   UNL     1     -21.546  -6.895  -1.829  1.00  0.00     0.000 C 
BRANCH  11  12
HETATM   12  C   UNL     1     -21.388  -8.120  -0.946  1.00  0.00     0.000 C 
BRANCH  12  13
HETATM   13  C   UNL     1     -22.740  -8.549  -0.405  1.00  0.00     0.000 C 
BRANCH  13  14
HETATM   14  C   UNL     1     -22.673  -9.985   0.084  1.00  0.00     0.000 C 
BRANCH  14  15
HETATM   15  C   UNL     1     -24.043 -10.630  -0.023  1.00  0.00     0.000 C 
BRANCH  15  16
HETATM   16  C   UNL     1     -23.995 -11.784  -1.009  1.00  0.00     0.000 C 
BRANCH  16  17
HETATM   17  C   UNL     1     -22.552 -12.186  -1.269  1.00  0.00     0.000 C 
BRANCH  17  18
HETATM   18  C   UNL     1     -22.440 -12.880  -2.617  1.00  0.00     0.000 C 
BRANCH  18  19
HETATM   19  C   UNL     1     -21.444 -12.147  -3.502  1.00  0.00    -0.000 C 
BRANCH  19  20
HETATM   20  C   UNL     1     -22.057 -10.865  -4.051  1.00  0.00    -0.005 C 
HETATM   21  C   UNL     1     -21.183 -10.285  -5.147  1.00  0.00     0.005 C 
ENDBRANCH  19  20
ENDBRANCH  18  19
ENDBRANCH  17  18
ENDBRANCH  16  17
ENDBRANCH  15  16
ENDBRANCH  14  15
ENDBRANCH  13  14
ENDBRANCH  12  13
ENDBRANCH  11  12
ENDBRANCH  10  11
ENDBRANCH   9  10
ENDBRANCH   8   9
ENDBRANCH   7   8
ENDBRANCH   6   7
ENDBRANCH   5   6
ENDBRANCH   3   5
ENDBRANCH   2   3
ENDBRANCH   1   2
BRANCH   1  22
HETATM   22  C   UNL     1     -23.947  -2.956 -11.913  1.00  0.00     0.205 C 
BRANCH  22  23
HETATM   23  O   UNL     1     -24.495  -3.424 -13.162  1.00  0.00    -0.319 OA
BRANCH  23  24
HETATM   24  C   UNL     1     -23.592  -3.488 -14.184  1.00  0.00     0.258 C 
HETATM   25  O   UNL     1     -23.442  -2.616 -15.031  1.00  0.00    -0.265 OA
BRANCH  24  26
HETATM   26  C   UNL     1     -22.734  -4.733 -14.103  1.00  0.00     0.111 C 
BRANCH  26  27
HETATM   27  C   UNL     1     -23.585  -5.992 -13.987  1.00  0.00     0.010 C 
BRANCH  27  28
HETATM   28  C   UNL     1     -24.169  -6.427 -15.330  1.00  0.00     0.000 C 
BRANCH  28  29
HETATM   29  C   UNL     1     -25.642  -6.051 -15.418  1.00  0.00     0.000 C 
BRANCH  29  30
HETATM   30  C   UNL     1     -26.468  -7.227 -15.918  1.00  0.00     0.000 C 
BRANCH  30  31
HETATM   31  C   UNL     1     -27.903  -7.117 -15.428  1.00  0.00     0.000 C 
BRANCH  31  32
HETATM   32  C   UNL     1     -28.403  -5.691 -15.594  1.00  0.00     0.000 C 
BRANCH  32  33
HETATM   33  C   UNL     1     -29.911  -5.685 -15.771  1.00  0.00     0.000 C 
BRANCH  33  34
HETATM   34  C   UNL     1     -30.286  -6.370 -17.072  1.00  0.00     0.000 C 
BRANCH  34  35
HETATM   35  C   UNL     1     -29.553  -5.722 -18.232  1.00  0.00     0.000 C 
BRANCH  35  36
HETATM   36  C   UNL     1     -28.771  -6.773 -19.000  1.00  0.00     0.000 C 
BRANCH  36  37
HETATM   37  C   UNL     1     -27.353  -6.287 -19.245  1.00  0.00     0.000 C 
BRANCH  37  38
HETATM   38  C   UNL     1     -26.788  -6.940 -20.495  1.00  0.00     0.000 C 
BRANCH  38  39
HETATM   39  C   UNL     1     -25.298  -6.660 -20.601  1.00  0.00     0.000 C 
BRANCH  39  40
HETATM   40  C   UNL     1     -24.555  -7.919 -21.019  1.00  0.00    -0.000 C 
BRANCH  40  41
HETATM   41  C   UNL     1     -23.991  -7.768 -22.425  1.00  0.00    -0.005 C 
HETATM   42  C   UNL     1     -22.686  -8.531 -22.559  1.00  0.00     0.005 C 
ENDBRANCH  40  41
ENDBRANCH  39  40
ENDBRANCH  38  39
ENDBRANCH  37  38
ENDBRANCH  36  37
ENDBRANCH  35  36
ENDBRANCH  34  35
ENDBRANCH  33  34
ENDBRANCH  32  33
ENDBRANCH  31  32
ENDBRANCH  30  31
ENDBRANCH  29  30
ENDBRANCH  28  29
ENDBRANCH  27  28
ENDBRANCH  26  27
ENDBRANCH  24  26
ENDBRANCH  23  24
ENDBRANCH  22  23
ENDBRANCH   1  22
TORSDOF 37
BEGIN_RES ARG D 557
REMARK  4 active torsions:
REMARK  status: ('A' for Active; 'I' for Inactive)
REMARK    1  A    between atoms: CA   and  CB  
REMARK    2  A    between atoms: CB   and  CG  
REMARK    3  A    between atoms: CG   and  CD  
REMARK    4  A    between atoms: CD   and  NE  
REMARK       I    between atoms: NE   and  CZ  
REMARK       I    between atoms: CZ   and  NH1 
REMARK       I    between atoms: CZ   and  NH2 
ROOT
ATOM      1  CA  ARG D 557     -26.217   2.705 -17.014  1.00 35.49     0.159 C 
ENDROOT
BRANCH   1   2
ATOM      2  CB  ARG D 557     -26.789   1.319 -17.183  1.00 35.49     0.034 C 
BRANCH   2   3
ATOM      3  CG  ARG D 557     -28.247   1.218 -17.321  1.00 35.49     0.027 C 
BRANCH   3   4
ATOM      4  CD  ARG D 557     -28.814   0.105 -16.526  1.00 35.49     0.116 C 
BRANCH   4   5
ATOM      5  NE  ARG D 557     -27.790  -0.696 -15.908  1.00 35.49    -0.212 N 
ATOM      6  CZ  ARG D 557     -27.548  -1.962 -16.163  1.00 35.49     0.666 C 
ATOM      7  NH1 ARG D 557     -28.255  -2.658 -17.034  1.00 35.49    -0.235 N 
ATOM      8  NH2 ARG D 557     -26.564  -2.526 -15.524  1.00 35.49    -0.235 N 
ATOM      9  HH  ARG D 557     -28.905  -2.307 -17.468  1.00 35.49     0.174 HD
ATOM     10  HH  ARG D 557     -28.049  -3.480 -17.162  1.00 35.49     0.174 HD
ATOM     11  HH  ARG D 557     -26.121  -2.050 -14.973  1.00 35.49     0.174 HD
ATOM     12  HH  ARG D 557     -26.376  -3.340 -15.665  1.00 35.49     0.174 HD
ATOM     13  HE  ARG D 557     -27.334  -0.347 -15.281  1.00 35.49     0.178 HD
ENDBRANCH   4   5
ENDBRANCH   3   4
ENDBRANCH   2   3
ENDBRANCH   1   2
END_RES ARG D 557
BEGIN_RES GLU D 570
REMARK  3 active torsions:
REMARK  status: ('A' for Active; 'I' for Inactive)
REMARK    5  A    between atoms: CA   and  CB  
REMARK    6  A    between atoms: CB   and  CG  
REMARK    7  A    between atoms: CG   and  CD  
ROOT
ATOM     14  CA  GLU D 570     -18.033  -6.348 -13.375  1.00 32.92     0.160 C 
ENDROOT
BRANCH  14  15
ATOM     15  CB  GLU D 570     -19.500  -6.345 -13.794  1.00 32.92     0.043 C 
BRANCH  15  16
ATOM     16  CG  GLU D 570     -20.081  -7.630 -14.261  1.00 32.92     0.100 C 
BRANCH  16  17
ATOM     17  CD  GLU D 570     -20.611  -7.558 -15.675  1.00 32.92     0.185 C 
ATOM     18  OE1 GLU D 570     -20.543  -6.478 -16.292  1.00 32.92    -0.647 OA
ATOM     19  OE2 GLU D 570     -21.115  -8.588 -16.163  1.00 32.92    -0.647 OA
ENDBRANCH  16  17
ENDBRANCH  15  16
ENDBRANCH  14  15
END_RES GLU D 570
ENDMDL
MODEL 4
REMARK VINA RESULT:      -7.2      5.812     13.156
REMARK WARNING: 32 MAX_TORS EXCEEDED!!!
REMARK  37 active torsions:
REMARK  status: ('A' for Active; 'I' for Inactive)
REMARK    1  A    between atoms: C_2  and  C_3 
REMARK    2  A    between atoms: C_3  and  C_4 
REMARK    3  A    between atoms: C_4  and  C_5 
REMARK    4  A    between atoms: C_5  and  C_6 
REMARK    5  A    between atoms: C_6  and  C_7 
REMARK    6  A    between atoms: C_7  and  C_8 
REMARK    7  A    between atoms: C_8  and  C_9 
REMARK    8  A    between atoms: C_9  and  C_10 
REMARK    9  A    between atoms: C_10  and  C_11 
REMARK   10  A    between atoms: C_11  and  C_12 
REMARK   11  A    between atoms: C_12  and  C_13 
REMARK   12  A    between atoms: C_13  and  C_14 
REMARK   13  A    between atoms: C_14  and  C_15 
REMARK   14  A    between atoms: C_15  and  C_16 
REMARK   15  A    between atoms: C_16  and  C_17 
REMARK   16  A    between atoms: C_17  and  C_18 
REMARK   17  A    between atoms: C_18  and  O_20 
REMARK   18  A    between atoms: O_20  and  C_21 
REMARK   19  A    between atoms: C_21  and  C_22 
REMARK   20  A    between atoms: C_22  and  O_23 
REMARK   21  A    between atoms: O_23  and  C_24 
REMARK   22  A    between atoms: C_24  and  C_26 
REMARK   23  A    between atoms: C_26  and  C_27 
REMARK   24  A    between atoms: C_27  and  C_28 
REMARK   25  A    between atoms: C_28  and  C_29 
REMARK   26  A    between atoms: C_29  and  C_30 
REMARK   27  A    between atoms: C_30  and  C_31 
REMARK   28  A    between atoms: C_31  and  C_32 
REMARK   29  A    between atoms: C_32  and  C_33 
REMARK   30  A    between atoms: C_33  and  C_34 
REMARK   31  A    between atoms: C_34  and  C_35 
REMARK   32  A    between atoms: C_35  and  C_36 
REMARK   33  A    between atoms: C_36  and  C_37 
REMARK   34  A    between atoms: C_37  and  C_38 
REMARK   35  A    between atoms: C_38  and  C_39 
REMARK   36  A    between atoms: C_39  and  C_40 
REMARK   37  A    between atoms: C_40  and  C_41 
ROOT
HETATM    1  C   UNL     1     -17.058 -12.717  -1.929  1.00  0.00     0.205 C 
ENDROOT
BRANCH   1   2
HETATM    2  O   UNL     1     -17.494 -11.694  -1.012  1.00  0.00    -0.319 OA
BRANCH   2   3
HETATM    3  C   UNL     1     -18.034 -12.187   0.154  1.00  0.00     0.258 C 
HETATM    4  O   UNL     1     -17.384 -12.628   1.079  1.00  0.00    -0.265 OA
BRANCH   3   5
HETATM    5  C   UNL     1     -19.539 -12.062   0.165  1.00  0.00     0.111 C 
BRANCH   5   6
HETATM    6  C   UNL     1     -19.976 -10.611  -0.022  1.00  0.00     0.010 C 
BRANCH   6   7
HETATM    7  C   UNL     1     -20.827 -10.107   1.144  1.00  0.00     0.000 C 
BRANCH   7   8
HETATM    8  C   UNL     1     -21.094  -8.611   1.009  1.00  0.00     0.000 C 
BRANCH   8   9
HETATM    9  C   UNL     1     -22.478  -8.366   0.424  1.00  0.00     0.000 C 
BRANCH   9  10
HETATM   10  C   UNL     1     -22.426  -7.261  -0.619  1.00  0.00     0.000 C 
BRANCH  10  11
HETATM   11  C   UNL     1     -21.349  -7.560  -1.648  1.00  0.00     0.000 C 
BRANCH  11  12
HETATM   12  C   UNL     1     -21.434  -6.571  -2.797  1.00  0.00     0.000 C 
BRANCH  12  13
HETATM   13  C   UNL     1     -21.948  -7.267  -4.045  1.00  0.00     0.000 C 
BRANCH  13  14
HETATM   14  C   UNL     1     -21.755  -6.372  -5.256  1.00  0.00     0.000 C 
BRANCH  14  15
HETATM   15  C   UNL     1     -20.282  -6.304  -5.617  1.00  0.00     0.000 C 
BRANCH  15  16
HETATM   16  C   UNL     1     -20.006  -5.051  -6.429  1.00  0.00     0.000 C 
BRANCH  16  17
HETATM   17  C   UNL     1     -20.122  -5.357  -7.913  1.00  0.00     0.000 C 
BRANCH  17  18
HETATM   18  C   UNL     1     -20.151  -4.063  -8.710  1.00  0.00     0.000 C 
BRANCH  18  19
HETATM   19  C   UNL     1     -21.243  -4.124  -9.767  1.00  0.00    -0.000 C 
BRANCH  19  20
HETATM   20  C   UNL     1     -22.557  -4.589  -9.155  1.00  0.00    -0.005 C 
HETATM   21  C   UNL     1     -23.683  -4.477 -10.165  1.00  0.00     0.005 C 
ENDBRANCH  19  20
ENDBRANCH  18  19
ENDBRANCH  17  18
ENDBRANCH  16  17
ENDBRANCH  15  16
ENDBRANCH  14  15
ENDBRANCH  13  14
ENDBRANCH  12  13
ENDBRANCH  11  12
ENDBRANCH  10  11
ENDBRANCH   9  10
ENDBRANCH   8   9
ENDBRANCH   7   8
ENDBRANCH   6   7
ENDBRANCH   5   6
ENDBRANCH   3   5
ENDBRANCH   2   3
ENDBRANCH   1   2
BRANCH   1  22
HETATM   22  C   UNL     1     -15.548 -12.641  -2.136  1.00  0.00     0.205 C 
BRANCH  22  23
HETATM   23  O   UNL     1     -15.186 -13.079  -3.462  1.00  0.00    -0.319 OA
BRANCH  23  24
HETATM   24  C   UNL     1     -13.901 -12.790  -3.819  1.00  0.00     0.258 C 
HETATM   25  O   UNL     1     -12.911 -13.151  -3.194  1.00  0.00    -0.265 OA
BRANCH  24  26
HETATM   26  C   UNL     1     -13.835 -12.033  -5.129  1.00  0.00     0.111 C 
BRANCH  26  27
HETATM   27  C   UNL     1     -14.764 -12.641  -6.173  1.00  0.00     0.010 C 
BRANCH  27  28
HETATM   28  C   UNL     1     -15.833 -11.658  -6.646  1.00  0.00     0.000 C 
BRANCH  28  29
HETATM   29  C   UNL     1     -15.761 -10.366  -5.843  1.00  0.00     0.000 C 
BRANCH  29  30
HETATM   30  C   UNL     1     -17.143  -9.966  -5.345  1.00  0.00     0.000 C 
BRANCH  30  31
HETATM   31  C   UNL     1     -17.090  -9.590  -3.873  1.00  0.00     0.000 C 
BRANCH  31  32
HETATM   32  C   UNL     1     -18.485  -9.255  -3.370  1.00  0.00     0.000 C 
BRANCH  32  33
HETATM   33  C   UNL     1     -19.531  -9.885  -4.273  1.00  0.00     0.000 C 
BRANCH  33  34
HETATM   34  C   UNL     1     -20.350 -10.897  -3.493  1.00  0.00     0.000 C 
BRANCH  34  35
HETATM   35  C   UNL     1     -21.551 -11.335  -4.311  1.00  0.00     0.000 C 
BRANCH  35  36
HETATM   36  C   UNL     1     -22.833 -10.919  -3.611  1.00  0.00     0.000 C 
BRANCH  36  37
HETATM   37  C   UNL     1     -22.652 -11.007  -2.105  1.00  0.00     0.000 C 
BRANCH  37  38
HETATM   38  C   UNL     1     -23.982 -11.317  -1.440  1.00  0.00     0.000 C 
BRANCH  38  39
HETATM   39  C   UNL     1     -23.753 -11.784  -0.012  1.00  0.00     0.000 C 
BRANCH  39  40
HETATM   40  C   UNL     1     -23.465 -13.277   0.013  1.00  0.00    -0.000 C 
BRANCH  40  41
HETATM   41  C   UNL     1     -24.316 -14.005  -1.018  1.00  0.00    -0.005 C 
HETATM   42  C   UNL     1     -24.544 -15.445  -0.600  1.00  0.00     0.005 C 
ENDBRANCH  40  41
ENDBRANCH  39  40
ENDBRANCH  38  39
ENDBRANCH  37  38
ENDBRANCH  36  37
ENDBRANCH  35  36
ENDBRANCH  34  35
ENDBRANCH  33  34
ENDBRANCH  32  33
ENDBRANCH  31  32
ENDBRANCH  30  31
ENDBRANCH  29  30
ENDBRANCH  28  29
ENDBRANCH  27  28
ENDBRANCH  26  27
ENDBRANCH  24  26
ENDBRANCH  23  24
ENDBRANCH  22  23
ENDBRANCH   1  22
TORSDOF 37
BEGIN_RES ARG D 557
REMARK  4 active torsions:
REMARK  status: ('A' for Active; 'I' for Inactive)
REMARK    1  A    between atoms: CA   and  CB  
REMARK    2  A    between atoms: CB   and  CG  
REMARK    3  A    between atoms: CG   and  CD  
REMARK    4  A    between atoms: CD   and  NE  
REMARK       I    between atoms: NE   and  CZ  
REMARK       I    between atoms: CZ   and  NH1 
REMARK       I    between atoms: CZ   and  NH2 
ROOT
ATOM      1  CA  ARG D 557     -26.217   2.705 -17.014  1.00 35.49     0.159 C 
ENDROOT
BRANCH   1   2
ATOM      2  CB  ARG D 557     -26.789   1.319 -17.183  1.00 35.49     0.034 C 
BRANCH   2   3
ATOM      3  CG  ARG D 557     -25.861   0.195 -17.009  1.00 35.49     0.027 C 
BRANCH   3   4
ATOM      4  CD  ARG D 557     -24.820   0.475 -15.993  1.00 35.49     0.116 C 
BRANCH   4   5
ATOM      5  NE  ARG D 557     -24.904  -0.419 -14.869  1.00 35.49    -0.212 N 
ATOM      6  CZ  ARG D 557     -24.080  -1.410 -14.612  1.00 35.49     0.666 C 
ATOM      7  NH1 ARG D 557     -23.060  -1.705 -15.396  1.00 35.49    -0.235 N 
ATOM      8  NH2 ARG D 557     -24.296  -2.106 -13.534  1.00 35.49    -0.235 N 
ATOM      9  HH  ARG D 557     -22.897  -1.258 -16.110  1.00 35.49     0.174 HD
ATOM     10  HH  ARG D 557     -22.554  -2.361 -15.177  1.00 35.49     0.174 HD
ATOM     11  HH  ARG D 557     -24.958  -1.888 -13.043  1.00 35.49     0.174 HD
ATOM     12  HH  ARG D 557     -23.783  -2.751 -13.333  1.00 35.49     0.174 HD
ATOM     13  HE  ARG D 557     -25.575  -0.347 -14.351  1.00 35.49     0.178 HD
ENDBRANCH   4   5
ENDBRANCH   3   4
ENDBRANCH   2   3
ENDBRANCH   1   2
END_RES ARG D 557
BEGIN_RES GLU D 570
REMARK  3 active torsions:
REMARK  status: ('A' for Active; 'I' for Inactive)
REMARK    5  A    between atoms: CA   and  CB  
REMARK    6  A    between atoms: CB   and  CG  
REMARK    7  A    between atoms: CG   and  CD  
ROOT
ATOM     14  CA  GLU D 570     -18.033  -6.348 -13.375  1.00 32.92     0.160 C 
ENDROOT
BRANCH  14  15
ATOM     15  CB  GLU D 570     -19.500  -6.345 -13.794  1.00 32.92     0.043 C 
BRANCH  15  16
ATOM     16  CG  GLU D 570     -20.452  -5.580 -12.948  1.00 32.92     0.100 C 
BRANCH  16  17
ATOM     17  CD  GLU D 570     -21.739  -5.245 -13.664  1.00 32.92     0.185 C 
ATOM     18  OE1 GLU D 570     -22.221  -4.103 -13.541  1.00 32.92    -0.647 OA
ATOM     19  OE2 GLU D 570     -22.281  -6.140 -14.343  1.00 32.92    -0.647 OA
ENDBRANCH  16  17
ENDBRANCH  15  16
ENDBRANCH  14  15
END_RES GLU D 570
ENDMDL
MODEL 5
REMARK VINA RESULT:      -7.2      5.031     14.158
REMARK WARNING: 32 MAX_TORS EXCEEDED!!!
REMARK  37 active torsions:
REMARK  status: ('A' for Active; 'I' for Inactive)
REMARK    1  A    between atoms: C_2  and  C_3 
REMARK    2  A    between atoms: C_3  and  C_4 
REMARK    3  A    between atoms: C_4  and  C_5 
REMARK    4  A    between atoms: C_5  and  C_6 
REMARK    5  A    between atoms: C_6  and  C_7 
REMARK    6  A    between atoms: C_7  and  C_8 
REMARK    7  A    between atoms: C_8  and  C_9 
REMARK    8  A    between atoms: C_9  and  C_10 
REMARK    9  A    between atoms: C_10  and  C_11 
REMARK   10  A    between atoms: C_11  and  C_12 
REMARK   11  A    between atoms: C_12  and  C_13 
REMARK   12  A    between atoms: C_13  and  C_14 
REMARK   13  A    between atoms: C_14  and  C_15 
REMARK   14  A    between atoms: C_15  and  C_16 
REMARK   15  A    between atoms: C_16  and  C_17 
REMARK   16  A    between atoms: C_17  and  C_18 
REMARK   17  A    between atoms: C_18  and  O_20 
REMARK   18  A    between atoms: O_20  and  C_21 
REMARK   19  A    between atoms: C_21  and  C_22 
REMARK   20  A    between atoms: C_22  and  O_23 
REMARK   21  A    between atoms: O_23  and  C_24 
REMARK   22  A    between atoms: C_24  and  C_26 
REMARK   23  A    between atoms: C_26  and  C_27 
REMARK   24  A    between atoms: C_27  and  C_28 
REMARK   25  A    between atoms: C_28  and  C_29 
REMARK   26  A    between atoms: C_29  and  C_30 
REMARK   27  A    between atoms: C_30  and  C_31 
REMARK   28  A    between atoms: C_31  and  C_32 
REMARK   29  A    between atoms: C_32  and  C_33 
REMARK   30  A    between atoms: C_33  and  C_34 
REMARK   31  A    between atoms: C_34  and  C_35 
REMARK   32  A    between atoms: C_35  and  C_36 
REMARK   33  A    between atoms: C_36  and  C_37 
REMARK   34  A    between atoms: C_37  and  C_38 
REMARK   35  A    between atoms: C_38  and  C_39 
REMARK   36  A    between atoms: C_39  and  C_40 
REMARK   37  A    between atoms: C_40  and  C_41 
ROOT
HETATM    1  C   UNL     1     -20.663 -10.277   1.093  1.00  0.00     0.205 C 
ENDROOT
BRANCH   1   2
HETATM    2  O   UNL     1     -20.524 -10.764  -0.256  1.00  0.00    -0.319 OA
BRANCH   2   3
HETATM    3  C   UNL     1     -21.628 -11.440  -0.719  1.00  0.00     0.258 C 
HETATM    4  O   UNL     1     -22.599 -11.714  -0.043  1.00  0.00    -0.265 OA
BRANCH   3   5
HETATM    5  C   UNL     1     -21.511 -11.756  -2.191  1.00  0.00     0.111 C 
BRANCH   5   6
HETATM    6  C   UNL     1     -22.526 -10.962  -3.011  1.00  0.00     0.010 C 
BRANCH   6   7
HETATM    7  C   UNL     1     -22.072 -10.759  -4.457  1.00  0.00     0.000 C 
BRANCH   7   8
HETATM    8  C   UNL     1     -21.472 -12.045  -5.017  1.00  0.00     0.000 C 
BRANCH   8   9
HETATM    9  C   UNL     1     -21.509 -12.032  -6.539  1.00  0.00     0.000 C 
BRANCH   9  10
HETATM   10  C   UNL     1     -20.469 -12.988  -7.103  1.00  0.00     0.000 C 
BRANCH  10  11
HETATM   11  C   UNL     1     -19.310 -12.208  -7.702  1.00  0.00     0.000 C 
BRANCH  11  12
HETATM   12  C   UNL     1     -18.006 -12.620  -7.041  1.00  0.00     0.000 C 
BRANCH  12  13
HETATM   13  C   UNL     1     -17.752 -11.762  -5.815  1.00  0.00     0.000 C 
BRANCH  13  14
HETATM   14  C   UNL     1     -17.654 -10.300  -6.214  1.00  0.00     0.000 C 
BRANCH  14  15
HETATM   15  C   UNL     1     -18.501  -9.453  -5.282  1.00  0.00     0.000 C 
BRANCH  15  16
HETATM   16  C   UNL     1     -18.631 -10.141  -3.933  1.00  0.00     0.000 C 
BRANCH  16  17
HETATM   17  C   UNL     1     -17.980  -9.292  -2.854  1.00  0.00     0.000 C 
BRANCH  17  18
HETATM   18  C   UNL     1     -16.524  -9.693  -2.684  1.00  0.00     0.000 C 
BRANCH  18  19
HETATM   19  C   UNL     1     -16.415 -11.195  -2.469  1.00  0.00    -0.000 C 
BRANCH  19  20
HETATM   20  C   UNL     1     -16.951 -11.580  -1.097  1.00  0.00    -0.005 C 
HETATM   21  C   UNL     1     -15.809 -11.787  -0.119  1.00  0.00     0.005 C 
ENDBRANCH  19  20
ENDBRANCH  18  19
ENDBRANCH  17  18
ENDBRANCH  16  17
ENDBRANCH  15  16
ENDBRANCH  14  15
ENDBRANCH  13  14
ENDBRANCH  12  13
ENDBRANCH  11  12
ENDBRANCH  10  11
ENDBRANCH   9  10
ENDBRANCH   8   9
ENDBRANCH   7   8
ENDBRANCH   6   7
ENDBRANCH   5   6
ENDBRANCH   3   5
ENDBRANCH   2   3
ENDBRANCH   1   2
BRANCH   1  22
HETATM   22  C   UNL     1     -21.186  -8.843   1.093  1.00  0.00     0.205 C 
BRANCH  22  23
HETATM   23  O   UNL     1     -21.325  -8.344  -0.253  1.00  0.00    -0.319 OA
BRANCH  23  24
HETATM   24  C   UNL     1     -22.406  -7.533  -0.444  1.00  0.00     0.258 C 
HETATM   25  O   UNL     1     -23.416  -7.551   0.249  1.00  0.00    -0.265 OA
BRANCH  24  26
HETATM   26  C   UNL     1     -22.180  -6.546  -1.569  1.00  0.00     0.111 C 
BRANCH  26  27
HETATM   27  C   UNL     1     -21.204  -7.091  -2.605  1.00  0.00     0.010 C 
BRANCH  27  28
HETATM   28  C   UNL     1     -21.200  -6.268  -3.892  1.00  0.00     0.000 C 
BRANCH  28  29
HETATM   29  C   UNL     1     -21.450  -7.163  -5.098  1.00  0.00     0.000 C 
BRANCH  29  30
HETATM   30  C   UNL     1     -21.056  -6.453  -6.384  1.00  0.00     0.000 C 
BRANCH  30  31
HETATM   31  C   UNL     1     -20.273  -5.187  -6.075  1.00  0.00     0.000 C 
BRANCH  31  32
HETATM   32  C   UNL     1     -19.357  -4.842  -7.238  1.00  0.00     0.000 C 
BRANCH  32  33
HETATM   33  C   UNL     1     -20.022  -3.817  -8.140  1.00  0.00     0.000 C 
BRANCH  33  34
HETATM   34  C   UNL     1     -20.286  -4.420  -9.508  1.00  0.00     0.000 C 
BRANCH  34  35
HETATM   35  C   UNL     1     -21.765  -4.716  -9.670  1.00  0.00     0.000 C 
BRANCH  35  36
HETATM   36  C   UNL     1     -22.582  -3.722  -8.862  1.00  0.00     0.000 C 
BRANCH  36  37
HETATM   37  C   UNL     1     -23.865  -3.385  -9.601  1.00  0.00     0.000 C 
BRANCH  37  38
HETATM   38  C   UNL     1     -23.840  -3.995 -10.992  1.00  0.00     0.000 C 
BRANCH  38  39
HETATM   39  C   UNL     1     -23.762  -2.898 -12.041  1.00  0.00     0.000 C 
BRANCH  39  40
HETATM   40  C   UNL     1     -24.691  -3.215 -13.202  1.00  0.00    -0.000 C 
BRANCH  40  41
HETATM   41  C   UNL     1     -24.623  -2.120 -14.258  1.00  0.00    -0.005 C 
HETATM   42  C   UNL     1     -23.204  -1.960 -14.769  1.00  0.00     0.005 C 
ENDBRANCH  40  41
ENDBRANCH  39  40
ENDBRANCH  38  39
ENDBRANCH  37  38
ENDBRANCH  36  37
ENDBRANCH  35  36
ENDBRANCH  34  35
ENDBRANCH  33  34
ENDBRANCH  32  33
ENDBRANCH  31  32
ENDBRANCH  30  31
ENDBRANCH  29  30
ENDBRANCH  28  29
ENDBRANCH  27  28
ENDBRANCH  26  27
ENDBRANCH  24  26
ENDBRANCH  23  24
ENDBRANCH  22  23
ENDBRANCH   1  22
TORSDOF 37
BEGIN_RES ARG D 557
REMARK  4 active torsions:
REMARK  status: ('A' for Active; 'I' for Inactive)
REMARK    1  A    between atoms: CA   and  CB  
REMARK    2  A    between atoms: CB   and  CG  
REMARK    3  A    between atoms: CG   and  CD  
REMARK    4  A    between atoms: CD   and  NE  
REMARK       I    between atoms: NE   and  CZ  
REMARK       I    between atoms: CZ   and  NH1 
REMARK       I    between atoms: CZ   and  NH2 
ROOT
ATOM      1  CA  ARG D 557     -26.217   2.705 -17.014  1.00 35.49     0.159 C 
ENDROOT
BRANCH   1   2
ATOM      2  CB  ARG D 557     -26.789   1.319 -17.183  1.00 35.49     0.034 C 
BRANCH   2   3
ATOM      3  CG  ARG D 557     -28.234   1.226 -17.426  1.00 35.49     0.027 C 
BRANCH   3   4
ATOM      4  CD  ARG D 557     -28.901   0.277 -16.505  1.00 35.49     0.116 C 
BRANCH   4   5
ATOM      5  NE  ARG D 557     -29.267  -0.950 -17.163  1.00 35.49    -0.212 N 
ATOM      6  CZ  ARG D 557     -28.643  -2.101 -17.044  1.00 35.49     0.666 C 
ATOM      7  NH1 ARG D 557     -27.568  -2.251 -16.292  1.00 35.49    -0.235 N 
ATOM      8  NH2 ARG D 557     -29.128  -3.116 -17.698  1.00 35.49    -0.235 N 
ATOM      9  HH  ARG D 557     -27.234  -1.597 -15.851  1.00 35.49     0.174 HD
ATOM     10  HH  ARG D 557     -27.205  -3.026 -16.251  1.00 35.49     0.174 HD
ATOM     11  HH  ARG D 557     -29.827  -2.992 -18.169  1.00 35.49     0.174 HD
ATOM     12  HH  ARG D 557     -28.755  -3.876 -17.643  1.00 35.49     0.174 HD
ATOM     13  HE  ARG D 557     -29.905  -0.927 -17.724  1.00 35.49     0.178 HD
ENDBRANCH   4   5
ENDBRANCH   3   4
ENDBRANCH   2   3
ENDBRANCH   1   2
END_RES ARG D 557
BEGIN_RES GLU D 570
REMARK  3 active torsions:
REMARK  status: ('A' for Active; 'I' for Inactive)
REMARK    5  A    between atoms: CA   and  CB  
REMARK    6  A    between atoms: CB   and  CG  
REMARK    7  A    between atoms: CG   and  CD  
ROOT
ATOM     14  CA  GLU D 570     -18.033  -6.348 -13.375  1.00 32.92     0.160 C 
ENDROOT
BRANCH  14  15
ATOM     15  CB  GLU D 570     -19.500  -6.345 -13.794  1.00 32.92     0.043 C 
BRANCH  15  16
ATOM     16  CG  GLU D 570     -19.796  -6.318 -15.250  1.00 32.92     0.100 C 
BRANCH  16  17
ATOM     17  CD  GLU D 570     -21.027  -5.508 -15.586  1.00 32.92     0.185 C 
ATOM     18  OE1 GLU D 570     -21.276  -5.252 -16.779  1.00 32.92    -0.647 OA
ATOM     19  OE2 GLU D 570     -21.740  -5.110 -14.644  1.00 32.92    -0.647 OA
ENDBRANCH  16  17
ENDBRANCH  15  16
ENDBRANCH  14  15
END_RES GLU D 570
ENDMDL
MODEL 6
REMARK VINA RESULT:      -7.1      4.967     11.262
REMARK WARNING: 32 MAX_TORS EXCEEDED!!!
REMARK  37 active torsions:
REMARK  status: ('A' for Active; 'I' for Inactive)
REMARK    1  A    between atoms: C_2  and  C_3 
REMARK    2  A    between atoms: C_3  and  C_4 
REMARK    3  A    between atoms: C_4  and  C_5 
REMARK    4  A    between atoms: C_5  and  C_6 
REMARK    5  A    between atoms: C_6  and  C_7 
REMARK    6  A    between atoms: C_7  and  C_8 
REMARK    7  A    between atoms: C_8  and  C_9 
REMARK    8  A    between atoms: C_9  and  C_10 
REMARK    9  A    between atoms: C_10  and  C_11 
REMARK   10  A    between atoms: C_11  and  C_12 
REMARK   11  A    between atoms: C_12  and  C_13 
REMARK   12  A    between atoms: C_13  and  C_14 
REMARK   13  A    between atoms: C_14  and  C_15 
REMARK   14  A    between atoms: C_15  and  C_16 
REMARK   15  A    between atoms: C_16  and  C_17 
REMARK   16  A    between atoms: C_17  and  C_18 
REMARK   17  A    between atoms: C_18  and  O_20 
REMARK   18  A    between atoms: O_20  and  C_21 
REMARK   19  A    between atoms: C_21  and  C_22 
REMARK   20  A    between atoms: C_22  and  O_23 
REMARK   21  A    between atoms: O_23  and  C_24 
REMARK   22  A    between atoms: C_24  and  C_26 
REMARK   23  A    between atoms: C_26  and  C_27 
REMARK   24  A    between atoms: C_27  and  C_28 
REMARK   25  A    between atoms: C_28  and  C_29 
REMARK   26  A    between atoms: C_29  and  C_30 
REMARK   27  A    between atoms: C_30  and  C_31 
REMARK   28  A    between atoms: C_31  and  C_32 
REMARK   29  A    between atoms: C_32  and  C_33 
REMARK   30  A    between atoms: C_33  and  C_34 
REMARK   31  A    between atoms: C_34  and  C_35 
REMARK   32  A    between atoms: C_35  and  C_36 
REMARK   33  A    between atoms: C_36  and  C_37 
REMARK   34  A    between atoms: C_37  and  C_38 
REMARK   35  A    between atoms: C_38  and  C_39 
REMARK   36  A    between atoms: C_39  and  C_40 
REMARK   37  A    between atoms: C_40  and  C_41 
ROOT
HETATM    1  C   UNL     1     -23.364 -10.275  -0.250  1.00  0.00     0.205 C 
ENDROOT
BRANCH   1   2
HETATM    2  O   UNL     1     -22.400  -9.240  -0.526  1.00  0.00    -0.319 OA
BRANCH   2   3
HETATM    3  C   UNL     1     -22.760  -8.003  -0.045  1.00  0.00     0.258 C 
HETATM    4  O   UNL     1     -23.359  -7.818   0.995  1.00  0.00    -0.265 OA
BRANCH   3   5
HETATM    5  C   UNL     1     -22.271  -6.892  -0.944  1.00  0.00     0.111 C 
BRANCH   5   6
HETATM    6  C   UNL     1     -21.448  -7.443  -2.106  1.00  0.00     0.010 C 
BRANCH   6   7
HETATM    7  C   UNL     1     -21.499  -6.533  -3.334  1.00  0.00     0.000 C 
BRANCH   7   8
HETATM    8  C   UNL     1     -21.778  -7.345  -4.594  1.00  0.00     0.000 C 
BRANCH   8   9
HETATM    9  C   UNL     1     -21.069  -6.732  -5.793  1.00  0.00     0.000 C 
BRANCH   9  10
HETATM   10  C   UNL     1     -20.454  -5.392  -5.419  1.00  0.00     0.000 C 
BRANCH  10  11
HETATM   11  C   UNL     1     -19.980  -4.665  -6.667  1.00  0.00     0.000 C 
BRANCH  11  12
HETATM   12  C   UNL     1     -21.068  -3.735  -7.175  1.00  0.00     0.000 C 
BRANCH  12  13
HETATM   13  C   UNL     1     -21.661  -4.282  -8.461  1.00  0.00     0.000 C 
BRANCH  13  14
HETATM   14  C   UNL     1     -20.564  -4.504  -9.486  1.00  0.00     0.000 C 
BRANCH  14  15
HETATM   15  C   UNL     1     -21.036  -4.044 -10.854  1.00  0.00     0.000 C 
BRANCH  15  16
HETATM   16  C   UNL     1     -22.375  -3.338 -10.728  1.00  0.00     0.000 C 
BRANCH  16  17
HETATM   17  C   UNL     1     -23.427  -4.071 -11.544  1.00  0.00     0.000 C 
BRANCH  17  18
HETATM   18  C   UNL     1     -23.835  -3.230 -12.743  1.00  0.00     0.000 C 
BRANCH  18  19
HETATM   19  C   UNL     1     -23.276  -3.834 -14.022  1.00  0.00    -0.000 C 
BRANCH  19  20
HETATM   20  C   UNL     1     -23.025  -5.325 -13.845  1.00  0.00    -0.005 C 
HETATM   21  C   UNL     1     -24.020  -6.131 -14.660  1.00  0.00     0.005 C 
ENDBRANCH  19  20
ENDBRANCH  18  19
ENDBRANCH  17  18
ENDBRANCH  16  17
ENDBRANCH  15  16
ENDBRANCH  14  15
ENDBRANCH  13  14
ENDBRANCH  12  13
ENDBRANCH  11  12
ENDBRANCH  10  11
ENDBRANCH   9  10
ENDBRANCH   8   9
ENDBRANCH   7   8
ENDBRANCH   6   7
ENDBRANCH   5   6
ENDBRANCH   3   5
ENDBRANCH   2   3
ENDBRANCH   1   2
BRANCH   1  22
HETATM   22  C   UNL     1     -23.523 -11.194  -1.458  1.00  0.00     0.205 C 
BRANCH  22  23
HETATM   23  O   UNL     1     -22.643 -10.796  -2.529  1.00  0.00    -0.319 OA
BRANCH  23  24
HETATM   24  C   UNL     1     -22.385 -11.779  -3.440  1.00  0.00     0.258 C 
HETATM   25  O   UNL     1     -22.719 -12.950  -3.308  1.00  0.00    -0.265 OA
BRANCH  24  26
HETATM   26  C   UNL     1     -21.704 -11.236  -4.679  1.00  0.00     0.111 C 
BRANCH  26  27
HETATM   27  C   UNL     1     -20.397 -10.532  -4.337  1.00  0.00     0.010 C 
BRANCH  27  28
HETATM   28  C   UNL     1     -19.506 -10.329  -5.561  1.00  0.00     0.000 C 
BRANCH  28  29
HETATM   29  C   UNL     1     -18.402  -9.325  -5.256  1.00  0.00     0.000 C 
BRANCH  29  30
HETATM   30  C   UNL     1     -17.996  -9.403  -3.791  1.00  0.00     0.000 C 
BRANCH  30  31
HETATM   31  C   UNL     1     -16.534  -9.804  -3.665  1.00  0.00     0.000 C 
BRANCH  31  32
HETATM   32  C   UNL     1     -15.907  -9.933  -5.044  1.00  0.00     0.000 C 
BRANCH  32  33
HETATM   33  C   UNL     1     -14.949 -11.110  -5.072  1.00  0.00     0.000 C 
BRANCH  33  34
HETATM   34  C   UNL     1     -15.674 -12.382  -4.672  1.00  0.00     0.000 C 
BRANCH  34  35
HETATM   35  C   UNL     1     -16.591 -12.834  -5.793  1.00  0.00     0.000 C 
BRANCH  35  36
HETATM   36  C   UNL     1     -17.828 -13.497  -5.214  1.00  0.00     0.000 C 
BRANCH  36  37
HETATM   37  C   UNL     1     -17.905 -13.232  -3.720  1.00  0.00     0.000 C 
BRANCH  37  38
HETATM   38  C   UNL     1     -19.199 -13.797  -3.159  1.00  0.00     0.000 C 
BRANCH  38  39
HETATM   39  C   UNL     1     -19.301 -13.488  -1.674  1.00  0.00     0.000 C 
BRANCH  39  40
HETATM   40  C   UNL     1     -18.715 -12.116  -1.382  1.00  0.00    -0.000 C 
BRANCH  40  41
HETATM   41  C   UNL     1     -17.914 -12.139  -0.087  1.00  0.00    -0.005 C 
HETATM   42  C   UNL     1     -16.452 -11.845  -0.360  1.00  0.00     0.005 C 
ENDBRANCH  40  41
ENDBRANCH  39  40
ENDBRANCH  38  39
ENDBRANCH  37  38
ENDBRANCH  36  37
ENDBRANCH  35  36
ENDBRANCH  34  35
ENDBRANCH  33  34
ENDBRANCH  32  33
ENDBRANCH  31  32
ENDBRANCH  30  31
ENDBRANCH  29  30
ENDBRANCH  28  29
ENDBRANCH  27  28
ENDBRANCH  26  27
ENDBRANCH  24  26
ENDBRANCH  23  24
ENDBRANCH  22  23
ENDBRANCH   1  22
TORSDOF 37
BEGIN_RES ARG D 557
REMARK  4 active torsions:
REMARK  status: ('A' for Active; 'I' for Inactive)
REMARK    1  A    between atoms: CA   and  CB  
REMARK    2  A    between atoms: CB   and  CG  
REMARK    3  A    between atoms: CG   and  CD  
REMARK    4  A    between atoms: CD   and  NE  
REMARK       I    between atoms: NE   and  CZ  
REMARK       I    between atoms: CZ   and  NH1 
REMARK       I    between atoms: CZ   and  NH2 
ROOT
ATOM      1  CA  ARG D 557     -26.217   2.705 -17.014  1.00 35.49     0.159 C 
ENDROOT
BRANCH   1   2
ATOM      2  CB  ARG D 557     -26.789   1.319 -17.183  1.00 35.49     0.034 C 
BRANCH   2   3
ATOM      3  CG  ARG D 557     -28.233   1.169 -16.966  1.00 35.49     0.027 C 
BRANCH   3   4
ATOM      4  CD  ARG D 557     -28.638  -0.248 -16.820  1.00 35.49     0.116 C 
BRANCH   4   5
ATOM      5  NE  ARG D 557     -27.653  -1.023 -16.112  1.00 35.49    -0.212 N 
ATOM      6  CZ  ARG D 557     -27.513  -2.328 -16.174  1.00 35.49     0.666 C 
ATOM      7  NH1 ARG D 557     -28.301  -3.091 -16.908  1.00 35.49    -0.235 N 
ATOM      8  NH2 ARG D 557     -26.551  -2.862 -15.480  1.00 35.49    -0.235 N 
ATOM      9  HH  ARG D 557     -28.940  -2.761 -17.374  1.00 35.49     0.174 HD
ATOM     10  HH  ARG D 557     -28.161  -3.937 -16.912  1.00 35.49     0.174 HD
ATOM     11  HH  ARG D 557     -26.053  -2.344 -15.021  1.00 35.49     0.174 HD
ATOM     12  HH  ARG D 557     -26.427  -3.701 -15.497  1.00 35.49     0.174 HD
ATOM     13  HE  ARG D 557     -27.150  -0.619 -15.558  1.00 35.49     0.178 HD
ENDBRANCH   4   5
ENDBRANCH   3   4
ENDBRANCH   2   3
ENDBRANCH   1   2
END_RES ARG D 557
BEGIN_RES GLU D 570
REMARK  3 active torsions:
REMARK  status: ('A' for Active; 'I' for Inactive)
REMARK    5  A    between atoms: CA   and  CB  
REMARK    6  A    between atoms: CB   and  CG  
REMARK    7  A    between atoms: CG   and  CD  
ROOT
ATOM     14  CA  GLU D 570     -18.033  -6.348 -13.375  1.00 32.92     0.160 C 
ENDROOT
BRANCH  14  15
ATOM     15  CB  GLU D 570     -19.500  -6.345 -13.794  1.00 32.92     0.043 C 
BRANCH  15  16
ATOM     16  CG  GLU D 570     -20.079  -7.629 -14.268  1.00 32.92     0.100 C 
BRANCH  16  17
ATOM     17  CD  GLU D 570     -20.668  -7.533 -15.656  1.00 32.92     0.185 C 
ATOM     18  OE1 GLU D 570     -20.617  -6.445 -16.261  1.00 32.92    -0.647 OA
ATOM     19  OE2 GLU D 570     -21.201  -8.552 -16.137  1.00 32.92    -0.647 OA
ENDBRANCH  16  17
ENDBRANCH  15  16
ENDBRANCH  14  15
END_RES GLU D 570
ENDMDL
MODEL 7
REMARK VINA RESULT:      -7.1      5.576     15.231
REMARK WARNING: 32 MAX_TORS EXCEEDED!!!
REMARK  37 active torsions:
REMARK  status: ('A' for Active; 'I' for Inactive)
REMARK    1  A    between atoms: C_2  and  C_3 
REMARK    2  A    between atoms: C_3  and  C_4 
REMARK    3  A    between atoms: C_4  and  C_5 
REMARK    4  A    between atoms: C_5  and  C_6 
REMARK    5  A    between atoms: C_6  and  C_7 
REMARK    6  A    between atoms: C_7  and  C_8 
REMARK    7  A    between atoms: C_8  and  C_9 
REMARK    8  A    between atoms: C_9  and  C_10 
REMARK    9  A    between atoms: C_10  and  C_11 
REMARK   10  A    between atoms: C_11  and  C_12 
REMARK   11  A    between atoms: C_12  and  C_13 
REMARK   12  A    between atoms: C_13  and  C_14 
REMARK   13  A    between atoms: C_14  and  C_15 
REMARK   14  A    between atoms: C_15  and  C_16 
REMARK   15  A    between atoms: C_16  and  C_17 
REMARK   16  A    between atoms: C_17  and  C_18 
REMARK   17  A    between atoms: C_18  and  O_20 
REMARK   18  A    between atoms: O_20  and  C_21 
REMARK   19  A    between atoms: C_21  and  C_22 
REMARK   20  A    between atoms: C_22  and  O_23 
REMARK   21  A    between atoms: O_23  and  C_24 
REMARK   22  A    between atoms: C_24  and  C_26 
REMARK   23  A    between atoms: C_26  and  C_27 
REMARK   24  A    between atoms: C_27  and  C_28 
REMARK   25  A    between atoms: C_28  and  C_29 
REMARK   26  A    between atoms: C_29  and  C_30 
REMARK   27  A    between atoms: C_30  and  C_31 
REMARK   28  A    between atoms: C_31  and  C_32 
REMARK   29  A    between atoms: C_32  and  C_33 
REMARK   30  A    between atoms: C_33  and  C_34 
REMARK   31  A    between atoms: C_34  and  C_35 
REMARK   32  A    between atoms: C_35  and  C_36 
REMARK   33  A    between atoms: C_36  and  C_37 
REMARK   34  A    between atoms: C_37  and  C_38 
REMARK   35  A    between atoms: C_38  and  C_39 
REMARK   36  A    between atoms: C_39  and  C_40 
REMARK   37  A    between atoms: C_40  and  C_41 
ROOT
HETATM    1  C   UNL     1     -20.410 -12.638  -7.444  1.00  0.00     0.205 C 
ENDROOT
BRANCH   1   2
HETATM    2  O   UNL     1     -19.236 -11.804  -7.482  1.00  0.00    -0.319 OA
BRANCH   2   3
HETATM    3  C   UNL     1     -18.076 -12.463  -7.146  1.00  0.00     0.258 C 
HETATM    4  O   UNL     1     -17.596 -13.377  -7.786  1.00  0.00    -0.265 OA
BRANCH   3   5
HETATM    5  C   UNL     1     -17.439 -11.875  -5.909  1.00  0.00     0.111 C 
BRANCH   5   6
HETATM    6  C   UNL     1     -17.424 -10.349  -5.967  1.00  0.00     0.010 C 
BRANCH   6   7
HETATM    7  C   UNL     1     -16.289  -9.749  -5.135  1.00  0.00     0.000 C 
BRANCH   7   8
HETATM    8  C   UNL     1     -16.643  -9.765  -3.652  1.00  0.00     0.000 C 
BRANCH   8   9
HETATM    9  C   UNL     1     -18.095  -9.359  -3.445  1.00  0.00     0.000 C 
BRANCH   9  10
HETATM   10  C   UNL     1     -18.730 -10.199  -2.347  1.00  0.00     0.000 C 
BRANCH  10  11
HETATM   11  C   UNL     1     -17.736 -11.225  -1.829  1.00  0.00     0.000 C 
BRANCH  11  12
HETATM   12  C   UNL     1     -18.352 -12.022  -0.692  1.00  0.00     0.000 C 
BRANCH  12  13
HETATM   13  C   UNL     1     -17.377 -12.108   0.469  1.00  0.00     0.000 C 
BRANCH  13  14
HETATM   14  C   UNL     1     -15.954 -11.947  -0.035  1.00  0.00     0.000 C 
BRANCH  14  15
HETATM   15  C   UNL     1     -14.998 -12.707   0.868  1.00  0.00     0.000 C 
BRANCH  15  16
HETATM   16  C   UNL     1     -14.791 -14.114   0.335  1.00  0.00     0.000 C 
BRANCH  16  17
HETATM   17  C   UNL     1     -14.618 -14.076  -1.175  1.00  0.00     0.000 C 
BRANCH  17  18
HETATM   18  C   UNL     1     -13.150 -14.240  -1.534  1.00  0.00     0.000 C 
BRANCH  18  19
HETATM   19  C   UNL     1     -12.902 -13.764  -2.957  1.00  0.00    -0.000 C 
BRANCH  19  20
HETATM   20  C   UNL     1     -14.008 -12.820  -3.406  1.00  0.00    -0.005 C 
HETATM   21  C   UNL     1     -13.745 -12.327  -4.817  1.00  0.00     0.005 C 
ENDBRANCH  19  20
ENDBRANCH  18  19
ENDBRANCH  17  18
ENDBRANCH  16  17
ENDBRANCH  15  16
ENDBRANCH  14  15
ENDBRANCH  13  14
ENDBRANCH  12  13
ENDBRANCH  11  12
ENDBRANCH  10  11
ENDBRANCH   9  10
ENDBRANCH   8   9
ENDBRANCH   7   8
ENDBRANCH   6   7
ENDBRANCH   5   6
ENDBRANCH   3   5
ENDBRANCH   2   3
ENDBRANCH   1   2
BRANCH   1  22
HETATM   22  C   UNL     1     -21.559 -11.913  -6.749  1.00  0.00     0.205 C 
BRANCH  22  23
HETATM   23  O   UNL     1     -21.097 -11.226  -5.568  1.00  0.00    -0.319 OA
BRANCH  23  24
HETATM   24  C   UNL     1     -21.362 -11.876  -4.398  1.00  0.00     0.258 C 
HETATM   25  O   UNL     1     -20.622 -12.707  -3.885  1.00  0.00    -0.265 OA
BRANCH  24  26
HETATM   26  C   UNL     1     -22.646 -11.391  -3.760  1.00  0.00     0.111 C 
BRANCH  26  27
HETATM   27  C   UNL     1     -22.411 -10.883  -2.342  1.00  0.00     0.010 C 
BRANCH  27  28
HETATM   28  C   UNL     1     -23.623 -11.098  -1.438  1.00  0.00     0.000 C 
BRANCH  28  29
HETATM   29  C   UNL     1     -23.487 -10.278  -0.161  1.00  0.00     0.000 C 
BRANCH  29  30
HETATM   30  C   UNL     1     -22.330  -9.297  -0.275  1.00  0.00     0.000 C 
BRANCH  30  31
HETATM   31  C   UNL     1     -22.778  -7.898   0.120  1.00  0.00     0.000 C 
BRANCH  31  32
HETATM   32  C   UNL     1     -22.369  -6.898  -0.949  1.00  0.00     0.000 C 
BRANCH  32  33
HETATM   33  C   UNL     1     -21.225  -7.457  -1.776  1.00  0.00     0.000 C 
BRANCH  33  34
HETATM   34  C   UNL     1     -21.233  -6.838  -3.162  1.00  0.00     0.000 C 
BRANCH  34  35
HETATM   35  C   UNL     1     -21.589  -7.887  -4.199  1.00  0.00     0.000 C 
BRANCH  35  36
HETATM   36  C   UNL     1     -21.167  -7.413  -5.579  1.00  0.00     0.000 C 
BRANCH  36  37
HETATM   37  C   UNL     1     -20.465  -6.070  -5.473  1.00  0.00     0.000 C 
BRANCH  37  38
HETATM   38  C   UNL     1     -19.988  -5.624  -6.844  1.00  0.00     0.000 C 
BRANCH  38  39
HETATM   39  C   UNL     1     -20.404  -4.184  -7.097  1.00  0.00     0.000 C 
BRANCH  39  40
HETATM   40  C   UNL     1     -21.805  -4.137  -7.684  1.00  0.00    -0.000 C 
BRANCH  40  41
HETATM   41  C   UNL     1     -21.777  -4.477  -9.168  1.00  0.00    -0.005 C 
HETATM   42  C   UNL     1     -23.168  -4.373  -9.764  1.00  0.00     0.005 C 
ENDBRANCH  40  41
ENDBRANCH  39  40
ENDBRANCH  38  39
ENDBRANCH  37  38
ENDBRANCH  36  37
ENDBRANCH  35  36
ENDBRANCH  34  35
ENDBRANCH  33  34
ENDBRANCH  32  33
ENDBRANCH  31  32
ENDBRANCH  30  31
ENDBRANCH  29  30
ENDBRANCH  28  29
ENDBRANCH  27  28
ENDBRANCH  26  27
ENDBRANCH  24  26
ENDBRANCH  23  24
ENDBRANCH  22  23
ENDBRANCH   1  22
TORSDOF 37
BEGIN_RES ARG D 557
REMARK  4 active torsions:
REMARK  status: ('A' for Active; 'I' for Inactive)
REMARK    1  A    between atoms: CA   and  CB  
REMARK    2  A    between atoms: CB   and  CG  
REMARK    3  A    between atoms: CG   and  CD  
REMARK    4  A    between atoms: CD   and  NE  
REMARK       I    between atoms: NE   and  CZ  
REMARK       I    between atoms: CZ   and  NH1 
REMARK       I    between atoms: CZ   and  NH2 
ROOT
ATOM      1  CA  ARG D 557     -26.217   2.705 -17.014  1.00 35.49     0.159 C 
ENDROOT
BRANCH   1   2
ATOM      2  CB  ARG D 557     -26.789   1.319 -17.183  1.00 35.49     0.034 C 
BRANCH   2   3
ATOM      3  CG  ARG D 557     -25.834   0.204 -17.171  1.00 35.49     0.027 C 
BRANCH   3   4
ATOM      4  CD  ARG D 557     -24.938   0.241 -15.993  1.00 35.49     0.116 C 
BRANCH   4   5
ATOM      5  NE  ARG D 557     -25.267  -0.776 -15.029  1.00 35.49    -0.212 N 
ATOM      6  CZ  ARG D 557     -24.474  -1.747 -14.636  1.00 35.49     0.666 C 
ATOM      7  NH1 ARG D 557     -23.253  -1.902 -15.113  1.00 35.49    -0.235 N 
ATOM      8  NH2 ARG D 557     -24.931  -2.569 -13.736  1.00 35.49    -0.235 N 
ATOM      9  HH  ARG D 557     -22.931  -1.372 -15.704  1.00 35.49     0.174 HD
ATOM     10  HH  ARG D 557     -22.780  -2.553 -14.818  1.00 35.49     0.174 HD
ATOM     11  HH  ARG D 557     -25.720  -2.440 -13.441  1.00 35.49     0.174 HD
ATOM     12  HH  ARG D 557     -24.447  -3.206 -13.455  1.00 35.49     0.174 HD
ATOM     13  HE  ARG D 557     -26.061  -0.795 -14.724  1.00 35.49     0.178 HD
ENDBRANCH   4   5
ENDBRANCH   3   4
ENDBRANCH   2   3
ENDBRANCH   1   2
END_RES ARG D 557
BEGIN_RES GLU D 570
REMARK  3 active torsions:
REMARK  status: ('A' for Active; 'I' for Inactive)
REMARK    5  A    between atoms: CA   and  CB  
REMARK    6  A    between atoms: CB   and  CG  
REMARK    7  A    between atoms: CG   and  CD  
ROOT
ATOM     14  CA  GLU D 570     -18.033  -6.348 -13.375  1.00 32.92     0.160 C 
ENDROOT
BRANCH  14  15
ATOM     15  CB  GLU D 570     -19.500  -6.345 -13.794  1.00 32.92     0.043 C 
BRANCH  15  16
ATOM     16  CG  GLU D 570     -20.440  -5.521 -12.990  1.00 32.92     0.100 C 
BRANCH  16  17
ATOM     17  CD  GLU D 570     -21.698  -5.158 -13.744  1.00 32.92     0.185 C 
ATOM     18  OE1 GLU D 570     -22.445  -4.274 -13.284  1.00 32.92    -0.647 OA
ATOM     19  OE2 GLU D 570     -21.947  -5.776 -14.798  1.00 32.92    -0.647 OA
ENDBRANCH  16  17
ENDBRANCH  15  16
ENDBRANCH  14  15
END_RES GLU D 570
ENDMDL
MODEL 8
REMARK VINA RESULT:      -7.0      5.214     11.954
REMARK WARNING: 32 MAX_TORS EXCEEDED!!!
REMARK  37 active torsions:
REMARK  status: ('A' for Active; 'I' for Inactive)
REMARK    1  A    between atoms: C_2  and  C_3 
REMARK    2  A    between atoms: C_3  and  C_4 
REMARK    3  A    between atoms: C_4  and  C_5 
REMARK    4  A    between atoms: C_5  and  C_6 
REMARK    5  A    between atoms: C_6  and  C_7 
REMARK    6  A    between atoms: C_7  and  C_8 
REMARK    7  A    between atoms: C_8  and  C_9 
REMARK    8  A    between atoms: C_9  and  C_10 
REMARK    9  A    between atoms: C_10  and  C_11 
REMARK   10  A    between atoms: C_11  and  C_12 
REMARK   11  A    between atoms: C_12  and  C_13 
REMARK   12  A    between atoms: C_13  and  C_14 
REMARK   13  A    between atoms: C_14  and  C_15 
REMARK   14  A    between atoms: C_15  and  C_16 
REMARK   15  A    between atoms: C_16  and  C_17 
REMARK   16  A    between atoms: C_17  and  C_18 
REMARK   17  A    between atoms: C_18  and  O_20 
REMARK   18  A    between atoms: O_20  and  C_21 
REMARK   19  A    between atoms: C_21  and  C_22 
REMARK   20  A    between atoms: C_22  and  O_23 
REMARK   21  A    between atoms: O_23  and  C_24 
REMARK   22  A    between atoms: C_24  and  C_26 
REMARK   23  A    between atoms: C_26  and  C_27 
REMARK   24  A    between atoms: C_27  and  C_28 
REMARK   25  A    between atoms: C_28  and  C_29 
REMARK   26  A    between atoms: C_29  and  C_30 
REMARK   27  A    between atoms: C_30  and  C_31 
REMARK   28  A    between atoms: C_31  and  C_32 
REMARK   29  A    between atoms: C_32  and  C_33 
REMARK   30  A    between atoms: C_33  and  C_34 
REMARK   31  A    between atoms: C_34  and  C_35 
REMARK   32  A    between atoms: C_35  and  C_36 
REMARK   33  A    between atoms: C_36  and  C_37 
REMARK   34  A    between atoms: C_37  and  C_38 
REMARK   35  A    between atoms: C_38  and  C_39 
REMARK   36  A    between atoms: C_39  and  C_40 
REMARK   37  A    between atoms: C_40  and  C_41 
ROOT
HETATM    1  C   UNL     1     -23.579  -9.919  -0.010  1.00  0.00     0.205 C 
ENDROOT
BRANCH   1   2
HETATM    2  O   UNL     1     -22.200  -9.989   0.401  1.00  0.00    -0.319 OA
BRANCH   2   3
HETATM    3  C   UNL     1     -21.619  -8.759   0.610  1.00  0.00     0.258 C 
HETATM    4  O   UNL     1     -20.954  -8.470   1.583  1.00  0.00    -0.265 OA
BRANCH   3   5
HETATM    5  C   UNL     1     -21.865  -7.824  -0.551  1.00  0.00     0.111 C 
BRANCH   5   6
HETATM    6  C   UNL     1     -20.634  -7.718  -1.447  1.00  0.00     0.010 C 
BRANCH   6   7
HETATM    7  C   UNL     1     -20.403  -8.988  -2.267  1.00  0.00     0.000 C 
BRANCH   7   8
HETATM    8  C   UNL     1     -20.312  -8.660  -3.754  1.00  0.00     0.000 C 
BRANCH   8   9
HETATM    9  C   UNL     1     -21.659  -8.188  -4.280  1.00  0.00     0.000 C 
BRANCH   9  10
HETATM   10  C   UNL     1     -21.492  -7.494  -5.623  1.00  0.00     0.000 C 
BRANCH  10  11
HETATM   11  C   UNL     1     -20.059  -7.019  -5.793  1.00  0.00     0.000 C 
BRANCH  11  12
HETATM   12  C   UNL     1     -20.002  -5.875  -6.790  1.00  0.00     0.000 C 
BRANCH  12  13
HETATM   13  C   UNL     1     -20.410  -4.577  -6.115  1.00  0.00     0.000 C 
BRANCH  13  14
HETATM   14  C   UNL     1     -21.118  -3.675  -7.110  1.00  0.00     0.000 C 
BRANCH  14  15
HETATM   15  C   UNL     1     -22.230  -4.443  -7.803  1.00  0.00     0.000 C 
BRANCH  15  16
HETATM   16  C   UNL     1     -22.265  -4.083  -9.278  1.00  0.00     0.000 C 
BRANCH  16  17
HETATM   17  C   UNL     1     -20.875  -4.214  -9.878  1.00  0.00     0.000 C 
BRANCH  17  18
HETATM   18  C   UNL     1     -20.927  -3.947 -11.373  1.00  0.00     0.000 C 
BRANCH  18  19
HETATM   19  C   UNL     1     -22.060  -2.985 -11.695  1.00  0.00    -0.000 C 
BRANCH  19  20
HETATM   20  C   UNL     1     -22.667  -3.308 -13.053  1.00  0.00    -0.005 C 
HETATM   21  C   UNL     1     -22.780  -4.809 -13.242  1.00  0.00     0.005 C 
ENDBRANCH  19  20
ENDBRANCH  18  19
ENDBRANCH  17  18
ENDBRANCH  16  17
ENDBRANCH  15  16
ENDBRANCH  14  15
ENDBRANCH  13  14
ENDBRANCH  12  13
ENDBRANCH  11  12
ENDBRANCH  10  11
ENDBRANCH   9  10
ENDBRANCH   8   9
ENDBRANCH   7   8
ENDBRANCH   6   7
ENDBRANCH   5   6
ENDBRANCH   3   5
ENDBRANCH   2   3
ENDBRANCH   1   2
BRANCH   1  22
HETATM   22  C   UNL     1     -24.028 -11.250  -0.605  1.00  0.00     0.205 C 
BRANCH  22  23
HETATM   23  O   UNL     1     -22.910 -12.147  -0.767  1.00  0.00    -0.319 OA
BRANCH  23  24
HETATM   24  C   UNL     1     -22.831 -12.730  -1.999  1.00  0.00     0.258 C 
HETATM   25  O   UNL     1     -22.946 -13.933  -2.203  1.00  0.00    -0.265 OA
BRANCH  24  26
HETATM   26  C   UNL     1     -22.664 -11.705  -3.100  1.00  0.00     0.111 C 
BRANCH  26  27
HETATM   27  C   UNL     1     -21.606 -12.136  -4.110  1.00  0.00     0.010 C 
BRANCH  27  28
HETATM   28  C   UNL     1     -22.163 -12.242  -5.528  1.00  0.00     0.000 C 
BRANCH  28  29
HETATM   29  C   UNL     1     -21.258 -11.513  -6.512  1.00  0.00     0.000 C 
BRANCH  29  30
HETATM   30  C   UNL     1     -20.281 -12.482  -7.162  1.00  0.00     0.000 C 
BRANCH  30  31
HETATM   31  C   UNL     1     -18.887 -11.876  -7.218  1.00  0.00     0.000 C 
BRANCH  31  32
HETATM   32  C   UNL     1     -18.690 -10.913  -6.058  1.00  0.00     0.000 C 
BRANCH  32  33
HETATM   33  C   UNL     1     -17.530  -9.977  -6.349  1.00  0.00     0.000 C 
BRANCH  33  34
HETATM   34  C   UNL     1     -16.546  -9.992  -5.194  1.00  0.00     0.000 C 
BRANCH  34  35
HETATM   35  C   UNL     1     -17.232 -10.480  -3.931  1.00  0.00     0.000 C 
BRANCH  35  36
HETATM   36  C   UNL     1     -16.827  -9.610  -2.754  1.00  0.00     0.000 C 
BRANCH  36  37
HETATM   37  C   UNL     1     -15.629 -10.220  -2.048  1.00  0.00     0.000 C 
BRANCH  37  38
HETATM   38  C   UNL     1     -15.856 -11.706  -1.829  1.00  0.00     0.000 C 
BRANCH  38  39
HETATM   39  C   UNL     1     -15.669 -12.051  -0.361  1.00  0.00     0.000 C 
BRANCH  39  40
HETATM   40  C   UNL     1     -17.015 -12.094   0.345  1.00  0.00    -0.000 C 
BRANCH  40  41
HETATM   41  C   UNL     1     -18.075 -12.709  -0.557  1.00  0.00    -0.005 C 
HETATM   42  C   UNL     1     -19.376 -11.935  -0.454  1.00  0.00     0.005 C 
ENDBRANCH  40  41
ENDBRANCH  39  40
ENDBRANCH  38  39
ENDBRANCH  37  38
ENDBRANCH  36  37
ENDBRANCH  35  36
ENDBRANCH  34  35
ENDBRANCH  33  34
ENDBRANCH  32  33
ENDBRANCH  31  32
ENDBRANCH  30  31
ENDBRANCH  29  30
ENDBRANCH  28  29
ENDBRANCH  27  28
ENDBRANCH  26  27
ENDBRANCH  24  26
ENDBRANCH  23  24
ENDBRANCH  22  23
ENDBRANCH   1  22
TORSDOF 37
BEGIN_RES ARG D 557
REMARK  4 active torsions:
REMARK  status: ('A' for Active; 'I' for Inactive)
REMARK    1  A    between atoms: CA   and  CB  
REMARK    2  A    between atoms: CB   and  CG  
REMARK    3  A    between atoms: CG   and  CD  
REMARK    4  A    between atoms: CD   and  NE  
REMARK       I    between atoms: NE   and  CZ  
REMARK       I    between atoms: CZ   and  NH1 
REMARK       I    between atoms: CZ   and  NH2 
ROOT
ATOM      1  CA  ARG D 557     -26.217   2.705 -17.014  1.00 35.49     0.159 C 
ENDROOT
BRANCH   1   2
ATOM      2  CB  ARG D 557     -26.789   1.319 -17.183  1.00 35.49     0.034 C 
BRANCH   2   3
ATOM      3  CG  ARG D 557     -28.146   1.097 -16.669  1.00 35.49     0.027 C 
BRANCH   3   4
ATOM      4  CD  ARG D 557     -28.788  -0.096 -17.267  1.00 35.49     0.116 C 
BRANCH   4   5
ATOM      5  NE  ARG D 557     -28.159  -1.319 -16.843  1.00 35.49    -0.212 N 
ATOM      6  CZ  ARG D 557     -28.631  -2.531 -17.033  1.00 35.49     0.666 C 
ATOM      7  NH1 ARG D 557     -29.781  -2.757 -17.642  1.00 35.49    -0.235 N 
ATOM      8  NH2 ARG D 557     -27.916  -3.529 -16.601  1.00 35.49    -0.235 N 
ATOM      9  HH  ARG D 557     -30.267  -2.116 -17.937  1.00 35.49     0.174 HD
ATOM     10  HH  ARG D 557     -30.037  -3.569 -17.740  1.00 35.49     0.174 HD
ATOM     11  HH  ARG D 557     -27.175  -3.353 -16.218  1.00 35.49     0.174 HD
ATOM     12  HH  ARG D 557     -28.186  -4.325 -16.708  1.00 35.49     0.174 HD
ATOM     13  HE  ARG D 557     -27.449  -1.264 -16.379  1.00 35.49     0.178 HD
ENDBRANCH   4   5
ENDBRANCH   3   4
ENDBRANCH   2   3
ENDBRANCH   1   2
END_RES ARG D 557
BEGIN_RES GLU D 570
REMARK  3 active torsions:
REMARK  status: ('A' for Active; 'I' for Inactive)
REMARK    5  A    between atoms: CA   and  CB  
REMARK    6  A    between atoms: CB   and  CG  
REMARK    7  A    between atoms: CG   and  CD  
ROOT
ATOM     14  CA  GLU D 570     -18.033  -6.348 -13.375  1.00 32.92     0.160 C 
ENDROOT
BRANCH  14  15
ATOM     15  CB  GLU D 570     -19.500  -6.345 -13.794  1.00 32.92     0.043 C 
BRANCH  15  16
ATOM     16  CG  GLU D 570     -20.063  -7.613 -14.326  1.00 32.92     0.100 C 
BRANCH  16  17
ATOM     17  CD  GLU D 570     -20.773  -7.434 -15.647  1.00 32.92     0.185 C 
ATOM     18  OE1 GLU D 570     -21.532  -8.335 -16.054  1.00 32.92    -0.647 OA
ATOM     19  OE2 GLU D 570     -20.556  -6.388 -16.291  1.00 32.92    -0.647 OA
ENDBRANCH  16  17
ENDBRANCH  15  16
ENDBRANCH  14  15
END_RES GLU D 570
ENDMDL
MODEL 9
REMARK VINA RESULT:      -7.0      5.405     12.221
REMARK WARNING: 32 MAX_TORS EXCEEDED!!!
REMARK  37 active torsions:
REMARK  status: ('A' for Active; 'I' for Inactive)
REMARK    1  A    between atoms: C_2  and  C_3 
REMARK    2  A    between atoms: C_3  and  C_4 
REMARK    3  A    between atoms: C_4  and  C_5 
REMARK    4  A    between atoms: C_5  and  C_6 
REMARK    5  A    between atoms: C_6  and  C_7 
REMARK    6  A    between atoms: C_7  and  C_8 
REMARK    7  A    between atoms: C_8  and  C_9 
REMARK    8  A    between atoms: C_9  and  C_10 
REMARK    9  A    between atoms: C_10  and  C_11 
REMARK   10  A    between atoms: C_11  and  C_12 
REMARK   11  A    between atoms: C_12  and  C_13 
REMARK   12  A    between atoms: C_13  and  C_14 
REMARK   13  A    between atoms: C_14  and  C_15 
REMARK   14  A    between atoms: C_15  and  C_16 
REMARK   15  A    between atoms: C_16  and  C_17 
REMARK   16  A    between atoms: C_17  and  C_18 
REMARK   17  A    between atoms: C_18  and  O_20 
REMARK   18  A    between atoms: O_20  and  C_21 
REMARK   19  A    between atoms: C_21  and  C_22 
REMARK   20  A    between atoms: C_22  and  O_23 
REMARK   21  A    between atoms: O_23  and  C_24 
REMARK   22  A    between atoms: C_24  and  C_26 
REMARK   23  A    between atoms: C_26  and  C_27 
REMARK   24  A    between atoms: C_27  and  C_28 
REMARK   25  A    between atoms: C_28  and  C_29 
REMARK   26  A    between atoms: C_29  and  C_30 
REMARK   27  A    between atoms: C_30  and  C_31 
REMARK   28  A    between atoms: C_31  and  C_32 
REMARK   29  A    between atoms: C_32  and  C_33 
REMARK   30  A    between atoms: C_33  and  C_34 
REMARK   31  A    between atoms: C_34  and  C_35 
REMARK   32  A    between atoms: C_35  and  C_36 
REMARK   33  A    between atoms: C_36  and  C_37 
REMARK   34  A    between atoms: C_37  and  C_38 
REMARK   35  A    between atoms: C_38  and  C_39 
REMARK   36  A    between atoms: C_39  and  C_40 
REMARK   37  A    between atoms: C_40  and  C_41 
ROOT
HETATM    1  C   UNL     1     -20.724 -10.904   1.001  1.00  0.00     0.205 C 
ENDROOT
BRANCH   1   2
HETATM    2  O   UNL     1     -20.751  -9.867   0.000  1.00  0.00    -0.319 OA
BRANCH   2   3
HETATM    3  C   UNL     1     -21.417  -8.730   0.396  1.00  0.00     0.258 C 
HETATM    4  O   UNL     1     -21.243  -8.168   1.458  1.00  0.00    -0.265 OA
BRANCH   3   5
HETATM    5  C   UNL     1     -22.355  -8.232  -0.677  1.00  0.00     0.111 C 
BRANCH   5   6
HETATM    6  C   UNL     1     -22.218  -6.724  -0.877  1.00  0.00     0.010 C 
BRANCH   6   7
HETATM    7  C   UNL     1     -21.925  -6.357  -2.332  1.00  0.00     0.000 C 
BRANCH   7   8
HETATM    8  C   UNL     1     -21.239  -7.513  -3.051  1.00  0.00     0.000 C 
BRANCH   8   9
HETATM    9  C   UNL     1     -20.914  -7.130  -4.488  1.00  0.00     0.000 C 
BRANCH   9  10
HETATM   10  C   UNL     1     -22.098  -6.422  -5.130  1.00  0.00     0.000 C 
BRANCH  10  11
HETATM   11  C   UNL     1     -21.635  -5.602  -6.323  1.00  0.00     0.000 C 
BRANCH  11  12
HETATM   12  C   UNL     1     -20.216  -5.987  -6.703  1.00  0.00     0.000 C 
BRANCH  12  13
HETATM   13  C   UNL     1     -19.451  -4.760  -7.165  1.00  0.00     0.000 C 
BRANCH  13  14
HETATM   14  C   UNL     1     -20.251  -4.014  -8.218  1.00  0.00     0.000 C 
BRANCH  14  15
HETATM   15  C   UNL     1     -20.010  -4.634  -9.583  1.00  0.00     0.000 C 
BRANCH  15  16
HETATM   16  C   UNL     1     -20.984  -4.052 -10.594  1.00  0.00     0.000 C 
BRANCH  16  17
HETATM   17  C   UNL     1     -22.412  -4.258 -10.117  1.00  0.00     0.000 C 
BRANCH  17  18
HETATM   18  C   UNL     1     -23.345  -4.383 -11.310  1.00  0.00     0.000 C 
BRANCH  18  19
HETATM   19  C   UNL     1     -22.546  -4.656 -12.575  1.00  0.00    -0.000 C 
BRANCH  19  20
HETATM   20  C   UNL     1     -23.357  -4.291 -13.810  1.00  0.00    -0.005 C 
HETATM   21  C   UNL     1     -22.919  -2.945 -14.356  1.00  0.00     0.005 C 
ENDBRANCH  19  20
ENDBRANCH  18  19
ENDBRANCH  17  18
ENDBRANCH  16  17
ENDBRANCH  15  16
ENDBRANCH  14  15
ENDBRANCH  13  14
ENDBRANCH  12  13
ENDBRANCH  11  12
ENDBRANCH  10  11
ENDBRANCH   9  10
ENDBRANCH   8   9
ENDBRANCH   7   8
ENDBRANCH   6   7
ENDBRANCH   5   6
ENDBRANCH   3   5
ENDBRANCH   2   3
ENDBRANCH   1   2
BRANCH   1  22
HETATM   22  C   UNL     1     -21.260 -12.213   0.429  1.00  0.00     0.205 C 
BRANCH  22  23
HETATM   23  O   UNL     1     -22.653 -12.390   0.761  1.00  0.00    -0.319 OA
BRANCH  23  24
HETATM   24  C   UNL     1     -23.519 -11.808  -0.118  1.00  0.00     0.258 C 
HETATM   25  O   UNL     1     -24.347 -10.958   0.186  1.00  0.00    -0.265 OA
BRANCH  24  26
HETATM   26  C   UNL     1     -23.284 -12.279  -1.538  1.00  0.00     0.111 C 
BRANCH  26  27
HETATM   27  C   UNL     1     -23.087 -11.106  -2.491  1.00  0.00     0.010 C 
BRANCH  27  28
HETATM   28  C   UNL     1     -21.731 -11.148  -3.194  1.00  0.00     0.000 C 
BRANCH  28  29
HETATM   29  C   UNL     1     -21.905 -10.987  -4.698  1.00  0.00     0.000 C 
BRANCH  29  30
HETATM   30  C   UNL     1     -21.255 -12.146  -5.441  1.00  0.00     0.000 C 
BRANCH  30  31
HETATM   31  C   UNL     1     -20.329 -11.627  -6.530  1.00  0.00     0.000 C 
BRANCH  31  32
HETATM   32  C   UNL     1     -18.951 -12.251  -6.384  1.00  0.00     0.000 C 
BRANCH  32  33
HETATM   33  C   UNL     1     -18.364 -11.906  -5.027  1.00  0.00     0.000 C 
BRANCH  33  34
HETATM   34  C   UNL     1     -17.822 -10.488  -5.038  1.00  0.00     0.000 C 
BRANCH  34  35
HETATM   35  C   UNL     1     -18.342  -9.723  -3.835  1.00  0.00     0.000 C 
BRANCH  35  36
HETATM   36  C   UNL     1     -17.201  -9.435  -2.875  1.00  0.00     0.000 C 
BRANCH  36  37
HETATM   37  C   UNL     1     -15.922 -10.080  -3.381  1.00  0.00     0.000 C 
BRANCH  37  38
HETATM   38  C   UNL     1     -15.628 -11.342  -2.589  1.00  0.00     0.000 C 
BRANCH  38  39
HETATM   39  C   UNL     1     -14.454 -12.083  -3.208  1.00  0.00     0.000 C 
BRANCH  39  40
HETATM   40  C   UNL     1     -14.899 -12.818  -4.463  1.00  0.00    -0.000 C 
BRANCH  40  41
HETATM   41  C   UNL     1     -14.113 -12.336  -5.675  1.00  0.00    -0.005 C 
HETATM   42  C   UNL     1     -15.052 -11.988  -6.814  1.00  0.00     0.005 C 
ENDBRANCH  40  41
ENDBRANCH  39  40
ENDBRANCH  38  39
ENDBRANCH  37  38
ENDBRANCH  36  37
ENDBRANCH  35  36
ENDBRANCH  34  35
ENDBRANCH  33  34
ENDBRANCH  32  33
ENDBRANCH  31  32
ENDBRANCH  30  31
ENDBRANCH  29  30
ENDBRANCH  28  29
ENDBRANCH  27  28
ENDBRANCH  26  27
ENDBRANCH  24  26
ENDBRANCH  23  24
ENDBRANCH  22  23
ENDBRANCH   1  22
TORSDOF 37
BEGIN_RES ARG D 557
REMARK  4 active torsions:
REMARK  status: ('A' for Active; 'I' for Inactive)
REMARK    1  A    between atoms: CA   and  CB  
REMARK    2  A    between atoms: CB   and  CG  
REMARK    3  A    between atoms: CG   and  CD  
REMARK    4  A    between atoms: CD   and  NE  
REMARK       I    between atoms: NE   and  CZ  
REMARK       I    between atoms: CZ   and  NH1 
REMARK       I    between atoms: CZ   and  NH2 
ROOT
ATOM      1  CA  ARG D 557     -26.217   2.705 -17.014  1.00 35.49     0.159 C 
ENDROOT
BRANCH   1   2
ATOM      2  CB  ARG D 557     -26.789   1.319 -17.183  1.00 35.49     0.034 C 
BRANCH   2   3
ATOM      3  CG  ARG D 557     -28.247   1.219 -17.325  1.00 35.49     0.027 C 
BRANCH   3   4
ATOM      4  CD  ARG D 557     -28.836   0.221 -16.403  1.00 35.49     0.116 C 
BRANCH   4   5
ATOM      5  NE  ARG D 557     -29.281  -0.960 -17.095  1.00 35.49    -0.212 N 
ATOM      6  CZ  ARG D 557     -28.701  -2.139 -17.054  1.00 35.49     0.666 C 
ATOM      7  NH1 ARG D 557     -27.601  -2.364 -16.360  1.00 35.49    -0.235 N 
ATOM      8  NH2 ARG D 557     -29.255  -3.104 -17.728  1.00 35.49    -0.235 N 
ATOM      9  HH  ARG D 557     -27.220  -1.744 -15.907  1.00 35.49     0.174 HD
ATOM     10  HH  ARG D 557     -27.268  -3.154 -16.368  1.00 35.49     0.174 HD
ATOM     11  HH  ARG D 557     -29.969  -2.932 -18.161  1.00 35.49     0.174 HD
ATOM     12  HH  ARG D 557     -28.911  -3.880 -17.723  1.00 35.49     0.174 HD
ATOM     13  HE  ARG D 557     -29.942  -0.888 -17.625  1.00 35.49     0.178 HD
ENDBRANCH   4   5
ENDBRANCH   3   4
ENDBRANCH   2   3
ENDBRANCH   1   2
END_RES ARG D 557
BEGIN_RES GLU D 570
REMARK  3 active torsions:
REMARK  status: ('A' for Active; 'I' for Inactive)
REMARK    5  A    between atoms: CA   and  CB  
REMARK    6  A    between atoms: CB   and  CG  
REMARK    7  A    between atoms: CG   and  CD  
ROOT
ATOM     14  CA  GLU D 570     -18.033  -6.348 -13.375  1.00 32.92     0.160 C 
ENDROOT
BRANCH  14  15
ATOM     15  CB  GLU D 570     -19.500  -6.345 -13.794  1.00 32.92     0.043 C 
BRANCH  15  16
ATOM     16  CG  GLU D 570     -19.797  -6.450 -15.246  1.00 32.92     0.100 C 
BRANCH  16  17
ATOM     17  CD  GLU D 570     -20.908  -7.428 -15.550  1.00 32.92     0.185 C 
ATOM     18  OE1 GLU D 570     -22.083  -7.015 -15.595  1.00 32.92    -0.647 OA
ATOM     19  OE2 GLU D 570     -20.603  -8.623 -15.730  1.00 32.92    -0.647 OA
ENDBRANCH  16  17
ENDBRANCH  15  16
ENDBRANCH  14  15
END_RES GLU D 570
ENDMDL
