MODEL 1
REMARK VINA RESULT:      -6.3      0.000      0.000
REMARK  6 active torsions:
REMARK  status: ('A' for Active; 'I' for Inactive)
REMARK       I    between atoms: C_2  and  N_4 
REMARK    1  A    between atoms: N_4  and  CA_5 
REMARK    2  A    between atoms: CA_5  and  CB_6 
REMARK    3  A    between atoms: CA_5  and  C_11 
REMARK    4  A    between atoms: CB_6  and  CG_7 
REMARK    5  A    between atoms: CG_7  and  CD_8 
REMARK       I    between atoms: CD_8  and  NE2_10 
REMARK    6  A    between atoms: C_11  and  OXT_13 
ROOT
ATOM      1  CA  GLN A   1     -23.329  -3.981 -10.316  1.00  0.00     0.182 C 
ENDROOT
BRANCH   1   2
ATOM      2  N   GLN A   1     -22.201  -4.275  -9.431  1.00  0.00    -0.347 N 
HETATM    3  C   UNK A   0     -20.897  -4.121  -9.817  1.00  0.00     0.214 C 
HETATM    4  C   UNK A   0     -19.897  -4.522  -8.769  1.00  0.00     0.117 C 
HETATM    5  O   UNK A   0     -20.570  -3.674 -10.913  1.00  0.00    -0.274 OA
ATOM      6  H   GLN A   1     -22.421  -4.520  -8.470  1.00  0.00     0.163 HD
ENDBRANCH   1   2
BRANCH   1   7
ATOM      7  CB  GLN A   1     -23.703  -5.207 -11.164  1.00  0.00     0.045 C 
BRANCH   7   8
ATOM      8  CG  GLN A   1     -23.412  -5.000 -12.651  1.00  0.00     0.105 C 
BRANCH   8   9
ATOM      9  CD  GLN A   1     -23.528  -3.564 -13.103  1.00  0.00     0.215 C 
ATOM     10  OE1 GLN A   1     -24.567  -2.917 -13.130  1.00  0.00    -0.274 OA
ATOM     11  NE2 GLN A   1     -22.335  -3.019 -13.488  1.00  0.00    -0.370 N 
ATOM     12 1HE2 GLN A   1     -21.459  -3.523 -13.464  1.00  0.00     0.159 HD
ATOM     13 2HE2 GLN A   1     -22.330  -2.055 -13.796  1.00  0.00     0.159 HD
ENDBRANCH   8   9
ENDBRANCH   7   8
ENDBRANCH   1   7
BRANCH   1  14
ATOM     14  C   GLN A   1     -24.491  -3.550  -9.413  1.00  0.00     0.163 C 
ATOM     15  O   GLN A   1     -25.532  -3.057  -9.831  1.00  0.00    -0.648 OA
BRANCH  14  16
ATOM     16  OXT GLN A   1     -24.269  -3.739  -8.093  1.00  0.00    -0.775 OA
ATOM     17  HXT GLN A   1     -24.593  -4.591  -7.742  1.00  0.00     0.167 HD
ENDBRANCH  14  16
ENDBRANCH   1  14
TORSDOF 6
BEGIN_RES ARG D 557
REMARK  4 active torsions:
REMARK  status: ('A' for Active; 'I' for Inactive)
REMARK    1  A    between atoms: CA   and  CB  
REMARK    2  A    between atoms: CB   and  CG  
REMARK    3  A    between atoms: CG   and  CD  
REMARK    4  A    between atoms: CD   and  NE  
REMARK       I    between atoms: NE   and  CZ  
REMARK       I    between atoms: CZ   and  NH1 
REMARK       I    between atoms: CZ   and  NH2 
ROOT
ATOM      1  CA  ARG D 557     -26.217   2.705 -17.014  1.00 35.49     0.159 C 
ENDROOT
BRANCH   1   2
ATOM      2  CB  ARG D 557     -26.789   1.319 -17.183  1.00 35.49     0.034 C 
BRANCH   2   3
ATOM      3  CG  ARG D 557     -28.233   1.170 -16.968  1.00 35.49     0.027 C 
BRANCH   3   4
ATOM      4  CD  ARG D 557     -28.625  -0.237 -16.723  1.00 35.49     0.116 C 
BRANCH   4   5
ATOM      5  NE  ARG D 557     -27.602  -0.971 -16.025  1.00 35.49    -0.212 N 
ATOM      6  CZ  ARG D 557     -27.409  -2.270 -16.089  1.00 35.49     0.666 C 
ATOM      7  NH1 ARG D 557     -28.172  -3.065 -16.817  1.00 35.49    -0.235 N 
ATOM      8  NH2 ARG D 557     -26.419  -2.764 -15.405  1.00 35.49    -0.235 N 
ATOM      9  HH  ARG D 557     -28.828  -2.761 -17.277  1.00 35.49     0.174 HD
ATOM     10  HH  ARG D 557     -27.996  -3.903 -16.822  1.00 35.49     0.174 HD
ATOM     11  HH  ARG D 557     -25.939  -2.225 -14.950  1.00 35.49     0.174 HD
ATOM     12  HH  ARG D 557     -26.260  -3.596 -15.424  1.00 35.49     0.174 HD
ATOM     13  HE  ARG D 557     -27.111  -0.547 -15.476  1.00 35.49     0.178 HD
ENDBRANCH   4   5
ENDBRANCH   3   4
ENDBRANCH   2   3
ENDBRANCH   1   2
END_RES ARG D 557
BEGIN_RES GLU D 570
REMARK  3 active torsions:
REMARK  status: ('A' for Active; 'I' for Inactive)
REMARK    5  A    between atoms: CA   and  CB  
REMARK    6  A    between atoms: CB   and  CG  
REMARK    7  A    between atoms: CG   and  CD  
ROOT
ATOM     14  CA  GLU D 570     -18.033  -6.348 -13.375  1.00 32.92     0.160 C 
ENDROOT
BRANCH  14  15
ATOM     15  CB  GLU D 570     -19.500  -6.345 -13.794  1.00 32.92     0.043 C 
BRANCH  15  16
ATOM     16  CG  GLU D 570     -19.805  -6.042 -15.216  1.00 32.92     0.100 C 
BRANCH  16  17
ATOM     17  CD  GLU D 570     -21.285  -5.892 -15.482  1.00 32.92     0.185 C 
ATOM     18  OE1 GLU D 570     -22.038  -6.863 -15.278  1.00 32.92    -0.647 OA
ATOM     19  OE2 GLU D 570     -21.693  -4.796 -15.916  1.00 32.92    -0.647 OA
ENDBRANCH  16  17
ENDBRANCH  15  16
ENDBRANCH  14  15
END_RES GLU D 570
ENDMDL
MODEL 2
REMARK VINA RESULT:      -6.3      2.281      3.725
REMARK  6 active torsions:
REMARK  status: ('A' for Active; 'I' for Inactive)
REMARK       I    between atoms: C_2  and  N_4 
REMARK    1  A    between atoms: N_4  and  CA_5 
REMARK    2  A    between atoms: CA_5  and  CB_6 
REMARK    3  A    between atoms: CA_5  and  C_11 
REMARK    4  A    between atoms: CB_6  and  CG_7 
REMARK    5  A    between atoms: CG_7  and  CD_8 
REMARK       I    between atoms: CD_8  and  NE2_10 
REMARK    6  A    between atoms: C_11  and  OXT_13 
ROOT
ATOM      1  CA  GLN A   1     -23.610  -3.869 -13.707  1.00  0.00     0.182 C 
ENDROOT
BRANCH   1   2
ATOM      2  N   GLN A   1     -24.235  -3.505 -12.433  1.00  0.00    -0.347 N 
HETATM    3  C   UNK A   0     -23.772  -3.953 -11.227  1.00  0.00     0.214 C 
HETATM    4  C   UNK A   0     -24.587  -3.495 -10.050  1.00  0.00     0.117 C 
HETATM    5  O   UNK A   0     -22.767  -4.649 -11.110  1.00  0.00    -0.274 OA
ATOM      6  H   GLN A   1     -24.987  -2.823 -12.468  1.00  0.00     0.163 HD
ENDBRANCH   1   2
BRANCH   1   7
ATOM      7  CB  GLN A   1     -24.509  -4.820 -14.513  1.00  0.00     0.045 C 
BRANCH   7   8
ATOM      8  CG  GLN A   1     -23.832  -6.161 -14.798  1.00  0.00     0.105 C 
BRANCH   8   9
ATOM      9  CD  GLN A   1     -24.668  -7.102 -15.633  1.00  0.00     0.215 C 
ATOM     10  OE1 GLN A   1     -25.842  -7.376 -15.421  1.00  0.00    -0.274 OA
ATOM     11  NE2 GLN A   1     -23.986  -7.640 -16.689  1.00  0.00    -0.370 N 
ATOM     12 1HE2 GLN A   1     -23.021  -7.423 -16.898  1.00  0.00     0.159 HD
ATOM     13 2HE2 GLN A   1     -24.482  -8.275 -17.301  1.00  0.00     0.159 HD
ENDBRANCH   8   9
ENDBRANCH   7   8
ENDBRANCH   1   7
BRANCH   1  14
ATOM     14  C   GLN A   1     -23.365  -2.557 -14.462  1.00  0.00     0.163 C 
ATOM     15  O   GLN A   1     -22.616  -2.457 -15.427  1.00  0.00    -0.648 OA
BRANCH  14  16
ATOM     16  OXT GLN A   1     -24.033  -1.493 -13.963  1.00  0.00    -0.775 OA
ATOM     17  HXT GLN A   1     -24.420  -1.633 -13.077  1.00  0.00     0.167 HD
ENDBRANCH  14  16
ENDBRANCH   1  14
TORSDOF 6
BEGIN_RES ARG D 557
REMARK  4 active torsions:
REMARK  status: ('A' for Active; 'I' for Inactive)
REMARK    1  A    between atoms: CA   and  CB  
REMARK    2  A    between atoms: CB   and  CG  
REMARK    3  A    between atoms: CG   and  CD  
REMARK    4  A    between atoms: CD   and  NE  
REMARK       I    between atoms: NE   and  CZ  
REMARK       I    between atoms: CZ   and  NH1 
REMARK       I    between atoms: CZ   and  NH2 
ROOT
ATOM      1  CA  ARG D 557     -26.217   2.705 -17.014  1.00 35.49     0.159 C 
ENDROOT
BRANCH   1   2
ATOM      2  CB  ARG D 557     -26.789   1.319 -17.183  1.00 35.49     0.034 C 
BRANCH   2   3
ATOM      3  CG  ARG D 557     -28.231   1.226 -17.439  1.00 35.49     0.027 C 
BRANCH   3   4
ATOM      4  CD  ARG D 557     -28.912   0.303 -16.503  1.00 35.49     0.116 C 
BRANCH   4   5
ATOM      5  NE  ARG D 557     -29.273  -0.940 -17.134  1.00 35.49    -0.212 N 
ATOM      6  CZ  ARG D 557     -28.624  -2.077 -17.017  1.00 35.49     0.666 C 
ATOM      7  NH1 ARG D 557     -27.527  -2.196 -16.293  1.00 35.49    -0.235 N 
ATOM      8  NH2 ARG D 557     -29.107  -3.111 -17.643  1.00 35.49    -0.235 N 
ATOM      9  HH  ARG D 557     -27.192  -1.530 -15.871  1.00 35.49     0.174 HD
ATOM     10  HH  ARG D 557     -27.148  -2.964 -16.252  1.00 35.49     0.174 HD
ATOM     11  HH  ARG D 557     -29.821  -3.006 -18.097  1.00 35.49     0.174 HD
ATOM     12  HH  ARG D 557     -28.718  -3.862 -17.589  1.00 35.49     0.174 HD
ATOM     13  HE  ARG D 557     -29.927  -0.937 -17.677  1.00 35.49     0.178 HD
ENDBRANCH   4   5
ENDBRANCH   3   4
ENDBRANCH   2   3
ENDBRANCH   1   2
END_RES ARG D 557
BEGIN_RES GLU D 570
REMARK  3 active torsions:
REMARK  status: ('A' for Active; 'I' for Inactive)
REMARK    5  A    between atoms: CA   and  CB  
REMARK    6  A    between atoms: CB   and  CG  
REMARK    7  A    between atoms: CG   and  CD  
ROOT
ATOM     14  CA  GLU D 570     -18.033  -6.348 -13.375  1.00 32.92     0.160 C 
ENDROOT
BRANCH  14  15
ATOM     15  CB  GLU D 570     -19.500  -6.345 -13.794  1.00 32.92     0.043 C 
BRANCH  15  16
ATOM     16  CG  GLU D 570     -20.084  -7.633 -14.250  1.00 32.92     0.100 C 
BRANCH  16  17
ATOM     17  CD  GLU D 570     -20.609  -7.573 -15.666  1.00 32.92     0.185 C 
ATOM     18  OE1 GLU D 570     -20.529  -6.502 -16.296  1.00 32.92    -0.647 OA
ATOM     19  OE2 GLU D 570     -21.120  -8.605 -16.144  1.00 32.92    -0.647 OA
ENDBRANCH  16  17
ENDBRANCH  15  16
ENDBRANCH  14  15
END_RES GLU D 570
ENDMDL
MODEL 3
REMARK VINA RESULT:      -6.0      2.051      3.321
REMARK  6 active torsions:
REMARK  status: ('A' for Active; 'I' for Inactive)
REMARK       I    between atoms: C_2  and  N_4 
REMARK    1  A    between atoms: N_4  and  CA_5 
REMARK    2  A    between atoms: CA_5  and  CB_6 
REMARK    3  A    between atoms: CA_5  and  C_11 
REMARK    4  A    between atoms: CB_6  and  CG_7 
REMARK    5  A    between atoms: CG_7  and  CD_8 
REMARK       I    between atoms: CD_8  and  NE2_10 
REMARK    6  A    between atoms: C_11  and  OXT_13 
ROOT
ATOM      1  CA  GLN A   1     -23.209  -4.233 -12.539  1.00  0.00     0.182 C 
ENDROOT
BRANCH   1   2
ATOM      2  N   GLN A   1     -23.777  -5.358 -13.285  1.00  0.00    -0.347 N 
HETATM    3  C   UNK A   0     -23.577  -5.533 -14.628  1.00  0.00     0.214 C 
HETATM    4  C   UNK A   0     -24.286  -6.728 -15.201  1.00  0.00     0.117 C 
HETATM    5  O   UNK A   0     -22.866  -4.794 -15.302  1.00  0.00    -0.274 OA
ATOM      6  H   GLN A   1     -24.261  -6.070 -12.746  1.00  0.00     0.163 HD
ENDBRANCH   1   2
BRANCH   1   7
ATOM      7  CB  GLN A   1     -24.135  -3.008 -12.595  1.00  0.00     0.045 C 
BRANCH   7   8
ATOM      8  CG  GLN A   1     -23.726  -2.015 -13.683  1.00  0.00     0.105 C 
BRANCH   8   9
ATOM      9  CD  GLN A   1     -24.818  -1.720 -14.683  1.00  0.00     0.215 C 
ATOM     10  OE1 GLN A   1     -25.595  -2.548 -15.141  1.00  0.00    -0.274 OA
ATOM     11  NE2 GLN A   1     -24.879  -0.403 -15.046  1.00  0.00    -0.370 N 
ATOM     12 1HE2 GLN A   1     -24.261   0.306 -14.675  1.00  0.00     0.159 HD
ATOM     13 2HE2 GLN A   1     -25.592  -0.125 -15.708  1.00  0.00     0.159 HD
ENDBRANCH   8   9
ENDBRANCH   7   8
ENDBRANCH   1   7
BRANCH   1  14
ATOM     14  C   GLN A   1     -23.011  -4.720 -11.099  1.00  0.00     0.163 C 
ATOM     15  O   GLN A   1     -23.891  -5.252 -10.433  1.00  0.00    -0.648 OA
BRANCH  14  16
ATOM     16  OXT GLN A   1     -21.775  -4.496 -10.600  1.00  0.00    -0.775 OA
ATOM     17  HXT GLN A   1     -21.497  -3.560 -10.602  1.00  0.00     0.167 HD
ENDBRANCH  14  16
ENDBRANCH   1  14
TORSDOF 6
BEGIN_RES ARG D 557
REMARK  4 active torsions:
REMARK  status: ('A' for Active; 'I' for Inactive)
REMARK    1  A    between atoms: CA   and  CB  
REMARK    2  A    between atoms: CB   and  CG  
REMARK    3  A    between atoms: CG   and  CD  
REMARK    4  A    between atoms: CD   and  NE  
REMARK       I    between atoms: NE   and  CZ  
REMARK       I    between atoms: CZ   and  NH1 
REMARK       I    between atoms: CZ   and  NH2 
ROOT
ATOM      1  CA  ARG D 557     -26.217   2.705 -17.014  1.00 35.49     0.159 C 
ENDROOT
BRANCH   1   2
ATOM      2  CB  ARG D 557     -26.789   1.319 -17.183  1.00 35.49     0.034 C 
BRANCH   2   3
ATOM      3  CG  ARG D 557     -28.134   1.089 -16.642  1.00 35.49     0.027 C 
BRANCH   3   4
ATOM      4  CD  ARG D 557     -28.785  -0.102 -17.235  1.00 35.49     0.116 C 
BRANCH   4   5
ATOM      5  NE  ARG D 557     -28.165  -1.328 -16.808  1.00 35.49    -0.212 N 
ATOM      6  CZ  ARG D 557     -28.635  -2.538 -17.012  1.00 35.49     0.666 C 
ATOM      7  NH1 ARG D 557     -29.774  -2.760 -17.641  1.00 35.49    -0.235 N 
ATOM      8  NH2 ARG D 557     -27.928  -3.539 -16.573  1.00 35.49    -0.235 N 
ATOM      9  HH  ARG D 557     -30.255  -2.116 -17.940  1.00 35.49     0.174 HD
ATOM     10  HH  ARG D 557     -30.030  -3.571 -17.747  1.00 35.49     0.174 HD
ATOM     11  HH  ARG D 557     -27.193  -3.366 -16.177  1.00 35.49     0.174 HD
ATOM     12  HH  ARG D 557     -28.197  -4.335 -16.689  1.00 35.49     0.174 HD
ATOM     13  HE  ARG D 557     -27.462  -1.276 -16.331  1.00 35.49     0.178 HD
ENDBRANCH   4   5
ENDBRANCH   3   4
ENDBRANCH   2   3
ENDBRANCH   1   2
END_RES ARG D 557
BEGIN_RES GLU D 570
REMARK  3 active torsions:
REMARK  status: ('A' for Active; 'I' for Inactive)
REMARK    5  A    between atoms: CA   and  CB  
REMARK    6  A    between atoms: CB   and  CG  
REMARK    7  A    between atoms: CG   and  CD  
ROOT
ATOM     14  CA  GLU D 570     -18.033  -6.348 -13.375  1.00 32.92     0.160 C 
ENDROOT
BRANCH  14  15
ATOM     15  CB  GLU D 570     -19.500  -6.345 -13.794  1.00 32.92     0.043 C 
BRANCH  15  16
ATOM     16  CG  GLU D 570     -19.796  -6.285 -15.249  1.00 32.92     0.100 C 
BRANCH  16  17
ATOM     17  CD  GLU D 570     -20.602  -7.467 -15.736  1.00 32.92     0.185 C 
ATOM     18  OE1 GLU D 570     -21.255  -7.360 -16.791  1.00 32.92    -0.647 OA
ATOM     19  OE2 GLU D 570     -20.592  -8.505 -15.045  1.00 32.92    -0.647 OA
ENDBRANCH  16  17
ENDBRANCH  15  16
ENDBRANCH  14  15
END_RES GLU D 570
ENDMDL
MODEL 4
REMARK VINA RESULT:      -5.8      2.188      4.209
REMARK  6 active torsions:
REMARK  status: ('A' for Active; 'I' for Inactive)
REMARK       I    between atoms: C_2  and  N_4 
REMARK    1  A    between atoms: N_4  and  CA_5 
REMARK    2  A    between atoms: CA_5  and  CB_6 
REMARK    3  A    between atoms: CA_5  and  C_11 
REMARK    4  A    between atoms: CB_6  and  CG_7 
REMARK    5  A    between atoms: CG_7  and  CD_8 
REMARK       I    between atoms: CD_8  and  NE2_10 
REMARK    6  A    between atoms: C_11  and  OXT_13 
ROOT
ATOM      1  CA  GLN A   1     -24.452  -3.049 -13.634  1.00  0.00     0.182 C 
ENDROOT
BRANCH   1   2
ATOM      2  N   GLN A   1     -24.106  -4.384 -14.125  1.00  0.00    -0.347 N 
HETATM    3  C   UNK A   0     -24.904  -5.087 -14.986  1.00  0.00     0.214 C 
HETATM    4  C   UNK A   0     -24.381  -6.454 -15.327  1.00  0.00     0.117 C 
HETATM    5  O   UNK A   0     -25.945  -4.635 -15.456  1.00  0.00    -0.274 OA
ATOM      6  H   GLN A   1     -23.190  -4.745 -13.871  1.00  0.00     0.163 HD
ENDBRANCH   1   2
BRANCH   1   7
ATOM      7  CB  GLN A   1     -24.000  -2.860 -12.177  1.00  0.00     0.045 C 
BRANCH   7   8
ATOM      8  CG  GLN A   1     -22.488  -3.009 -12.009  1.00  0.00     0.105 C 
BRANCH   8   9
ATOM      9  CD  GLN A   1     -22.082  -4.146 -11.102  1.00  0.00     0.215 C 
ATOM     10  OE1 GLN A   1     -20.929  -4.485 -10.871  1.00  0.00    -0.274 OA
ATOM     11  NE2 GLN A   1     -23.145  -4.787 -10.529  1.00  0.00    -0.370 N 
ATOM     12 1HE2 GLN A   1     -24.108  -4.522 -10.689  1.00  0.00     0.159 HD
ATOM     13 2HE2 GLN A   1     -22.954  -5.557  -9.900  1.00  0.00     0.159 HD
ENDBRANCH   8   9
ENDBRANCH   7   8
ENDBRANCH   1   7
BRANCH   1  14
ATOM     14  C   GLN A   1     -23.761  -2.048 -14.568  1.00  0.00     0.163 C 
ATOM     15  O   GLN A   1     -22.814  -2.333 -15.290  1.00  0.00    -0.648 OA
BRANCH  14  16
ATOM     16  OXT GLN A   1     -24.272  -0.797 -14.519  1.00  0.00    -0.775 OA
ATOM     17  HXT GLN A   1     -25.122  -0.721 -14.045  1.00  0.00     0.167 HD
ENDBRANCH  14  16
ENDBRANCH   1  14
TORSDOF 6
BEGIN_RES ARG D 557
REMARK  4 active torsions:
REMARK  status: ('A' for Active; 'I' for Inactive)
REMARK    1  A    between atoms: CA   and  CB  
REMARK    2  A    between atoms: CB   and  CG  
REMARK    3  A    between atoms: CG   and  CD  
REMARK    4  A    between atoms: CD   and  NE  
REMARK       I    between atoms: NE   and  CZ  
REMARK       I    between atoms: CZ   and  NH1 
REMARK       I    between atoms: CZ   and  NH2 
ROOT
ATOM      1  CA  ARG D 557     -26.217   2.705 -17.014  1.00 35.49     0.159 C 
ENDROOT
BRANCH   1   2
ATOM      2  CB  ARG D 557     -26.789   1.319 -17.183  1.00 35.49     0.034 C 
BRANCH   2   3
ATOM      3  CG  ARG D 557     -28.220   1.229 -17.498  1.00 35.49     0.027 C 
BRANCH   3   4
ATOM      4  CD  ARG D 557     -28.948   0.338 -16.566  1.00 35.49     0.116 C 
BRANCH   4   5
ATOM      5  NE  ARG D 557     -28.943  -1.031 -17.008  1.00 35.49    -0.212 N 
ATOM      6  CZ  ARG D 557     -28.107  -1.964 -16.609  1.00 35.49     0.666 C 
ATOM      7  NH1 ARG D 557     -27.141  -1.727 -15.741  1.00 35.49    -0.235 N 
ATOM      8  NH2 ARG D 557     -28.262  -3.159 -17.100  1.00 35.49    -0.235 N 
ATOM      9  HH  ARG D 557     -27.022  -0.948 -15.403  1.00 35.49     0.174 HD
ATOM     10  HH  ARG D 557     -26.628  -2.375 -15.516  1.00 35.49     0.174 HD
ATOM     11  HH  ARG D 557     -28.899  -3.285 -17.654  1.00 35.49     0.174 HD
ATOM     12  HH  ARG D 557     -27.745  -3.788 -16.864  1.00 35.49     0.174 HD
ATOM     13  HE  ARG D 557     -29.486  -1.254 -17.623  1.00 35.49     0.178 HD
ENDBRANCH   4   5
ENDBRANCH   3   4
ENDBRANCH   2   3
ENDBRANCH   1   2
END_RES ARG D 557
BEGIN_RES GLU D 570
REMARK  3 active torsions:
REMARK  status: ('A' for Active; 'I' for Inactive)
REMARK    5  A    between atoms: CA   and  CB  
REMARK    6  A    between atoms: CB   and  CG  
REMARK    7  A    between atoms: CG   and  CD  
ROOT
ATOM     14  CA  GLU D 570     -18.033  -6.348 -13.375  1.00 32.92     0.160 C 
ENDROOT
BRANCH  14  15
ATOM     15  CB  GLU D 570     -19.500  -6.345 -13.794  1.00 32.92     0.043 C 
BRANCH  15  16
ATOM     16  CG  GLU D 570     -20.086  -7.634 -14.243  1.00 32.92     0.100 C 
BRANCH  16  17
ATOM     17  CD  GLU D 570     -20.707  -7.553 -15.618  1.00 32.92     0.185 C 
ATOM     18  OE1 GLU D 570     -20.713  -6.459 -16.215  1.00 32.92    -0.647 OA
ATOM     19  OE2 GLU D 570     -21.208  -8.590 -16.096  1.00 32.92    -0.647 OA
ENDBRANCH  16  17
ENDBRANCH  15  16
ENDBRANCH  14  15
END_RES GLU D 570
ENDMDL
MODEL 5
REMARK VINA RESULT:      -5.8      1.473      3.184
REMARK  6 active torsions:
REMARK  status: ('A' for Active; 'I' for Inactive)
REMARK       I    between atoms: C_2  and  N_4 
REMARK    1  A    between atoms: N_4  and  CA_5 
REMARK    2  A    between atoms: CA_5  and  CB_6 
REMARK    3  A    between atoms: CA_5  and  C_11 
REMARK    4  A    between atoms: CB_6  and  CG_7 
REMARK    5  A    between atoms: CG_7  and  CD_8 
REMARK       I    between atoms: CD_8  and  NE2_10 
REMARK    6  A    between atoms: C_11  and  OXT_13 
ROOT
ATOM      1  CA  GLN A   1     -24.375  -3.855 -11.720  1.00  0.00     0.182 C 
ENDROOT
BRANCH   1   2
ATOM      2  N   GLN A   1     -24.167  -2.696 -12.591  1.00  0.00    -0.347 N 
HETATM    3  C   UNK A   0     -24.788  -2.559 -13.802  1.00  0.00     0.214 C 
HETATM    4  C   UNK A   0     -24.398  -1.316 -14.552  1.00  0.00     0.117 C 
HETATM    5  O   UNK A   0     -25.607  -3.366 -14.231  1.00  0.00    -0.274 OA
ATOM      6  H   GLN A   1     -23.602  -1.937 -12.220  1.00  0.00     0.163 HD
ENDBRANCH   1   2
BRANCH   1   7
ATOM      7  CB  GLN A   1     -23.233  -4.873 -11.871  1.00  0.00     0.045 C 
BRANCH   7   8
ATOM      8  CG  GLN A   1     -21.968  -4.250 -12.462  1.00  0.00     0.105 C 
BRANCH   8   9
ATOM      9  CD  GLN A   1     -20.904  -3.937 -11.438  1.00  0.00     0.215 C 
ATOM     10  OE1 GLN A   1     -20.317  -4.769 -10.758  1.00  0.00    -0.274 OA
ATOM     11  NE2 GLN A   1     -20.632  -2.602 -11.329  1.00  0.00    -0.370 N 
ATOM     12 1HE2 GLN A   1     -21.090  -1.893 -11.886  1.00  0.00     0.159 HD
ATOM     13 2HE2 GLN A   1     -19.922  -2.313 -10.668  1.00  0.00     0.159 HD
ENDBRANCH   8   9
ENDBRANCH   7   8
ENDBRANCH   1   7
BRANCH   1  14
ATOM     14  C   GLN A   1     -24.457  -3.314 -10.287  1.00  0.00     0.163 C 
ATOM     15  O   GLN A   1     -23.477  -3.050  -9.602  1.00  0.00    -0.648 OA
BRANCH  14  16
ATOM     16  OXT GLN A   1     -25.717  -3.168  -9.819  1.00  0.00    -0.775 OA
ATOM     17  HXT GLN A   1     -25.789  -3.127  -8.845  1.00  0.00     0.167 HD
ENDBRANCH  14  16
ENDBRANCH   1  14
TORSDOF 6
BEGIN_RES ARG D 557
REMARK  4 active torsions:
REMARK  status: ('A' for Active; 'I' for Inactive)
REMARK    1  A    between atoms: CA   and  CB  
REMARK    2  A    between atoms: CB   and  CG  
REMARK    3  A    between atoms: CG   and  CD  
REMARK    4  A    between atoms: CD   and  NE  
REMARK       I    between atoms: NE   and  CZ  
REMARK       I    between atoms: CZ   and  NH1 
REMARK       I    between atoms: CZ   and  NH2 
ROOT
ATOM      1  CA  ARG D 557     -26.217   2.705 -17.014  1.00 35.49     0.159 C 
ENDROOT
BRANCH   1   2
ATOM      2  CB  ARG D 557     -26.789   1.319 -17.183  1.00 35.49     0.034 C 
BRANCH   2   3
ATOM      3  CG  ARG D 557     -28.233   1.226 -17.432  1.00 35.49     0.027 C 
BRANCH   3   4
ATOM      4  CD  ARG D 557     -28.908   0.299 -16.496  1.00 35.49     0.116 C 
BRANCH   4   5
ATOM      5  NE  ARG D 557     -29.280  -0.938 -17.131  1.00 35.49    -0.212 N 
ATOM      6  CZ  ARG D 557     -28.639  -2.080 -17.023  1.00 35.49     0.666 C 
ATOM      7  NH1 ARG D 557     -27.539  -2.211 -16.305  1.00 35.49    -0.235 N 
ATOM      8  NH2 ARG D 557     -29.132  -3.107 -17.653  1.00 35.49    -0.235 N 
ATOM      9  HH  ARG D 557     -27.199  -1.549 -15.881  1.00 35.49     0.174 HD
ATOM     10  HH  ARG D 557     -27.166  -2.981 -16.269  1.00 35.49     0.174 HD
ATOM     11  HH  ARG D 557     -29.848  -2.995 -18.103  1.00 35.49     0.174 HD
ATOM     12  HH  ARG D 557     -28.748  -3.862 -17.604  1.00 35.49     0.174 HD
ATOM     13  HE  ARG D 557     -29.937  -0.928 -17.672  1.00 35.49     0.178 HD
ENDBRANCH   4   5
ENDBRANCH   3   4
ENDBRANCH   2   3
ENDBRANCH   1   2
END_RES ARG D 557
BEGIN_RES GLU D 570
REMARK  3 active torsions:
REMARK  status: ('A' for Active; 'I' for Inactive)
REMARK    5  A    between atoms: CA   and  CB  
REMARK    6  A    between atoms: CB   and  CG  
REMARK    7  A    between atoms: CG   and  CD  
ROOT
ATOM     14  CA  GLU D 570     -18.033  -6.348 -13.375  1.00 32.92     0.160 C 
ENDROOT
BRANCH  14  15
ATOM     15  CB  GLU D 570     -19.500  -6.345 -13.794  1.00 32.92     0.043 C 
BRANCH  15  16
ATOM     16  CG  GLU D 570     -19.798  -6.190 -15.241  1.00 32.92     0.100 C 
BRANCH  16  17
ATOM     17  CD  GLU D 570     -21.261  -5.932 -15.517  1.00 32.92     0.185 C 
ATOM     18  OE1 GLU D 570     -22.110  -6.730 -15.077  1.00 32.92    -0.647 OA
ATOM     19  OE2 GLU D 570     -21.560  -4.929 -16.195  1.00 32.92    -0.647 OA
ENDBRANCH  16  17
ENDBRANCH  15  16
ENDBRANCH  14  15
END_RES GLU D 570
ENDMDL
MODEL 6
REMARK VINA RESULT:      -5.8      2.391      3.835
REMARK  6 active torsions:
REMARK  status: ('A' for Active; 'I' for Inactive)
REMARK       I    between atoms: C_2  and  N_4 
REMARK    1  A    between atoms: N_4  and  CA_5 
REMARK    2  A    between atoms: CA_5  and  CB_6 
REMARK    3  A    between atoms: CA_5  and  C_11 
REMARK    4  A    between atoms: CB_6  and  CG_7 
REMARK    5  A    between atoms: CG_7  and  CD_8 
REMARK       I    between atoms: CD_8  and  NE2_10 
REMARK    6  A    between atoms: C_11  and  OXT_13 
ROOT
ATOM      1  CA  GLN A   1     -23.957  -3.612 -13.395  1.00  0.00     0.182 C 
ENDROOT
BRANCH   1   2
ATOM      2  N   GLN A   1     -23.665  -2.339 -14.057  1.00  0.00    -0.347 N 
HETATM    3  C   UNK A   0     -24.616  -1.616 -14.725  1.00  0.00     0.214 C 
HETATM    4  C   UNK A   0     -24.091  -0.362 -15.368  1.00  0.00     0.117 C 
HETATM    5  O   UNK A   0     -25.797  -1.947 -14.777  1.00  0.00    -0.274 OA
ATOM      6  H   GLN A   1     -22.733  -1.956 -13.927  1.00  0.00     0.163 HD
ENDBRANCH   1   2
BRANCH   1   7
ATOM      7  CB  GLN A   1     -23.016  -4.722 -13.888  1.00  0.00     0.045 C 
BRANCH   7   8
ATOM      8  CG  GLN A   1     -23.720  -6.073 -14.016  1.00  0.00     0.105 C 
BRANCH   8   9
ATOM      9  CD  GLN A   1     -24.546  -6.214 -15.273  1.00  0.00     0.215 C 
ATOM     10  OE1 GLN A   1     -25.432  -5.445 -15.622  1.00  0.00    -0.274 OA
ATOM     11  NE2 GLN A   1     -24.209  -7.307 -16.022  1.00  0.00    -0.370 N 
ATOM     12 1HE2 GLN A   1     -23.474  -7.952 -15.767  1.00  0.00     0.159 HD
ATOM     13 2HE2 GLN A   1     -24.713  -7.465 -16.885  1.00  0.00     0.159 HD
ENDBRANCH   8   9
ENDBRANCH   7   8
ENDBRANCH   1   7
BRANCH   1  14
ATOM     14  C   GLN A   1     -23.796  -3.368 -11.890  1.00  0.00     0.163 C 
ATOM     15  O   GLN A   1     -22.719  -3.398 -11.307  1.00  0.00    -0.648 OA
BRANCH  14  16
ATOM     16  OXT GLN A   1     -24.956  -3.134 -11.236  1.00  0.00    -0.775 OA
ATOM     17  HXT GLN A   1     -25.537  -3.914 -11.142  1.00  0.00     0.167 HD
ENDBRANCH  14  16
ENDBRANCH   1  14
TORSDOF 6
BEGIN_RES ARG D 557
REMARK  4 active torsions:
REMARK  status: ('A' for Active; 'I' for Inactive)
REMARK    1  A    between atoms: CA   and  CB  
REMARK    2  A    between atoms: CB   and  CG  
REMARK    3  A    between atoms: CG   and  CD  
REMARK    4  A    between atoms: CD   and  NE  
REMARK       I    between atoms: NE   and  CZ  
REMARK       I    between atoms: CZ   and  NH1 
REMARK       I    between atoms: CZ   and  NH2 
ROOT
ATOM      1  CA  ARG D 557     -26.217   2.705 -17.014  1.00 35.49     0.159 C 
ENDROOT
BRANCH   1   2
ATOM      2  CB  ARG D 557     -26.789   1.319 -17.183  1.00 35.49     0.034 C 
BRANCH   2   3
ATOM      3  CG  ARG D 557     -28.251   1.196 -17.124  1.00 35.49     0.027 C 
BRANCH   3   4
ATOM      4  CD  ARG D 557     -28.687   0.052 -16.292  1.00 35.49     0.116 C 
BRANCH   4   5
ATOM      5  NE  ARG D 557     -29.348  -0.964 -17.069  1.00 35.49    -0.212 N 
ATOM      6  CZ  ARG D 557     -28.986  -2.224 -17.152  1.00 35.49     0.666 C 
ATOM      7  NH1 ARG D 557     -27.932  -2.703 -16.519  1.00 35.49    -0.235 N 
ATOM      8  NH2 ARG D 557     -29.716  -3.011 -17.889  1.00 35.49    -0.235 N 
ATOM      9  HH  ARG D 557     -27.438  -2.204 -16.027  1.00 35.49     0.174 HD
ATOM     10  HH  ARG D 557     -27.745  -3.534 -16.608  1.00 35.49     0.174 HD
ATOM     11  HH  ARG D 557     -30.396  -2.676 -18.280  1.00 35.49     0.174 HD
ATOM     12  HH  ARG D 557     -29.516  -3.831 -17.964  1.00 35.49     0.174 HD
ATOM     13  HE  ARG D 557     -29.996  -0.727 -17.567  1.00 35.49     0.178 HD
ENDBRANCH   4   5
ENDBRANCH   3   4
ENDBRANCH   2   3
ENDBRANCH   1   2
END_RES ARG D 557
BEGIN_RES GLU D 570
REMARK  3 active torsions:
REMARK  status: ('A' for Active; 'I' for Inactive)
REMARK    5  A    between atoms: CA   and  CB  
REMARK    6  A    between atoms: CB   and  CG  
REMARK    7  A    between atoms: CG   and  CD  
ROOT
ATOM     14  CA  GLU D 570     -18.033  -6.348 -13.375  1.00 32.92     0.160 C 
ENDROOT
BRANCH  14  15
ATOM     15  CB  GLU D 570     -19.500  -6.345 -13.794  1.00 32.92     0.043 C 
BRANCH  15  16
ATOM     16  CG  GLU D 570     -20.081  -7.630 -14.263  1.00 32.92     0.100 C 
BRANCH  16  17
ATOM     17  CD  GLU D 570     -20.723  -7.523 -15.627  1.00 32.92     0.185 C 
ATOM     18  OE1 GLU D 570     -21.367  -8.493 -16.069  1.00 32.92    -0.647 OA
ATOM     19  OE2 GLU D 570     -20.565  -6.465 -16.266  1.00 32.92    -0.647 OA
ENDBRANCH  16  17
ENDBRANCH  15  16
ENDBRANCH  14  15
END_RES GLU D 570
ENDMDL
MODEL 7
REMARK VINA RESULT:      -5.7      1.430      3.311
REMARK  6 active torsions:
REMARK  status: ('A' for Active; 'I' for Inactive)
REMARK       I    between atoms: C_2  and  N_4 
REMARK    1  A    between atoms: N_4  and  CA_5 
REMARK    2  A    between atoms: CA_5  and  CB_6 
REMARK    3  A    between atoms: CA_5  and  C_11 
REMARK    4  A    between atoms: CB_6  and  CG_7 
REMARK    5  A    between atoms: CG_7  and  CD_8 
REMARK       I    between atoms: CD_8  and  NE2_10 
REMARK    6  A    between atoms: C_11  and  OXT_13 
ROOT
ATOM      1  CA  GLN A   1     -22.988  -4.120 -10.505  1.00  0.00     0.182 C 
ENDROOT
BRANCH   1   2
ATOM      2  N   GLN A   1     -22.886  -3.559 -11.854  1.00  0.00    -0.347 N 
HETATM    3  C   UNK A   0     -23.024  -4.319 -12.984  1.00  0.00     0.214 C 
HETATM    4  C   UNK A   0     -22.838  -3.552 -14.263  1.00  0.00     0.117 C 
HETATM    5  O   UNK A   0     -23.297  -5.516 -12.958  1.00  0.00    -0.274 OA
ATOM      6  H   GLN A   1     -22.794  -2.550 -11.928  1.00  0.00     0.163 HD
ENDBRANCH   1   2
BRANCH   1   7
ATOM      7  CB  GLN A   1     -21.811  -3.668  -9.627  1.00  0.00     0.045 C 
BRANCH   7   8
ATOM      8  CG  GLN A   1     -20.975  -4.844  -9.119  1.00  0.00     0.105 C 
BRANCH   8   9
ATOM      9  CD  GLN A   1     -21.305  -5.264  -7.707  1.00  0.00     0.215 C 
ATOM     10  OE1 GLN A   1     -22.222  -4.810  -7.034  1.00  0.00    -0.274 OA
ATOM     11  NE2 GLN A   1     -20.473  -6.234  -7.221  1.00  0.00    -0.370 N 
ATOM     12 1HE2 GLN A   1     -19.717  -6.638  -7.757  1.00  0.00     0.159 HD
ATOM     13 2HE2 GLN A   1     -20.636  -6.574  -6.282  1.00  0.00     0.159 HD
ENDBRANCH   8   9
ENDBRANCH   7   8
ENDBRANCH   1   7
BRANCH   1  14
ATOM     14  C   GLN A   1     -24.328  -3.640  -9.934  1.00  0.00     0.163 C 
ATOM     15  O   GLN A   1     -25.248  -3.215 -10.623  1.00  0.00    -0.648 OA
BRANCH  14  16
ATOM     16  OXT GLN A   1     -24.414  -3.703  -8.586  1.00  0.00    -0.775 OA
ATOM     17  HXT GLN A   1     -24.102  -2.903  -8.120  1.00  0.00     0.167 HD
ENDBRANCH  14  16
ENDBRANCH   1  14
TORSDOF 6
BEGIN_RES ARG D 557
REMARK  4 active torsions:
REMARK  status: ('A' for Active; 'I' for Inactive)
REMARK    1  A    between atoms: CA   and  CB  
REMARK    2  A    between atoms: CB   and  CG  
REMARK    3  A    between atoms: CG   and  CD  
REMARK    4  A    between atoms: CD   and  NE  
REMARK       I    between atoms: NE   and  CZ  
REMARK       I    between atoms: CZ   and  NH1 
REMARK       I    between atoms: CZ   and  NH2 
ROOT
ATOM      1  CA  ARG D 557     -26.217   2.705 -17.014  1.00 35.49     0.159 C 
ENDROOT
BRANCH   1   2
ATOM      2  CB  ARG D 557     -26.789   1.319 -17.183  1.00 35.49     0.034 C 
BRANCH   2   3
ATOM      3  CG  ARG D 557     -28.217   1.153 -16.885  1.00 35.49     0.027 C 
BRANCH   3   4
ATOM      4  CD  ARG D 557     -28.595  -0.268 -16.710  1.00 35.49     0.116 C 
BRANCH   4   5
ATOM      5  NE  ARG D 557     -27.594  -1.011 -15.991  1.00 35.49    -0.212 N 
ATOM      6  CZ  ARG D 557     -27.395  -2.308 -16.070  1.00 35.49     0.666 C 
ATOM      7  NH1 ARG D 557     -28.131  -3.093 -16.836  1.00 35.49    -0.235 N 
ATOM      8  NH2 ARG D 557     -26.426  -2.811 -15.363  1.00 35.49    -0.235 N 
ATOM      9  HH  ARG D 557     -28.773  -2.783 -17.311  1.00 35.49     0.174 HD
ATOM     10  HH  ARG D 557     -27.954  -3.931 -16.849  1.00 35.49     0.174 HD
ATOM     11  HH  ARG D 557     -25.962  -2.279 -14.883  1.00 35.49     0.174 HD
ATOM     12  HH  ARG D 557     -26.265  -3.643 -15.390  1.00 35.49     0.174 HD
ATOM     13  HE  ARG D 557     -27.121  -0.595 -15.420  1.00 35.49     0.178 HD
ENDBRANCH   4   5
ENDBRANCH   3   4
ENDBRANCH   2   3
ENDBRANCH   1   2
END_RES ARG D 557
BEGIN_RES GLU D 570
REMARK  3 active torsions:
REMARK  status: ('A' for Active; 'I' for Inactive)
REMARK    5  A    between atoms: CA   and  CB  
REMARK    6  A    between atoms: CB   and  CG  
REMARK    7  A    between atoms: CG   and  CD  
ROOT
ATOM     14  CA  GLU D 570     -18.033  -6.348 -13.375  1.00 32.92     0.160 C 
ENDROOT
BRANCH  14  15
ATOM     15  CB  GLU D 570     -19.500  -6.345 -13.794  1.00 32.92     0.043 C 
BRANCH  15  16
ATOM     16  CG  GLU D 570     -19.796  -6.369 -15.250  1.00 32.92     0.100 C 
BRANCH  16  17
ATOM     17  CD  GLU D 570     -20.917  -7.316 -15.608  1.00 32.92     0.185 C 
ATOM     18  OE1 GLU D 570     -20.679  -8.537 -15.679  1.00 32.92    -0.647 OA
ATOM     19  OE2 GLU D 570     -22.043  -6.830 -15.836  1.00 32.92    -0.647 OA
ENDBRANCH  16  17
ENDBRANCH  15  16
ENDBRANCH  14  15
END_RES GLU D 570
ENDMDL
MODEL 8
REMARK VINA RESULT:      -5.7      2.733      3.779
REMARK  6 active torsions:
REMARK  status: ('A' for Active; 'I' for Inactive)
REMARK       I    between atoms: C_2  and  N_4 
REMARK    1  A    between atoms: N_4  and  CA_5 
REMARK    2  A    between atoms: CA_5  and  CB_6 
REMARK    3  A    between atoms: CA_5  and  C_11 
REMARK    4  A    between atoms: CB_6  and  CG_7 
REMARK    5  A    between atoms: CG_7  and  CD_8 
REMARK       I    between atoms: CD_8  and  NE2_10 
REMARK    6  A    between atoms: C_11  and  OXT_13 
ROOT
ATOM      1  CA  GLN A   1     -21.617  -5.004  -7.794  1.00  0.00     0.182 C 
ENDROOT
BRANCH   1   2
ATOM      2  N   GLN A   1     -21.398  -5.147  -6.353  1.00  0.00    -0.347 N 
HETATM    3  C   UNK A   0     -21.285  -6.364  -5.738  1.00  0.00     0.214 C 
HETATM    4  C   UNK A   0     -21.108  -6.283  -4.248  1.00  0.00     0.117 C 
HETATM    5  O   UNK A   0     -21.304  -7.429  -6.349  1.00  0.00    -0.274 OA
ATOM      6  H   GLN A   1     -21.241  -4.294  -5.824  1.00  0.00     0.163 HD
ENDBRANCH   1   2
BRANCH   1   7
ATOM      7  CB  GLN A   1     -22.665  -3.920  -8.090  1.00  0.00     0.045 C 
BRANCH   7   8
ATOM      8  CG  GLN A   1     -23.735  -4.394  -9.074  1.00  0.00     0.105 C 
BRANCH   8   9
ATOM      9  CD  GLN A   1     -23.838  -3.546 -10.319  1.00  0.00     0.215 C 
ATOM     10  OE1 GLN A   1     -24.886  -3.166 -10.827  1.00  0.00    -0.274 OA
ATOM     11  NE2 GLN A   1     -22.623  -3.216 -10.853  1.00  0.00    -0.370 N 
ATOM     12 1HE2 GLN A   1     -21.742  -3.502 -10.449  1.00  0.00     0.159 HD
ATOM     13 2HE2 GLN A   1     -22.610  -2.640 -11.685  1.00  0.00     0.159 HD
ENDBRANCH   8   9
ENDBRANCH   7   8
ENDBRANCH   1   7
BRANCH   1  14
ATOM     14  C   GLN A   1     -20.257  -4.651  -8.408  1.00  0.00     0.163 C 
ATOM     15  O   GLN A   1     -20.052  -4.585  -9.614  1.00  0.00    -0.648 OA
BRANCH  14  16
ATOM     16  OXT GLN A   1     -19.277  -4.433  -7.503  1.00  0.00    -0.775 OA
ATOM     17  HXT GLN A   1     -18.376  -4.644  -7.818  1.00  0.00     0.167 HD
ENDBRANCH  14  16
ENDBRANCH   1  14
TORSDOF 6
BEGIN_RES ARG D 557
REMARK  4 active torsions:
REMARK  status: ('A' for Active; 'I' for Inactive)
REMARK    1  A    between atoms: CA   and  CB  
REMARK    2  A    between atoms: CB   and  CG  
REMARK    3  A    between atoms: CG   and  CD  
REMARK    4  A    between atoms: CD   and  NE  
REMARK       I    between atoms: NE   and  CZ  
REMARK       I    between atoms: CZ   and  NH1 
REMARK       I    between atoms: CZ   and  NH2 
ROOT
ATOM      1  CA  ARG D 557     -26.217   2.705 -17.014  1.00 35.49     0.159 C 
ENDROOT
BRANCH   1   2
ATOM      2  CB  ARG D 557     -26.789   1.319 -17.183  1.00 35.49     0.034 C 
BRANCH   2   3
ATOM      3  CG  ARG D 557     -25.838   0.202 -17.137  1.00 35.49     0.027 C 
BRANCH   3   4
ATOM      4  CD  ARG D 557     -24.780   0.402 -16.121  1.00 35.49     0.116 C 
BRANCH   4   5
ATOM      5  NE  ARG D 557     -24.910  -0.510 -15.015  1.00 35.49    -0.212 N 
ATOM      6  CZ  ARG D 557     -24.070  -1.473 -14.711  1.00 35.49     0.666 C 
ATOM      7  NH1 ARG D 557     -22.987  -1.721 -15.424  1.00 35.49    -0.235 N 
ATOM      8  NH2 ARG D 557     -24.335  -2.191 -13.659  1.00 35.49    -0.235 N 
ATOM      9  HH  ARG D 557     -22.791  -1.259 -16.119  1.00 35.49     0.174 HD
ATOM     10  HH  ARG D 557     -22.474  -2.361 -15.176  1.00 35.49     0.174 HD
ATOM     11  HH  ARG D 557     -25.038  -2.004 -13.213  1.00 35.49     0.174 HD
ATOM     12  HH  ARG D 557     -23.814  -2.819 -13.428  1.00 35.49     0.174 HD
ATOM     13  HE  ARG D 557     -25.618  -0.468 -14.545  1.00 35.49     0.178 HD
ENDBRANCH   4   5
ENDBRANCH   3   4
ENDBRANCH   2   3
ENDBRANCH   1   2
END_RES ARG D 557
BEGIN_RES GLU D 570
REMARK  3 active torsions:
REMARK  status: ('A' for Active; 'I' for Inactive)
REMARK    5  A    between atoms: CA   and  CB  
REMARK    6  A    between atoms: CB   and  CG  
REMARK    7  A    between atoms: CG   and  CD  
ROOT
ATOM     14  CA  GLU D 570     -18.033  -6.348 -13.375  1.00 32.92     0.160 C 
ENDROOT
BRANCH  14  15
ATOM     15  CB  GLU D 570     -19.500  -6.345 -13.794  1.00 32.92     0.043 C 
BRANCH  15  16
ATOM     16  CG  GLU D 570     -20.434  -5.494 -13.012  1.00 32.92     0.100 C 
BRANCH  16  17
ATOM     17  CD  GLU D 570     -21.646  -5.065 -13.806  1.00 32.92     0.185 C 
ATOM     18  OE1 GLU D 570     -22.758  -5.041 -13.246  1.00 32.92    -0.647 OA
ATOM     19  OE2 GLU D 570     -21.483  -4.767 -15.005  1.00 32.92    -0.647 OA
ENDBRANCH  16  17
ENDBRANCH  15  16
ENDBRANCH  14  15
END_RES GLU D 570
ENDMDL
MODEL 9
REMARK VINA RESULT:      -5.3      1.709      3.395
REMARK  6 active torsions:
REMARK  status: ('A' for Active; 'I' for Inactive)
REMARK       I    between atoms: C_2  and  N_4 
REMARK    1  A    between atoms: N_4  and  CA_5 
REMARK    2  A    between atoms: CA_5  and  CB_6 
REMARK    3  A    between atoms: CA_5  and  C_11 
REMARK    4  A    between atoms: CB_6  and  CG_7 
REMARK    5  A    between atoms: CG_7  and  CD_8 
REMARK       I    between atoms: CD_8  and  NE2_10 
REMARK    6  A    between atoms: C_11  and  OXT_13 
ROOT
ATOM      1  CA  GLN A   1     -24.021  -4.216 -10.730  1.00  0.00     0.182 C 
ENDROOT
BRANCH   1   2
ATOM      2  N   GLN A   1     -23.650  -3.161 -11.677  1.00  0.00    -0.347 N 
HETATM    3  C   UNK A   0     -24.357  -2.910 -12.820  1.00  0.00     0.214 C 
HETATM    4  C   UNK A   0     -23.778  -1.814 -13.670  1.00  0.00     0.117 C 
HETATM    5  O   UNK A   0     -25.387  -3.509 -13.118  1.00  0.00    -0.274 OA
ATOM      6  H   GLN A   1     -22.884  -2.550 -11.407  1.00  0.00     0.163 HD
ENDBRANCH   1   2
BRANCH   1   7
ATOM      7  CB  GLN A   1     -22.775  -4.898 -10.144  1.00  0.00     0.045 C 
BRANCH   7   8
ATOM      8  CG  GLN A   1     -21.610  -3.925  -9.957  1.00  0.00     0.105 C 
BRANCH   8   9
ATOM      9  CD  GLN A   1     -20.964  -4.000  -8.594  1.00  0.00     0.215 C 
ATOM     10  OE1 GLN A   1     -21.455  -3.569  -7.558  1.00  0.00    -0.274 OA
ATOM     11  NE2 GLN A   1     -19.744  -4.617  -8.605  1.00  0.00    -0.370 N 
ATOM     12 1HE2 GLN A   1     -19.319  -4.995  -9.441  1.00  0.00     0.159 HD
ATOM     13 2HE2 GLN A   1     -19.251  -4.713  -7.727  1.00  0.00     0.159 HD
ENDBRANCH   8   9
ENDBRANCH   7   8
ENDBRANCH   1   7
BRANCH   1  14
ATOM     14  C   GLN A   1     -24.859  -3.544  -9.636  1.00  0.00     0.163 C 
ATOM     15  O   GLN A   1     -25.905  -2.944  -9.851  1.00  0.00    -0.648 OA
BRANCH  14  16
ATOM     16  OXT GLN A   1     -24.338  -3.648  -8.393  1.00  0.00    -0.775 OA
ATOM     17  HXT GLN A   1     -23.436  -3.286  -8.297  1.00  0.00     0.167 HD
ENDBRANCH  14  16
ENDBRANCH   1  14
TORSDOF 6
BEGIN_RES ARG D 557
REMARK  4 active torsions:
REMARK  status: ('A' for Active; 'I' for Inactive)
REMARK    1  A    between atoms: CA   and  CB  
REMARK    2  A    between atoms: CB   and  CG  
REMARK    3  A    between atoms: CG   and  CD  
REMARK    4  A    between atoms: CD   and  NE  
REMARK       I    between atoms: NE   and  CZ  
REMARK       I    between atoms: CZ   and  NH1 
REMARK       I    between atoms: CZ   and  NH2 
ROOT
ATOM      1  CA  ARG D 557     -26.217   2.705 -17.014  1.00 35.49     0.159 C 
ENDROOT
BRANCH   1   2
ATOM      2  CB  ARG D 557     -26.789   1.319 -17.183  1.00 35.49     0.034 C 
BRANCH   2   3
ATOM      3  CG  ARG D 557     -25.962   0.201 -16.713  1.00 35.49     0.027 C 
BRANCH   3   4
ATOM      4  CD  ARG D 557     -26.761  -0.847 -16.038  1.00 35.49     0.116 C 
BRANCH   4   5
ATOM      5  NE  ARG D 557     -28.005  -1.101 -16.715  1.00 35.49    -0.212 N 
ATOM      6  CZ  ARG D 557     -28.522  -2.286 -16.954  1.00 35.49     0.666 C 
ATOM      7  NH1 ARG D 557     -27.922  -3.406 -16.596  1.00 35.49    -0.235 N 
ATOM      8  NH2 ARG D 557     -29.672  -2.327 -17.562  1.00 35.49    -0.235 N 
ATOM      9  HH  ARG D 557     -27.166  -3.402 -16.193  1.00 35.49     0.174 HD
ATOM     10  HH  ARG D 557     -28.308  -4.150 -16.776  1.00 35.49     0.174 HD
ATOM     11  HH  ARG D 557     -30.039  -1.588 -17.775  1.00 35.49     0.174 HD
ATOM     12  HH  ARG D 557     -30.038  -3.073 -17.730  1.00 35.49     0.174 HD
ATOM     13  HE  ARG D 557     -28.423  -0.438 -17.045  1.00 35.49     0.178 HD
ENDBRANCH   4   5
ENDBRANCH   3   4
ENDBRANCH   2   3
ENDBRANCH   1   2
END_RES ARG D 557
BEGIN_RES GLU D 570
REMARK  3 active torsions:
REMARK  status: ('A' for Active; 'I' for Inactive)
REMARK    5  A    between atoms: CA   and  CB  
REMARK    6  A    between atoms: CB   and  CG  
REMARK    7  A    between atoms: CG   and  CD  
ROOT
ATOM     14  CA  GLU D 570     -18.033  -6.348 -13.375  1.00 32.92     0.160 C 
ENDROOT
BRANCH  14  15
ATOM     15  CB  GLU D 570     -19.500  -6.345 -13.794  1.00 32.92     0.043 C 
BRANCH  15  16
ATOM     16  CG  GLU D 570     -20.406  -5.389 -13.107  1.00 32.92     0.100 C 
BRANCH  16  17
ATOM     17  CD  GLU D 570     -21.703  -5.168 -13.850  1.00 32.92     0.185 C 
ATOM     18  OE1 GLU D 570     -22.727  -5.769 -13.474  1.00 32.92    -0.647 OA
ATOM     19  OE2 GLU D 570     -21.690  -4.397 -14.830  1.00 32.92    -0.647 OA
ENDBRANCH  16  17
ENDBRANCH  15  16
ENDBRANCH  14  15
END_RES GLU D 570
ENDMDL
