MODEL 1
REMARK VINA RESULT:      -7.6      0.000      0.000
REMARK  8 active torsions:
REMARK  status: ('A' for Active; 'I' for Inactive)
REMARK    1  A    between atoms: C_3  and  O_8 
REMARK    2  A    between atoms: C_6  and  O_7 
REMARK    3  A    between atoms: O_8  and  C_9 
REMARK    4  A    between atoms: C_10  and  O_19 
REMARK    5  A    between atoms: C_11  and  O_18 
REMARK    6  A    between atoms: C_12  and  O_17 
REMARK    7  A    between atoms: C_13  and  C_15 
REMARK    8  A    between atoms: C_15  and  O_16 
ROOT
HETATM    1  C   UNL     1     -22.505  -3.235 -12.135  1.00  0.00     0.298 C 
HETATM    2  C   UNL     1     -23.257  -4.576 -12.238  1.00  0.00     0.205 C 
HETATM    3  C   UNL     1     -23.190  -4.983 -13.725  1.00  0.00     0.183 C 
HETATM    4  C   UNL     1     -23.736  -3.878 -14.675  1.00  0.00     0.180 C 
HETATM    5  C   UNL     1     -23.118  -2.518 -14.309  1.00  0.00     0.179 C 
HETATM    6  O   UNL     1     -23.270  -2.281 -12.897  1.00  0.00    -0.348 OA
ENDROOT
BRANCH   1   7
HETATM    7  O   UNL     1     -22.325  -2.773 -10.796  1.00  0.00    -0.318 OA
BRANCH   7   8
HETATM    8  C   UNL     1     -21.703  -3.684  -9.965  1.00  0.00     0.072 A 
HETATM    9  C   UNL     1     -22.425  -4.070  -8.836  1.00  0.00     0.039 A 
HETATM   10  C   UNL     1     -21.842  -4.920  -7.886  1.00  0.00     0.039 A 
HETATM   11  C   UNL     1     -20.547  -5.388  -8.072  1.00  0.00     0.065 A 
HETATM   12  C   UNL     1     -19.833  -5.056  -9.212  1.00  0.00     0.039 A 
HETATM   13  C   UNL     1     -20.418  -4.217 -10.159  1.00  0.00     0.039 A 
BRANCH  11  14
HETATM   14  O   UNL     1     -19.994  -6.172  -7.106  1.00  0.00    -0.361 OA
HETATM   15  H   UNL     1     -20.381  -5.925  -6.246  1.00  0.00     0.217 HD
ENDBRANCH  11  14
ENDBRANCH   7   8
ENDBRANCH   1   7
BRANCH   2  16
HETATM   16  O   UNL     1     -24.640  -4.457 -11.848  1.00  0.00    -0.388 OA
HETATM   17  H   UNL     1     -24.858  -5.253 -11.325  1.00  0.00     0.210 HD
ENDBRANCH   2  16
BRANCH   3  18
HETATM   18  O   UNL     1     -23.866  -6.214 -13.946  1.00  0.00    -0.390 OA
HETATM   19  H   UNL     1     -23.535  -6.549 -14.803  1.00  0.00     0.210 HD
ENDBRANCH   3  18
BRANCH   5  20
HETATM   20  C   UNL     1     -23.758  -1.331 -15.033  1.00  0.00     0.198 C 
BRANCH  20  21
HETATM   21  O   UNL     1     -25.038  -1.065 -14.453  1.00  0.00    -0.398 OA
HETATM   22  H   UNL     1     -25.670  -1.040 -15.198  1.00  0.00     0.209 HD
ENDBRANCH  20  21
ENDBRANCH   5  20
BRANCH   4  23
HETATM   23  O   UNL     1     -25.169  -3.831 -14.614  1.00  0.00    -0.390 OA
HETATM   24  H   UNL     1     -25.448  -2.899 -14.586  1.00  0.00     0.210 HD
ENDBRANCH   4  23
TORSDOF 8
BEGIN_RES ARG D 557
REMARK  4 active torsions:
REMARK  status: ('A' for Active; 'I' for Inactive)
REMARK    1  A    between atoms: CA   and  CB  
REMARK    2  A    between atoms: CB   and  CG  
REMARK    3  A    between atoms: CG   and  CD  
REMARK    4  A    between atoms: CD   and  NE  
REMARK       I    between atoms: NE   and  CZ  
REMARK       I    between atoms: CZ   and  NH1 
REMARK       I    between atoms: CZ   and  NH2 
ROOT
ATOM      1  CA  ARG D 557     -26.217   2.705 -17.014  1.00 35.49     0.159 C 
ENDROOT
BRANCH   1   2
ATOM      2  CB  ARG D 557     -26.789   1.319 -17.183  1.00 35.49     0.034 C 
BRANCH   2   3
ATOM      3  CG  ARG D 557     -28.235   1.225 -17.416  1.00 35.49     0.027 C 
BRANCH   3   4
ATOM      4  CD  ARG D 557     -28.897   0.282 -16.484  1.00 35.49     0.116 C 
BRANCH   4   5
ATOM      5  NE  ARG D 557     -29.198  -0.978 -17.111  1.00 35.49    -0.212 N 
ATOM      6  CZ  ARG D 557     -28.513  -2.090 -16.967  1.00 35.49     0.666 C 
ATOM      7  NH1 ARG D 557     -27.430  -2.164 -16.216  1.00 35.49    -0.235 N 
ATOM      8  NH2 ARG D 557     -28.944  -3.146 -17.595  1.00 35.49    -0.235 N 
ATOM      9  HH  ARG D 557     -27.130  -1.483 -15.792  1.00 35.49     0.174 HD
ATOM     10  HH  ARG D 557     -27.026  -2.917 -16.157  1.00 35.49     0.174 HD
ATOM     11  HH  ARG D 557     -29.650  -3.070 -18.067  1.00 35.49     0.174 HD
ATOM     12  HH  ARG D 557     -28.530  -3.883 -17.523  1.00 35.49     0.174 HD
ATOM     13  HE  ARG D 557     -29.838  -1.003 -17.670  1.00 35.49     0.178 HD
ENDBRANCH   4   5
ENDBRANCH   3   4
ENDBRANCH   2   3
ENDBRANCH   1   2
END_RES ARG D 557
BEGIN_RES GLU D 570
REMARK  3 active torsions:
REMARK  status: ('A' for Active; 'I' for Inactive)
REMARK    5  A    between atoms: CA   and  CB  
REMARK    6  A    between atoms: CB   and  CG  
REMARK    7  A    between atoms: CG   and  CD  
ROOT
ATOM     14  CA  GLU D 570     -18.033  -6.348 -13.375  1.00 32.92     0.160 C 
ENDROOT
BRANCH  14  15
ATOM     15  CB  GLU D 570     -19.500  -6.345 -13.794  1.00 32.92     0.043 C 
BRANCH  15  16
ATOM     16  CG  GLU D 570     -19.796  -6.301 -15.249  1.00 32.92     0.100 C 
BRANCH  16  17
ATOM     17  CD  GLU D 570     -20.818  -7.330 -15.674  1.00 32.92     0.185 C 
ATOM     18  OE1 GLU D 570     -21.878  -6.947 -16.204  1.00 32.92    -0.647 OA
ATOM     19  OE2 GLU D 570     -20.562  -8.531 -15.459  1.00 32.92    -0.647 OA
ENDBRANCH  16  17
ENDBRANCH  15  16
ENDBRANCH  14  15
END_RES GLU D 570
ENDMDL
MODEL 2
REMARK VINA RESULT:      -7.1      3.131      7.340
REMARK  8 active torsions:
REMARK  status: ('A' for Active; 'I' for Inactive)
REMARK    1  A    between atoms: C_3  and  O_8 
REMARK    2  A    between atoms: C_6  and  O_7 
REMARK    3  A    between atoms: O_8  and  C_9 
REMARK    4  A    between atoms: C_10  and  O_19 
REMARK    5  A    between atoms: C_11  and  O_18 
REMARK    6  A    between atoms: C_12  and  O_17 
REMARK    7  A    between atoms: C_13  and  C_15 
REMARK    8  A    between atoms: C_15  and  O_16 
ROOT
HETATM    1  C   UNL     1     -21.468  -5.730  -5.732  1.00  0.00     0.298 C 
HETATM    2  C   UNL     1     -20.880  -7.064  -6.230  1.00  0.00     0.205 C 
HETATM    3  C   UNL     1     -21.605  -8.168  -5.431  1.00  0.00     0.183 C 
HETATM    4  C   UNL     1     -21.494  -7.964  -3.892  1.00  0.00     0.180 C 
HETATM    5  C   UNL     1     -21.845  -6.512  -3.528  1.00  0.00     0.179 C 
HETATM    6  O   UNL     1     -21.083  -5.608  -4.349  1.00  0.00    -0.348 OA
ENDROOT
BRANCH   1   7
HETATM    7  O   UNL     1     -21.029  -4.591  -6.473  1.00  0.00    -0.318 OA
BRANCH   7   8
HETATM    8  C   UNL     1     -21.740  -4.366  -7.636  1.00  0.00     0.072 A 
HETATM    9  C   UNL     1     -20.979  -4.181  -8.789  1.00  0.00     0.039 A 
HETATM   10  C   UNL     1     -21.606  -3.857 -10.000  1.00  0.00     0.039 A 
HETATM   11  C   UNL     1     -22.988  -3.730 -10.056  1.00  0.00     0.065 A 
HETATM   12  C   UNL     1     -23.765  -3.959  -8.932  1.00  0.00     0.039 A 
HETATM   13  C   UNL     1     -23.139  -4.290  -7.730  1.00  0.00     0.039 A 
BRANCH  11  14
HETATM   14  O   UNL     1     -23.561  -3.366 -11.237  1.00  0.00    -0.361 OA
HETATM   15  H   UNL     1     -24.429  -3.801 -11.309  1.00  0.00     0.217 HD
ENDBRANCH  11  14
ENDBRANCH   7   8
ENDBRANCH   1   7
BRANCH   2  16
HETATM   16  O   UNL     1     -19.463  -7.163  -5.983  1.00  0.00    -0.388 OA
HETATM   17  H   UNL     1     -19.124  -6.250  -5.902  1.00  0.00     0.210 HD
ENDBRANCH   2  16
BRANCH   3  18
HETATM   18  O   UNL     1     -21.132  -9.456  -5.801  1.00  0.00    -0.390 OA
HETATM   19  H   UNL     1     -20.687  -9.815  -5.007  1.00  0.00     0.210 HD
ENDBRANCH   3  18
BRANCH   5  20
HETATM   20  C   UNL     1     -21.550  -6.149  -2.070  1.00  0.00     0.198 C 
BRANCH  20  21
HETATM   21  O   UNL     1     -22.635  -6.590  -1.250  1.00  0.00    -0.398 OA
HETATM   22  H   UNL     1     -22.228  -6.959  -0.442  1.00  0.00     0.209 HD
ENDBRANCH  20  21
ENDBRANCH   5  20
BRANCH   4  23
HETATM   23  O   UNL     1     -20.178  -8.311  -3.436  1.00  0.00    -0.390 OA
HETATM   24  H   UNL     1     -19.849  -7.593  -2.866  1.00  0.00     0.210 HD
ENDBRANCH   4  23
TORSDOF 8
BEGIN_RES ARG D 557
REMARK  4 active torsions:
REMARK  status: ('A' for Active; 'I' for Inactive)
REMARK    1  A    between atoms: CA   and  CB  
REMARK    2  A    between atoms: CB   and  CG  
REMARK    3  A    between atoms: CG   and  CD  
REMARK    4  A    between atoms: CD   and  NE  
REMARK       I    between atoms: NE   and  CZ  
REMARK       I    between atoms: CZ   and  NH1 
REMARK       I    between atoms: CZ   and  NH2 
ROOT
ATOM      1  CA  ARG D 557     -26.217   2.705 -17.014  1.00 35.49     0.159 C 
ENDROOT
BRANCH   1   2
ATOM      2  CB  ARG D 557     -26.789   1.319 -17.183  1.00 35.49     0.034 C 
BRANCH   2   3
ATOM      3  CG  ARG D 557     -25.835   0.204 -17.164  1.00 35.49     0.027 C 
BRANCH   3   4
ATOM      4  CD  ARG D 557     -24.743   0.412 -16.186  1.00 35.49     0.116 C 
BRANCH   4   5
ATOM      5  NE  ARG D 557     -24.887  -0.428 -15.026  1.00 35.49    -0.212 N 
ATOM      6  CZ  ARG D 557     -24.077  -1.403 -14.678  1.00 35.49     0.666 C 
ATOM      7  NH1 ARG D 557     -23.017  -1.733 -15.393  1.00 35.49    -0.235 N 
ATOM      8  NH2 ARG D 557     -24.349  -2.047 -13.581  1.00 35.49    -0.235 N 
ATOM      9  HH  ARG D 557     -22.817  -1.321 -16.117  1.00 35.49     0.174 HD
ATOM     10  HH  ARG D 557     -22.523  -2.376 -15.115  1.00 35.49     0.174 HD
ATOM     11  HH  ARG D 557     -25.036  -1.808 -13.136  1.00 35.49     0.174 HD
ATOM     12  HH  ARG D 557     -23.848  -2.680 -13.322  1.00 35.49     0.174 HD
ATOM     13  HE  ARG D 557     -25.583  -0.333 -14.547  1.00 35.49     0.178 HD
ENDBRANCH   4   5
ENDBRANCH   3   4
ENDBRANCH   2   3
ENDBRANCH   1   2
END_RES ARG D 557
BEGIN_RES GLU D 570
REMARK  3 active torsions:
REMARK  status: ('A' for Active; 'I' for Inactive)
REMARK    5  A    between atoms: CA   and  CB  
REMARK    6  A    between atoms: CB   and  CG  
REMARK    7  A    between atoms: CG   and  CD  
ROOT
ATOM     14  CA  GLU D 570     -18.033  -6.348 -13.375  1.00 32.92     0.160 C 
ENDROOT
BRANCH  14  15
ATOM     15  CB  GLU D 570     -19.500  -6.345 -13.794  1.00 32.92     0.043 C 
BRANCH  15  16
ATOM     16  CG  GLU D 570     -20.442  -5.532 -12.982  1.00 32.92     0.100 C 
BRANCH  16  17
ATOM     17  CD  GLU D 570     -21.747  -5.258 -13.693  1.00 32.92     0.185 C 
ATOM     18  OE1 GLU D 570     -22.273  -6.166 -14.364  1.00 32.92    -0.647 OA
ATOM     19  OE2 GLU D 570     -22.240  -4.117 -13.590  1.00 32.92    -0.647 OA
ENDBRANCH  16  17
ENDBRANCH  15  16
ENDBRANCH  14  15
END_RES GLU D 570
ENDMDL
MODEL 3
REMARK VINA RESULT:      -6.8      1.358      2.536
REMARK  8 active torsions:
REMARK  status: ('A' for Active; 'I' for Inactive)
REMARK    1  A    between atoms: C_3  and  O_8 
REMARK    2  A    between atoms: C_6  and  O_7 
REMARK    3  A    between atoms: O_8  and  C_9 
REMARK    4  A    between atoms: C_10  and  O_19 
REMARK    5  A    between atoms: C_11  and  O_18 
REMARK    6  A    between atoms: C_12  and  O_17 
REMARK    7  A    between atoms: C_13  and  C_15 
REMARK    8  A    between atoms: C_15  and  O_16 
ROOT
HETATM    1  C   UNL     1     -22.436  -4.305 -11.896  1.00  0.00     0.298 C 
HETATM    2  C   UNL     1     -23.016  -2.939 -12.311  1.00  0.00     0.205 C 
HETATM    3  C   UNL     1     -24.478  -3.210 -12.722  1.00  0.00     0.183 C 
HETATM    4  C   UNL     1     -24.599  -4.306 -13.819  1.00  0.00     0.180 C 
HETATM    5  C   UNL     1     -23.759  -5.534 -13.430  1.00  0.00     0.179 C 
HETATM    6  O   UNL     1     -22.425  -5.119 -13.085  1.00  0.00    -0.348 OA
ENDROOT
BRANCH   1   7
HETATM    7  O   UNL     1     -21.127  -4.231 -11.332  1.00  0.00    -0.318 OA
BRANCH   7   8
HETATM    8  C   UNL     1     -21.108  -4.225  -9.950  1.00  0.00     0.072 A 
HETATM    9  C   UNL     1     -19.865  -4.448  -9.357  1.00  0.00     0.039 A 
HETATM   10  C   UNL     1     -19.761  -4.549  -7.963  1.00  0.00     0.039 A 
HETATM   11  C   UNL     1     -20.893  -4.419  -7.169  1.00  0.00     0.065 A 
HETATM   12  C   UNL     1     -22.127  -4.147  -7.737  1.00  0.00     0.039 A 
HETATM   13  C   UNL     1     -22.227  -4.038  -9.124  1.00  0.00     0.039 A 
BRANCH  11  14
HETATM   14  O   UNL     1     -20.764  -4.572  -5.822  1.00  0.00    -0.361 OA
HETATM   15  H   UNL     1     -20.452  -5.478  -5.641  1.00  0.00     0.217 HD
ENDBRANCH  11  14
ENDBRANCH   7   8
ENDBRANCH   1   7
BRANCH   2  16
HETATM   16  O   UNL     1     -22.314  -2.365 -13.432  1.00  0.00    -0.388 OA
HETATM   17  H   UNL     1     -22.902  -1.690 -13.822  1.00  0.00     0.210 HD
ENDBRANCH   2  16
BRANCH   3  18
HETATM   18  O   UNL     1     -25.119  -2.010 -13.138  1.00  0.00    -0.390 OA
HETATM   19  H   UNL     1     -24.414  -1.452 -13.523  1.00  0.00     0.210 HD
ENDBRANCH   3  18
BRANCH   5  20
HETATM   20  C   UNL     1     -23.630  -6.575 -14.544  1.00  0.00     0.198 C 
BRANCH  20  21
HETATM   21  O   UNL     1     -24.938  -6.955 -14.982  1.00  0.00    -0.398 OA
HETATM   22  H   UNL     1     -24.806  -7.485 -15.793  1.00  0.00     0.209 HD
ENDBRANCH  20  21
ENDBRANCH   5  20
BRANCH   4  23
HETATM   23  O   UNL     1     -24.197  -3.783 -15.093  1.00  0.00    -0.390 OA
HETATM   24  H   UNL     1     -24.095  -2.818 -15.014  1.00  0.00     0.210 HD
ENDBRANCH   4  23
TORSDOF 8
BEGIN_RES ARG D 557
REMARK  4 active torsions:
REMARK  status: ('A' for Active; 'I' for Inactive)
REMARK    1  A    between atoms: CA   and  CB  
REMARK    2  A    between atoms: CB   and  CG  
REMARK    3  A    between atoms: CG   and  CD  
REMARK    4  A    between atoms: CD   and  NE  
REMARK       I    between atoms: NE   and  CZ  
REMARK       I    between atoms: CZ   and  NH1 
REMARK       I    between atoms: CZ   and  NH2 
ROOT
ATOM      1  CA  ARG D 557     -26.217   2.705 -17.014  1.00 35.49     0.159 C 
ENDROOT
BRANCH   1   2
ATOM      2  CB  ARG D 557     -26.789   1.319 -17.183  1.00 35.49     0.034 C 
BRANCH   2   3
ATOM      3  CG  ARG D 557     -28.231   1.226 -17.440  1.00 35.49     0.027 C 
BRANCH   3   4
ATOM      4  CD  ARG D 557     -28.893   0.216 -16.582  1.00 35.49     0.116 C 
BRANCH   4   5
ATOM      5  NE  ARG D 557     -27.980  -0.806 -16.145  1.00 35.49    -0.212 N 
ATOM      6  CZ  ARG D 557     -28.002  -2.066 -16.518  1.00 35.49     0.666 C 
ATOM      7  NH1 ARG D 557     -28.908  -2.543 -17.352  1.00 35.49    -0.235 N 
ATOM      8  NH2 ARG D 557     -27.082  -2.851 -16.037  1.00 35.49    -0.235 N 
ATOM      9  HH  ARG D 557     -29.521  -2.045 -17.682  1.00 35.49     0.174 HD
ATOM     10  HH  ARG D 557     -28.871  -3.373 -17.561  1.00 35.49     0.174 HD
ATOM     11  HH  ARG D 557     -26.506  -2.514 -15.506  1.00 35.49     0.174 HD
ATOM     12  HH  ARG D 557     -27.062  -3.669 -16.257  1.00 35.49     0.174 HD
ATOM     13  HE  ARG D 557     -27.408  -0.603 -15.550  1.00 35.49     0.178 HD
ENDBRANCH   4   5
ENDBRANCH   3   4
ENDBRANCH   2   3
ENDBRANCH   1   2
END_RES ARG D 557
BEGIN_RES GLU D 570
REMARK  3 active torsions:
REMARK  status: ('A' for Active; 'I' for Inactive)
REMARK    5  A    between atoms: CA   and  CB  
REMARK    6  A    between atoms: CB   and  CG  
REMARK    7  A    between atoms: CG   and  CD  
ROOT
ATOM     14  CA  GLU D 570     -18.033  -6.348 -13.375  1.00 32.92     0.160 C 
ENDROOT
BRANCH  14  15
ATOM     15  CB  GLU D 570     -19.500  -6.345 -13.794  1.00 32.92     0.043 C 
BRANCH  15  16
ATOM     16  CG  GLU D 570     -20.086  -7.634 -14.244  1.00 32.92     0.100 C 
BRANCH  16  17
ATOM     17  CD  GLU D 570     -20.503  -7.617 -15.696  1.00 32.92     0.185 C 
ATOM     18  OE1 GLU D 570     -20.778  -8.693 -16.260  1.00 32.92    -0.647 OA
ATOM     19  OE2 GLU D 570     -20.539  -6.516 -16.281  1.00 32.92    -0.647 OA
ENDBRANCH  16  17
ENDBRANCH  15  16
ENDBRANCH  14  15
END_RES GLU D 570
ENDMDL
MODEL 4
REMARK VINA RESULT:      -6.4      2.852      7.102
REMARK  8 active torsions:
REMARK  status: ('A' for Active; 'I' for Inactive)
REMARK    1  A    between atoms: C_3  and  O_8 
REMARK    2  A    between atoms: C_6  and  O_7 
REMARK    3  A    between atoms: O_8  and  C_9 
REMARK    4  A    between atoms: C_10  and  O_19 
REMARK    5  A    between atoms: C_11  and  O_18 
REMARK    6  A    between atoms: C_12  and  O_17 
REMARK    7  A    between atoms: C_13  and  C_15 
REMARK    8  A    between atoms: C_15  and  O_16 
ROOT
HETATM    1  C   UNL     1     -21.534  -5.734  -5.670  1.00  0.00     0.298 C 
HETATM    2  C   UNL     1     -20.855  -7.044  -6.115  1.00  0.00     0.205 C 
HETATM    3  C   UNL     1     -21.589  -8.174  -5.364  1.00  0.00     0.183 C 
HETATM    4  C   UNL     1     -21.602  -7.960  -3.822  1.00  0.00     0.180 C 
HETATM    5  C   UNL     1     -22.040  -6.524  -3.495  1.00  0.00     0.179 C 
HETATM    6  O   UNL     1     -21.258  -5.591  -4.264  1.00  0.00    -0.348 OA
ENDROOT
BRANCH   1   7
HETATM    7  O   UNL     1     -21.090  -4.580  -6.384  1.00  0.00    -0.318 OA
BRANCH   7   8
HETATM    8  C   UNL     1     -21.766  -4.354  -7.567  1.00  0.00     0.072 A 
HETATM    9  C   UNL     1     -20.970  -4.170  -8.698  1.00  0.00     0.039 A 
HETATM   10  C   UNL     1     -21.561  -3.845  -9.927  1.00  0.00     0.039 A 
HETATM   11  C   UNL     1     -22.941  -3.716 -10.024  1.00  0.00     0.065 A 
HETATM   12  C   UNL     1     -23.751  -3.944  -8.923  1.00  0.00     0.039 A 
HETATM   13  C   UNL     1     -23.161  -4.276  -7.703  1.00  0.00     0.039 A 
BRANCH  11  14
HETATM   14  O   UNL     1     -23.477  -3.351 -11.221  1.00  0.00    -0.361 OA
HETATM   15  H   UNL     1     -22.758  -3.049 -11.805  1.00  0.00     0.217 HD
ENDBRANCH  11  14
ENDBRANCH   7   8
ENDBRANCH   1   7
BRANCH   2  16
HETATM   16  O   UNL     1     -19.457  -7.080  -5.763  1.00  0.00    -0.388 OA
HETATM   17  H   UNL     1     -19.108  -7.939  -6.072  1.00  0.00     0.210 HD
ENDBRANCH   2  16
BRANCH   3  18
HETATM   18  O   UNL     1     -21.037  -9.443  -5.690  1.00  0.00    -0.390 OA
HETATM   19  H   UNL     1     -20.068  -9.342  -5.602  1.00  0.00     0.210 HD
ENDBRANCH   3  18
BRANCH   5  20
HETATM   20  C   UNL     1     -21.869  -6.144  -2.022  1.00  0.00     0.198 C 
BRANCH  20  21
HETATM   21  O   UNL     1     -22.313  -7.231  -1.205  1.00  0.00    -0.398 OA
HETATM   22  H   UNL     1     -23.227  -7.011  -0.940  1.00  0.00     0.209 HD
ENDBRANCH  20  21
ENDBRANCH   5  20
BRANCH   4  23
HETATM   23  O   UNL     1     -20.310  -8.249  -3.269  1.00  0.00    -0.390 OA
HETATM   24  H   UNL     1     -19.891  -8.946  -3.806  1.00  0.00     0.210 HD
ENDBRANCH   4  23
TORSDOF 8
BEGIN_RES ARG D 557
REMARK  4 active torsions:
REMARK  status: ('A' for Active; 'I' for Inactive)
REMARK    1  A    between atoms: CA   and  CB  
REMARK    2  A    between atoms: CB   and  CG  
REMARK    3  A    between atoms: CG   and  CD  
REMARK    4  A    between atoms: CD   and  NE  
REMARK       I    between atoms: NE   and  CZ  
REMARK       I    between atoms: CZ   and  NH1 
REMARK       I    between atoms: CZ   and  NH2 
ROOT
ATOM      1  CA  ARG D 557     -26.217   2.705 -17.014  1.00 35.49     0.159 C 
ENDROOT
BRANCH   1   2
ATOM      2  CB  ARG D 557     -26.789   1.319 -17.183  1.00 35.49     0.034 C 
BRANCH   2   3
ATOM      3  CG  ARG D 557     -28.154   1.102 -16.687  1.00 35.49     0.027 C 
BRANCH   3   4
ATOM      4  CD  ARG D 557     -28.791  -0.089 -17.292  1.00 35.49     0.116 C 
BRANCH   4   5
ATOM      5  NE  ARG D 557     -28.179  -1.315 -16.850  1.00 35.49    -0.212 N 
ATOM      6  CZ  ARG D 557     -28.661  -2.524 -17.033  1.00 35.49     0.666 C 
ATOM      7  NH1 ARG D 557     -29.806  -2.744 -17.653  1.00 35.49    -0.235 N 
ATOM      8  NH2 ARG D 557     -27.961  -3.524 -16.583  1.00 35.49    -0.235 N 
ATOM      9  HH  ARG D 557     -30.282  -2.101 -17.959  1.00 35.49     0.174 HD
ATOM     10  HH  ARG D 557     -30.069  -3.554 -17.746  1.00 35.49     0.174 HD
ATOM     11  HH  ARG D 557     -27.222  -3.352 -16.194  1.00 35.49     0.174 HD
ATOM     12  HH  ARG D 557     -28.238  -4.319 -16.686  1.00 35.49     0.174 HD
ATOM     13  HE  ARG D 557     -27.474  -1.261 -16.378  1.00 35.49     0.178 HD
ENDBRANCH   4   5
ENDBRANCH   3   4
ENDBRANCH   2   3
ENDBRANCH   1   2
END_RES ARG D 557
BEGIN_RES GLU D 570
REMARK  3 active torsions:
REMARK  status: ('A' for Active; 'I' for Inactive)
REMARK    5  A    between atoms: CA   and  CB  
REMARK    6  A    between atoms: CB   and  CG  
REMARK    7  A    between atoms: CG   and  CD  
ROOT
ATOM     14  CA  GLU D 570     -18.033  -6.348 -13.375  1.00 32.92     0.160 C 
ENDROOT
BRANCH  14  15
ATOM     15  CB  GLU D 570     -19.500  -6.345 -13.794  1.00 32.92     0.043 C 
BRANCH  15  16
ATOM     16  CG  GLU D 570     -20.434  -5.495 -13.011  1.00 32.92     0.100 C 
BRANCH  16  17
ATOM     17  CD  GLU D 570     -21.709  -5.179 -13.757  1.00 32.92     0.185 C 
ATOM     18  OE1 GLU D 570     -21.642  -4.837 -14.953  1.00 32.92    -0.647 OA
ATOM     19  OE2 GLU D 570     -22.786  -5.257 -13.134  1.00 32.92    -0.647 OA
ENDBRANCH  16  17
ENDBRANCH  15  16
ENDBRANCH  14  15
END_RES GLU D 570
ENDMDL
MODEL 5
REMARK VINA RESULT:      -6.2      3.855      6.589
REMARK  8 active torsions:
REMARK  status: ('A' for Active; 'I' for Inactive)
REMARK    1  A    between atoms: C_3  and  O_8 
REMARK    2  A    between atoms: C_6  and  O_7 
REMARK    3  A    between atoms: O_8  and  C_9 
REMARK    4  A    between atoms: C_10  and  O_19 
REMARK    5  A    between atoms: C_11  and  O_18 
REMARK    6  A    between atoms: C_12  and  O_17 
REMARK    7  A    between atoms: C_13  and  C_15 
REMARK    8  A    between atoms: C_15  and  O_16 
ROOT
HETATM    1  C   UNL     1     -21.062  -6.157  -5.522  1.00  0.00     0.298 C 
HETATM    2  C   UNL     1     -19.676  -5.989  -6.173  1.00  0.00     0.205 C 
HETATM    3  C   UNL     1     -19.588  -4.509  -6.601  1.00  0.00     0.183 C 
HETATM    4  C   UNL     1     -20.771  -4.079  -7.515  1.00  0.00     0.180 C 
HETATM    5  C   UNL     1     -22.104  -4.536  -6.900  1.00  0.00     0.179 C 
HETATM    6  O   UNL     1     -22.030  -5.934  -6.566  1.00  0.00    -0.348 OA
ENDROOT
BRANCH   1   7
HETATM    7  O   UNL     1     -21.268  -7.435  -4.918  1.00  0.00    -0.318 OA
BRANCH   7   8
HETATM    8  C   UNL     1     -21.474  -7.386  -3.553  1.00  0.00     0.072 A 
HETATM    9  C   UNL     1     -21.246  -8.575  -2.860  1.00  0.00     0.039 A 
HETATM   10  C   UNL     1     -21.515  -8.650  -1.486  1.00  0.00     0.039 A 
HETATM   11  C   UNL     1     -22.000  -7.537  -0.810  1.00  0.00     0.065 A 
HETATM   12  C   UNL     1     -22.184  -6.334  -1.471  1.00  0.00     0.039 A 
HETATM   13  C   UNL     1     -21.908  -6.259  -2.836  1.00  0.00     0.039 A 
BRANCH  11  14
HETATM   14  O   UNL     1     -22.297  -7.659   0.513  1.00  0.00    -0.361 OA
HETATM   15  H   UNL     1     -22.344  -6.768   0.904  1.00  0.00     0.217 HD
ENDBRANCH  11  14
ENDBRANCH   7   8
ENDBRANCH   1   7
BRANCH   2  16
HETATM   16  O   UNL     1     -19.514  -6.823  -7.338  1.00  0.00    -0.388 OA
HETATM   17  H   UNL     1     -18.741  -6.483  -7.827  1.00  0.00     0.210 HD
ENDBRANCH   2  16
BRANCH   3  18
HETATM   18  O   UNL     1     -18.343  -4.235  -7.229  1.00  0.00    -0.390 OA
HETATM   19  H   UNL     1     -17.661  -4.384  -6.543  1.00  0.00     0.210 HD
ENDBRANCH   3  18
BRANCH   5  20
HETATM   20  C   UNL     1     -23.308  -4.361  -7.829  1.00  0.00     0.198 C 
BRANCH  20  21
HETATM   21  O   UNL     1     -23.070  -3.251  -8.699  1.00  0.00    -0.398 OA
HETATM   22  H   UNL     1     -22.124  -3.026  -8.594  1.00  0.00     0.209 HD
ENDBRANCH  20  21
ENDBRANCH   5  20
BRANCH   4  23
HETATM   23  O   UNL     1     -20.599  -4.611  -8.837  1.00  0.00    -0.390 OA
HETATM   24  H   UNL     1     -21.304  -4.257  -9.408  1.00  0.00     0.210 HD
ENDBRANCH   4  23
TORSDOF 8
BEGIN_RES ARG D 557
REMARK  4 active torsions:
REMARK  status: ('A' for Active; 'I' for Inactive)
REMARK    1  A    between atoms: CA   and  CB  
REMARK    2  A    between atoms: CB   and  CG  
REMARK    3  A    between atoms: CG   and  CD  
REMARK    4  A    between atoms: CD   and  NE  
REMARK       I    between atoms: NE   and  CZ  
REMARK       I    between atoms: CZ   and  NH1 
REMARK       I    between atoms: CZ   and  NH2 
ROOT
ATOM      1  CA  ARG D 557     -26.217   2.705 -17.014  1.00 35.49     0.159 C 
ENDROOT
BRANCH   1   2
ATOM      2  CB  ARG D 557     -26.789   1.319 -17.183  1.00 35.49     0.034 C 
BRANCH   2   3
ATOM      3  CG  ARG D 557     -25.862   0.195 -17.002  1.00 35.49     0.027 C 
BRANCH   3   4
ATOM      4  CD  ARG D 557     -26.284  -0.713 -15.911  1.00 35.49     0.116 C 
BRANCH   4   5
ATOM      5  NE  ARG D 557     -25.231  -0.938 -14.955  1.00 35.49    -0.212 N 
ATOM      6  CZ  ARG D 557     -24.994  -2.066 -14.324  1.00 35.49     0.666 C 
ATOM      7  NH1 ARG D 557     -25.734  -3.145 -14.499  1.00 35.49    -0.235 N 
ATOM      8  NH2 ARG D 557     -23.982  -2.096 -13.507  1.00 35.49    -0.235 N 
ATOM      9  HH  ARG D 557     -26.404  -3.149 -15.034  1.00 35.49     0.174 HD
ATOM     10  HH  ARG D 557     -25.530  -3.854 -14.063  1.00 35.49     0.174 HD
ATOM     11  HH  ARG D 557     -23.517  -1.386 -13.419  1.00 35.49     0.174 HD
ATOM     12  HH  ARG D 557     -23.796  -2.807 -13.085  1.00 35.49     0.174 HD
ATOM     13  HE  ARG D 557     -24.750  -0.274 -14.728  1.00 35.49     0.178 HD
ENDBRANCH   4   5
ENDBRANCH   3   4
ENDBRANCH   2   3
ENDBRANCH   1   2
END_RES ARG D 557
BEGIN_RES GLU D 570
REMARK  3 active torsions:
REMARK  status: ('A' for Active; 'I' for Inactive)
REMARK    5  A    between atoms: CA   and  CB  
REMARK    6  A    between atoms: CB   and  CG  
REMARK    7  A    between atoms: CG   and  CD  
ROOT
ATOM     14  CA  GLU D 570     -18.033  -6.348 -13.375  1.00 32.92     0.160 C 
ENDROOT
BRANCH  14  15
ATOM     15  CB  GLU D 570     -19.500  -6.345 -13.794  1.00 32.92     0.043 C 
BRANCH  15  16
ATOM     16  CG  GLU D 570     -20.450  -5.570 -12.955  1.00 32.92     0.100 C 
BRANCH  16  17
ATOM     17  CD  GLU D 570     -21.684  -5.134 -13.710  1.00 32.92     0.185 C 
ATOM     18  OE1 GLU D 570     -22.713  -4.842 -13.072  1.00 32.92    -0.647 OA
ATOM     19  OE2 GLU D 570     -21.625  -5.100 -14.955  1.00 32.92    -0.647 OA
ENDBRANCH  16  17
ENDBRANCH  15  16
ENDBRANCH  14  15
END_RES GLU D 570
ENDMDL
MODEL 6
REMARK VINA RESULT:      -6.2      2.009      5.146
REMARK  8 active torsions:
REMARK  status: ('A' for Active; 'I' for Inactive)
REMARK    1  A    between atoms: C_3  and  O_8 
REMARK    2  A    between atoms: C_6  and  O_7 
REMARK    3  A    between atoms: O_8  and  C_9 
REMARK    4  A    between atoms: C_10  and  O_19 
REMARK    5  A    between atoms: C_11  and  O_18 
REMARK    6  A    between atoms: C_12  and  O_17 
REMARK    7  A    between atoms: C_13  and  C_15 
REMARK    8  A    between atoms: C_15  and  O_16 
ROOT
HETATM    1  C   UNL     1     -23.251  -4.331 -12.673  1.00  0.00     0.298 C 
HETATM    2  C   UNL     1     -21.830  -3.851 -12.315  1.00  0.00     0.205 C 
HETATM    3  C   UNL     1     -21.410  -4.668 -11.075  1.00  0.00     0.183 C 
HETATM    4  C   UNL     1     -22.430  -4.550  -9.906  1.00  0.00     0.180 C 
HETATM    5  C   UNL     1     -23.857  -4.783 -10.427  1.00  0.00     0.179 C 
HETATM    6  O   UNL     1     -24.098  -3.945 -11.573  1.00  0.00    -0.348 OA
ENDROOT
BRANCH   1   7
HETATM    7  O   UNL     1     -23.751  -3.795 -13.898  1.00  0.00    -0.318 OA
BRANCH   7   8
HETATM    8  C   UNL     1     -24.513  -4.684 -14.632  1.00  0.00     0.072 A 
HETATM    9  C   UNL     1     -25.758  -4.216 -15.053  1.00  0.00     0.039 A 
HETATM   10  C   UNL     1     -26.640  -5.073 -15.726  1.00  0.00     0.039 A 
HETATM   11  C   UNL     1     -26.272  -6.388 -15.983  1.00  0.00     0.065 A 
HETATM   12  C   UNL     1     -25.020  -6.856 -15.617  1.00  0.00     0.039 A 
HETATM   13  C   UNL     1     -24.141  -5.998 -14.956  1.00  0.00     0.039 A 
BRANCH  11  14
HETATM   14  O   UNL     1     -27.172  -7.207 -16.594  1.00  0.00    -0.361 OA
HETATM   15  H   UNL     1     -27.182  -7.001 -17.546  1.00  0.00     0.217 HD
ENDBRANCH  11  14
ENDBRANCH   7   8
ENDBRANCH   1   7
BRANCH   2  16
HETATM   16  O   UNL     1     -21.795  -2.448 -11.984  1.00  0.00    -0.388 OA
HETATM   17  H   UNL     1     -20.911  -2.265 -11.612  1.00  0.00     0.210 HD
ENDBRANCH   2  16
BRANCH   3  18
HETATM   18  O   UNL     1     -20.106  -4.301 -10.644  1.00  0.00    -0.390 OA
HETATM   19  H   UNL     1     -19.679  -5.131 -10.351  1.00  0.00     0.210 HD
ENDBRANCH   3  18
BRANCH   5  20
HETATM   20  C   UNL     1     -24.950  -4.468  -9.404  1.00  0.00     0.198 C 
BRANCH  20  21
HETATM   21  O   UNL     1     -25.502  -3.180  -9.693  1.00  0.00    -0.398 OA
HETATM   22  H   UNL     1     -25.907  -3.254 -10.580  1.00  0.00     0.209 HD
ENDBRANCH  20  21
ENDBRANCH   5  20
BRANCH   4  23
HETATM   23  O   UNL     1     -22.311  -3.270  -9.268  1.00  0.00    -0.390 OA
HETATM   24  H   UNL     1     -21.630  -3.331  -8.575  1.00  0.00     0.210 HD
ENDBRANCH   4  23
TORSDOF 8
BEGIN_RES ARG D 557
REMARK  4 active torsions:
REMARK  status: ('A' for Active; 'I' for Inactive)
REMARK    1  A    between atoms: CA   and  CB  
REMARK    2  A    between atoms: CB   and  CG  
REMARK    3  A    between atoms: CG   and  CD  
REMARK    4  A    between atoms: CD   and  NE  
REMARK       I    between atoms: NE   and  CZ  
REMARK       I    between atoms: CZ   and  NH1 
REMARK       I    between atoms: CZ   and  NH2 
ROOT
ATOM      1  CA  ARG D 557     -26.217   2.705 -17.014  1.00 35.49     0.159 C 
ENDROOT
BRANCH   1   2
ATOM      2  CB  ARG D 557     -26.789   1.319 -17.183  1.00 35.49     0.034 C 
BRANCH   2   3
ATOM      3  CG  ARG D 557     -25.976   0.203 -16.684  1.00 35.49     0.027 C 
BRANCH   3   4
ATOM      4  CD  ARG D 557     -26.747  -0.710 -15.810  1.00 35.49     0.116 C 
BRANCH   4   5
ATOM      5  NE  ARG D 557     -27.578  -1.610 -16.566  1.00 35.49    -0.212 N 
ATOM      6  CZ  ARG D 557     -28.834  -1.403 -16.894  1.00 35.49     0.666 C 
ATOM      7  NH1 ARG D 557     -29.489  -0.313 -16.538  1.00 35.49    -0.235 N 
ATOM      8  NH2 ARG D 557     -29.429  -2.319 -17.601  1.00 35.49    -0.235 N 
ATOM      9  HH  ARG D 557     -29.117   0.304 -16.074  1.00 35.49     0.174 HD
ATOM     10  HH  ARG D 557     -30.306  -0.231 -16.783  1.00 35.49     0.174 HD
ATOM     11  HH  ARG D 557     -28.979  -3.008 -17.823  1.00 35.49     0.174 HD
ATOM     12  HH  ARG D 557     -30.238  -2.218 -17.835  1.00 35.49     0.174 HD
ATOM     13  HE  ARG D 557     -27.258  -2.370 -16.774  1.00 35.49     0.178 HD
ENDBRANCH   4   5
ENDBRANCH   3   4
ENDBRANCH   2   3
ENDBRANCH   1   2
END_RES ARG D 557
BEGIN_RES GLU D 570
REMARK  3 active torsions:
REMARK  status: ('A' for Active; 'I' for Inactive)
REMARK    5  A    between atoms: CA   and  CB  
REMARK    6  A    between atoms: CB   and  CG  
REMARK    7  A    between atoms: CG   and  CD  
ROOT
ATOM     14  CA  GLU D 570     -18.033  -6.348 -13.375  1.00 32.92     0.160 C 
ENDROOT
BRANCH  14  15
ATOM     15  CB  GLU D 570     -19.500  -6.345 -13.794  1.00 32.92     0.043 C 
BRANCH  15  16
ATOM     16  CG  GLU D 570     -19.799  -6.162 -15.238  1.00 32.92     0.100 C 
BRANCH  16  17
ATOM     17  CD  GLU D 570     -20.637  -7.280 -15.813  1.00 32.92     0.185 C 
ATOM     18  OE1 GLU D 570     -21.305  -7.068 -16.842  1.00 32.92    -0.647 OA
ATOM     19  OE2 GLU D 570     -20.637  -8.376 -15.218  1.00 32.92    -0.647 OA
ENDBRANCH  16  17
ENDBRANCH  15  16
ENDBRANCH  14  15
END_RES GLU D 570
ENDMDL
MODEL 7
REMARK VINA RESULT:      -6.1     13.503     15.350
REMARK  8 active torsions:
REMARK  status: ('A' for Active; 'I' for Inactive)
REMARK    1  A    between atoms: C_3  and  O_8 
REMARK    2  A    between atoms: C_6  and  O_7 
REMARK    3  A    between atoms: O_8  and  C_9 
REMARK    4  A    between atoms: C_10  and  O_19 
REMARK    5  A    between atoms: C_11  and  O_18 
REMARK    6  A    between atoms: C_12  and  O_17 
REMARK    7  A    between atoms: C_13  and  C_15 
REMARK    8  A    between atoms: C_15  and  O_16 
ROOT
HETATM    1  C   UNL     1     -11.111   6.771 -21.709  1.00  0.00     0.298 C 
HETATM    2  C   UNL     1     -10.317   6.898 -20.394  1.00  0.00     0.205 C 
HETATM    3  C   UNL     1     -10.927   8.102 -19.648  1.00  0.00     0.183 C 
HETATM    4  C   UNL     1     -10.936   9.399 -20.508  1.00  0.00     0.180 C 
HETATM    5  C   UNL     1     -11.505   9.099 -21.904  1.00  0.00     0.179 C 
HETATM    6  O   UNL     1     -10.828   7.961 -22.470  1.00  0.00    -0.348 OA
ENDROOT
BRANCH   1   7
HETATM    7  O   UNL     1     -10.791   5.606 -22.469  1.00  0.00    -0.318 OA
BRANCH   7   8
HETATM    8  C   UNL     1     -11.561   4.502 -22.161  1.00  0.00     0.072 A 
HETATM    9  C   UNL     1     -12.819   4.449 -22.762  1.00  0.00     0.039 A 
HETATM   10  C   UNL     1     -13.708   3.415 -22.441  1.00  0.00     0.039 A 
HETATM   11  C   UNL     1     -13.336   2.434 -21.530  1.00  0.00     0.065 A 
HETATM   12  C   UNL     1     -12.073   2.442 -20.961  1.00  0.00     0.039 A 
HETATM   13  C   UNL     1     -11.186   3.467 -21.289  1.00  0.00     0.039 A 
BRANCH  11  14
HETATM   14  O   UNL     1     -14.242   1.472 -21.204  1.00  0.00    -0.361 OA
HETATM   15  H   UNL     1     -15.052   1.905 -20.879  1.00  0.00     0.217 HD
ENDBRANCH  11  14
ENDBRANCH   7   8
ENDBRANCH   1   7
BRANCH   2  16
HETATM   16  O   UNL     1      -8.916   7.152 -20.625  1.00  0.00    -0.388 OA
HETATM   17  H   UNL     1      -8.525   7.393 -19.764  1.00  0.00     0.210 HD
ENDBRANCH   2  16
BRANCH   3  18
HETATM   18  O   UNL     1     -10.261   8.324 -18.412  1.00  0.00    -0.390 OA
HETATM   19  H   UNL     1     -10.243   7.457 -17.960  1.00  0.00     0.210 HD
ENDBRANCH   3  18
BRANCH   5  20
HETATM   20  C   UNL     1     -11.347  10.252 -22.899  1.00  0.00     0.198 C 
BRANCH  20  21
HETATM   21  O   UNL     1     -11.758  11.470 -22.271  1.00  0.00    -0.398 OA
HETATM   22  H   UNL     1     -11.148  11.603 -21.519  1.00  0.00     0.209 HD
ENDBRANCH  20  21
ENDBRANCH   5  20
BRANCH   4  23
HETATM   23  O   UNL     1      -9.614   9.950 -20.592  1.00  0.00    -0.390 OA
HETATM   24  H   UNL     1      -9.159   9.549 -21.354  1.00  0.00     0.210 HD
ENDBRANCH   4  23
TORSDOF 8
BEGIN_RES ARG D 557
REMARK  4 active torsions:
REMARK  status: ('A' for Active; 'I' for Inactive)
REMARK    1  A    between atoms: CA   and  CB  
REMARK    2  A    between atoms: CB   and  CG  
REMARK    3  A    between atoms: CG   and  CD  
REMARK    4  A    between atoms: CD   and  NE  
REMARK       I    between atoms: NE   and  CZ  
REMARK       I    between atoms: CZ   and  NH1 
REMARK       I    between atoms: CZ   and  NH2 
ROOT
ATOM      1  CA  ARG D 557     -26.217   2.705 -17.014  1.00 35.49     0.159 C 
ENDROOT
BRANCH   1   2
ATOM      2  CB  ARG D 557     -26.789   1.319 -17.183  1.00 35.49     0.034 C 
BRANCH   2   3
ATOM      3  CG  ARG D 557     -25.837   0.202 -17.142  1.00 35.49     0.027 C 
BRANCH   3   4
ATOM      4  CD  ARG D 557     -24.760   0.415 -16.149  1.00 35.49     0.116 C 
BRANCH   4   5
ATOM      5  NE  ARG D 557     -24.903  -0.440 -15.000  1.00 35.49    -0.212 N 
ATOM      6  CZ  ARG D 557     -24.090  -1.415 -14.662  1.00 35.49     0.666 C 
ATOM      7  NH1 ARG D 557     -23.026  -1.731 -15.377  1.00 35.49    -0.235 N 
ATOM      8  NH2 ARG D 557     -24.363  -2.075 -13.574  1.00 35.49    -0.235 N 
ATOM      9  HH  ARG D 557     -22.825  -1.309 -16.095  1.00 35.49     0.174 HD
ATOM     10  HH  ARG D 557     -22.530  -2.375 -15.106  1.00 35.49     0.174 HD
ATOM     11  HH  ARG D 557     -25.053  -1.844 -13.129  1.00 35.49     0.174 HD
ATOM     12  HH  ARG D 557     -23.859  -2.708 -13.322  1.00 35.49     0.174 HD
ATOM     13  HE  ARG D 557     -25.602  -0.354 -14.523  1.00 35.49     0.178 HD
ENDBRANCH   4   5
ENDBRANCH   3   4
ENDBRANCH   2   3
ENDBRANCH   1   2
END_RES ARG D 557
BEGIN_RES GLU D 570
REMARK  3 active torsions:
REMARK  status: ('A' for Active; 'I' for Inactive)
REMARK    5  A    between atoms: CA   and  CB  
REMARK    6  A    between atoms: CB   and  CG  
REMARK    7  A    between atoms: CG   and  CD  
ROOT
ATOM     14  CA  GLU D 570     -18.033  -6.348 -13.375  1.00 32.92     0.160 C 
ENDROOT
BRANCH  14  15
ATOM     15  CB  GLU D 570     -19.500  -6.345 -13.794  1.00 32.92     0.043 C 
BRANCH  15  16
ATOM     16  CG  GLU D 570     -20.443  -5.535 -12.980  1.00 32.92     0.100 C 
BRANCH  16  17
ATOM     17  CD  GLU D 570     -21.733  -5.228 -13.704  1.00 32.92     0.185 C 
ATOM     18  OE1 GLU D 570     -22.191  -6.065 -14.505  1.00 32.92    -0.647 OA
ATOM     19  OE2 GLU D 570     -22.282  -4.132 -13.479  1.00 32.92    -0.647 OA
ENDBRANCH  16  17
ENDBRANCH  15  16
ENDBRANCH  14  15
END_RES GLU D 570
ENDMDL
MODEL 8
REMARK VINA RESULT:      -6.0      2.376      5.464
REMARK  8 active torsions:
REMARK  status: ('A' for Active; 'I' for Inactive)
REMARK    1  A    between atoms: C_3  and  O_8 
REMARK    2  A    between atoms: C_6  and  O_7 
REMARK    3  A    between atoms: O_8  and  C_9 
REMARK    4  A    between atoms: C_10  and  O_19 
REMARK    5  A    between atoms: C_11  and  O_18 
REMARK    6  A    between atoms: C_12  and  O_17 
REMARK    7  A    between atoms: C_13  and  C_15 
REMARK    8  A    between atoms: C_15  and  O_16 
ROOT
HETATM    1  C   UNL     1     -23.290  -4.417 -12.729  1.00  0.00     0.298 C 
HETATM    2  C   UNL     1     -21.859  -3.949 -12.398  1.00  0.00     0.205 C 
HETATM    3  C   UNL     1     -21.434  -4.747 -11.147  1.00  0.00     0.183 C 
HETATM    4  C   UNL     1     -22.438  -4.592  -9.968  1.00  0.00     0.180 C 
HETATM    5  C   UNL     1     -23.874  -4.816 -10.468  1.00  0.00     0.179 C 
HETATM    6  O   UNL     1     -24.118  -3.998 -11.627  1.00  0.00    -0.348 OA
ENDROOT
BRANCH   1   7
HETATM    7  O   UNL     1     -23.798  -3.900 -13.958  1.00  0.00    -0.318 OA
BRANCH   7   8
HETATM    8  C   UNL     1     -24.588  -4.789 -14.660  1.00  0.00     0.072 A 
HETATM    9  C   UNL     1     -25.827  -4.304 -15.080  1.00  0.00     0.039 A 
HETATM   10  C   UNL     1     -26.735  -5.158 -15.720  1.00  0.00     0.039 A 
HETATM   11  C   UNL     1     -26.400  -6.487 -15.947  1.00  0.00     0.065 A 
HETATM   12  C   UNL     1     -25.155  -6.974 -15.583  1.00  0.00     0.039 A 
HETATM   13  C   UNL     1     -24.249  -6.120 -14.954  1.00  0.00     0.039 A 
BRANCH  11  14
HETATM   14  O   UNL     1     -27.325  -7.301 -16.527  1.00  0.00    -0.361 OA
HETATM   15  H   UNL     1     -27.342  -7.120 -17.484  1.00  0.00     0.217 HD
ENDBRANCH  11  14
ENDBRANCH   7   8
ENDBRANCH   1   7
BRANCH   2  16
HETATM   16  O   UNL     1     -21.801  -2.541 -12.096  1.00  0.00    -0.388 OA
HETATM   17  H   UNL     1     -21.627  -2.461 -11.138  1.00  0.00     0.210 HD
ENDBRANCH   2  16
BRANCH   3  18
HETATM   18  O   UNL     1     -20.120  -4.389 -10.739  1.00  0.00    -0.390 OA
HETATM   19  H   UNL     1     -19.701  -5.219 -10.435  1.00  0.00     0.210 HD
ENDBRANCH   3  18
BRANCH   5  20
HETATM   20  C   UNL     1     -24.951  -4.465  -9.438  1.00  0.00     0.198 C 
BRANCH  20  21
HETATM   21  O   UNL     1     -25.520  -3.196  -9.772  1.00  0.00    -0.398 OA
HETATM   22  H   UNL     1     -25.193  -2.983 -10.667  1.00  0.00     0.209 HD
ENDBRANCH  20  21
ENDBRANCH   5  20
BRANCH   4  23
HETATM   23  O   UNL     1     -22.295  -3.301  -9.358  1.00  0.00    -0.390 OA
HETATM   24  H   UNL     1     -21.606  -3.357  -8.672  1.00  0.00     0.210 HD
ENDBRANCH   4  23
TORSDOF 8
BEGIN_RES ARG D 557
REMARK  4 active torsions:
REMARK  status: ('A' for Active; 'I' for Inactive)
REMARK    1  A    between atoms: CA   and  CB  
REMARK    2  A    between atoms: CB   and  CG  
REMARK    3  A    between atoms: CG   and  CD  
REMARK    4  A    between atoms: CD   and  NE  
REMARK       I    between atoms: NE   and  CZ  
REMARK       I    between atoms: CZ   and  NH1 
REMARK       I    between atoms: CZ   and  NH2 
ROOT
ATOM      1  CA  ARG D 557     -26.217   2.705 -17.014  1.00 35.49     0.159 C 
ENDROOT
BRANCH   1   2
ATOM      2  CB  ARG D 557     -26.789   1.319 -17.183  1.00 35.49     0.034 C 
BRANCH   2   3
ATOM      3  CG  ARG D 557     -26.969   0.525 -15.961  1.00 35.49     0.027 C 
BRANCH   3   4
ATOM      4  CD  ARG D 557     -26.438  -0.850 -16.099  1.00 35.49     0.116 C 
BRANCH   4   5
ATOM      5  NE  ARG D 557     -25.476  -1.165 -15.076  1.00 35.49    -0.212 N 
ATOM      6  CZ  ARG D 557     -24.232  -0.744 -15.037  1.00 35.49     0.666 C 
ATOM      7  NH1 ARG D 557     -23.714   0.028 -15.974  1.00 35.49    -0.235 N 
ATOM      8  NH2 ARG D 557     -23.505  -1.112 -14.021  1.00 35.49    -0.235 N 
ATOM      9  HH  ARG D 557     -24.174   0.284 -16.650  1.00 35.49     0.174 HD
ATOM     10  HH  ARG D 557     -22.897   0.274 -15.894  1.00 35.49     0.174 HD
ATOM     11  HH  ARG D 557     -23.868  -1.605 -13.427  1.00 35.49     0.174 HD
ATOM     12  HH  ARG D 557     -22.699  -0.857 -13.959  1.00 35.49     0.174 HD
ATOM     13  HE  ARG D 557     -25.703  -1.717 -14.471  1.00 35.49     0.178 HD
ENDBRANCH   4   5
ENDBRANCH   3   4
ENDBRANCH   2   3
ENDBRANCH   1   2
END_RES ARG D 557
BEGIN_RES GLU D 570
REMARK  3 active torsions:
REMARK  status: ('A' for Active; 'I' for Inactive)
REMARK    5  A    between atoms: CA   and  CB  
REMARK    6  A    between atoms: CB   and  CG  
REMARK    7  A    between atoms: CG   and  CD  
ROOT
ATOM     14  CA  GLU D 570     -18.033  -6.348 -13.375  1.00 32.92     0.160 C 
ENDROOT
BRANCH  14  15
ATOM     15  CB  GLU D 570     -19.500  -6.345 -13.794  1.00 32.92     0.043 C 
BRANCH  15  16
ATOM     16  CG  GLU D 570     -19.805  -6.036 -15.215  1.00 32.92     0.100 C 
BRANCH  16  17
ATOM     17  CD  GLU D 570     -20.691  -7.073 -15.866  1.00 32.92     0.185 C 
ATOM     18  OE1 GLU D 570     -21.334  -6.763 -16.887  1.00 32.92    -0.647 OA
ATOM     19  OE2 GLU D 570     -20.754  -8.201 -15.340  1.00 32.92    -0.647 OA
ENDBRANCH  16  17
ENDBRANCH  15  16
ENDBRANCH  14  15
END_RES GLU D 570
ENDMDL
MODEL 9
REMARK VINA RESULT:      -6.0      5.640      9.335
REMARK  8 active torsions:
REMARK  status: ('A' for Active; 'I' for Inactive)
REMARK    1  A    between atoms: C_3  and  O_8 
REMARK    2  A    between atoms: C_6  and  O_7 
REMARK    3  A    between atoms: O_8  and  C_9 
REMARK    4  A    between atoms: C_10  and  O_19 
REMARK    5  A    between atoms: C_11  and  O_18 
REMARK    6  A    between atoms: C_12  and  O_17 
REMARK    7  A    between atoms: C_13  and  C_15 
REMARK    8  A    between atoms: C_15  and  O_16 
ROOT
HETATM    1  C   UNL     1     -19.400  -9.618  -3.420  1.00  0.00     0.298 C 
HETATM    2  C   UNL     1     -20.349  -9.481  -4.627  1.00  0.00     0.205 C 
HETATM    3  C   UNL     1     -20.342 -10.856  -5.325  1.00  0.00     0.183 C 
HETATM    4  C   UNL     1     -18.909 -11.331  -5.700  1.00  0.00     0.180 C 
HETATM    5  C   UNL     1     -17.970 -11.173  -4.493  1.00  0.00     0.179 C 
HETATM    6  O   UNL     1     -18.084  -9.839  -3.962  1.00  0.00    -0.348 OA
ENDROOT
BRANCH   1   7
HETATM    7  O   UNL     1     -19.397  -8.483  -2.554  1.00  0.00    -0.318 OA
BRANCH   7   8
HETATM    8  C   UNL     1     -20.522  -8.377  -1.759  1.00  0.00     0.072 A 
HETATM    9  C   UNL     1     -21.241  -7.188  -1.876  1.00  0.00     0.039 A 
HETATM   10  C   UNL     1     -22.345  -6.950  -1.046  1.00  0.00     0.039 A 
HETATM   11  C   UNL     1     -22.732  -7.903  -0.111  1.00  0.00     0.065 A 
HETATM   12  C   UNL     1     -22.060  -9.111  -0.015  1.00  0.00     0.039 A 
HETATM   13  C   UNL     1     -20.967  -9.349  -0.849  1.00  0.00     0.039 A 
BRANCH  11  14
HETATM   14  O   UNL     1     -23.778  -7.618   0.713  1.00  0.00    -0.361 OA
HETATM   15  H   UNL     1     -23.426  -7.260   1.548  1.00  0.00     0.217 HD
ENDBRANCH  11  14
ENDBRANCH   7   8
ENDBRANCH   1   7
BRANCH   2  16
HETATM   16  O   UNL     1     -19.902  -8.479  -5.562  1.00  0.00    -0.388 OA
HETATM   17  H   UNL     1     -20.562  -7.759  -5.546  1.00  0.00     0.210 HD
ENDBRANCH   2  16
BRANCH   3  18
HETATM   18  O   UNL     1     -21.184 -10.848  -6.471  1.00  0.00    -0.390 OA
HETATM   19  H   UNL     1     -21.601  -9.963  -6.488  1.00  0.00     0.210 HD
ENDBRANCH   3  18
BRANCH   5  20
HETATM   20  C   UNL     1     -16.493 -11.398  -4.822  1.00  0.00     0.198 C 
BRANCH  20  21
HETATM   21  O   UNL     1     -15.932 -10.178  -5.316  1.00  0.00    -0.398 OA
HETATM   22  H   UNL     1     -15.969  -9.546  -4.571  1.00  0.00     0.209 HD
ENDBRANCH  20  21
ENDBRANCH   5  20
BRANCH   4  23
HETATM   23  O   UNL     1     -18.423 -10.602  -6.837  1.00  0.00    -0.390 OA
HETATM   24  H   UNL     1     -18.606 -11.122  -7.639  1.00  0.00     0.210 HD
ENDBRANCH   4  23
TORSDOF 8
BEGIN_RES ARG D 557
REMARK  4 active torsions:
REMARK  status: ('A' for Active; 'I' for Inactive)
REMARK    1  A    between atoms: CA   and  CB  
REMARK    2  A    between atoms: CB   and  CG  
REMARK    3  A    between atoms: CG   and  CD  
REMARK    4  A    between atoms: CD   and  NE  
REMARK       I    between atoms: NE   and  CZ  
REMARK       I    between atoms: CZ   and  NH1 
REMARK       I    between atoms: CZ   and  NH2 
ROOT
ATOM      1  CA  ARG D 557     -26.217   2.705 -17.014  1.00 35.49     0.159 C 
ENDROOT
BRANCH   1   2
ATOM      2  CB  ARG D 557     -26.789   1.319 -17.183  1.00 35.49     0.034 C 
BRANCH   2   3
ATOM      3  CG  ARG D 557     -25.835   0.203 -17.159  1.00 35.49     0.027 C 
BRANCH   3   4
ATOM      4  CD  ARG D 557     -24.744   0.415 -16.180  1.00 35.49     0.116 C 
BRANCH   4   5
ATOM      5  NE  ARG D 557     -24.885  -0.425 -15.021  1.00 35.49    -0.212 N 
ATOM      6  CZ  ARG D 557     -24.071  -1.398 -14.674  1.00 35.49     0.666 C 
ATOM      7  NH1 ARG D 557     -23.011  -1.724 -15.388  1.00 35.49    -0.235 N 
ATOM      8  NH2 ARG D 557     -24.341  -2.043 -13.576  1.00 35.49    -0.235 N 
ATOM      9  HH  ARG D 557     -22.813  -1.311 -16.113  1.00 35.49     0.174 HD
ATOM     10  HH  ARG D 557     -22.515  -2.366 -15.111  1.00 35.49     0.174 HD
ATOM     11  HH  ARG D 557     -25.029  -1.806 -13.131  1.00 35.49     0.174 HD
ATOM     12  HH  ARG D 557     -23.838  -2.675 -13.318  1.00 35.49     0.174 HD
ATOM     13  HE  ARG D 557     -25.581  -0.332 -14.542  1.00 35.49     0.178 HD
ENDBRANCH   4   5
ENDBRANCH   3   4
ENDBRANCH   2   3
ENDBRANCH   1   2
END_RES ARG D 557
BEGIN_RES GLU D 570
REMARK  3 active torsions:
REMARK  status: ('A' for Active; 'I' for Inactive)
REMARK    5  A    between atoms: CA   and  CB  
REMARK    6  A    between atoms: CB   and  CG  
REMARK    7  A    between atoms: CG   and  CD  
ROOT
ATOM     14  CA  GLU D 570     -18.033  -6.348 -13.375  1.00 32.92     0.160 C 
ENDROOT
BRANCH  14  15
ATOM     15  CB  GLU D 570     -19.500  -6.345 -13.794  1.00 32.92     0.043 C 
BRANCH  15  16
ATOM     16  CG  GLU D 570     -20.445  -5.544 -12.973  1.00 32.92     0.100 C 
BRANCH  16  17
ATOM     17  CD  GLU D 570     -21.741  -5.247 -13.689  1.00 32.92     0.185 C 
ATOM     18  OE1 GLU D 570     -22.282  -4.136 -13.525  1.00 32.92    -0.647 OA
ATOM     19  OE2 GLU D 570     -22.231  -6.140 -14.409  1.00 32.92    -0.647 OA
ENDBRANCH  16  17
ENDBRANCH  15  16
ENDBRANCH  14  15
END_RES GLU D 570
ENDMDL
