MODEL 1
REMARK VINA RESULT:      -8.0      0.000      0.000
REMARK  17 active torsions:
REMARK  status: ('A' for Active; 'I' for Inactive)
REMARK    1  A    between atoms: C_2  and  C_3 
REMARK    2  A    between atoms: C_3  and  C_4 
REMARK    3  A    between atoms: C_4  and  C_5 
REMARK    4  A    between atoms: C_5  and  C_6 
REMARK    5  A    between atoms: C_6  and  C_7 
REMARK    6  A    between atoms: C_7  and  C_8 
REMARK    7  A    between atoms: C_8  and  C_9 
REMARK    8  A    between atoms: C_9  and  C_10 
REMARK    9  A    between atoms: C_10  and  C_11 
REMARK   10  A    between atoms: C_11  and  C_12 
REMARK   11  A    between atoms: C_12  and  O_13 
REMARK   12  A    between atoms: O_13  and  C_14 
REMARK   13  A    between atoms: C_15  and  O_24 
REMARK   14  A    between atoms: C_16  and  O_23 
REMARK   15  A    between atoms: C_17  and  O_22 
REMARK   16  A    between atoms: C_18  and  C_20 
REMARK   17  A    between atoms: C_20  and  O_21 
ROOT
HETATM    1  C   UNL     1     -21.886  -4.492 -12.110  1.00  0.00     0.291 C 
HETATM    2  C   UNL     1     -22.371  -3.671 -13.329  1.00  0.00     0.204 C 
HETATM    3  C   UNL     1     -23.148  -2.420 -12.882  1.00  0.00     0.183 C 
HETATM    4  C   UNL     1     -24.210  -2.745 -11.818  1.00  0.00     0.180 C 
HETATM    5  C   UNL     1     -23.543  -3.516 -10.679  1.00  0.00     0.179 C 
HETATM    6  O   UNL     1     -22.983  -4.741 -11.206  1.00  0.00    -0.348 OA
ENDROOT
BRANCH   1   7
HETATM    7  O   UNL     1     -20.790  -3.866 -11.445  1.00  0.00    -0.359 OA
BRANCH   7   8
HETATM    8  C   UNL     1     -20.190  -4.747 -10.490  1.00  0.00     0.171 C 
BRANCH   8   9
HETATM    9  C   UNL     1     -20.219  -4.137  -9.088  1.00  0.00     0.026 C 
BRANCH   9  10
HETATM   10  C   UNL     1     -20.399  -5.149  -7.952  1.00  0.00     0.002 C 
BRANCH  10  11
HETATM   11  C   UNL     1     -19.608  -4.770  -6.706  1.00  0.00     0.000 C 
BRANCH  11  12
HETATM   12  C   UNL     1     -20.423  -4.949  -5.429  1.00  0.00     0.000 C 
BRANCH  12  13
HETATM   13  C   UNL     1     -21.551  -5.942  -5.687  1.00  0.00     0.000 C 
BRANCH  13  14
HETATM   14  C   UNL     1     -21.939  -6.700  -4.425  1.00  0.00     0.000 C 
BRANCH  14  15
HETATM   15  C   UNL     1     -21.318  -6.024  -3.205  1.00  0.00     0.000 C 
BRANCH  15  16
HETATM   16  C   UNL     1     -22.169  -6.241  -1.960  1.00  0.00     0.000 C 
BRANCH  16  17
HETATM   17  C   UNL     1     -21.898  -7.617  -1.359  1.00  0.00    -0.000 C 
BRANCH  17  18
HETATM   18  C   UNL     1     -22.616  -7.784  -0.025  1.00  0.00    -0.005 C 
HETATM   19  C   UNL     1     -23.181  -9.187   0.123  1.00  0.00     0.005 C 
ENDBRANCH  17  18
ENDBRANCH  16  17
ENDBRANCH  15  16
ENDBRANCH  14  15
ENDBRANCH  13  14
ENDBRANCH  12  13
ENDBRANCH  11  12
ENDBRANCH  10  11
ENDBRANCH   9  10
ENDBRANCH   8   9
ENDBRANCH   7   8
ENDBRANCH   1   7
BRANCH   2  20
HETATM   20  O   UNL     1     -23.201  -4.495 -14.171  1.00  0.00    -0.388 OA
HETATM   21  H   UNL     1     -24.121  -4.381 -13.875  1.00  0.00     0.210 HD
ENDBRANCH   2  20
BRANCH   3  22
HETATM   22  O   UNL     1     -23.779  -1.798 -14.006  1.00  0.00    -0.390 OA
HETATM   23  H   UNL     1     -24.140  -0.954 -13.659  1.00  0.00     0.210 HD
ENDBRANCH   3  22
BRANCH   5  24
HETATM   24  C   UNL     1     -24.521  -3.898  -9.563  1.00  0.00     0.198 C 
BRANCH  24  25
HETATM   25  O   UNL     1     -25.757  -3.208  -9.752  1.00  0.00    -0.398 OA
HETATM   26  H   UNL     1     -26.017  -3.372 -10.679  1.00  0.00     0.209 HD
ENDBRANCH  24  25
ENDBRANCH   5  24
BRANCH   4  27
HETATM   27  O   UNL     1     -25.266  -3.512 -12.428  1.00  0.00    -0.390 OA
HETATM   28  H   UNL     1     -26.060  -2.953 -12.499  1.00  0.00     0.210 HD
ENDBRANCH   4  27
TORSDOF 17
BEGIN_RES ARG D 557
REMARK  4 active torsions:
REMARK  status: ('A' for Active; 'I' for Inactive)
REMARK    1  A    between atoms: CA   and  CB  
REMARK    2  A    between atoms: CB   and  CG  
REMARK    3  A    between atoms: CG   and  CD  
REMARK    4  A    between atoms: CD   and  NE  
REMARK       I    between atoms: NE   and  CZ  
REMARK       I    between atoms: CZ   and  NH1 
REMARK       I    between atoms: CZ   and  NH2 
ROOT
ATOM      1  CA  ARG D 557     -26.217   2.705 -17.014  1.00 35.49     0.159 C 
ENDROOT
BRANCH   1   2
ATOM      2  CB  ARG D 557     -26.789   1.319 -17.183  1.00 35.49     0.034 C 
BRANCH   2   3
ATOM      3  CG  ARG D 557     -28.214   1.150 -16.872  1.00 35.49     0.027 C 
BRANCH   3   4
ATOM      4  CD  ARG D 557     -28.569  -0.263 -16.607  1.00 35.49     0.116 C 
BRANCH   4   5
ATOM      5  NE  ARG D 557     -27.534  -0.958 -15.888  1.00 35.49    -0.212 N 
ATOM      6  CZ  ARG D 557     -27.278  -2.245 -15.962  1.00 35.49     0.666 C 
ATOM      7  NH1 ARG D 557     -27.981  -3.065 -16.721  1.00 35.49    -0.235 N 
ATOM      8  NH2 ARG D 557     -26.286  -2.701 -15.255  1.00 35.49    -0.235 N 
ATOM      9  HH  ARG D 557     -28.638  -2.786 -17.196  1.00 35.49     0.174 HD
ATOM     10  HH  ARG D 557     -27.767  -3.895 -16.731  1.00 35.49     0.174 HD
ATOM     11  HH  ARG D 557     -25.845  -2.147 -14.780  1.00 35.49     0.174 HD
ATOM     12  HH  ARG D 557     -26.088  -3.525 -15.280  1.00 35.49     0.174 HD
ATOM     13  HE  ARG D 557     -27.079  -0.518 -15.320  1.00 35.49     0.178 HD
ENDBRANCH   4   5
ENDBRANCH   3   4
ENDBRANCH   2   3
ENDBRANCH   1   2
END_RES ARG D 557
BEGIN_RES GLU D 570
REMARK  3 active torsions:
REMARK  status: ('A' for Active; 'I' for Inactive)
REMARK    5  A    between atoms: CA   and  CB  
REMARK    6  A    between atoms: CB   and  CG  
REMARK    7  A    between atoms: CG   and  CD  
ROOT
ATOM     14  CA  GLU D 570     -18.033  -6.348 -13.375  1.00 32.92     0.160 C 
ENDROOT
BRANCH  14  15
ATOM     15  CB  GLU D 570     -19.500  -6.345 -13.794  1.00 32.92     0.043 C 
BRANCH  15  16
ATOM     16  CG  GLU D 570     -19.823  -5.832 -15.150  1.00 32.92     0.100 C 
BRANCH  16  17
ATOM     17  CD  GLU D 570     -21.007  -6.531 -15.778  1.00 32.92     0.185 C 
ATOM     18  OE1 GLU D 570     -21.063  -6.630 -17.019  1.00 32.92    -0.647 OA
ATOM     19  OE2 GLU D 570     -21.896  -6.969 -15.021  1.00 32.92    -0.647 OA
ENDBRANCH  16  17
ENDBRANCH  15  16
ENDBRANCH  14  15
END_RES GLU D 570
ENDMDL
MODEL 2
REMARK VINA RESULT:      -7.5      3.784      6.543
REMARK  17 active torsions:
REMARK  status: ('A' for Active; 'I' for Inactive)
REMARK    1  A    between atoms: C_2  and  C_3 
REMARK    2  A    between atoms: C_3  and  C_4 
REMARK    3  A    between atoms: C_4  and  C_5 
REMARK    4  A    between atoms: C_5  and  C_6 
REMARK    5  A    between atoms: C_6  and  C_7 
REMARK    6  A    between atoms: C_7  and  C_8 
REMARK    7  A    between atoms: C_8  and  C_9 
REMARK    8  A    between atoms: C_9  and  C_10 
REMARK    9  A    between atoms: C_10  and  C_11 
REMARK   10  A    between atoms: C_11  and  C_12 
REMARK   11  A    between atoms: C_12  and  O_13 
REMARK   12  A    between atoms: O_13  and  C_14 
REMARK   13  A    between atoms: C_15  and  O_24 
REMARK   14  A    between atoms: C_16  and  O_23 
REMARK   15  A    between atoms: C_17  and  O_22 
REMARK   16  A    between atoms: C_18  and  C_20 
REMARK   17  A    between atoms: C_20  and  O_21 
ROOT
HETATM    1  C   UNL     1     -26.690  -5.990 -15.810  1.00  0.00     0.291 C 
HETATM    2  C   UNL     1     -27.580  -7.249 -15.936  1.00  0.00     0.204 C 
HETATM    3  C   UNL     1     -28.525  -7.142 -17.147  1.00  0.00     0.183 C 
HETATM    4  C   UNL     1     -29.254  -5.789 -17.196  1.00  0.00     0.180 C 
HETATM    5  C   UNL     1     -28.217  -4.670 -17.102  1.00  0.00     0.179 C 
HETATM    6  O   UNL     1     -27.501  -4.797 -15.851  1.00  0.00    -0.348 OA
ENDROOT
BRANCH   1   7
HETATM    7  O   UNL     1     -25.661  -5.960 -16.797  1.00  0.00    -0.359 OA
BRANCH   7   8
HETATM    8  C   UNL     1     -24.552  -6.781 -16.418  1.00  0.00     0.171 C 
BRANCH   8   9
HETATM    9  C   UNL     1     -24.228  -6.610 -14.932  1.00  0.00     0.026 C 
BRANCH   9  10
HETATM   10  C   UNL     1     -23.457  -5.333 -14.588  1.00  0.00     0.002 C 
BRANCH  10  11
HETATM   11  C   UNL     1     -22.696  -5.451 -13.272  1.00  0.00     0.000 C 
BRANCH  11  12
HETATM   12  C   UNL     1     -23.564  -5.096 -12.070  1.00  0.00     0.000 C 
BRANCH  12  13
HETATM   13  C   UNL     1     -22.729  -4.321 -11.057  1.00  0.00     0.000 C 
BRANCH  13  14
HETATM   14  C   UNL     1     -21.372  -3.926 -11.623  1.00  0.00     0.000 C 
BRANCH  14  15
HETATM   15  C   UNL     1     -20.415  -3.589 -10.481  1.00  0.00     0.000 C 
BRANCH  15  16
HETATM   16  C   UNL     1     -20.536  -4.596  -9.344  1.00  0.00     0.000 C 
BRANCH  16  17
HETATM   17  C   UNL     1     -20.007  -4.002  -8.043  1.00  0.00    -0.000 C 
BRANCH  17  18
HETATM   18  C   UNL     1     -20.933  -4.325  -6.876  1.00  0.00    -0.005 C 
HETATM   19  C   UNL     1     -22.375  -4.447  -7.337  1.00  0.00     0.005 C 
ENDBRANCH  17  18
ENDBRANCH  16  17
ENDBRANCH  15  16
ENDBRANCH  14  15
ENDBRANCH  13  14
ENDBRANCH  12  13
ENDBRANCH  11  12
ENDBRANCH  10  11
ENDBRANCH   9  10
ENDBRANCH   8   9
ENDBRANCH   7   8
ENDBRANCH   1   7
BRANCH   2  20
HETATM   20  O   UNL     1     -28.343  -7.429 -14.727  1.00  0.00    -0.388 OA
HETATM   21  H   UNL     1     -28.657  -6.552 -14.446  1.00  0.00     0.210 HD
ENDBRANCH   2  20
BRANCH   3  22
HETATM   22  O   UNL     1     -29.490  -8.199 -17.120  1.00  0.00    -0.390 OA
HETATM   23  H   UNL     1     -30.040  -8.060 -17.921  1.00  0.00     0.210 HD
ENDBRANCH   3  22
BRANCH   5  24
HETATM   24  C   UNL     1     -28.843  -3.272 -17.134  1.00  0.00     0.198 C 
BRANCH  24  25
HETATM   25  O   UNL     1     -30.082  -3.318 -17.843  1.00  0.00    -0.398 OA
HETATM   26  H   UNL     1     -30.782  -3.244 -17.165  1.00  0.00     0.209 HD
ENDBRANCH  24  25
ENDBRANCH   5  24
BRANCH   4  27
HETATM   27  O   UNL     1     -30.200  -5.726 -16.112  1.00  0.00    -0.390 OA
HETATM   28  H   UNL     1     -29.735  -5.443 -15.305  1.00  0.00     0.210 HD
ENDBRANCH   4  27
TORSDOF 17
BEGIN_RES ARG D 557
REMARK  4 active torsions:
REMARK  status: ('A' for Active; 'I' for Inactive)
REMARK    1  A    between atoms: CA   and  CB  
REMARK    2  A    between atoms: CB   and  CG  
REMARK    3  A    between atoms: CG   and  CD  
REMARK    4  A    between atoms: CD   and  NE  
REMARK       I    between atoms: NE   and  CZ  
REMARK       I    between atoms: CZ   and  NH1 
REMARK       I    between atoms: CZ   and  NH2 
ROOT
ATOM      1  CA  ARG D 557     -26.217   2.705 -17.014  1.00 35.49     0.159 C 
ENDROOT
BRANCH   1   2
ATOM      2  CB  ARG D 557     -26.789   1.319 -17.183  1.00 35.49     0.034 C 
BRANCH   2   3
ATOM      3  CG  ARG D 557     -25.869   0.194 -16.973  1.00 35.49     0.027 C 
BRANCH   3   4
ATOM      4  CD  ARG D 557     -26.245  -0.631 -15.802  1.00 35.49     0.116 C 
BRANCH   4   5
ATOM      5  NE  ARG D 557     -25.136  -0.847 -14.912  1.00 35.49    -0.212 N 
ATOM      6  CZ  ARG D 557     -24.924  -1.929 -14.196  1.00 35.49     0.666 C 
ATOM      7  NH1 ARG D 557     -25.747  -2.961 -14.211  1.00 35.49    -0.235 N 
ATOM      8  NH2 ARG D 557     -23.853  -1.960 -13.458  1.00 35.49    -0.235 N 
ATOM      9  HH  ARG D 557     -26.457  -2.963 -14.691  1.00 35.49     0.174 HD
ATOM     10  HH  ARG D 557     -25.557  -3.640 -13.725  1.00 35.49     0.174 HD
ATOM     11  HH  ARG D 557     -23.336  -1.282 -13.474  1.00 35.49     0.174 HD
ATOM     12  HH  ARG D 557     -23.681  -2.643 -12.985  1.00 35.49     0.174 HD
ATOM     13  HE  ARG D 557     -24.594  -0.203 -14.785  1.00 35.49     0.178 HD
ENDBRANCH   4   5
ENDBRANCH   3   4
ENDBRANCH   2   3
ENDBRANCH   1   2
END_RES ARG D 557
BEGIN_RES GLU D 570
REMARK  3 active torsions:
REMARK  status: ('A' for Active; 'I' for Inactive)
REMARK    5  A    between atoms: CA   and  CB  
REMARK    6  A    between atoms: CB   and  CG  
REMARK    7  A    between atoms: CG   and  CD  
ROOT
ATOM     14  CA  GLU D 570     -18.033  -6.348 -13.375  1.00 32.92     0.160 C 
ENDROOT
BRANCH  14  15
ATOM     15  CB  GLU D 570     -19.500  -6.345 -13.794  1.00 32.92     0.043 C 
BRANCH  15  16
ATOM     16  CG  GLU D 570     -20.082  -7.631 -14.259  1.00 32.92     0.100 C 
BRANCH  16  17
ATOM     17  CD  GLU D 570     -20.654  -7.547 -15.655  1.00 32.92     0.185 C 
ATOM     18  OE1 GLU D 570     -21.213  -8.549 -16.141  1.00 32.92    -0.647 OA
ATOM     19  OE2 GLU D 570     -20.527  -6.474 -16.276  1.00 32.92    -0.647 OA
ENDBRANCH  16  17
ENDBRANCH  15  16
ENDBRANCH  14  15
END_RES GLU D 570
ENDMDL
MODEL 3
REMARK VINA RESULT:      -7.0      3.568      6.668
REMARK  17 active torsions:
REMARK  status: ('A' for Active; 'I' for Inactive)
REMARK    1  A    between atoms: C_2  and  C_3 
REMARK    2  A    between atoms: C_3  and  C_4 
REMARK    3  A    between atoms: C_4  and  C_5 
REMARK    4  A    between atoms: C_5  and  C_6 
REMARK    5  A    between atoms: C_6  and  C_7 
REMARK    6  A    between atoms: C_7  and  C_8 
REMARK    7  A    between atoms: C_8  and  C_9 
REMARK    8  A    between atoms: C_9  and  C_10 
REMARK    9  A    between atoms: C_10  and  C_11 
REMARK   10  A    between atoms: C_11  and  C_12 
REMARK   11  A    between atoms: C_12  and  O_13 
REMARK   12  A    between atoms: O_13  and  C_14 
REMARK   13  A    between atoms: C_15  and  O_24 
REMARK   14  A    between atoms: C_16  and  O_23 
REMARK   15  A    between atoms: C_17  and  O_22 
REMARK   16  A    between atoms: C_18  and  C_20 
REMARK   17  A    between atoms: C_20  and  O_21 
ROOT
HETATM    1  C   UNL     1     -26.879  -6.253 -16.047  1.00  0.00     0.291 C 
HETATM    2  C   UNL     1     -28.366  -6.512 -15.708  1.00  0.00     0.204 C 
HETATM    3  C   UNL     1     -29.065  -7.288 -16.840  1.00  0.00     0.183 C 
HETATM    4  C   UNL     1     -28.780  -6.679 -18.223  1.00  0.00     0.180 C 
HETATM    5  C   UNL     1     -27.267  -6.537 -18.394  1.00  0.00     0.179 C 
HETATM    6  O   UNL     1     -26.758  -5.665 -17.358  1.00  0.00    -0.348 OA
ENDROOT
BRANCH   1   7
HETATM    7  O   UNL     1     -26.088  -7.434 -15.925  1.00  0.00    -0.359 OA
BRANCH   7   8
HETATM    8  C   UNL     1     -24.713  -7.118 -15.688  1.00  0.00     0.171 C 
BRANCH   8   9
HETATM    9  C   UNL     1     -24.579  -5.810 -14.906  1.00  0.00     0.026 C 
BRANCH   9  10
HETATM   10  C   UNL     1     -23.447  -5.793 -13.875  1.00  0.00     0.002 C 
BRANCH  10  11
HETATM   11  C   UNL     1     -22.615  -4.517 -13.948  1.00  0.00     0.000 C 
BRANCH  11  12
HETATM   12  C   UNL     1     -22.501  -3.825 -12.593  1.00  0.00     0.000 C 
BRANCH  12  13
HETATM   13  C   UNL     1     -23.076  -4.735 -11.513  1.00  0.00     0.000 C 
BRANCH  13  14
HETATM   14  C   UNL     1     -22.457  -4.460 -10.149  1.00  0.00     0.000 C 
BRANCH  14  15
HETATM   15  C   UNL     1     -20.970  -4.154 -10.311  1.00  0.00     0.000 C 
BRANCH  15  16
HETATM   16  C   UNL     1     -20.252  -4.179  -8.966  1.00  0.00     0.000 C 
BRANCH  16  17
HETATM   17  C   UNL     1     -21.220  -3.845  -7.836  1.00  0.00    -0.000 C 
BRANCH  17  18
HETATM   18  C   UNL     1     -21.036  -4.795  -6.657  1.00  0.00    -0.005 C 
HETATM   19  C   UNL     1     -19.916  -5.786  -6.921  1.00  0.00     0.005 C 
ENDBRANCH  17  18
ENDBRANCH  16  17
ENDBRANCH  15  16
ENDBRANCH  14  15
ENDBRANCH  13  14
ENDBRANCH  12  13
ENDBRANCH  11  12
ENDBRANCH  10  11
ENDBRANCH   9  10
ENDBRANCH   8   9
ENDBRANCH   7   8
ENDBRANCH   1   7
BRANCH   2  20
HETATM   20  O   UNL     1     -29.038  -5.258 -15.479  1.00  0.00    -0.388 OA
HETATM   21  H   UNL     1     -29.590  -5.365 -14.684  1.00  0.00     0.210 HD
ENDBRANCH   2  20
BRANCH   3  22
HETATM   22  O   UNL     1     -30.479  -7.322 -16.620  1.00  0.00    -0.390 OA
HETATM   23  H   UNL     1     -30.643  -8.173 -16.160  1.00  0.00     0.210 HD
ENDBRANCH   3  22
BRANCH   5  24
HETATM   24  C   UNL     1     -26.873  -5.929 -19.744  1.00  0.00     0.198 C 
BRANCH  24  25
HETATM   25  O   UNL     1     -25.892  -6.754 -20.373  1.00  0.00    -0.398 OA
HETATM   26  H   UNL     1     -26.132  -7.674 -20.151  1.00  0.00     0.209 HD
ENDBRANCH  24  25
ENDBRANCH   5  24
BRANCH   4  27
HETATM   27  O   UNL     1     -29.445  -5.405 -18.322  1.00  0.00    -0.390 OA
HETATM   28  H   UNL     1     -28.950  -4.751 -17.799  1.00  0.00     0.210 HD
ENDBRANCH   4  27
TORSDOF 17
BEGIN_RES ARG D 557
REMARK  4 active torsions:
REMARK  status: ('A' for Active; 'I' for Inactive)
REMARK    1  A    between atoms: CA   and  CB  
REMARK    2  A    between atoms: CB   and  CG  
REMARK    3  A    between atoms: CG   and  CD  
REMARK    4  A    between atoms: CD   and  NE  
REMARK       I    between atoms: NE   and  CZ  
REMARK       I    between atoms: CZ   and  NH1 
REMARK       I    between atoms: CZ   and  NH2 
ROOT
ATOM      1  CA  ARG D 557     -26.217   2.705 -17.014  1.00 35.49     0.159 C 
ENDROOT
BRANCH   1   2
ATOM      2  CB  ARG D 557     -26.789   1.319 -17.183  1.00 35.49     0.034 C 
BRANCH   2   3
ATOM      3  CG  ARG D 557     -28.243   1.181 -17.032  1.00 35.49     0.027 C 
BRANCH   3   4
ATOM      4  CD  ARG D 557     -28.669  -0.234 -16.945  1.00 35.49     0.116 C 
BRANCH   4   5
ATOM      5  NE  ARG D 557     -27.739  -1.036 -16.196  1.00 35.49    -0.212 N 
ATOM      6  CZ  ARG D 557     -27.603  -2.340 -16.286  1.00 35.49     0.666 C 
ATOM      7  NH1 ARG D 557     -28.343  -3.077 -17.093  1.00 35.49    -0.235 N 
ATOM      8  NH2 ARG D 557     -26.691  -2.901 -15.545  1.00 35.49    -0.235 N 
ATOM      9  HH  ARG D 557     -28.947  -2.728 -17.591  1.00 35.49     0.174 HD
ATOM     10  HH  ARG D 557     -28.208  -3.922 -17.111  1.00 35.49     0.174 HD
ATOM     11  HH  ARG D 557     -26.223  -2.399 -15.038  1.00 35.49     0.174 HD
ATOM     12  HH  ARG D 557     -26.571  -3.739 -15.578  1.00 35.49     0.174 HD
ATOM     13  HE  ARG D 557     -27.271  -0.652 -15.599  1.00 35.49     0.178 HD
ENDBRANCH   4   5
ENDBRANCH   3   4
ENDBRANCH   2   3
ENDBRANCH   1   2
END_RES ARG D 557
BEGIN_RES GLU D 570
REMARK  3 active torsions:
REMARK  status: ('A' for Active; 'I' for Inactive)
REMARK    5  A    between atoms: CA   and  CB  
REMARK    6  A    between atoms: CB   and  CG  
REMARK    7  A    between atoms: CG   and  CD  
ROOT
ATOM     14  CA  GLU D 570     -18.033  -6.348 -13.375  1.00 32.92     0.160 C 
ENDROOT
BRANCH  14  15
ATOM     15  CB  GLU D 570     -19.500  -6.345 -13.794  1.00 32.92     0.043 C 
BRANCH  15  16
ATOM     16  CG  GLU D 570     -20.087  -7.635 -14.241  1.00 32.92     0.100 C 
BRANCH  16  17
ATOM     17  CD  GLU D 570     -20.700  -7.557 -15.619  1.00 32.92     0.185 C 
ATOM     18  OE1 GLU D 570     -21.236  -8.574 -16.102  1.00 32.92    -0.647 OA
ATOM     19  OE2 GLU D 570     -20.629  -6.473 -16.231  1.00 32.92    -0.647 OA
ENDBRANCH  16  17
ENDBRANCH  15  16
ENDBRANCH  14  15
END_RES GLU D 570
ENDMDL
MODEL 4
REMARK VINA RESULT:      -6.9      4.175      7.252
REMARK  17 active torsions:
REMARK  status: ('A' for Active; 'I' for Inactive)
REMARK    1  A    between atoms: C_2  and  C_3 
REMARK    2  A    between atoms: C_3  and  C_4 
REMARK    3  A    between atoms: C_4  and  C_5 
REMARK    4  A    between atoms: C_5  and  C_6 
REMARK    5  A    between atoms: C_6  and  C_7 
REMARK    6  A    between atoms: C_7  and  C_8 
REMARK    7  A    between atoms: C_8  and  C_9 
REMARK    8  A    between atoms: C_9  and  C_10 
REMARK    9  A    between atoms: C_10  and  C_11 
REMARK   10  A    between atoms: C_11  and  C_12 
REMARK   11  A    between atoms: C_12  and  O_13 
REMARK   12  A    between atoms: O_13  and  C_14 
REMARK   13  A    between atoms: C_15  and  O_24 
REMARK   14  A    between atoms: C_16  and  O_23 
REMARK   15  A    between atoms: C_17  and  O_22 
REMARK   16  A    between atoms: C_18  and  C_20 
REMARK   17  A    between atoms: C_20  and  O_21 
ROOT
HETATM    1  C   UNL     1     -28.324  -6.441 -16.479  1.00  0.00     0.291 C 
HETATM    2  C   UNL     1     -28.716  -7.731 -17.237  1.00  0.00     0.204 C 
HETATM    3  C   UNL     1     -29.579  -7.408 -18.471  1.00  0.00     0.183 C 
HETATM    4  C   UNL     1     -30.728  -6.440 -18.139  1.00  0.00     0.180 C 
HETATM    5  C   UNL     1     -30.147  -5.214 -17.435  1.00  0.00     0.179 C 
HETATM    6  O   UNL     1     -29.493  -5.638 -16.216  1.00  0.00    -0.348 OA
ENDROOT
BRANCH   1   7
HETATM    7  O   UNL     1     -27.321  -5.697 -17.170  1.00  0.00    -0.359 OA
BRANCH   7   8
HETATM    8  C   UNL     1     -26.033  -6.304 -17.026  1.00  0.00     0.171 C 
BRANCH   8   9
HETATM    9  C   UNL     1     -25.673  -6.482 -15.550  1.00  0.00     0.026 C 
BRANCH   9  10
HETATM   10  C   UNL     1     -24.186  -6.305 -15.227  1.00  0.00     0.002 C 
BRANCH  10  11
HETATM   11  C   UNL     1     -23.923  -5.086 -14.351  1.00  0.00     0.000 C 
BRANCH  11  12
HETATM   12  C   UNL     1     -23.090  -5.429 -13.120  1.00  0.00     0.000 C 
BRANCH  12  13
HETATM   13  C   UNL     1     -22.317  -4.192 -12.675  1.00  0.00     0.000 C 
BRANCH  13  14
HETATM   14  C   UNL     1     -22.827  -3.653 -11.345  1.00  0.00     0.000 C 
BRANCH  14  15
HETATM   15  C   UNL     1     -22.127  -4.373 -10.194  1.00  0.00     0.000 C 
BRANCH  15  16
HETATM   16  C   UNL     1     -22.762  -4.018  -8.855  1.00  0.00     0.000 C 
BRANCH  16  17
HETATM   17  C   UNL     1     -21.687  -3.718  -7.815  1.00  0.00    -0.000 C 
BRANCH  17  18
HETATM   18  C   UNL     1     -21.037  -5.001  -7.311  1.00  0.00    -0.005 C 
HETATM   19  C   UNL     1     -20.231  -4.749  -6.048  1.00  0.00     0.005 C 
ENDBRANCH  17  18
ENDBRANCH  16  17
ENDBRANCH  15  16
ENDBRANCH  14  15
ENDBRANCH  13  14
ENDBRANCH  12  13
ENDBRANCH  11  12
ENDBRANCH  10  11
ENDBRANCH   9  10
ENDBRANCH   8   9
ENDBRANCH   7   8
ENDBRANCH   1   7
BRANCH   2  20
HETATM   20  O   UNL     1     -29.429  -8.617 -16.353  1.00  0.00    -0.388 OA
HETATM   21  H   UNL     1     -30.133  -8.099 -15.925  1.00  0.00     0.210 HD
ENDBRANCH   2  20
BRANCH   3  22
HETATM   22  O   UNL     1     -30.120  -8.610 -19.029  1.00  0.00    -0.390 OA
HETATM   23  H   UNL     1     -29.408  -8.965 -19.603  1.00  0.00     0.210 HD
ENDBRANCH   3  22
BRANCH   5  24
HETATM   24  C   UNL     1     -31.214  -4.184 -17.051  1.00  0.00     0.198 C 
BRANCH  24  25
HETATM   25  O   UNL     1     -30.842  -2.899 -17.550  1.00  0.00    -0.398 OA
HETATM   26  H   UNL     1     -30.313  -3.066 -18.354  1.00  0.00     0.209 HD
ENDBRANCH  24  25
ENDBRANCH   5  24
BRANCH   4  27
HETATM   27  O   UNL     1     -31.690  -7.119 -17.310  1.00  0.00    -0.390 OA
HETATM   28  H   UNL     1     -32.197  -7.741 -17.862  1.00  0.00     0.210 HD
ENDBRANCH   4  27
TORSDOF 17
BEGIN_RES ARG D 557
REMARK  4 active torsions:
REMARK  status: ('A' for Active; 'I' for Inactive)
REMARK    1  A    between atoms: CA   and  CB  
REMARK    2  A    between atoms: CB   and  CG  
REMARK    3  A    between atoms: CG   and  CD  
REMARK    4  A    between atoms: CD   and  NE  
REMARK       I    between atoms: NE   and  CZ  
REMARK       I    between atoms: CZ   and  NH1 
REMARK       I    between atoms: CZ   and  NH2 
ROOT
ATOM      1  CA  ARG D 557     -26.217   2.705 -17.014  1.00 35.49     0.159 C 
ENDROOT
BRANCH   1   2
ATOM      2  CB  ARG D 557     -26.789   1.319 -17.183  1.00 35.49     0.034 C 
BRANCH   2   3
ATOM      3  CG  ARG D 557     -28.233   1.170 -16.968  1.00 35.49     0.027 C 
BRANCH   3   4
ATOM      4  CD  ARG D 557     -28.603  -0.202 -16.552  1.00 35.49     0.116 C 
BRANCH   4   5
ATOM      5  NE  ARG D 557     -27.540  -0.857 -15.835  1.00 35.49    -0.212 N 
ATOM      6  CZ  ARG D 557     -27.228  -2.130 -15.918  1.00 35.49     0.666 C 
ATOM      7  NH1 ARG D 557     -27.891  -2.974 -16.687  1.00 35.49    -0.235 N 
ATOM      8  NH2 ARG D 557     -26.218  -2.548 -15.212  1.00 35.49    -0.235 N 
ATOM      9  HH  ARG D 557     -28.557  -2.721 -17.162  1.00 35.49     0.174 HD
ATOM     10  HH  ARG D 557     -27.640  -3.793 -16.703  1.00 35.49     0.174 HD
ATOM     11  HH  ARG D 557     -25.804  -1.979 -14.730  1.00 35.49     0.174 HD
ATOM     12  HH  ARG D 557     -25.984  -3.363 -15.242  1.00 35.49     0.174 HD
ATOM     13  HE  ARG D 557     -27.107  -0.402 -15.261  1.00 35.49     0.178 HD
ENDBRANCH   4   5
ENDBRANCH   3   4
ENDBRANCH   2   3
ENDBRANCH   1   2
END_RES ARG D 557
BEGIN_RES GLU D 570
REMARK  3 active torsions:
REMARK  status: ('A' for Active; 'I' for Inactive)
REMARK    5  A    between atoms: CA   and  CB  
REMARK    6  A    between atoms: CB   and  CG  
REMARK    7  A    between atoms: CG   and  CD  
ROOT
ATOM     14  CA  GLU D 570     -18.033  -6.348 -13.375  1.00 32.92     0.160 C 
ENDROOT
BRANCH  14  15
ATOM     15  CB  GLU D 570     -19.500  -6.345 -13.794  1.00 32.92     0.043 C 
BRANCH  15  16
ATOM     16  CG  GLU D 570     -20.079  -7.629 -14.268  1.00 32.92     0.100 C 
BRANCH  16  17
ATOM     17  CD  GLU D 570     -20.730  -7.516 -15.627  1.00 32.92     0.185 C 
ATOM     18  OE1 GLU D 570     -20.743  -6.410 -16.202  1.00 32.92    -0.647 OA
ATOM     19  OE2 GLU D 570     -21.247  -8.540 -16.114  1.00 32.92    -0.647 OA
ENDBRANCH  16  17
ENDBRANCH  15  16
ENDBRANCH  14  15
END_RES GLU D 570
ENDMDL
MODEL 5
REMARK VINA RESULT:      -6.5      4.762      8.606
REMARK  17 active torsions:
REMARK  status: ('A' for Active; 'I' for Inactive)
REMARK    1  A    between atoms: C_2  and  C_3 
REMARK    2  A    between atoms: C_3  and  C_4 
REMARK    3  A    between atoms: C_4  and  C_5 
REMARK    4  A    between atoms: C_5  and  C_6 
REMARK    5  A    between atoms: C_6  and  C_7 
REMARK    6  A    between atoms: C_7  and  C_8 
REMARK    7  A    between atoms: C_8  and  C_9 
REMARK    8  A    between atoms: C_9  and  C_10 
REMARK    9  A    between atoms: C_10  and  C_11 
REMARK   10  A    between atoms: C_11  and  C_12 
REMARK   11  A    between atoms: C_12  and  O_13 
REMARK   12  A    between atoms: O_13  and  C_14 
REMARK   13  A    between atoms: C_15  and  O_24 
REMARK   14  A    between atoms: C_16  and  O_23 
REMARK   15  A    between atoms: C_17  and  O_22 
REMARK   16  A    between atoms: C_18  and  C_20 
REMARK   17  A    between atoms: C_20  and  O_21 
ROOT
HETATM    1  C   UNL     1     -20.514  -8.139  -2.995  1.00  0.00     0.291 C 
HETATM    2  C   UNL     1     -20.417  -9.683  -2.990  1.00  0.00     0.204 C 
HETATM    3  C   UNL     1     -21.682 -10.316  -2.380  1.00  0.00     0.183 C 
HETATM    4  C   UNL     1     -22.077  -9.657  -1.049  1.00  0.00     0.180 C 
HETATM    5  C   UNL     1     -22.164  -8.145  -1.257  1.00  0.00     0.179 C 
HETATM    6  O   UNL     1     -20.871  -7.655  -1.684  1.00  0.00    -0.348 OA
ENDROOT
BRANCH   1   7
HETATM    7  O   UNL     1     -21.414  -7.663  -3.995  1.00  0.00    -0.359 OA
BRANCH   7   8
HETATM    8  C   UNL     1     -21.534  -6.238  -3.950  1.00  0.00     0.171 C 
BRANCH   8   9
HETATM    9  C   UNL     1     -20.746  -5.585  -5.088  1.00  0.00     0.026 C 
BRANCH   9  10
HETATM   10  C   UNL     1     -21.538  -5.385  -6.383  1.00  0.00     0.002 C 
BRANCH  10  11
HETATM   11  C   UNL     1     -21.304  -4.011  -7.000  1.00  0.00     0.000 C 
BRANCH  11  12
HETATM   12  C   UNL     1     -21.429  -4.032  -8.520  1.00  0.00     0.000 C 
BRANCH  12  13
HETATM   13  C   UNL     1     -20.096  -4.451  -9.129  1.00  0.00     0.000 C 
BRANCH  13  14
HETATM   14  C   UNL     1     -20.162  -4.520 -10.649  1.00  0.00     0.000 C 
BRANCH  14  15
HETATM   15  C   UNL     1     -21.345  -3.696 -11.151  1.00  0.00     0.000 C 
BRANCH  15  16
HETATM   16  C   UNL     1     -22.203  -4.497 -12.123  1.00  0.00     0.000 C 
BRANCH  16  17
HETATM   17  C   UNL     1     -23.641  -4.584 -11.622  1.00  0.00    -0.000 C 
BRANCH  17  18
HETATM   18  C   UNL     1     -24.108  -3.246 -11.060  1.00  0.00    -0.005 C 
HETATM   19  C   UNL     1     -24.809  -3.425  -9.725  1.00  0.00     0.005 C 
ENDBRANCH  17  18
ENDBRANCH  16  17
ENDBRANCH  15  16
ENDBRANCH  14  15
ENDBRANCH  13  14
ENDBRANCH  12  13
ENDBRANCH  11  12
ENDBRANCH  10  11
ENDBRANCH   9  10
ENDBRANCH   8   9
ENDBRANCH   7   8
ENDBRANCH   1   7
BRANCH   2  20
HETATM   20  O   UNL     1     -19.251 -10.095  -2.249  1.00  0.00    -0.388 OA
HETATM   21  H   UNL     1     -18.935  -9.322  -1.749  1.00  0.00     0.210 HD
ENDBRANCH   2  20
BRANCH   3  22
HETATM   22  O   UNL     1     -21.486 -11.719  -2.174  1.00  0.00    -0.390 OA
HETATM   23  H   UNL     1     -20.512 -11.837  -2.140  1.00  0.00     0.210 HD
ENDBRANCH   3  22
BRANCH   5  24
HETATM   24  C   UNL     1     -22.546  -7.387   0.018  1.00  0.00     0.198 C 
BRANCH  24  25
HETATM   25  O   UNL     1     -23.566  -8.105   0.714  1.00  0.00    -0.398 OA
HETATM   26  H   UNL     1     -23.635  -7.687   1.594  1.00  0.00     0.209 HD
ENDBRANCH  24  25
ENDBRANCH   5  24
BRANCH   4  27
HETATM   27  O   UNL     1     -21.099  -9.997  -0.047  1.00  0.00    -0.390 OA
HETATM   28  H   UNL     1     -20.231  -9.657  -0.328  1.00  0.00     0.210 HD
ENDBRANCH   4  27
TORSDOF 17
BEGIN_RES ARG D 557
REMARK  4 active torsions:
REMARK  status: ('A' for Active; 'I' for Inactive)
REMARK    1  A    between atoms: CA   and  CB  
REMARK    2  A    between atoms: CB   and  CG  
REMARK    3  A    between atoms: CG   and  CD  
REMARK    4  A    between atoms: CD   and  NE  
REMARK       I    between atoms: NE   and  CZ  
REMARK       I    between atoms: CZ   and  NH1 
REMARK       I    between atoms: CZ   and  NH2 
ROOT
ATOM      1  CA  ARG D 557     -26.217   2.705 -17.014  1.00 35.49     0.159 C 
ENDROOT
BRANCH   1   2
ATOM      2  CB  ARG D 557     -26.789   1.319 -17.183  1.00 35.49     0.034 C 
BRANCH   2   3
ATOM      3  CG  ARG D 557     -28.233   1.226 -17.428  1.00 35.49     0.027 C 
BRANCH   3   4
ATOM      4  CD  ARG D 557     -28.907   0.305 -16.484  1.00 35.49     0.116 C 
BRANCH   4   5
ATOM      5  NE  ARG D 557     -29.320  -0.918 -17.121  1.00 35.49    -0.212 N 
ATOM      6  CZ  ARG D 557     -28.707  -2.077 -17.029  1.00 35.49     0.666 C 
ATOM      7  NH1 ARG D 557     -27.600  -2.240 -16.329  1.00 35.49    -0.235 N 
ATOM      8  NH2 ARG D 557     -29.235  -3.087 -17.657  1.00 35.49    -0.235 N 
ATOM      9  HH  ARG D 557     -27.236  -1.589 -15.906  1.00 35.49     0.174 HD
ATOM     10  HH  ARG D 557     -27.245  -3.019 -16.303  1.00 35.49     0.174 HD
ATOM     11  HH  ARG D 557     -29.954  -2.954 -18.096  1.00 35.49     0.174 HD
ATOM     12  HH  ARG D 557     -28.870  -3.851 -17.619  1.00 35.49     0.174 HD
ATOM     13  HE  ARG D 557     -29.984  -0.888 -17.651  1.00 35.49     0.178 HD
ENDBRANCH   4   5
ENDBRANCH   3   4
ENDBRANCH   2   3
ENDBRANCH   1   2
END_RES ARG D 557
BEGIN_RES GLU D 570
REMARK  3 active torsions:
REMARK  status: ('A' for Active; 'I' for Inactive)
REMARK    5  A    between atoms: CA   and  CB  
REMARK    6  A    between atoms: CB   and  CG  
REMARK    7  A    between atoms: CG   and  CD  
ROOT
ATOM     14  CA  GLU D 570     -18.033  -6.348 -13.375  1.00 32.92     0.160 C 
ENDROOT
BRANCH  14  15
ATOM     15  CB  GLU D 570     -19.500  -6.345 -13.794  1.00 32.92     0.043 C 
BRANCH  15  16
ATOM     16  CG  GLU D 570     -19.802  -6.096 -15.227  1.00 32.92     0.100 C 
BRANCH  16  17
ATOM     17  CD  GLU D 570     -21.269  -5.843 -15.485  1.00 32.92     0.185 C 
ATOM     18  OE1 GLU D 570     -22.101  -6.705 -15.142  1.00 32.92    -0.647 OA
ATOM     19  OE2 GLU D 570     -21.589  -4.780 -16.052  1.00 32.92    -0.647 OA
ENDBRANCH  16  17
ENDBRANCH  15  16
ENDBRANCH  14  15
END_RES GLU D 570
ENDMDL
MODEL 6
REMARK VINA RESULT:      -6.5      5.957     11.521
REMARK  17 active torsions:
REMARK  status: ('A' for Active; 'I' for Inactive)
REMARK    1  A    between atoms: C_2  and  C_3 
REMARK    2  A    between atoms: C_3  and  C_4 
REMARK    3  A    between atoms: C_4  and  C_5 
REMARK    4  A    between atoms: C_5  and  C_6 
REMARK    5  A    between atoms: C_6  and  C_7 
REMARK    6  A    between atoms: C_7  and  C_8 
REMARK    7  A    between atoms: C_8  and  C_9 
REMARK    8  A    between atoms: C_9  and  C_10 
REMARK    9  A    between atoms: C_10  and  C_11 
REMARK   10  A    between atoms: C_11  and  C_12 
REMARK   11  A    between atoms: C_12  and  O_13 
REMARK   12  A    between atoms: O_13  and  C_14 
REMARK   13  A    between atoms: C_15  and  O_24 
REMARK   14  A    between atoms: C_16  and  O_23 
REMARK   15  A    between atoms: C_17  and  O_22 
REMARK   16  A    between atoms: C_18  and  C_20 
REMARK   17  A    between atoms: C_20  and  O_21 
ROOT
HETATM    1  C   UNL     1     -30.349  -4.649 -17.447  1.00  0.00     0.291 C 
HETATM    2  C   UNL     1     -30.077  -6.171 -17.498  1.00  0.00     0.204 C 
HETATM    3  C   UNL     1     -29.154  -6.608 -16.344  1.00  0.00     0.183 C 
HETATM    4  C   UNL     1     -27.918  -5.703 -16.215  1.00  0.00     0.180 C 
HETATM    5  C   UNL     1     -28.382  -4.248 -16.137  1.00  0.00     0.179 C 
HETATM    6  O   UNL     1     -29.107  -3.921 -17.346  1.00  0.00    -0.348 OA
ENDROOT
BRANCH   1   7
HETATM    7  O   UNL     1     -31.249  -4.300 -16.397  1.00  0.00    -0.359 OA
BRANCH   7   8
HETATM    8  C   UNL     1     -32.607  -4.556 -16.771  1.00  0.00     0.171 C 
BRANCH   8   9
HETATM    9  C   UNL     1     -33.286  -3.281 -17.274  1.00  0.00     0.026 C 
BRANCH   9  10
HETATM   10  C   UNL     1     -34.552  -2.885 -16.509  1.00  0.00     0.002 C 
BRANCH  10  11
HETATM   11  C   UNL     1     -34.815  -1.384 -16.559  1.00  0.00     0.000 C 
BRANCH  11  12
HETATM   12  C   UNL     1     -36.287  -1.048 -16.343  1.00  0.00     0.000 C 
BRANCH  12  13
HETATM   13  C   UNL     1     -36.403   0.070 -15.313  1.00  0.00     0.000 C 
BRANCH  13  14
HETATM   14  C   UNL     1     -36.394  -0.467 -13.888  1.00  0.00     0.000 C 
BRANCH  14  15
HETATM   15  C   UNL     1     -35.121  -0.014 -13.175  1.00  0.00     0.000 C 
BRANCH  15  16
HETATM   16  C   UNL     1     -34.717  -1.003 -12.088  1.00  0.00     0.000 C 
BRANCH  16  17
HETATM   17  C   UNL     1     -34.665  -2.421 -12.645  1.00  0.00    -0.000 C 
BRANCH  17  18
HETATM   18  C   UNL     1     -33.538  -3.223 -12.002  1.00  0.00    -0.005 C 
HETATM   19  C   UNL     1     -33.903  -3.646 -10.590  1.00  0.00     0.005 C 
ENDBRANCH  17  18
ENDBRANCH  16  17
ENDBRANCH  15  16
ENDBRANCH  14  15
ENDBRANCH  13  14
ENDBRANCH  12  13
ENDBRANCH  11  12
ENDBRANCH  10  11
ENDBRANCH   9  10
ENDBRANCH   8   9
ENDBRANCH   7   8
ENDBRANCH   1   7
BRANCH   2  20
HETATM   20  O   UNL     1     -29.485  -6.518 -18.765  1.00  0.00    -0.388 OA
HETATM   21  H   UNL     1     -30.150  -6.347 -19.454  1.00  0.00     0.210 HD
ENDBRANCH   2  20
BRANCH   3  22
HETATM   22  O   UNL     1     -28.732  -7.963 -16.532  1.00  0.00    -0.390 OA
HETATM   23  H   UNL     1     -29.458  -8.387 -17.038  1.00  0.00     0.210 HD
ENDBRANCH   3  22
BRANCH   5  24
HETATM   24  C   UNL     1     -27.221  -3.257 -16.013  1.00  0.00     0.198 C 
BRANCH  24  25
HETATM   25  O   UNL     1     -26.092  -3.911 -15.434  1.00  0.00    -0.398 OA
HETATM   26  H   UNL     1     -26.228  -3.877 -14.467  1.00  0.00     0.209 HD
ENDBRANCH  24  25
ENDBRANCH   5  24
BRANCH   4  27
HETATM   27  O   UNL     1     -27.055  -5.923 -17.346  1.00  0.00    -0.390 OA
HETATM   28  H   UNL     1     -26.974  -5.091 -17.846  1.00  0.00     0.210 HD
ENDBRANCH   4  27
TORSDOF 17
BEGIN_RES ARG D 557
REMARK  4 active torsions:
REMARK  status: ('A' for Active; 'I' for Inactive)
REMARK    1  A    between atoms: CA   and  CB  
REMARK    2  A    between atoms: CB   and  CG  
REMARK    3  A    between atoms: CG   and  CD  
REMARK    4  A    between atoms: CD   and  NE  
REMARK       I    between atoms: NE   and  CZ  
REMARK       I    between atoms: CZ   and  NH1 
REMARK       I    between atoms: CZ   and  NH2 
ROOT
ATOM      1  CA  ARG D 557     -26.217   2.705 -17.014  1.00 35.49     0.159 C 
ENDROOT
BRANCH   1   2
ATOM      2  CB  ARG D 557     -26.789   1.319 -17.183  1.00 35.49     0.034 C 
BRANCH   2   3
ATOM      3  CG  ARG D 557     -25.837   0.202 -17.147  1.00 35.49     0.027 C 
BRANCH   3   4
ATOM      4  CD  ARG D 557     -24.760   0.411 -16.152  1.00 35.49     0.116 C 
BRANCH   4   5
ATOM      5  NE  ARG D 557     -24.902  -0.454 -15.010  1.00 35.49    -0.212 N 
ATOM      6  CZ  ARG D 557     -24.069  -1.410 -14.663  1.00 35.49     0.666 C 
ATOM      7  NH1 ARG D 557     -22.984  -1.693 -15.360  1.00 35.49    -0.235 N 
ATOM      8  NH2 ARG D 557     -24.344  -2.082 -13.583  1.00 35.49    -0.235 N 
ATOM      9  HH  ARG D 557     -22.782  -1.262 -16.072  1.00 35.49     0.174 HD
ATOM     10  HH  ARG D 557     -22.476  -2.325 -15.083  1.00 35.49     0.174 HD
ATOM     11  HH  ARG D 557     -25.047  -1.872 -13.149  1.00 35.49     0.174 HD
ATOM     12  HH  ARG D 557     -23.828  -2.704 -13.325  1.00 35.49     0.174 HD
ATOM     13  HE  ARG D 557     -25.611  -0.389 -14.546  1.00 35.49     0.178 HD
ENDBRANCH   4   5
ENDBRANCH   3   4
ENDBRANCH   2   3
ENDBRANCH   1   2
END_RES ARG D 557
BEGIN_RES GLU D 570
REMARK  3 active torsions:
REMARK  status: ('A' for Active; 'I' for Inactive)
REMARK    5  A    between atoms: CA   and  CB  
REMARK    6  A    between atoms: CB   and  CG  
REMARK    7  A    between atoms: CG   and  CD  
ROOT
ATOM     14  CA  GLU D 570     -18.033  -6.348 -13.375  1.00 32.92     0.160 C 
ENDROOT
BRANCH  14  15
ATOM     15  CB  GLU D 570     -19.500  -6.345 -13.794  1.00 32.92     0.043 C 
BRANCH  15  16
ATOM     16  CG  GLU D 570     -20.439  -5.516 -12.994  1.00 32.92     0.100 C 
BRANCH  16  17
ATOM     17  CD  GLU D 570     -21.705  -5.171 -13.743  1.00 32.92     0.185 C 
ATOM     18  OE1 GLU D 570     -22.305  -4.115 -13.464  1.00 32.92    -0.647 OA
ATOM     19  OE2 GLU D 570     -22.110  -5.974 -14.607  1.00 32.92    -0.647 OA
ENDBRANCH  16  17
ENDBRANCH  15  16
ENDBRANCH  14  15
END_RES GLU D 570
ENDMDL
MODEL 7
REMARK VINA RESULT:      -6.3      5.891     11.521
REMARK  17 active torsions:
REMARK  status: ('A' for Active; 'I' for Inactive)
REMARK    1  A    between atoms: C_2  and  C_3 
REMARK    2  A    between atoms: C_3  and  C_4 
REMARK    3  A    between atoms: C_4  and  C_5 
REMARK    4  A    between atoms: C_5  and  C_6 
REMARK    5  A    between atoms: C_6  and  C_7 
REMARK    6  A    between atoms: C_7  and  C_8 
REMARK    7  A    between atoms: C_8  and  C_9 
REMARK    8  A    between atoms: C_9  and  C_10 
REMARK    9  A    between atoms: C_10  and  C_11 
REMARK   10  A    between atoms: C_11  and  C_12 
REMARK   11  A    between atoms: C_12  and  O_13 
REMARK   12  A    between atoms: O_13  and  C_14 
REMARK   13  A    between atoms: C_15  and  O_24 
REMARK   14  A    between atoms: C_16  and  O_23 
REMARK   15  A    between atoms: C_17  and  O_22 
REMARK   16  A    between atoms: C_18  and  C_20 
REMARK   17  A    between atoms: C_20  and  O_21 
ROOT
HETATM    1  C   UNL     1     -30.759  -5.081 -16.484  1.00  0.00     0.291 C 
HETATM    2  C   UNL     1     -29.306  -4.809 -16.025  1.00  0.00     0.204 C 
HETATM    3  C   UNL     1     -28.299  -5.161 -17.136  1.00  0.00     0.183 C 
HETATM    4  C   UNL     1     -28.569  -6.545 -17.747  1.00  0.00     0.180 C 
HETATM    5  C   UNL     1     -30.035  -6.614 -18.178  1.00  0.00     0.179 C 
HETATM    6  O   UNL     1     -30.874  -6.417 -17.016  1.00  0.00    -0.348 OA
ENDROOT
BRANCH   1   7
HETATM    7  O   UNL     1     -31.218  -4.102 -17.414  1.00  0.00    -0.359 OA
BRANCH   7   8
HETATM    8  C   UNL     1     -32.590  -3.769 -17.183  1.00  0.00     0.171 C 
BRANCH   8   9
HETATM    9  C   UNL     1     -33.160  -4.574 -16.014  1.00  0.00     0.026 C 
BRANCH   9  10
HETATM   10  C   UNL     1     -33.948  -3.750 -14.992  1.00  0.00     0.002 C 
BRANCH  10  11
HETATM   11  C   UNL     1     -34.118  -4.479 -13.664  1.00  0.00     0.000 C 
BRANCH  11  12
HETATM   12  C   UNL     1     -33.345  -3.807 -12.534  1.00  0.00     0.000 C 
BRANCH  12  13
HETATM   13  C   UNL     1     -34.169  -3.873 -11.252  1.00  0.00     0.000 C 
BRANCH  13  14
HETATM   14  C   UNL     1     -35.328  -2.886 -11.271  1.00  0.00     0.000 C 
BRANCH  14  15
HETATM   15  C   UNL     1     -34.803  -1.478 -11.545  1.00  0.00     0.000 C 
BRANCH  15  16
HETATM   16  C   UNL     1     -35.379  -0.917 -12.839  1.00  0.00     0.000 C 
BRANCH  16  17
HETATM   17  C   UNL     1     -34.837   0.484 -13.104  1.00  0.00    -0.000 C 
BRANCH  17  18
HETATM   18  C   UNL     1     -35.053   0.891 -14.558  1.00  0.00    -0.005 C 
HETATM   19  C   UNL     1     -35.514  -0.290 -15.395  1.00  0.00     0.005 C 
ENDBRANCH  17  18
ENDBRANCH  16  17
ENDBRANCH  15  16
ENDBRANCH  14  15
ENDBRANCH  13  14
ENDBRANCH  12  13
ENDBRANCH  11  12
ENDBRANCH  10  11
ENDBRANCH   9  10
ENDBRANCH   8   9
ENDBRANCH   7   8
ENDBRANCH   1   7
BRANCH   2  20
HETATM   20  O   UNL     1     -29.020  -5.573 -14.837  1.00  0.00    -0.388 OA
HETATM   21  H   UNL     1     -28.673  -4.956 -14.169  1.00  0.00     0.210 HD
ENDBRANCH   2  20
BRANCH   3  22
HETATM   22  O   UNL     1     -26.962  -5.121 -16.626  1.00  0.00    -0.390 OA
HETATM   23  H   UNL     1     -26.721  -4.170 -16.620  1.00  0.00     0.210 HD
ENDBRANCH   3  22
BRANCH   5  24
HETATM   24  C   UNL     1     -30.413  -7.963 -18.797  1.00  0.00     0.198 C 
BRANCH  24  25
HETATM   25  O   UNL     1     -29.228  -8.672 -19.162  1.00  0.00    -0.398 OA
HETATM   26  H   UNL     1     -28.702  -8.054 -19.706  1.00  0.00     0.209 HD
ENDBRANCH  24  25
ENDBRANCH   5  24
BRANCH   4  27
HETATM   27  O   UNL     1     -28.257  -7.559 -16.773  1.00  0.00    -0.390 OA
HETATM   28  H   UNL     1     -27.394  -7.353 -16.372  1.00  0.00     0.210 HD
ENDBRANCH   4  27
TORSDOF 17
BEGIN_RES ARG D 557
REMARK  4 active torsions:
REMARK  status: ('A' for Active; 'I' for Inactive)
REMARK    1  A    between atoms: CA   and  CB  
REMARK    2  A    between atoms: CB   and  CG  
REMARK    3  A    between atoms: CG   and  CD  
REMARK    4  A    between atoms: CD   and  NE  
REMARK       I    between atoms: NE   and  CZ  
REMARK       I    between atoms: CZ   and  NH1 
REMARK       I    between atoms: CZ   and  NH2 
ROOT
ATOM      1  CA  ARG D 557     -26.217   2.705 -17.014  1.00 35.49     0.159 C 
ENDROOT
BRANCH   1   2
ATOM      2  CB  ARG D 557     -26.789   1.319 -17.183  1.00 35.49     0.034 C 
BRANCH   2   3
ATOM      3  CG  ARG D 557     -25.871   0.194 -16.965  1.00 35.49     0.027 C 
BRANCH   3   4
ATOM      4  CD  ARG D 557     -26.344  -0.723 -15.904  1.00 35.49     0.116 C 
BRANCH   4   5
ATOM      5  NE  ARG D 557     -25.331  -0.973 -14.912  1.00 35.49    -0.212 N 
ATOM      6  CZ  ARG D 557     -25.085  -2.131 -14.341  1.00 35.49     0.666 C 
ATOM      7  NH1 ARG D 557     -25.778  -3.220 -14.619  1.00 35.49    -0.235 N 
ATOM      8  NH2 ARG D 557     -24.112  -2.180 -13.478  1.00 35.49    -0.235 N 
ATOM      9  HH  ARG D 557     -26.421  -3.212 -15.185  1.00 35.49     0.174 HD
ATOM     10  HH  ARG D 557     -25.570  -3.948 -14.217  1.00 35.49     0.174 HD
ATOM     11  HH  ARG D 557     -23.678  -1.462 -13.324  1.00 35.49     0.174 HD
ATOM     12  HH  ARG D 557     -23.921  -2.910 -13.091  1.00 35.49     0.174 HD
ATOM     13  HE  ARG D 557     -24.885  -0.311 -14.621  1.00 35.49     0.178 HD
ENDBRANCH   4   5
ENDBRANCH   3   4
ENDBRANCH   2   3
ENDBRANCH   1   2
END_RES ARG D 557
BEGIN_RES GLU D 570
REMARK  3 active torsions:
REMARK  status: ('A' for Active; 'I' for Inactive)
REMARK    5  A    between atoms: CA   and  CB  
REMARK    6  A    between atoms: CB   and  CG  
REMARK    7  A    between atoms: CG   and  CD  
ROOT
ATOM     14  CA  GLU D 570     -18.033  -6.348 -13.375  1.00 32.92     0.160 C 
ENDROOT
BRANCH  14  15
ATOM     15  CB  GLU D 570     -19.500  -6.345 -13.794  1.00 32.92     0.043 C 
BRANCH  15  16
ATOM     16  CG  GLU D 570     -20.448  -5.558 -12.964  1.00 32.92     0.100 C 
BRANCH  16  17
ATOM     17  CD  GLU D 570     -21.687  -5.139 -13.720  1.00 32.92     0.185 C 
ATOM     18  OE1 GLU D 570     -21.624  -5.006 -14.957  1.00 32.92    -0.647 OA
ATOM     19  OE2 GLU D 570     -22.727  -4.925 -13.066  1.00 32.92    -0.647 OA
ENDBRANCH  16  17
ENDBRANCH  15  16
ENDBRANCH  14  15
END_RES GLU D 570
ENDMDL
MODEL 8
REMARK VINA RESULT:      -6.2      5.918     11.431
REMARK  17 active torsions:
REMARK  status: ('A' for Active; 'I' for Inactive)
REMARK    1  A    between atoms: C_2  and  C_3 
REMARK    2  A    between atoms: C_3  and  C_4 
REMARK    3  A    between atoms: C_4  and  C_5 
REMARK    4  A    between atoms: C_5  and  C_6 
REMARK    5  A    between atoms: C_6  and  C_7 
REMARK    6  A    between atoms: C_7  and  C_8 
REMARK    7  A    between atoms: C_8  and  C_9 
REMARK    8  A    between atoms: C_9  and  C_10 
REMARK    9  A    between atoms: C_10  and  C_11 
REMARK   10  A    between atoms: C_11  and  C_12 
REMARK   11  A    between atoms: C_12  and  O_13 
REMARK   12  A    between atoms: O_13  and  C_14 
REMARK   13  A    between atoms: C_15  and  O_24 
REMARK   14  A    between atoms: C_16  and  O_23 
REMARK   15  A    between atoms: C_17  and  O_22 
REMARK   16  A    between atoms: C_18  and  C_20 
REMARK   17  A    between atoms: C_20  and  O_21 
ROOT
HETATM    1  C   UNL     1     -31.362  -4.890 -17.255  1.00  0.00     0.291 C 
HETATM    2  C   UNL     1     -30.660  -6.247 -17.007  1.00  0.00     0.204 C 
HETATM    3  C   UNL     1     -29.404  -6.070 -16.133  1.00  0.00     0.183 C 
HETATM    4  C   UNL     1     -28.508  -4.924 -16.631  1.00  0.00     0.180 C 
HETATM    5  C   UNL     1     -29.359  -3.663 -16.777  1.00  0.00     0.179 C 
HETATM    6  O   UNL     1     -30.412  -3.916 -17.736  1.00  0.00    -0.348 OA
ENDROOT
BRANCH   1   7
HETATM    7  O   UNL     1     -32.052  -4.425 -16.097  1.00  0.00    -0.359 OA
BRANCH   7   8
HETATM    8  C   UNL     1     -33.463  -4.355 -16.326  1.00  0.00     0.171 C 
BRANCH   8   9
HETATM    9  C   UNL     1     -34.206  -3.960 -15.049  1.00  0.00     0.026 C 
BRANCH   9  10
HETATM   10  C   UNL     1     -33.458  -4.272 -13.750  1.00  0.00     0.002 C 
BRANCH  10  11
HETATM   11  C   UNL     1     -34.197  -3.762 -12.517  1.00  0.00     0.000 C 
BRANCH  11  12
HETATM   12  C   UNL     1     -33.244  -3.238 -11.449  1.00  0.00     0.000 C 
BRANCH  12  13
HETATM   13  C   UNL     1     -33.994  -2.279 -10.531  1.00  0.00     0.000 C 
BRANCH  13  14
HETATM   14  C   UNL     1     -35.504  -2.423 -10.672  1.00  0.00     0.000 C 
BRANCH  14  15
HETATM   15  C   UNL     1     -36.144  -1.041 -10.795  1.00  0.00     0.000 C 
BRANCH  15  16
HETATM   16  C   UNL     1     -35.551  -0.261 -11.963  1.00  0.00     0.000 C 
BRANCH  16  17
HETATM   17  C   UNL     1     -36.156  -0.730 -13.282  1.00  0.00    -0.000 C 
BRANCH  17  18
HETATM   18  C   UNL     1     -35.463  -0.070 -14.469  1.00  0.00    -0.005 C 
HETATM   19  C   UNL     1     -34.621   1.114 -14.024  1.00  0.00     0.005 C 
ENDBRANCH  17  18
ENDBRANCH  16  17
ENDBRANCH  15  16
ENDBRANCH  14  15
ENDBRANCH  13  14
ENDBRANCH  12  13
ENDBRANCH  11  12
ENDBRANCH  10  11
ENDBRANCH   9  10
ENDBRANCH   8   9
ENDBRANCH   7   8
ENDBRANCH   1   7
BRANCH   2  20
HETATM   20  O   UNL     1     -30.306  -6.850 -18.267  1.00  0.00    -0.388 OA
HETATM   21  H   UNL     1     -31.099  -6.834 -18.831  1.00  0.00     0.210 HD
ENDBRANCH   2  20
BRANCH   3  22
HETATM   22  O   UNL     1     -28.646  -7.284 -16.100  1.00  0.00    -0.390 OA
HETATM   23  H   UNL     1     -28.675  -7.625 -17.019  1.00  0.00     0.210 HD
ENDBRANCH   3  22
BRANCH   5  24
HETATM   24  C   UNL     1     -28.559  -2.457 -17.277  1.00  0.00     0.198 C 
BRANCH  24  25
HETATM   25  O   UNL     1     -29.405  -1.307 -17.324  1.00  0.00    -0.398 OA
HETATM   26  H   UNL     1     -29.888  -1.363 -18.171  1.00  0.00     0.209 HD
ENDBRANCH  24  25
ENDBRANCH   5  24
BRANCH   4  27
HETATM   27  O   UNL     1     -27.910  -5.306 -17.884  1.00  0.00    -0.390 OA
HETATM   28  H   UNL     1     -27.777  -4.507 -18.424  1.00  0.00     0.210 HD
ENDBRANCH   4  27
TORSDOF 17
BEGIN_RES ARG D 557
REMARK  4 active torsions:
REMARK  status: ('A' for Active; 'I' for Inactive)
REMARK    1  A    between atoms: CA   and  CB  
REMARK    2  A    between atoms: CB   and  CG  
REMARK    3  A    between atoms: CG   and  CD  
REMARK    4  A    between atoms: CD   and  NE  
REMARK       I    between atoms: NE   and  CZ  
REMARK       I    between atoms: CZ   and  NH1 
REMARK       I    between atoms: CZ   and  NH2 
ROOT
ATOM      1  CA  ARG D 557     -26.217   2.705 -17.014  1.00 35.49     0.159 C 
ENDROOT
BRANCH   1   2
ATOM      2  CB  ARG D 557     -26.789   1.319 -17.183  1.00 35.49     0.034 C 
BRANCH   2   3
ATOM      3  CG  ARG D 557     -25.869   0.194 -16.973  1.00 35.49     0.027 C 
BRANCH   3   4
ATOM      4  CD  ARG D 557     -26.234  -0.621 -15.792  1.00 35.49     0.116 C 
BRANCH   4   5
ATOM      5  NE  ARG D 557     -25.101  -0.888 -14.946  1.00 35.49    -0.212 N 
ATOM      6  CZ  ARG D 557     -24.863  -2.015 -14.314  1.00 35.49     0.666 C 
ATOM      7  NH1 ARG D 557     -25.678  -3.052 -14.382  1.00 35.49    -0.235 N 
ATOM      8  NH2 ARG D 557     -23.774  -2.088 -13.606  1.00 35.49    -0.235 N 
ATOM      9  HH  ARG D 557     -26.399  -3.027 -14.844  1.00 35.49     0.174 HD
ATOM     10  HH  ARG D 557     -25.469  -3.762 -13.950  1.00 35.49     0.174 HD
ATOM     11  HH  ARG D 557     -23.263  -1.405 -13.586  1.00 35.49     0.174 HD
ATOM     12  HH  ARG D 557     -23.584  -2.800 -13.187  1.00 35.49     0.174 HD
ATOM     13  HE  ARG D 557     -24.562  -0.249 -14.787  1.00 35.49     0.178 HD
ENDBRANCH   4   5
ENDBRANCH   3   4
ENDBRANCH   2   3
ENDBRANCH   1   2
END_RES ARG D 557
BEGIN_RES GLU D 570
REMARK  3 active torsions:
REMARK  status: ('A' for Active; 'I' for Inactive)
REMARK    5  A    between atoms: CA   and  CB  
REMARK    6  A    between atoms: CB   and  CG  
REMARK    7  A    between atoms: CG   and  CD  
ROOT
ATOM     14  CA  GLU D 570     -18.033  -6.348 -13.375  1.00 32.92     0.160 C 
ENDROOT
BRANCH  14  15
ATOM     15  CB  GLU D 570     -19.500  -6.345 -13.794  1.00 32.92     0.043 C 
BRANCH  15  16
ATOM     16  CG  GLU D 570     -20.438  -5.515 -12.995  1.00 32.92     0.100 C 
BRANCH  16  17
ATOM     17  CD  GLU D 570     -21.694  -5.150 -13.753  1.00 32.92     0.185 C 
ATOM     18  OE1 GLU D 570     -21.627  -4.967 -14.983  1.00 32.92    -0.647 OA
ATOM     19  OE2 GLU D 570     -22.753  -5.030 -13.106  1.00 32.92    -0.647 OA
ENDBRANCH  16  17
ENDBRANCH  15  16
ENDBRANCH  14  15
END_RES GLU D 570
ENDMDL
MODEL 9
REMARK VINA RESULT:      -6.2      2.563      4.937
REMARK  17 active torsions:
REMARK  status: ('A' for Active; 'I' for Inactive)
REMARK    1  A    between atoms: C_2  and  C_3 
REMARK    2  A    between atoms: C_3  and  C_4 
REMARK    3  A    between atoms: C_4  and  C_5 
REMARK    4  A    between atoms: C_5  and  C_6 
REMARK    5  A    between atoms: C_6  and  C_7 
REMARK    6  A    between atoms: C_7  and  C_8 
REMARK    7  A    between atoms: C_8  and  C_9 
REMARK    8  A    between atoms: C_9  and  C_10 
REMARK    9  A    between atoms: C_10  and  C_11 
REMARK   10  A    between atoms: C_11  and  C_12 
REMARK   11  A    between atoms: C_12  and  O_13 
REMARK   12  A    between atoms: O_13  and  C_14 
REMARK   13  A    between atoms: C_15  and  O_24 
REMARK   14  A    between atoms: C_16  and  O_23 
REMARK   15  A    between atoms: C_17  and  O_22 
REMARK   16  A    between atoms: C_18  and  C_20 
REMARK   17  A    between atoms: C_20  and  O_21 
ROOT
HETATM    1  C   UNL     1     -25.909  -4.179 -15.198  1.00  0.00     0.291 C 
HETATM    2  C   UNL     1     -27.350  -4.608 -15.565  1.00  0.00     0.204 C 
HETATM    3  C   UNL     1     -27.566  -6.110 -15.298  1.00  0.00     0.183 C 
HETATM    4  C   UNL     1     -26.433  -6.972 -15.880  1.00  0.00     0.180 C 
HETATM    5  C   UNL     1     -25.095  -6.426 -15.378  1.00  0.00     0.179 C 
HETATM    6  O   UNL     1     -24.950  -5.057 -15.823  1.00  0.00    -0.348 OA
ENDROOT
BRANCH   1   7
HETATM    7  O   UNL     1     -25.715  -4.108 -13.786  1.00  0.00    -0.359 OA
BRANCH   7   8
HETATM    8  C   UNL     1     -24.965  -2.945 -13.423  1.00  0.00     0.171 C 
BRANCH   8   9
HETATM    9  C   UNL     1     -24.391  -3.082 -12.011  1.00  0.00     0.026 C 
BRANCH   9  10
HETATM   10  C   UNL     1     -22.865  -2.980 -11.927  1.00  0.00     0.002 C 
BRANCH  10  11
HETATM   11  C   UNL     1     -22.220  -4.283 -11.471  1.00  0.00     0.000 C 
BRANCH  11  12
HETATM   12  C   UNL     1     -21.913  -4.283  -9.977  1.00  0.00     0.000 C 
BRANCH  12  13
HETATM   13  C   UNL     1     -20.402  -4.317  -9.774  1.00  0.00     0.000 C 
BRANCH  13  14
HETATM   14  C   UNL     1     -20.017  -5.058  -8.500  1.00  0.00     0.000 C 
BRANCH  14  15
HETATM   15  C   UNL     1     -21.201  -5.074  -7.535  1.00  0.00     0.000 C 
BRANCH  15  16
HETATM   16  C   UNL     1     -20.860  -4.362  -6.232  1.00  0.00     0.000 C 
BRANCH  16  17
HETATM   17  C   UNL     1     -20.594  -5.373  -5.122  1.00  0.00    -0.000 C 
BRANCH  17  18
HETATM   18  C   UNL     1     -21.539  -6.565  -5.228  1.00  0.00    -0.005 C 
HETATM   19  C   UNL     1     -20.786  -7.876  -5.078  1.00  0.00     0.005 C 
ENDBRANCH  17  18
ENDBRANCH  16  17
ENDBRANCH  15  16
ENDBRANCH  14  15
ENDBRANCH  13  14
ENDBRANCH  12  13
ENDBRANCH  11  12
ENDBRANCH  10  11
ENDBRANCH   9  10
ENDBRANCH   8   9
ENDBRANCH   7   8
ENDBRANCH   1   7
BRANCH   2  20
HETATM   20  O   UNL     1     -27.609  -4.309 -16.950  1.00  0.00    -0.388 OA
HETATM   21  H   UNL     1     -26.931  -4.765 -17.479  1.00  0.00     0.210 HD
ENDBRANCH   2  20
BRANCH   3  22
HETATM   22  O   UNL     1     -28.816  -6.538 -15.849  1.00  0.00    -0.390 OA
HETATM   23  H   UNL     1     -28.797  -7.517 -15.789  1.00  0.00     0.210 HD
ENDBRANCH   3  22
BRANCH   5  24
HETATM   24  C   UNL     1     -23.893  -7.213 -15.908  1.00  0.00     0.198 C 
BRANCH  24  25
HETATM   25  O   UNL     1     -24.328  -8.484 -16.393  1.00  0.00    -0.398 OA
HETATM   26  H   UNL     1     -24.917  -8.296 -17.149  1.00  0.00     0.209 HD
ENDBRANCH  24  25
ENDBRANCH   5  24
BRANCH   4  27
HETATM   27  O   UNL     1     -26.510  -6.941 -17.318  1.00  0.00    -0.390 OA
HETATM   28  H   UNL     1     -27.441  -6.836 -17.580  1.00  0.00     0.210 HD
ENDBRANCH   4  27
TORSDOF 17
BEGIN_RES ARG D 557
REMARK  4 active torsions:
REMARK  status: ('A' for Active; 'I' for Inactive)
REMARK    1  A    between atoms: CA   and  CB  
REMARK    2  A    between atoms: CB   and  CG  
REMARK    3  A    between atoms: CG   and  CD  
REMARK    4  A    between atoms: CD   and  NE  
REMARK       I    between atoms: NE   and  CZ  
REMARK       I    between atoms: CZ   and  NH1 
REMARK       I    between atoms: CZ   and  NH2 
ROOT
ATOM      1  CA  ARG D 557     -26.217   2.705 -17.014  1.00 35.49     0.159 C 
ENDROOT
BRANCH   1   2
ATOM      2  CB  ARG D 557     -26.789   1.319 -17.183  1.00 35.49     0.034 C 
BRANCH   2   3
ATOM      3  CG  ARG D 557     -25.978   0.204 -16.680  1.00 35.49     0.027 C 
BRANCH   3   4
ATOM      4  CD  ARG D 557     -26.754  -0.713 -15.814  1.00 35.49     0.116 C 
BRANCH   4   5
ATOM      5  NE  ARG D 557     -27.670  -1.526 -16.568  1.00 35.49    -0.212 N 
ATOM      6  CZ  ARG D 557     -28.921  -1.227 -16.837  1.00 35.49     0.666 C 
ATOM      7  NH1 ARG D 557     -29.490  -0.113 -16.414  1.00 35.49    -0.235 N 
ATOM      8  NH2 ARG D 557     -29.601  -2.074 -17.554  1.00 35.49    -0.235 N 
ATOM      9  HH  ARG D 557     -29.061   0.460 -15.943  1.00 35.49     0.174 HD
ATOM     10  HH  ARG D 557     -30.309   0.031 -16.623  1.00 35.49     0.174 HD
ATOM     11  HH  ARG D 557     -29.205  -2.781 -17.820  1.00 35.49     0.174 HD
ATOM     12  HH  ARG D 557     -30.410  -1.913 -17.751  1.00 35.49     0.174 HD
ATOM     13  HE  ARG D 557     -27.409  -2.296 -16.818  1.00 35.49     0.178 HD
ENDBRANCH   4   5
ENDBRANCH   3   4
ENDBRANCH   2   3
ENDBRANCH   1   2
END_RES ARG D 557
BEGIN_RES GLU D 570
REMARK  3 active torsions:
REMARK  status: ('A' for Active; 'I' for Inactive)
REMARK    5  A    between atoms: CA   and  CB  
REMARK    6  A    between atoms: CB   and  CG  
REMARK    7  A    between atoms: CG   and  CD  
ROOT
ATOM     14  CA  GLU D 570     -18.033  -6.348 -13.375  1.00 32.92     0.160 C 
ENDROOT
BRANCH  14  15
ATOM     15  CB  GLU D 570     -19.500  -6.345 -13.794  1.00 32.92     0.043 C 
BRANCH  15  16
ATOM     16  CG  GLU D 570     -19.796  -6.385 -15.249  1.00 32.92     0.100 C 
BRANCH  16  17
ATOM     17  CD  GLU D 570     -20.908  -5.444 -15.651  1.00 32.92     0.185 C 
ATOM     18  OE1 GLU D 570     -21.126  -5.246 -16.861  1.00 32.92    -0.647 OA
ATOM     19  OE2 GLU D 570     -21.557  -4.886 -14.744  1.00 32.92    -0.647 OA
ENDBRANCH  16  17
ENDBRANCH  15  16
ENDBRANCH  14  15
END_RES GLU D 570
ENDMDL
