MODEL 1
REMARK VINA RESULT:      -7.5      0.000      0.000
REMARK  19 active torsions:
REMARK  status: ('A' for Active; 'I' for Inactive)
REMARK    1  A    between atoms: C_2  and  C_3 
REMARK    2  A    between atoms: C_3  and  C_4 
REMARK    3  A    between atoms: C_4  and  C_5 
REMARK    4  A    between atoms: C_5  and  C_6 
REMARK    5  A    between atoms: C_6  and  C_7 
REMARK    6  A    between atoms: C_7  and  C_8 
REMARK    7  A    between atoms: C_8  and  C_9 
REMARK    8  A    between atoms: C_9  and  C_10 
REMARK    9  A    between atoms: C_10  and  C_11 
REMARK   10  A    between atoms: C_11  and  C_12 
REMARK       I    between atoms: C_12  and  N_14 
REMARK   11  A    between atoms: N_14  and  C_15 
REMARK   12  A    between atoms: C_15  and  C_16 
REMARK   13  A    between atoms: C_16  and  C_17 
REMARK   14  A    between atoms: C_17  and  N_18 
REMARK   15  A    between atoms: N_18  and  C_21 
REMARK   16  A    between atoms: C_21  and  C_22 
REMARK   17  A    between atoms: C_22  and  C_23 
REMARK   18  A    between atoms: C_22  and  O_28 
REMARK   19  A    between atoms: C_23  and  S_24 
ROOT
HETATM    1  C   UNL     1     -20.698  -6.325  -6.418  1.00  0.00     0.217 C 
HETATM    2  O   UNL     1     -19.672  -6.551  -7.040  1.00  0.00    -0.274 OA
HETATM    3  N   UNL     1     -21.320  -5.098  -6.430  1.00  0.00    -0.361 N 
HETATM    4  H   UNL     1     -22.170  -4.941  -5.884  1.00  0.00     0.162 HD
ENDROOT
BRANCH   3   5
HETATM    5  C   UNL     1     -20.686  -3.985  -7.099  1.00  0.00     0.124 C 
BRANCH   5   6
HETATM    6  C   UNL     1     -21.290  -3.763  -8.479  1.00  0.00     0.047 C 
BRANCH   6   7
HETATM    7  C   UNL     1     -22.664  -4.429  -8.552  1.00  0.00     0.238 C 
BRANCH   7   8
HETATM    8  N   UNL     1     -23.435  -4.066  -9.838  1.00  0.00    -0.072 N 
HETATM    9  C   UNL     1     -23.831  -5.397 -10.488  1.00  0.00     0.272 C 
HETATM   10  C   UNL     1     -24.641  -3.203  -9.498  1.00  0.00     0.272 C 
BRANCH   8  11
HETATM   11  C   UNL     1     -22.537  -3.343 -10.897  1.00  0.00     0.269 C 
BRANCH  11  12
HETATM   12  C   UNL     1     -22.954  -3.385 -12.388  1.00  0.00     0.160 C 
BRANCH  12  13
HETATM   13  C   UNL     1     -23.678  -2.201 -12.996  1.00  0.00     0.198 C 
BRANCH  13  14
HETATM   14  S   UNL     1     -24.094  -2.432 -14.693  1.00  0.00     0.104 S 
HETATM   15  O   UNL     1     -22.833  -2.100 -15.342  1.00  0.00    -0.595 OA
HETATM   16  O   UNL     1     -24.537  -3.819 -14.698  1.00  0.00    -0.595 OA
HETATM   17  O   UNL     1     -25.167  -1.473 -14.923  1.00  0.00    -0.595 OA
ENDBRANCH  13  14
ENDBRANCH  12  13
BRANCH  12  18
HETATM   18  O   UNL     1     -21.792  -3.726 -13.171  1.00  0.00    -0.393 OA
HETATM   19  H   UNL     1     -20.994  -3.583 -12.600  1.00  0.00     0.210 HD
ENDBRANCH  12  18
ENDBRANCH  11  12
ENDBRANCH   8  11
ENDBRANCH   7   8
ENDBRANCH   6   7
ENDBRANCH   5   6
ENDBRANCH   3   5
BRANCH   1  20
HETATM   20  C   UNL     1     -21.445  -7.381  -5.641  1.00  0.00     0.103 C 
BRANCH  20  21
HETATM   21  C   UNL     1     -20.535  -7.964  -4.570  1.00  0.00     0.009 C 
BRANCH  21  22
HETATM   22  C   UNL     1     -21.201  -7.946  -3.202  1.00  0.00     0.000 C 
BRANCH  22  23
HETATM   23  C   UNL     1     -21.525  -6.508  -2.816  1.00  0.00     0.000 C 
BRANCH  23  24
HETATM   24  C   UNL     1     -22.290  -6.454  -1.502  1.00  0.00     0.000 C 
BRANCH  24  25
HETATM   25  C   UNL     1     -21.904  -7.634  -0.618  1.00  0.00     0.000 C 
BRANCH  25  26
HETATM   26  C   UNL     1     -22.988  -7.901   0.418  1.00  0.00     0.000 C 
BRANCH  26  27
HETATM   27  C   UNL     1     -23.530  -9.319   0.282  1.00  0.00     0.000 C 
BRANCH  27  28
HETATM   28  C   UNL     1     -22.665 -10.133  -0.676  1.00  0.00    -0.000 C 
BRANCH  28  29
HETATM   29  C   UNL     1     -22.063 -11.348   0.025  1.00  0.00    -0.005 C 
HETATM   30  C   UNL     1     -20.854 -10.955   0.853  1.00  0.00     0.005 C 
ENDBRANCH  28  29
ENDBRANCH  27  28
ENDBRANCH  26  27
ENDBRANCH  25  26
ENDBRANCH  24  25
ENDBRANCH  23  24
ENDBRANCH  22  23
ENDBRANCH  21  22
ENDBRANCH  20  21
ENDBRANCH   1  20
TORSDOF 19
BEGIN_RES ARG D 557
REMARK  4 active torsions:
REMARK  status: ('A' for Active; 'I' for Inactive)
REMARK    1  A    between atoms: CA   and  CB  
REMARK    2  A    between atoms: CB   and  CG  
REMARK    3  A    between atoms: CG   and  CD  
REMARK    4  A    between atoms: CD   and  NE  
REMARK       I    between atoms: NE   and  CZ  
REMARK       I    between atoms: CZ   and  NH1 
REMARK       I    between atoms: CZ   and  NH2 
ROOT
ATOM      1  CA  ARG D 557     -26.217   2.705 -17.014  1.00 35.49     0.159 C 
ENDROOT
BRANCH   1   2
ATOM      2  CB  ARG D 557     -26.789   1.319 -17.183  1.00 35.49     0.034 C 
BRANCH   2   3
ATOM      3  CG  ARG D 557     -28.203   1.140 -16.830  1.00 35.49     0.027 C 
BRANCH   3   4
ATOM      4  CD  ARG D 557     -28.703  -0.211 -17.171  1.00 35.49     0.116 C 
BRANCH   4   5
ATOM      5  NE  ARG D 557     -27.923  -1.251 -16.553  1.00 35.49    -0.212 N 
ATOM      6  CZ  ARG D 557     -28.115  -2.543 -16.695  1.00 35.49     0.666 C 
ATOM      7  NH1 ARG D 557     -29.089  -3.038 -17.437  1.00 35.49    -0.235 N 
ATOM      8  NH2 ARG D 557     -27.296  -3.343 -16.076  1.00 35.49    -0.235 N 
ATOM      9  HH  ARG D 557     -29.638  -2.530 -17.854  1.00 35.49     0.174 HD
ATOM     10  HH  ARG D 557     -29.164  -3.889 -17.494  1.00 35.49     0.174 HD
ATOM     11  HH  ARG D 557     -26.672  -2.995 -15.611  1.00 35.49     0.174 HD
ATOM     12  HH  ARG D 557     -27.386  -4.183 -16.147  1.00 35.49     0.174 HD
ATOM     13  HE  ARG D 557     -27.319  -1.021 -16.000  1.00 35.49     0.178 HD
ENDBRANCH   4   5
ENDBRANCH   3   4
ENDBRANCH   2   3
ENDBRANCH   1   2
END_RES ARG D 557
BEGIN_RES GLU D 570
REMARK  3 active torsions:
REMARK  status: ('A' for Active; 'I' for Inactive)
REMARK    5  A    between atoms: CA   and  CB  
REMARK    6  A    between atoms: CB   and  CG  
REMARK    7  A    between atoms: CG   and  CD  
ROOT
ATOM     14  CA  GLU D 570     -18.033  -6.348 -13.375  1.00 32.92     0.160 C 
ENDROOT
BRANCH  14  15
ATOM     15  CB  GLU D 570     -19.500  -6.345 -13.794  1.00 32.92     0.043 C 
BRANCH  15  16
ATOM     16  CG  GLU D 570     -19.952  -7.423 -14.710  1.00 32.92     0.100 C 
BRANCH  16  17
ATOM     17  CD  GLU D 570     -20.873  -6.924 -15.800  1.00 32.92     0.185 C 
ATOM     18  OE1 GLU D 570     -22.011  -7.419 -15.904  1.00 32.92    -0.647 OA
ATOM     19  OE2 GLU D 570     -20.444  -6.040 -16.567  1.00 32.92    -0.647 OA
ENDBRANCH  16  17
ENDBRANCH  15  16
ENDBRANCH  14  15
END_RES GLU D 570
ENDMDL
MODEL 2
REMARK VINA RESULT:      -7.5      7.389     12.492
REMARK  19 active torsions:
REMARK  status: ('A' for Active; 'I' for Inactive)
REMARK    1  A    between atoms: C_2  and  C_3 
REMARK    2  A    between atoms: C_3  and  C_4 
REMARK    3  A    between atoms: C_4  and  C_5 
REMARK    4  A    between atoms: C_5  and  C_6 
REMARK    5  A    between atoms: C_6  and  C_7 
REMARK    6  A    between atoms: C_7  and  C_8 
REMARK    7  A    between atoms: C_8  and  C_9 
REMARK    8  A    between atoms: C_9  and  C_10 
REMARK    9  A    between atoms: C_10  and  C_11 
REMARK   10  A    between atoms: C_11  and  C_12 
REMARK       I    between atoms: C_12  and  N_14 
REMARK   11  A    between atoms: N_14  and  C_15 
REMARK   12  A    between atoms: C_15  and  C_16 
REMARK   13  A    between atoms: C_16  and  C_17 
REMARK   14  A    between atoms: C_17  and  N_18 
REMARK   15  A    between atoms: N_18  and  C_21 
REMARK   16  A    between atoms: C_21  and  C_22 
REMARK   17  A    between atoms: C_22  and  C_23 
REMARK   18  A    between atoms: C_22  and  O_28 
REMARK   19  A    between atoms: C_23  and  S_24 
ROOT
HETATM    1  C   UNL     1     -34.691  -2.252 -16.223  1.00  0.00     0.217 C 
HETATM    2  O   UNL     1     -34.732  -2.777 -15.121  1.00  0.00    -0.274 OA
HETATM    3  N   UNL     1     -33.940  -2.758 -17.259  1.00  0.00    -0.361 N 
HETATM    4  H   UNL     1     -33.918  -2.283 -18.164  1.00  0.00     0.162 HD
ENDROOT
BRANCH   3   5
HETATM    5  C   UNL     1     -33.064  -3.882 -17.021  1.00  0.00     0.124 C 
BRANCH   5   6
HETATM    6  C   UNL     1     -31.658  -3.594 -17.530  1.00  0.00     0.047 C 
BRANCH   6   7
HETATM    7  C   UNL     1     -30.846  -4.888 -17.560  1.00  0.00     0.238 C 
BRANCH   7   8
HETATM    8  N   UNL     1     -29.332  -4.647 -17.391  1.00  0.00    -0.072 N 
HETATM    9  C   UNL     1     -28.666  -5.210 -18.652  1.00  0.00     0.272 C 
HETATM   10  C   UNL     1     -29.057  -3.162 -17.201  1.00  0.00     0.272 C 
BRANCH   8  11
HETATM   11  C   UNL     1     -28.720  -5.464 -16.204  1.00  0.00     0.269 C 
BRANCH  11  12
HETATM   12  C   UNL     1     -27.886  -6.731 -16.517  1.00  0.00     0.160 C 
BRANCH  12  13
HETATM   13  C   UNL     1     -26.719  -7.099 -15.624  1.00  0.00     0.198 C 
BRANCH  13  14
HETATM   14  S   UNL     1     -25.149  -6.817 -16.373  1.00  0.00     0.104 S 
HETATM   15  O   UNL     1     -25.538  -6.509 -17.742  1.00  0.00    -0.595 OA
HETATM   16  O   UNL     1     -24.618  -5.746 -15.541  1.00  0.00    -0.595 OA
HETATM   17  O   UNL     1     -24.452  -8.086 -16.210  1.00  0.00    -0.595 OA
ENDBRANCH  13  14
ENDBRANCH  12  13
BRANCH  12  18
HETATM   18  O   UNL     1     -28.793  -7.844 -16.652  1.00  0.00    -0.393 OA
HETATM   19  H   UNL     1     -28.941  -7.995 -17.621  1.00  0.00     0.210 HD
ENDBRANCH  12  18
ENDBRANCH  11  12
ENDBRANCH   8  11
ENDBRANCH   7   8
ENDBRANCH   6   7
ENDBRANCH   5   6
ENDBRANCH   3   5
BRANCH   1  20
HETATM   20  C   UNL     1     -35.520  -1.049 -16.600  1.00  0.00     0.103 C 
BRANCH  20  21
HETATM   21  C   UNL     1     -36.183  -0.478 -15.356  1.00  0.00     0.009 C 
BRANCH  21  22
HETATM   22  C   UNL     1     -35.431   0.737 -14.830  1.00  0.00     0.000 C 
BRANCH  22  23
HETATM   23  C   UNL     1     -34.837   0.414 -13.466  1.00  0.00     0.000 C 
BRANCH  23  24
HETATM   24  C   UNL     1     -35.928   0.266 -12.416  1.00  0.00     0.000 C 
BRANCH  24  25
HETATM   25  C   UNL     1     -35.734  -1.025 -11.631  1.00  0.00     0.000 C 
BRANCH  25  26
HETATM   26  C   UNL     1     -34.351  -1.608 -11.895  1.00  0.00     0.000 C 
BRANCH  26  27
HETATM   27  C   UNL     1     -34.104  -2.833 -11.022  1.00  0.00     0.000 C 
BRANCH  27  28
HETATM   28  C   UNL     1     -32.918  -3.635 -11.549  1.00  0.00    -0.000 C 
BRANCH  28  29
HETATM   29  C   UNL     1     -33.160  -5.135 -11.402  1.00  0.00    -0.005 C 
HETATM   30  C   UNL     1     -34.389  -5.407 -10.554  1.00  0.00     0.005 C 
ENDBRANCH  28  29
ENDBRANCH  27  28
ENDBRANCH  26  27
ENDBRANCH  25  26
ENDBRANCH  24  25
ENDBRANCH  23  24
ENDBRANCH  22  23
ENDBRANCH  21  22
ENDBRANCH  20  21
ENDBRANCH   1  20
TORSDOF 19
BEGIN_RES ARG D 557
REMARK  4 active torsions:
REMARK  status: ('A' for Active; 'I' for Inactive)
REMARK    1  A    between atoms: CA   and  CB  
REMARK    2  A    between atoms: CB   and  CG  
REMARK    3  A    between atoms: CG   and  CD  
REMARK    4  A    between atoms: CD   and  NE  
REMARK       I    between atoms: NE   and  CZ  
REMARK       I    between atoms: CZ   and  NH1 
REMARK       I    between atoms: CZ   and  NH2 
ROOT
ATOM      1  CA  ARG D 557     -26.217   2.705 -17.014  1.00 35.49     0.159 C 
ENDROOT
BRANCH   1   2
ATOM      2  CB  ARG D 557     -26.789   1.319 -17.183  1.00 35.49     0.034 C 
BRANCH   2   3
ATOM      3  CG  ARG D 557     -25.889   0.194 -16.901  1.00 35.49     0.027 C 
BRANCH   3   4
ATOM      4  CD  ARG D 557     -26.406  -0.687 -15.829  1.00 35.49     0.116 C 
BRANCH   4   5
ATOM      5  NE  ARG D 557     -25.348  -1.269 -15.047  1.00 35.49    -0.212 N 
ATOM      6  CZ  ARG D 557     -25.289  -2.518 -14.642  1.00 35.49     0.666 C 
ATOM      7  NH1 ARG D 557     -26.239  -3.396 -14.910  1.00 35.49    -0.235 N 
ATOM      8  NH2 ARG D 557     -24.242  -2.879 -13.959  1.00 35.49    -0.235 N 
ATOM      9  HH  ARG D 557     -26.936  -3.180 -15.359  1.00 35.49     0.174 HD
ATOM     10  HH  ARG D 557     -26.145  -4.197 -14.621  1.00 35.49     0.174 HD
ATOM     11  HH  ARG D 557     -23.641  -2.293 -13.808  1.00 35.49     0.174 HD
ATOM     12  HH  ARG D 557     -24.167  -3.678 -13.684  1.00 35.49     0.174 HD
ATOM     13  HE  ARG D 557     -24.729  -0.757 -14.768  1.00 35.49     0.178 HD
ENDBRANCH   4   5
ENDBRANCH   3   4
ENDBRANCH   2   3
ENDBRANCH   1   2
END_RES ARG D 557
BEGIN_RES GLU D 570
REMARK  3 active torsions:
REMARK  status: ('A' for Active; 'I' for Inactive)
REMARK    5  A    between atoms: CA   and  CB  
REMARK    6  A    between atoms: CB   and  CG  
REMARK    7  A    between atoms: CG   and  CD  
ROOT
ATOM     14  CA  GLU D 570     -18.033  -6.348 -13.375  1.00 32.92     0.160 C 
ENDROOT
BRANCH  14  15
ATOM     15  CB  GLU D 570     -19.500  -6.345 -13.794  1.00 32.92     0.043 C 
BRANCH  15  16
ATOM     16  CG  GLU D 570     -20.449  -5.564 -12.959  1.00 32.92     0.100 C 
BRANCH  16  17
ATOM     17  CD  GLU D 570     -21.720  -5.204 -13.692  1.00 32.92     0.185 C 
ATOM     18  OE1 GLU D 570     -22.815  -5.361 -13.117  1.00 32.92    -0.647 OA
ATOM     19  OE2 GLU D 570     -21.622  -4.777 -14.859  1.00 32.92    -0.647 OA
ENDBRANCH  16  17
ENDBRANCH  15  16
ENDBRANCH  14  15
END_RES GLU D 570
ENDMDL
MODEL 3
REMARK VINA RESULT:      -6.9      8.650     12.350
REMARK  19 active torsions:
REMARK  status: ('A' for Active; 'I' for Inactive)
REMARK    1  A    between atoms: C_2  and  C_3 
REMARK    2  A    between atoms: C_3  and  C_4 
REMARK    3  A    between atoms: C_4  and  C_5 
REMARK    4  A    between atoms: C_5  and  C_6 
REMARK    5  A    between atoms: C_6  and  C_7 
REMARK    6  A    between atoms: C_7  and  C_8 
REMARK    7  A    between atoms: C_8  and  C_9 
REMARK    8  A    between atoms: C_9  and  C_10 
REMARK    9  A    between atoms: C_10  and  C_11 
REMARK   10  A    between atoms: C_11  and  C_12 
REMARK       I    between atoms: C_12  and  N_14 
REMARK   11  A    between atoms: N_14  and  C_15 
REMARK   12  A    between atoms: C_15  and  C_16 
REMARK   13  A    between atoms: C_16  and  C_17 
REMARK   14  A    between atoms: C_17  and  N_18 
REMARK   15  A    between atoms: N_18  and  C_21 
REMARK   16  A    between atoms: C_21  and  C_22 
REMARK   17  A    between atoms: C_22  and  C_23 
REMARK   18  A    between atoms: C_22  and  O_28 
REMARK   19  A    between atoms: C_23  and  S_24 
ROOT
HETATM    1  C   UNL     1     -34.002  -3.882 -14.975  1.00  0.00     0.217 C 
HETATM    2  O   UNL     1     -34.726  -3.349 -15.802  1.00  0.00    -0.274 OA
HETATM    3  N   UNL     1     -32.784  -4.433 -15.299  1.00  0.00    -0.361 N 
HETATM    4  H   UNL     1     -32.211  -4.885 -14.583  1.00  0.00     0.162 HD
ENDROOT
BRANCH   3   5
HETATM    5  C   UNL     1     -32.381  -4.505 -16.685  1.00  0.00     0.124 C 
BRANCH   5   6
HETATM    6  C   UNL     1     -30.869  -4.639 -16.806  1.00  0.00     0.047 C 
BRANCH   6   7
HETATM    7  C   UNL     1     -30.519  -5.368 -18.103  1.00  0.00     0.238 C 
BRANCH   7   8
HETATM    8  N   UNL     1     -29.534  -6.535 -17.884  1.00  0.00    -0.072 N 
HETATM    9  C   UNL     1     -29.505  -6.792 -16.373  1.00  0.00     0.272 C 
HETATM   10  C   UNL     1     -29.986  -7.755 -18.673  1.00  0.00     0.272 C 
BRANCH   8  11
HETATM   11  C   UNL     1     -28.063  -6.162 -18.266  1.00  0.00     0.269 C 
BRANCH  11  12
HETATM   12  C   UNL     1     -27.009  -6.019 -17.140  1.00  0.00     0.160 C 
BRANCH  12  13
HETATM   13  C   UNL     1     -25.587  -6.483 -17.381  1.00  0.00     0.198 C 
BRANCH  13  14
HETATM   14  S   UNL     1     -24.741  -6.939 -15.905  1.00  0.00     0.104 S 
HETATM   15  O   UNL     1     -25.856  -7.192 -15.003  1.00  0.00    -0.595 OA
HETATM   16  O   UNL     1     -23.945  -8.069 -16.363  1.00  0.00    -0.595 OA
HETATM   17  O   UNL     1     -23.950  -5.760 -15.577  1.00  0.00    -0.595 OA
ENDBRANCH  13  14
ENDBRANCH  12  13
BRANCH  12  18
HETATM   18  O   UNL     1     -27.026  -4.653 -16.679  1.00  0.00    -0.393 OA
HETATM   19  H   UNL     1     -27.412  -4.649 -15.765  1.00  0.00     0.210 HD
ENDBRANCH  12  18
ENDBRANCH  11  12
ENDBRANCH   8  11
ENDBRANCH   7   8
ENDBRANCH   6   7
ENDBRANCH   5   6
ENDBRANCH   3   5
BRANCH   1  20
HETATM   20  C   UNL     1     -34.316  -3.919 -13.499  1.00  0.00     0.103 C 
BRANCH  20  21
HETATM   21  C   UNL     1     -33.060  -4.279 -12.721  1.00  0.00     0.009 C 
BRANCH  21  22
HETATM   22  C   UNL     1     -33.147  -3.811 -11.275  1.00  0.00     0.000 C 
BRANCH  22  23
HETATM   23  C   UNL     1     -33.522  -2.335 -11.243  1.00  0.00     0.000 C 
BRANCH  23  24
HETATM   24  C   UNL     1     -34.563  -2.060 -10.168  1.00  0.00     0.000 C 
BRANCH  24  25
HETATM   25  C   UNL     1     -35.963  -2.313 -10.712  1.00  0.00     0.000 C 
BRANCH  25  26
HETATM   26  C   UNL     1     -36.836  -1.077 -10.537  1.00  0.00     0.000 C 
BRANCH  26  27
HETATM   27  C   UNL     1     -36.317   0.077 -11.385  1.00  0.00     0.000 C 
BRANCH  27  28
HETATM   28  C   UNL     1     -36.417  -0.262 -12.870  1.00  0.00    -0.000 C 
BRANCH  28  29
HETATM   29  C   UNL     1     -35.091  -0.010 -13.582  1.00  0.00    -0.005 C 
HETATM   30  C   UNL     1     -35.305   0.206 -15.069  1.00  0.00     0.005 C 
ENDBRANCH  28  29
ENDBRANCH  27  28
ENDBRANCH  26  27
ENDBRANCH  25  26
ENDBRANCH  24  25
ENDBRANCH  23  24
ENDBRANCH  22  23
ENDBRANCH  21  22
ENDBRANCH  20  21
ENDBRANCH   1  20
TORSDOF 19
BEGIN_RES ARG D 557
REMARK  4 active torsions:
REMARK  status: ('A' for Active; 'I' for Inactive)
REMARK    1  A    between atoms: CA   and  CB  
REMARK    2  A    between atoms: CB   and  CG  
REMARK    3  A    between atoms: CG   and  CD  
REMARK    4  A    between atoms: CD   and  NE  
REMARK       I    between atoms: NE   and  CZ  
REMARK       I    between atoms: CZ   and  NH1 
REMARK       I    between atoms: CZ   and  NH2 
ROOT
ATOM      1  CA  ARG D 557     -26.217   2.705 -17.014  1.00 35.49     0.159 C 
ENDROOT
BRANCH   1   2
ATOM      2  CB  ARG D 557     -26.789   1.319 -17.183  1.00 35.49     0.034 C 
BRANCH   2   3
ATOM      3  CG  ARG D 557     -25.864   0.195 -16.993  1.00 35.49     0.027 C 
BRANCH   3   4
ATOM      4  CD  ARG D 557     -26.301  -0.719 -15.913  1.00 35.49     0.116 C 
BRANCH   4   5
ATOM      5  NE  ARG D 557     -25.255  -0.968 -14.957  1.00 35.49    -0.212 N 
ATOM      6  CZ  ARG D 557     -25.013  -2.116 -14.364  1.00 35.49     0.666 C 
ATOM      7  NH1 ARG D 557     -25.742  -3.194 -14.583  1.00 35.49    -0.235 N 
ATOM      8  NH2 ARG D 557     -24.007  -2.165 -13.539  1.00 35.49    -0.235 N 
ATOM      9  HH  ARG D 557     -26.407  -3.185 -15.123  1.00 35.49     0.174 HD
ATOM     10  HH  ARG D 557     -25.535  -3.916 -14.170  1.00 35.49     0.174 HD
ATOM     11  HH  ARG D 557     -23.550  -1.455 -13.423  1.00 35.49     0.174 HD
ATOM     12  HH  ARG D 557     -23.818  -2.889 -13.141  1.00 35.49     0.174 HD
ATOM     13  HE  ARG D 557     -24.782  -0.309 -14.702  1.00 35.49     0.178 HD
ENDBRANCH   4   5
ENDBRANCH   3   4
ENDBRANCH   2   3
ENDBRANCH   1   2
END_RES ARG D 557
BEGIN_RES GLU D 570
REMARK  3 active torsions:
REMARK  status: ('A' for Active; 'I' for Inactive)
REMARK    5  A    between atoms: CA   and  CB  
REMARK    6  A    between atoms: CB   and  CG  
REMARK    7  A    between atoms: CG   and  CD  
ROOT
ATOM     14  CA  GLU D 570     -18.033  -6.348 -13.375  1.00 32.92     0.160 C 
ENDROOT
BRANCH  14  15
ATOM     15  CB  GLU D 570     -19.500  -6.345 -13.794  1.00 32.92     0.043 C 
BRANCH  15  16
ATOM     16  CG  GLU D 570     -19.811  -5.957 -15.194  1.00 32.92     0.100 C 
BRANCH  16  17
ATOM     17  CD  GLU D 570     -20.581  -7.020 -15.943  1.00 32.92     0.185 C 
ATOM     18  OE1 GLU D 570     -20.701  -8.151 -15.435  1.00 32.92    -0.647 OA
ATOM     19  OE2 GLU D 570     -21.055  -6.723 -17.057  1.00 32.92    -0.647 OA
ENDBRANCH  16  17
ENDBRANCH  15  16
ENDBRANCH  14  15
END_RES GLU D 570
ENDMDL
MODEL 4
REMARK VINA RESULT:      -6.8      7.646     13.597
REMARK  19 active torsions:
REMARK  status: ('A' for Active; 'I' for Inactive)
REMARK    1  A    between atoms: C_2  and  C_3 
REMARK    2  A    between atoms: C_3  and  C_4 
REMARK    3  A    between atoms: C_4  and  C_5 
REMARK    4  A    between atoms: C_5  and  C_6 
REMARK    5  A    between atoms: C_6  and  C_7 
REMARK    6  A    between atoms: C_7  and  C_8 
REMARK    7  A    between atoms: C_8  and  C_9 
REMARK    8  A    between atoms: C_9  and  C_10 
REMARK    9  A    between atoms: C_10  and  C_11 
REMARK   10  A    between atoms: C_11  and  C_12 
REMARK       I    between atoms: C_12  and  N_14 
REMARK   11  A    between atoms: N_14  and  C_15 
REMARK   12  A    between atoms: C_15  and  C_16 
REMARK   13  A    between atoms: C_16  and  C_17 
REMARK   14  A    between atoms: C_17  and  N_18 
REMARK   15  A    between atoms: N_18  and  C_21 
REMARK   16  A    between atoms: C_21  and  C_22 
REMARK   17  A    between atoms: C_22  and  C_23 
REMARK   18  A    between atoms: C_22  and  O_28 
REMARK   19  A    between atoms: C_23  and  S_24 
ROOT
HETATM    1  C   UNL     1     -32.392  -3.733 -17.141  1.00  0.00     0.217 C 
HETATM    2  O   UNL     1     -31.929  -2.978 -17.981  1.00  0.00    -0.274 OA
HETATM    3  N   UNL     1     -33.700  -3.666 -16.722  1.00  0.00    -0.361 N 
HETATM    4  H   UNL     1     -34.050  -4.306 -16.005  1.00  0.00     0.162 HD
ENDROOT
BRANCH   3   5
HETATM    5  C   UNL     1     -34.543  -2.591 -17.191  1.00  0.00     0.124 C 
BRANCH   5   6
HETATM    6  C   UNL     1     -34.703  -1.518 -16.121  1.00  0.00     0.047 C 
BRANCH   6   7
HETATM    7  C   UNL     1     -36.034  -0.793 -16.314  1.00  0.00     0.238 C 
BRANCH   7   8
HETATM    8  N   UNL     1     -36.324   0.230 -15.197  1.00  0.00    -0.072 N 
HETATM    9  C   UNL     1     -36.134   1.615 -15.826  1.00  0.00     0.272 C 
HETATM   10  C   UNL     1     -37.731   0.026 -14.653  1.00  0.00     0.272 C 
BRANCH   8  11
HETATM   11  C   UNL     1     -35.281   0.163 -14.031  1.00  0.00     0.269 C 
BRANCH  11  12
HETATM   12  C   UNL     1     -35.627  -0.653 -12.761  1.00  0.00     0.160 C 
BRANCH  12  13
HETATM   13  C   UNL     1     -34.935  -1.976 -12.509  1.00  0.00     0.198 C 
BRANCH  13  14
HETATM   14  S   UNL     1     -35.148  -2.574 -10.865  1.00  0.00     0.104 S 
HETATM   15  O   UNL     1     -34.122  -1.823 -10.154  1.00  0.00    -0.595 OA
HETATM   16  O   UNL     1     -36.546  -2.253 -10.617  1.00  0.00    -0.595 OA
HETATM   17  O   UNL     1     -34.885  -4.004 -10.978  1.00  0.00    -0.595 OA
ENDBRANCH  13  14
ENDBRANCH  12  13
BRANCH  12  18
HETATM   18  O   UNL     1     -35.492   0.216 -11.618  1.00  0.00    -0.393 OA
HETATM   19  H   UNL     1     -35.706   1.138 -11.915  1.00  0.00     0.210 HD
ENDBRANCH  12  18
ENDBRANCH  11  12
ENDBRANCH   8  11
ENDBRANCH   7   8
ENDBRANCH   6   7
ENDBRANCH   5   6
ENDBRANCH   3   5
BRANCH   1  20
HETATM   20  C   UNL     1     -31.613  -4.875 -16.533  1.00  0.00     0.103 C 
BRANCH  20  21
HETATM   21  C   UNL     1     -31.954  -6.167 -17.260  1.00  0.00     0.009 C 
BRANCH  21  22
HETATM   22  C   UNL     1     -30.723  -7.040 -17.453  1.00  0.00     0.000 C 
BRANCH  22  23
HETATM   23  C   UNL     1     -29.740  -6.332 -18.376  1.00  0.00     0.000 C 
BRANCH  23  24
HETATM   24  C   UNL     1     -28.317  -6.446 -17.851  1.00  0.00     0.000 C 
BRANCH  24  25
HETATM   25  C   UNL     1     -28.324  -6.947 -16.411  1.00  0.00     0.000 C 
BRANCH  25  26
HETATM   26  C   UNL     1     -26.955  -6.754 -15.772  1.00  0.00     0.000 C 
BRANCH  26  27
HETATM   27  C   UNL     1     -26.442  -5.338 -16.007  1.00  0.00     0.000 C 
BRANCH  27  28
HETATM   28  C   UNL     1     -27.391  -4.315 -15.389  1.00  0.00    -0.000 C 
BRANCH  28  29
HETATM   29  C   UNL     1     -27.337  -2.989 -16.142  1.00  0.00    -0.005 C 
HETATM   30  C   UNL     1     -28.566  -2.807 -17.014  1.00  0.00     0.005 C 
ENDBRANCH  28  29
ENDBRANCH  27  28
ENDBRANCH  26  27
ENDBRANCH  25  26
ENDBRANCH  24  25
ENDBRANCH  23  24
ENDBRANCH  22  23
ENDBRANCH  21  22
ENDBRANCH  20  21
ENDBRANCH   1  20
TORSDOF 19
BEGIN_RES ARG D 557
REMARK  4 active torsions:
REMARK  status: ('A' for Active; 'I' for Inactive)
REMARK    1  A    between atoms: CA   and  CB  
REMARK    2  A    between atoms: CB   and  CG  
REMARK    3  A    between atoms: CG   and  CD  
REMARK    4  A    between atoms: CD   and  NE  
REMARK       I    between atoms: NE   and  CZ  
REMARK       I    between atoms: CZ   and  NH1 
REMARK       I    between atoms: CZ   and  NH2 
ROOT
ATOM      1  CA  ARG D 557     -26.217   2.705 -17.014  1.00 35.49     0.159 C 
ENDROOT
BRANCH   1   2
ATOM      2  CB  ARG D 557     -26.789   1.319 -17.183  1.00 35.49     0.034 C 
BRANCH   2   3
ATOM      3  CG  ARG D 557     -25.837   0.202 -17.149  1.00 35.49     0.027 C 
BRANCH   3   4
ATOM      4  CD  ARG D 557     -24.757   0.412 -16.157  1.00 35.49     0.116 C 
BRANCH   4   5
ATOM      5  NE  ARG D 557     -24.898  -0.448 -15.012  1.00 35.49    -0.212 N 
ATOM      6  CZ  ARG D 557     -24.077  -1.417 -14.673  1.00 35.49     0.666 C 
ATOM      7  NH1 ARG D 557     -23.007  -1.720 -15.383  1.00 35.49    -0.235 N 
ATOM      8  NH2 ARG D 557     -24.350  -2.082 -13.588  1.00 35.49    -0.235 N 
ATOM      9  HH  ARG D 557     -22.807  -1.294 -16.099  1.00 35.49     0.174 HD
ATOM     10  HH  ARG D 557     -22.506  -2.361 -15.112  1.00 35.49     0.174 HD
ATOM     11  HH  ARG D 557     -25.044  -1.860 -13.146  1.00 35.49     0.174 HD
ATOM     12  HH  ARG D 557     -23.841  -2.712 -13.335  1.00 35.49     0.174 HD
ATOM     13  HE  ARG D 557     -25.600  -0.370 -14.538  1.00 35.49     0.178 HD
ENDBRANCH   4   5
ENDBRANCH   3   4
ENDBRANCH   2   3
ENDBRANCH   1   2
END_RES ARG D 557
BEGIN_RES GLU D 570
REMARK  3 active torsions:
REMARK  status: ('A' for Active; 'I' for Inactive)
REMARK    5  A    between atoms: CA   and  CB  
REMARK    6  A    between atoms: CB   and  CG  
REMARK    7  A    between atoms: CG   and  CD  
ROOT
ATOM     14  CA  GLU D 570     -18.033  -6.348 -13.375  1.00 32.92     0.160 C 
ENDROOT
BRANCH  14  15
ATOM     15  CB  GLU D 570     -19.500  -6.345 -13.794  1.00 32.92     0.043 C 
BRANCH  15  16
ATOM     16  CG  GLU D 570     -20.451  -5.577 -12.950  1.00 32.92     0.100 C 
BRANCH  16  17
ATOM     17  CD  GLU D 570     -21.741  -5.248 -13.666  1.00 32.92     0.185 C 
ATOM     18  OE1 GLU D 570     -22.230  -4.109 -13.537  1.00 32.92    -0.647 OA
ATOM     19  OE2 GLU D 570     -22.276  -6.143 -14.348  1.00 32.92    -0.647 OA
ENDBRANCH  16  17
ENDBRANCH  15  16
ENDBRANCH  14  15
END_RES GLU D 570
ENDMDL
MODEL 5
REMARK VINA RESULT:      -6.6      1.541      2.412
REMARK  19 active torsions:
REMARK  status: ('A' for Active; 'I' for Inactive)
REMARK    1  A    between atoms: C_2  and  C_3 
REMARK    2  A    between atoms: C_3  and  C_4 
REMARK    3  A    between atoms: C_4  and  C_5 
REMARK    4  A    between atoms: C_5  and  C_6 
REMARK    5  A    between atoms: C_6  and  C_7 
REMARK    6  A    between atoms: C_7  and  C_8 
REMARK    7  A    between atoms: C_8  and  C_9 
REMARK    8  A    between atoms: C_9  and  C_10 
REMARK    9  A    between atoms: C_10  and  C_11 
REMARK   10  A    between atoms: C_11  and  C_12 
REMARK       I    between atoms: C_12  and  N_14 
REMARK   11  A    between atoms: N_14  and  C_15 
REMARK   12  A    between atoms: C_15  and  C_16 
REMARK   13  A    between atoms: C_16  and  C_17 
REMARK   14  A    between atoms: C_17  and  N_18 
REMARK   15  A    between atoms: N_18  and  C_21 
REMARK   16  A    between atoms: C_21  and  C_22 
REMARK   17  A    between atoms: C_22  and  C_23 
REMARK   18  A    between atoms: C_22  and  O_28 
REMARK   19  A    between atoms: C_23  and  S_24 
ROOT
HETATM    1  C   UNL     1     -20.902  -5.843  -5.670  1.00  0.00     0.217 C 
HETATM    2  O   UNL     1     -20.509  -4.859  -5.065  1.00  0.00    -0.274 OA
HETATM    3  N   UNL     1     -20.443  -6.177  -6.923  1.00  0.00    -0.361 N 
HETATM    4  H   UNL     1     -20.807  -7.001  -7.407  1.00  0.00     0.162 HD
ENDROOT
BRANCH   3   5
HETATM    5  C   UNL     1     -19.554  -5.276  -7.619  1.00  0.00     0.124 C 
BRANCH   5   6
HETATM    6  C   UNL     1     -20.339  -4.274  -8.456  1.00  0.00     0.047 C 
BRANCH   6   7
HETATM    7  C   UNL     1     -20.303  -4.692  -9.926  1.00  0.00     0.238 C 
BRANCH   7   8
HETATM    8  N   UNL     1     -21.248  -3.850 -10.809  1.00  0.00    -0.072 N 
HETATM    9  C   UNL     1     -22.525  -3.638  -9.987  1.00  0.00     0.272 C 
HETATM   10  C   UNL     1     -20.576  -2.539 -11.190  1.00  0.00     0.272 C 
BRANCH   8  11
HETATM   11  C   UNL     1     -21.710  -4.613 -12.095  1.00  0.00     0.269 C 
BRANCH  11  12
HETATM   12  C   UNL     1     -23.099  -4.291 -12.700  1.00  0.00     0.160 C 
BRANCH  12  13
HETATM   13  C   UNL     1     -23.256  -3.102 -13.624  1.00  0.00     0.198 C 
BRANCH  13  14
HETATM   14  S   UNL     1     -24.930  -2.782 -14.074  1.00  0.00     0.104 S 
HETATM   15  O   UNL     1     -25.591  -2.850 -12.778  1.00  0.00    -0.595 OA
HETATM   16  O   UNL     1     -24.813  -1.488 -14.730  1.00  0.00    -0.595 OA
HETATM   17  O   UNL     1     -25.261  -3.872 -14.982  1.00  0.00    -0.595 OA
ENDBRANCH  13  14
ENDBRANCH  12  13
BRANCH  12  18
HETATM   18  O   UNL     1     -23.606  -5.489 -13.324  1.00  0.00    -0.393 OA
HETATM   19  H   UNL     1     -23.227  -6.265 -12.836  1.00  0.00     0.210 HD
ENDBRANCH  12  18
ENDBRANCH  11  12
ENDBRANCH   8  11
ENDBRANCH   7   8
ENDBRANCH   6   7
ENDBRANCH   5   6
ENDBRANCH   3   5
BRANCH   1  20
HETATM   20  C   UNL     1     -21.863  -6.848  -5.084  1.00  0.00     0.103 C 
BRANCH  20  21
HETATM   21  C   UNL     1     -21.085  -7.917  -4.331  1.00  0.00     0.009 C 
BRANCH  21  22
HETATM   22  C   UNL     1     -21.642  -9.307  -4.603  1.00  0.00     0.000 C 
BRANCH  22  23
HETATM   23  C   UNL     1     -21.457 -10.177  -3.366  1.00  0.00     0.000 C 
BRANCH  23  24
HETATM   24  C   UNL     1     -22.573 -11.204  -3.249  1.00  0.00     0.000 C 
BRANCH  24  25
HETATM   25  C   UNL     1     -22.590 -11.807  -1.849  1.00  0.00     0.000 C 
BRANCH  25  26
HETATM   26  C   UNL     1     -23.991 -11.736  -1.255  1.00  0.00     0.000 C 
BRANCH  26  27
HETATM   27  C   UNL     1     -24.052 -10.709  -0.131  1.00  0.00     0.000 C 
BRANCH  27  28
HETATM   28  C   UNL     1     -22.969  -9.650  -0.315  1.00  0.00    -0.000 C 
BRANCH  28  29
HETATM   29  C   UNL     1     -23.178  -8.478   0.640  1.00  0.00    -0.005 C 
HETATM   30  C   UNL     1     -21.850  -7.924   1.122  1.00  0.00     0.005 C 
ENDBRANCH  28  29
ENDBRANCH  27  28
ENDBRANCH  26  27
ENDBRANCH  25  26
ENDBRANCH  24  25
ENDBRANCH  23  24
ENDBRANCH  22  23
ENDBRANCH  21  22
ENDBRANCH  20  21
ENDBRANCH   1  20
TORSDOF 19
BEGIN_RES ARG D 557
REMARK  4 active torsions:
REMARK  status: ('A' for Active; 'I' for Inactive)
REMARK    1  A    between atoms: CA   and  CB  
REMARK    2  A    between atoms: CB   and  CG  
REMARK    3  A    between atoms: CG   and  CD  
REMARK    4  A    between atoms: CD   and  NE  
REMARK       I    between atoms: NE   and  CZ  
REMARK       I    between atoms: CZ   and  NH1 
REMARK       I    between atoms: CZ   and  NH2 
ROOT
ATOM      1  CA  ARG D 557     -26.217   2.705 -17.014  1.00 35.49     0.159 C 
ENDROOT
BRANCH   1   2
ATOM      2  CB  ARG D 557     -26.789   1.319 -17.183  1.00 35.49     0.034 C 
BRANCH   2   3
ATOM      3  CG  ARG D 557     -28.236   1.225 -17.412  1.00 35.49     0.027 C 
BRANCH   3   4
ATOM      4  CD  ARG D 557     -28.898   0.297 -16.467  1.00 35.49     0.116 C 
BRANCH   4   5
ATOM      5  NE  ARG D 557     -29.300  -0.930 -17.104  1.00 35.49    -0.212 N 
ATOM      6  CZ  ARG D 557     -28.665  -2.078 -17.029  1.00 35.49     0.666 C 
ATOM      7  NH1 ARG D 557     -27.544  -2.225 -16.348  1.00 35.49    -0.235 N 
ATOM      8  NH2 ARG D 557     -29.187  -3.094 -17.654  1.00 35.49    -0.235 N 
ATOM      9  HH  ARG D 557     -27.184  -1.571 -15.928  1.00 35.49     0.174 HD
ATOM     10  HH  ARG D 557     -27.176  -2.999 -16.333  1.00 35.49     0.174 HD
ATOM     11  HH  ARG D 557     -29.916  -2.971 -18.079  1.00 35.49     0.174 HD
ATOM     12  HH  ARG D 557     -28.808  -3.852 -17.625  1.00 35.49     0.174 HD
ATOM     13  HE  ARG D 557     -29.974  -0.908 -17.623  1.00 35.49     0.178 HD
ENDBRANCH   4   5
ENDBRANCH   3   4
ENDBRANCH   2   3
ENDBRANCH   1   2
END_RES ARG D 557
BEGIN_RES GLU D 570
REMARK  3 active torsions:
REMARK  status: ('A' for Active; 'I' for Inactive)
REMARK    5  A    between atoms: CA   and  CB  
REMARK    6  A    between atoms: CB   and  CG  
REMARK    7  A    between atoms: CG   and  CD  
ROOT
ATOM     14  CA  GLU D 570     -18.033  -6.348 -13.375  1.00 32.92     0.160 C 
ENDROOT
BRANCH  14  15
ATOM     15  CB  GLU D 570     -19.500  -6.345 -13.794  1.00 32.92     0.043 C 
BRANCH  15  16
ATOM     16  CG  GLU D 570     -20.077  -7.627 -14.275  1.00 32.92     0.100 C 
BRANCH  16  17
ATOM     17  CD  GLU D 570     -21.096  -7.439 -15.375  1.00 32.92     0.185 C 
ATOM     18  OE1 GLU D 570     -21.743  -6.375 -15.425  1.00 32.92    -0.647 OA
ATOM     19  OE2 GLU D 570     -21.260  -8.371 -16.186  1.00 32.92    -0.647 OA
ENDBRANCH  16  17
ENDBRANCH  15  16
ENDBRANCH  14  15
END_RES GLU D 570
ENDMDL
MODEL 6
REMARK VINA RESULT:      -6.6      3.327      8.892
REMARK  19 active torsions:
REMARK  status: ('A' for Active; 'I' for Inactive)
REMARK    1  A    between atoms: C_2  and  C_3 
REMARK    2  A    between atoms: C_3  and  C_4 
REMARK    3  A    between atoms: C_4  and  C_5 
REMARK    4  A    between atoms: C_5  and  C_6 
REMARK    5  A    between atoms: C_6  and  C_7 
REMARK    6  A    between atoms: C_7  and  C_8 
REMARK    7  A    between atoms: C_8  and  C_9 
REMARK    8  A    between atoms: C_9  and  C_10 
REMARK    9  A    between atoms: C_10  and  C_11 
REMARK   10  A    between atoms: C_11  and  C_12 
REMARK       I    between atoms: C_12  and  N_14 
REMARK   11  A    between atoms: N_14  and  C_15 
REMARK   12  A    between atoms: C_15  and  C_16 
REMARK   13  A    between atoms: C_16  and  C_17 
REMARK   14  A    between atoms: C_17  and  N_18 
REMARK   15  A    between atoms: N_18  and  C_21 
REMARK   16  A    between atoms: C_21  and  C_22 
REMARK   17  A    between atoms: C_22  and  C_23 
REMARK   18  A    between atoms: C_22  and  O_28 
REMARK   19  A    between atoms: C_23  and  S_24 
ROOT
HETATM    1  C   UNL     1     -21.646  -6.208  -4.491  1.00  0.00     0.217 C 
HETATM    2  O   UNL     1     -22.823  -6.231  -4.816  1.00  0.00    -0.274 OA
HETATM    3  N   UNL     1     -21.234  -6.301  -3.182  1.00  0.00    -0.361 N 
HETATM    4  H   UNL     1     -20.240  -6.262  -2.946  1.00  0.00     0.162 HD
ENDROOT
BRANCH   3   5
HETATM    5  C   UNL     1     -22.219  -6.303  -2.125  1.00  0.00     0.124 C 
BRANCH   5   6
HETATM    6  C   UNL     1     -21.875  -7.339  -1.063  1.00  0.00     0.047 C 
BRANCH   6   7
HETATM    7  C   UNL     1     -20.611  -8.095  -1.471  1.00  0.00     0.238 C 
BRANCH   7   8
HETATM    8  N   UNL     1     -20.831  -9.619  -1.564  1.00  0.00    -0.072 N 
HETATM    9  C   UNL     1     -21.271 -10.073  -0.167  1.00  0.00     0.272 C 
HETATM   10  C   UNL     1     -21.868  -9.933  -2.632  1.00  0.00     0.272 C 
BRANCH   8  11
HETATM   11  C   UNL     1     -19.506 -10.403  -1.851  1.00  0.00     0.269 C 
BRANCH  11  12
HETATM   12  C   UNL     1     -19.116 -10.702  -3.320  1.00  0.00     0.160 C 
BRANCH  12  13
HETATM   13  C   UNL     1     -18.499  -9.610  -4.168  1.00  0.00     0.198 C 
BRANCH  13  14
HETATM   14  S   UNL     1     -17.960 -10.173  -5.749  1.00  0.00     0.104 S 
HETATM   15  O   UNL     1     -16.601 -10.602  -5.450  1.00  0.00    -0.595 OA
HETATM   16  O   UNL     1     -18.960 -11.187  -6.053  1.00  0.00    -0.595 OA
HETATM   17  O   UNL     1     -18.051  -8.988  -6.591  1.00  0.00    -0.595 OA
ENDBRANCH  13  14
ENDBRANCH  12  13
BRANCH  12  18
HETATM   18  O   UNL     1     -18.289 -11.884  -3.333  1.00  0.00    -0.393 OA
HETATM   19  H   UNL     1     -18.871 -12.655  -3.557  1.00  0.00     0.210 HD
ENDBRANCH  12  18
ENDBRANCH  11  12
ENDBRANCH   8  11
ENDBRANCH   7   8
ENDBRANCH   6   7
ENDBRANCH   5   6
ENDBRANCH   3   5
BRANCH   1  20
HETATM   20  C   UNL     1     -20.512  -6.164  -5.487  1.00  0.00     0.103 C 
BRANCH  20  21
HETATM   21  C   UNL     1     -20.113  -4.718  -5.739  1.00  0.00     0.009 C 
BRANCH  21  22
HETATM   22  C   UNL     1     -20.917  -4.107  -6.878  1.00  0.00     0.000 C 
BRANCH  22  23
HETATM   23  C   UNL     1     -20.626  -4.866  -8.166  1.00  0.00     0.000 C 
BRANCH  23  24
HETATM   24  C   UNL     1     -20.436  -3.909  -9.333  1.00  0.00     0.000 C 
BRANCH  24  25
HETATM   25  C   UNL     1     -20.160  -4.687 -10.614  1.00  0.00     0.000 C 
BRANCH  25  26
HETATM   26  C   UNL     1     -21.170  -4.316 -11.692  1.00  0.00     0.000 C 
BRANCH  26  27
HETATM   27  C   UNL     1     -21.794  -2.956 -11.405  1.00  0.00     0.000 C 
BRANCH  27  28
HETATM   28  C   UNL     1     -23.313  -3.026 -11.532  1.00  0.00    -0.000 C 
BRANCH  28  29
HETATM   29  C   UNL     1     -23.869  -4.249 -10.809  1.00  0.00    -0.005 C 
HETATM   30  C   UNL     1     -24.153  -3.936  -9.351  1.00  0.00     0.005 C 
ENDBRANCH  28  29
ENDBRANCH  27  28
ENDBRANCH  26  27
ENDBRANCH  25  26
ENDBRANCH  24  25
ENDBRANCH  23  24
ENDBRANCH  22  23
ENDBRANCH  21  22
ENDBRANCH  20  21
ENDBRANCH   1  20
TORSDOF 19
BEGIN_RES ARG D 557
REMARK  4 active torsions:
REMARK  status: ('A' for Active; 'I' for Inactive)
REMARK    1  A    between atoms: CA   and  CB  
REMARK    2  A    between atoms: CB   and  CG  
REMARK    3  A    between atoms: CG   and  CD  
REMARK    4  A    between atoms: CD   and  NE  
REMARK       I    between atoms: NE   and  CZ  
REMARK       I    between atoms: CZ   and  NH1 
REMARK       I    between atoms: CZ   and  NH2 
ROOT
ATOM      1  CA  ARG D 557     -26.217   2.705 -17.014  1.00 35.49     0.159 C 
ENDROOT
BRANCH   1   2
ATOM      2  CB  ARG D 557     -26.789   1.319 -17.183  1.00 35.49     0.034 C 
BRANCH   2   3
ATOM      3  CG  ARG D 557     -28.151   1.101 -16.682  1.00 35.49     0.027 C 
BRANCH   3   4
ATOM      4  CD  ARG D 557     -28.790  -0.092 -17.283  1.00 35.49     0.116 C 
BRANCH   4   5
ATOM      5  NE  ARG D 557     -28.168  -1.316 -16.849  1.00 35.49    -0.212 N 
ATOM      6  CZ  ARG D 557     -28.647  -2.527 -17.031  1.00 35.49     0.666 C 
ATOM      7  NH1 ARG D 557     -29.797  -2.751 -17.640  1.00 35.49    -0.235 N 
ATOM      8  NH2 ARG D 557     -27.938  -3.525 -16.589  1.00 35.49    -0.235 N 
ATOM      9  HH  ARG D 557     -30.278  -2.109 -17.940  1.00 35.49     0.174 HD
ATOM     10  HH  ARG D 557     -30.057  -3.562 -17.732  1.00 35.49     0.174 HD
ATOM     11  HH  ARG D 557     -27.196  -3.350 -16.206  1.00 35.49     0.174 HD
ATOM     12  HH  ARG D 557     -28.212  -4.321 -16.691  1.00 35.49     0.174 HD
ATOM     13  HE  ARG D 557     -27.459  -1.261 -16.384  1.00 35.49     0.178 HD
ENDBRANCH   4   5
ENDBRANCH   3   4
ENDBRANCH   2   3
ENDBRANCH   1   2
END_RES ARG D 557
BEGIN_RES GLU D 570
REMARK  3 active torsions:
REMARK  status: ('A' for Active; 'I' for Inactive)
REMARK    5  A    between atoms: CA   and  CB  
REMARK    6  A    between atoms: CB   and  CG  
REMARK    7  A    between atoms: CG   and  CD  
ROOT
ATOM     14  CA  GLU D 570     -18.033  -6.348 -13.375  1.00 32.92     0.160 C 
ENDROOT
BRANCH  14  15
ATOM     15  CB  GLU D 570     -19.500  -6.345 -13.794  1.00 32.92     0.043 C 
BRANCH  15  16
ATOM     16  CG  GLU D 570     -19.797  -6.401 -15.249  1.00 32.92     0.100 C 
BRANCH  16  17
ATOM     17  CD  GLU D 570     -21.166  -6.964 -15.550  1.00 32.92     0.185 C 
ATOM     18  OE1 GLU D 570     -22.145  -6.555 -14.897  1.00 32.92    -0.647 OA
ATOM     19  OE2 GLU D 570     -21.258  -7.835 -16.437  1.00 32.92    -0.647 OA
ENDBRANCH  16  17
ENDBRANCH  15  16
ENDBRANCH  14  15
END_RES GLU D 570
ENDMDL
MODEL 7
REMARK VINA RESULT:      -6.6      4.016      9.160
REMARK  19 active torsions:
REMARK  status: ('A' for Active; 'I' for Inactive)
REMARK    1  A    between atoms: C_2  and  C_3 
REMARK    2  A    between atoms: C_3  and  C_4 
REMARK    3  A    between atoms: C_4  and  C_5 
REMARK    4  A    between atoms: C_5  and  C_6 
REMARK    5  A    between atoms: C_6  and  C_7 
REMARK    6  A    between atoms: C_7  and  C_8 
REMARK    7  A    between atoms: C_8  and  C_9 
REMARK    8  A    between atoms: C_9  and  C_10 
REMARK    9  A    between atoms: C_10  and  C_11 
REMARK   10  A    between atoms: C_11  and  C_12 
REMARK       I    between atoms: C_12  and  N_14 
REMARK   11  A    between atoms: N_14  and  C_15 
REMARK   12  A    between atoms: C_15  and  C_16 
REMARK   13  A    between atoms: C_16  and  C_17 
REMARK   14  A    between atoms: C_17  and  N_18 
REMARK   15  A    between atoms: N_18  and  C_21 
REMARK   16  A    between atoms: C_21  and  C_22 
REMARK   17  A    between atoms: C_22  and  C_23 
REMARK   18  A    between atoms: C_22  and  O_28 
REMARK   19  A    between atoms: C_23  and  S_24 
ROOT
HETATM    1  C   UNL     1     -21.805  -6.657  -2.186  1.00  0.00     0.217 C 
HETATM    2  O   UNL     1     -22.438  -5.723  -1.720  1.00  0.00    -0.274 OA
HETATM    3  N   UNL     1     -21.803  -7.911  -1.619  1.00  0.00    -0.361 N 
HETATM    4  H   UNL     1     -21.248  -8.665  -2.030  1.00  0.00     0.162 HD
ENDROOT
BRANCH   3   5
HETATM    5  C   UNL     1     -22.469  -8.121  -0.355  1.00  0.00     0.124 C 
BRANCH   5   6
HETATM    6  C   UNL     1     -22.431  -9.591   0.043  1.00  0.00     0.047 C 
BRANCH   6   7
HETATM    7  C   UNL     1     -20.980 -10.055   0.159  1.00  0.00     0.238 C 
BRANCH   7   8
HETATM    8  N   UNL     1     -20.740 -11.433  -0.492  1.00  0.00    -0.072 N 
HETATM    9  C   UNL     1     -19.248 -11.486  -0.843  1.00  0.00     0.272 C 
HETATM   10  C   UNL     1     -21.153 -12.542   0.464  1.00  0.00     0.272 C 
BRANCH   8  11
HETATM   11  C   UNL     1     -21.488 -11.593  -1.858  1.00  0.00     0.269 C 
BRANCH  11  12
HETATM   12  C   UNL     1     -20.840 -11.017  -3.141  1.00  0.00     0.160 C 
BRANCH  12  13
HETATM   13  C   UNL     1     -20.366 -11.959  -4.228  1.00  0.00     0.198 C 
BRANCH  13  14
HETATM   14  S   UNL     1     -21.443 -12.016  -5.622  1.00  0.00     0.104 S 
HETATM   15  O   UNL     1     -21.169 -10.729  -6.246  1.00  0.00    -0.595 OA
HETATM   16  O   UNL     1     -20.989 -13.227  -6.292  1.00  0.00    -0.595 OA
HETATM   17  O   UNL     1     -22.770 -12.135  -5.032  1.00  0.00    -0.595 OA
ENDBRANCH  13  14
ENDBRANCH  12  13
BRANCH  12  18
HETATM   18  O   UNL     1     -21.728 -10.020  -3.685  1.00  0.00    -0.393 OA
HETATM   19  H   UNL     1     -21.711  -9.238  -3.074  1.00  0.00     0.210 HD
ENDBRANCH  12  18
ENDBRANCH  11  12
ENDBRANCH   8  11
ENDBRANCH   7   8
ENDBRANCH   6   7
ENDBRANCH   5   6
ENDBRANCH   3   5
BRANCH   1  20
HETATM   20  C   UNL     1     -21.029  -6.569  -3.478  1.00  0.00     0.103 C 
BRANCH  20  21
HETATM   21  C   UNL     1     -21.996  -6.555  -4.652  1.00  0.00     0.009 C 
BRANCH  21  22
HETATM   22  C   UNL     1     -21.269  -6.322  -5.970  1.00  0.00     0.000 C 
BRANCH  22  23
HETATM   23  C   UNL     1     -20.607  -4.951  -5.946  1.00  0.00     0.000 C 
BRANCH  23  24
HETATM   24  C   UNL     1     -19.409  -4.907  -6.882  1.00  0.00     0.000 C 
BRANCH  24  25
HETATM   25  C   UNL     1     -19.673  -3.944  -8.034  1.00  0.00     0.000 C 
BRANCH  25  26
HETATM   26  C   UNL     1     -20.283  -4.684  -9.217  1.00  0.00     0.000 C 
BRANCH  26  27
HETATM   27  C   UNL     1     -21.452  -3.899  -9.802  1.00  0.00     0.000 C 
BRANCH  27  28
HETATM   28  C   UNL     1     -22.562  -3.741  -8.767  1.00  0.00    -0.000 C 
BRANCH  28  29
HETATM   29  C   UNL     1     -23.939  -3.811  -9.422  1.00  0.00    -0.005 C 
HETATM   30  C   UNL     1     -23.998  -4.931 -10.445  1.00  0.00     0.005 C 
ENDBRANCH  28  29
ENDBRANCH  27  28
ENDBRANCH  26  27
ENDBRANCH  25  26
ENDBRANCH  24  25
ENDBRANCH  23  24
ENDBRANCH  22  23
ENDBRANCH  21  22
ENDBRANCH  20  21
ENDBRANCH   1  20
TORSDOF 19
BEGIN_RES ARG D 557
REMARK  4 active torsions:
REMARK  status: ('A' for Active; 'I' for Inactive)
REMARK    1  A    between atoms: CA   and  CB  
REMARK    2  A    between atoms: CB   and  CG  
REMARK    3  A    between atoms: CG   and  CD  
REMARK    4  A    between atoms: CD   and  NE  
REMARK       I    between atoms: NE   and  CZ  
REMARK       I    between atoms: CZ   and  NH1 
REMARK       I    between atoms: CZ   and  NH2 
ROOT
ATOM      1  CA  ARG D 557     -26.217   2.705 -17.014  1.00 35.49     0.159 C 
ENDROOT
BRANCH   1   2
ATOM      2  CB  ARG D 557     -26.789   1.319 -17.183  1.00 35.49     0.034 C 
BRANCH   2   3
ATOM      3  CG  ARG D 557     -25.835   0.203 -17.160  1.00 35.49     0.027 C 
BRANCH   3   4
ATOM      4  CD  ARG D 557     -24.748   0.410 -16.176  1.00 35.49     0.116 C 
BRANCH   4   5
ATOM      5  NE  ARG D 557     -24.891  -0.440 -15.023  1.00 35.49    -0.212 N 
ATOM      6  CZ  ARG D 557     -24.068  -1.402 -14.672  1.00 35.49     0.666 C 
ATOM      7  NH1 ARG D 557     -22.993  -1.708 -15.376  1.00 35.49    -0.235 N 
ATOM      8  NH2 ARG D 557     -24.342  -2.059 -13.583  1.00 35.49    -0.235 N 
ATOM      9  HH  ARG D 557     -22.792  -1.288 -16.095  1.00 35.49     0.174 HD
ATOM     10  HH  ARG D 557     -22.492  -2.344 -15.097  1.00 35.49     0.174 HD
ATOM     11  HH  ARG D 557     -25.039  -1.834 -13.145  1.00 35.49     0.174 HD
ATOM     12  HH  ARG D 557     -23.832  -2.684 -13.322  1.00 35.49     0.174 HD
ATOM     13  HE  ARG D 557     -25.595  -0.360 -14.553  1.00 35.49     0.178 HD
ENDBRANCH   4   5
ENDBRANCH   3   4
ENDBRANCH   2   3
ENDBRANCH   1   2
END_RES ARG D 557
BEGIN_RES GLU D 570
REMARK  3 active torsions:
REMARK  status: ('A' for Active; 'I' for Inactive)
REMARK    5  A    between atoms: CA   and  CB  
REMARK    6  A    between atoms: CB   and  CG  
REMARK    7  A    between atoms: CG   and  CD  
ROOT
ATOM     14  CA  GLU D 570     -18.033  -6.348 -13.375  1.00 32.92     0.160 C 
ENDROOT
BRANCH  14  15
ATOM     15  CB  GLU D 570     -19.500  -6.345 -13.794  1.00 32.92     0.043 C 
BRANCH  15  16
ATOM     16  CG  GLU D 570     -20.435  -5.501 -13.006  1.00 32.92     0.100 C 
BRANCH  16  17
ATOM     17  CD  GLU D 570     -21.601  -4.993 -13.822  1.00 32.92     0.185 C 
ATOM     18  OE1 GLU D 570     -21.814  -5.488 -14.946  1.00 32.92    -0.647 OA
ATOM     19  OE2 GLU D 570     -22.299  -4.080 -13.340  1.00 32.92    -0.647 OA
ENDBRANCH  16  17
ENDBRANCH  15  16
ENDBRANCH  14  15
END_RES GLU D 570
ENDMDL
MODEL 8
REMARK VINA RESULT:      -6.6      1.890      3.460
REMARK  19 active torsions:
REMARK  status: ('A' for Active; 'I' for Inactive)
REMARK    1  A    between atoms: C_2  and  C_3 
REMARK    2  A    between atoms: C_3  and  C_4 
REMARK    3  A    between atoms: C_4  and  C_5 
REMARK    4  A    between atoms: C_5  and  C_6 
REMARK    5  A    between atoms: C_6  and  C_7 
REMARK    6  A    between atoms: C_7  and  C_8 
REMARK    7  A    between atoms: C_8  and  C_9 
REMARK    8  A    between atoms: C_9  and  C_10 
REMARK    9  A    between atoms: C_10  and  C_11 
REMARK   10  A    between atoms: C_11  and  C_12 
REMARK       I    between atoms: C_12  and  N_14 
REMARK   11  A    between atoms: N_14  and  C_15 
REMARK   12  A    between atoms: C_15  and  C_16 
REMARK   13  A    between atoms: C_16  and  C_17 
REMARK   14  A    between atoms: C_17  and  N_18 
REMARK   15  A    between atoms: N_18  and  C_21 
REMARK   16  A    between atoms: C_21  and  C_22 
REMARK   17  A    between atoms: C_22  and  C_23 
REMARK   18  A    between atoms: C_22  and  O_28 
REMARK   19  A    between atoms: C_23  and  S_24 
ROOT
HETATM    1  C   UNL     1     -20.787  -9.763  -4.850  1.00  0.00     0.217 C 
HETATM    2  O   UNL     1     -20.116  -9.938  -5.855  1.00  0.00    -0.274 OA
HETATM    3  N   UNL     1     -21.077  -8.512  -4.358  1.00  0.00    -0.361 N 
HETATM    4  H   UNL     1     -21.629  -8.404  -3.504  1.00  0.00     0.162 HD
ENDROOT
BRANCH   3   5
HETATM    5  C   UNL     1     -20.472  -7.350  -4.968  1.00  0.00     0.124 C 
BRANCH   5   6
HETATM    6  C   UNL     1     -21.524  -6.482  -5.647  1.00  0.00     0.047 C 
BRANCH   6   7
HETATM    7  C   UNL     1     -21.145  -6.266  -7.111  1.00  0.00     0.238 C 
BRANCH   7   8
HETATM    8  N   UNL     1     -21.403  -4.821  -7.588  1.00  0.00    -0.072 N 
HETATM    9  C   UNL     1     -20.965  -3.907  -6.437  1.00  0.00     0.272 C 
HETATM   10  C   UNL     1     -20.635  -4.550  -8.873  1.00  0.00     0.272 C 
BRANCH   8  11
HETATM   11  C   UNL     1     -22.925  -4.517  -7.796  1.00  0.00     0.269 C 
BRANCH  11  12
HETATM   12  C   UNL     1     -23.385  -3.869  -9.124  1.00  0.00     0.160 C 
BRANCH  12  13
HETATM   13  C   UNL     1     -23.632  -4.743 -10.337  1.00  0.00     0.198 C 
BRANCH  13  14
HETATM   14  S   UNL     1     -23.712  -3.836 -11.846  1.00  0.00     0.104 S 
HETATM   15  O   UNL     1     -23.602  -4.907 -12.828  1.00  0.00    -0.595 OA
HETATM   16  O   UNL     1     -24.988  -3.148 -11.706  1.00  0.00    -0.595 OA
HETATM   17  O   UNL     1     -22.557  -2.950 -11.782  1.00  0.00    -0.595 OA
ENDBRANCH  13  14
ENDBRANCH  12  13
BRANCH  12  18
HETATM   18  O   UNL     1     -24.538  -3.047  -8.848  1.00  0.00    -0.393 OA
HETATM   19  H   UNL     1     -24.792  -2.594  -9.693  1.00  0.00     0.210 HD
ENDBRANCH  12  18
ENDBRANCH  11  12
ENDBRANCH   8  11
ENDBRANCH   7   8
ENDBRANCH   6   7
ENDBRANCH   5   6
ENDBRANCH   3   5
BRANCH   1  20
HETATM   20  C   UNL     1     -21.444 -10.887  -4.086  1.00  0.00     0.103 C 
BRANCH  20  21
HETATM   21  C   UNL     1     -22.618 -10.341  -3.287  1.00  0.00     0.009 C 
BRANCH  21  22
HETATM   22  C   UNL     1     -23.403 -11.458  -2.614  1.00  0.00     0.000 C 
BRANCH  22  23
HETATM   23  C   UNL     1     -23.533 -11.161  -1.126  1.00  0.00     0.000 C 
BRANCH  23  24
HETATM   24  C   UNL     1     -22.484 -11.916  -0.325  1.00  0.00     0.000 C 
BRANCH  24  25
HETATM   25  C   UNL     1     -21.637 -10.942   0.486  1.00  0.00     0.000 C 
BRANCH  25  26
HETATM   26  C   UNL     1     -20.511 -10.375  -0.369  1.00  0.00     0.000 C 
BRANCH  26  27
HETATM   27  C   UNL     1     -20.710  -8.882  -0.606  1.00  0.00     0.000 C 
BRANCH  27  28
HETATM   28  C   UNL     1     -21.638  -8.291   0.452  1.00  0.00    -0.000 C 
BRANCH  28  29
HETATM   29  C   UNL     1     -22.735  -7.446  -0.191  1.00  0.00    -0.005 C 
HETATM   30  C   UNL     1     -22.209  -6.707  -1.409  1.00  0.00     0.005 C 
ENDBRANCH  28  29
ENDBRANCH  27  28
ENDBRANCH  26  27
ENDBRANCH  25  26
ENDBRANCH  24  25
ENDBRANCH  23  24
ENDBRANCH  22  23
ENDBRANCH  21  22
ENDBRANCH  20  21
ENDBRANCH   1  20
TORSDOF 19
BEGIN_RES ARG D 557
REMARK  4 active torsions:
REMARK  status: ('A' for Active; 'I' for Inactive)
REMARK    1  A    between atoms: CA   and  CB  
REMARK    2  A    between atoms: CB   and  CG  
REMARK    3  A    between atoms: CG   and  CD  
REMARK    4  A    between atoms: CD   and  NE  
REMARK       I    between atoms: NE   and  CZ  
REMARK       I    between atoms: CZ   and  NH1 
REMARK       I    between atoms: CZ   and  NH2 
ROOT
ATOM      1  CA  ARG D 557     -26.217   2.705 -17.014  1.00 35.49     0.159 C 
ENDROOT
BRANCH   1   2
ATOM      2  CB  ARG D 557     -26.789   1.319 -17.183  1.00 35.49     0.034 C 
BRANCH   2   3
ATOM      3  CG  ARG D 557     -28.237   1.224 -17.402  1.00 35.49     0.027 C 
BRANCH   3   4
ATOM      4  CD  ARG D 557     -28.889   0.279 -16.467  1.00 35.49     0.116 C 
BRANCH   4   5
ATOM      5  NE  ARG D 557     -29.264  -0.951 -17.114  1.00 35.49    -0.212 N 
ATOM      6  CZ  ARG D 557     -28.628  -2.097 -17.012  1.00 35.49     0.666 C 
ATOM      7  NH1 ARG D 557     -27.531  -2.238 -16.291  1.00 35.49    -0.235 N 
ATOM      8  NH2 ARG D 557     -29.122  -3.117 -17.651  1.00 35.49    -0.235 N 
ATOM      9  HH  ARG D 557     -27.189  -1.580 -15.860  1.00 35.49     0.174 HD
ATOM     10  HH  ARG D 557     -27.160  -3.010 -16.260  1.00 35.49     0.174 HD
ATOM     11  HH  ARG D 557     -29.836  -2.998 -18.103  1.00 35.49     0.174 HD
ATOM     12  HH  ARG D 557     -28.742  -3.873 -17.607  1.00 35.49     0.174 HD
ATOM     13  HE  ARG D 557     -29.918  -0.934 -17.656  1.00 35.49     0.178 HD
ENDBRANCH   4   5
ENDBRANCH   3   4
ENDBRANCH   2   3
ENDBRANCH   1   2
END_RES ARG D 557
BEGIN_RES GLU D 570
REMARK  3 active torsions:
REMARK  status: ('A' for Active; 'I' for Inactive)
REMARK    5  A    between atoms: CA   and  CB  
REMARK    6  A    between atoms: CB   and  CG  
REMARK    7  A    between atoms: CG   and  CD  
ROOT
ATOM     14  CA  GLU D 570     -18.033  -6.348 -13.375  1.00 32.92     0.160 C 
ENDROOT
BRANCH  14  15
ATOM     15  CB  GLU D 570     -19.500  -6.345 -13.794  1.00 32.92     0.043 C 
BRANCH  15  16
ATOM     16  CG  GLU D 570     -20.084  -7.633 -14.250  1.00 32.92     0.100 C 
BRANCH  16  17
ATOM     17  CD  GLU D 570     -20.798  -7.519 -15.577  1.00 32.92     0.185 C 
ATOM     18  OE1 GLU D 570     -21.177  -8.558 -16.151  1.00 32.92    -0.647 OA
ATOM     19  OE2 GLU D 570     -20.965  -6.380 -16.055  1.00 32.92    -0.647 OA
ENDBRANCH  16  17
ENDBRANCH  15  16
ENDBRANCH  14  15
END_RES GLU D 570
ENDMDL
MODEL 9
REMARK VINA RESULT:      -6.5      8.393     13.780
REMARK  19 active torsions:
REMARK  status: ('A' for Active; 'I' for Inactive)
REMARK    1  A    between atoms: C_2  and  C_3 
REMARK    2  A    between atoms: C_3  and  C_4 
REMARK    3  A    between atoms: C_4  and  C_5 
REMARK    4  A    between atoms: C_5  and  C_6 
REMARK    5  A    between atoms: C_6  and  C_7 
REMARK    6  A    between atoms: C_7  and  C_8 
REMARK    7  A    between atoms: C_8  and  C_9 
REMARK    8  A    between atoms: C_9  and  C_10 
REMARK    9  A    between atoms: C_10  and  C_11 
REMARK   10  A    between atoms: C_11  and  C_12 
REMARK       I    between atoms: C_12  and  N_14 
REMARK   11  A    between atoms: N_14  and  C_15 
REMARK   12  A    between atoms: C_15  and  C_16 
REMARK   13  A    between atoms: C_16  and  C_17 
REMARK   14  A    between atoms: C_17  and  N_18 
REMARK   15  A    between atoms: N_18  and  C_21 
REMARK   16  A    between atoms: C_21  and  C_22 
REMARK   17  A    between atoms: C_22  and  C_23 
REMARK   18  A    between atoms: C_22  and  O_28 
REMARK   19  A    between atoms: C_23  and  S_24 
ROOT
HETATM    1  C   UNL     1     -32.023  -3.918 -17.008  1.00  0.00     0.217 C 
HETATM    2  O   UNL     1     -32.512  -3.018 -17.673  1.00  0.00    -0.274 OA
HETATM    3  N   UNL     1     -32.722  -4.578 -16.024  1.00  0.00    -0.361 N 
HETATM    4  H   UNL     1     -32.274  -5.316 -15.476  1.00  0.00     0.162 HD
ENDROOT
BRANCH   3   5
HETATM    5  C   UNL     1     -34.045  -4.124 -15.663  1.00  0.00     0.124 C 
BRANCH   5   6
HETATM    6  C   UNL     1     -34.358  -4.457 -14.210  1.00  0.00     0.047 C 
BRANCH   6   7
HETATM    7  C   UNL     1     -33.626  -3.482 -13.290  1.00  0.00     0.238 C 
BRANCH   7   8
HETATM    8  N   UNL     1     -34.356  -3.264 -11.948  1.00  0.00    -0.072 N 
HETATM    9  C   UNL     1     -35.118  -4.563 -11.661  1.00  0.00     0.272 C 
HETATM   10  C   UNL     1     -33.353  -2.924 -10.856  1.00  0.00     0.272 C 
BRANCH   8  11
HETATM   11  C   UNL     1     -35.456  -2.154 -12.033  1.00  0.00     0.269 C 
BRANCH  11  12
HETATM   12  C   UNL     1     -35.272  -0.991 -13.039  1.00  0.00     0.160 C 
BRANCH  12  13
HETATM   13  C   UNL     1     -36.446  -0.538 -13.883  1.00  0.00     0.198 C 
BRANCH  13  14
HETATM   14  S   UNL     1     -36.020  -0.235 -15.567  1.00  0.00     0.104 S 
HETATM   15  O   UNL     1     -36.742   1.003 -15.824  1.00  0.00    -0.595 OA
HETATM   16  O   UNL     1     -34.566  -0.193 -15.496  1.00  0.00    -0.595 OA
HETATM   17  O   UNL     1     -36.539  -1.400 -16.273  1.00  0.00    -0.595 OA
ENDBRANCH  13  14
ENDBRANCH  12  13
BRANCH  12  18
HETATM   18  O   UNL     1     -34.693   0.126 -12.334  1.00  0.00    -0.393 OA
HETATM   19  H   UNL     1     -34.694   0.903 -12.951  1.00  0.00     0.210 HD
ENDBRANCH  12  18
ENDBRANCH  11  12
ENDBRANCH   8  11
ENDBRANCH   7   8
ENDBRANCH   6   7
ENDBRANCH   5   6
ENDBRANCH   3   5
BRANCH   1  20
HETATM   20  C   UNL     1     -30.637  -4.464 -17.245  1.00  0.00     0.103 C 
BRANCH  20  21
HETATM   21  C   UNL     1     -30.672  -5.984 -17.185  1.00  0.00     0.009 C 
BRANCH  21  22
HETATM   22  C   UNL     1     -29.611  -6.602 -18.085  1.00  0.00     0.000 C 
BRANCH  22  23
HETATM   23  C   UNL     1     -28.602  -5.534 -18.486  1.00  0.00     0.000 C 
BRANCH  23  24
HETATM   24  C   UNL     1     -27.204  -6.119 -18.607  1.00  0.00     0.000 C 
BRANCH  24  25
HETATM   25  C   UNL     1     -27.025  -6.783 -19.967  1.00  0.00     0.000 C 
BRANCH  25  26
HETATM   26  C   UNL     1     -25.578  -6.673 -20.428  1.00  0.00     0.000 C 
BRANCH  26  27
HETATM   27  C   UNL     1     -25.177  -7.894 -21.249  1.00  0.00     0.000 C 
BRANCH  27  28
HETATM   28  C   UNL     1     -24.190  -7.501 -22.345  1.00  0.00    -0.000 C 
BRANCH  28  29
HETATM   29  C   UNL     1     -23.115  -8.568 -22.525  1.00  0.00    -0.005 C 
HETATM   30  C   UNL     1     -22.233  -8.666 -21.292  1.00  0.00     0.005 C 
ENDBRANCH  28  29
ENDBRANCH  27  28
ENDBRANCH  26  27
ENDBRANCH  25  26
ENDBRANCH  24  25
ENDBRANCH  23  24
ENDBRANCH  22  23
ENDBRANCH  21  22
ENDBRANCH  20  21
ENDBRANCH   1  20
TORSDOF 19
BEGIN_RES ARG D 557
REMARK  4 active torsions:
REMARK  status: ('A' for Active; 'I' for Inactive)
REMARK    1  A    between atoms: CA   and  CB  
REMARK    2  A    between atoms: CB   and  CG  
REMARK    3  A    between atoms: CG   and  CD  
REMARK    4  A    between atoms: CD   and  NE  
REMARK       I    between atoms: NE   and  CZ  
REMARK       I    between atoms: CZ   and  NH1 
REMARK       I    between atoms: CZ   and  NH2 
ROOT
ATOM      1  CA  ARG D 557     -26.217   2.705 -17.014  1.00 35.49     0.159 C 
ENDROOT
BRANCH   1   2
ATOM      2  CB  ARG D 557     -26.789   1.319 -17.183  1.00 35.49     0.034 C 
BRANCH   2   3
ATOM      3  CG  ARG D 557     -25.950   0.199 -16.738  1.00 35.49     0.027 C 
BRANCH   3   4
ATOM      4  CD  ARG D 557     -26.741  -0.881 -16.104  1.00 35.49     0.116 C 
BRANCH   4   5
ATOM      5  NE  ARG D 557     -25.963  -1.640 -15.161  1.00 35.49    -0.212 N 
ATOM      6  CZ  ARG D 557     -26.070  -2.931 -14.940  1.00 35.49     0.666 C 
ATOM      7  NH1 ARG D 557     -26.946  -3.689 -15.575  1.00 35.49    -0.235 N 
ATOM      8  NH2 ARG D 557     -25.267  -3.459 -14.063  1.00 35.49    -0.235 N 
ATOM      9  HH  ARG D 557     -27.483  -3.363 -16.158  1.00 35.49     0.174 HD
ATOM     10  HH  ARG D 557     -26.969  -4.525 -15.391  1.00 35.49     0.174 HD
ATOM     11  HH  ARG D 557     -24.707  -2.947 -13.674  1.00 35.49     0.174 HD
ATOM     12  HH  ARG D 557     -25.304  -4.290 -13.896  1.00 35.49     0.174 HD
ATOM     13  HE  ARG D 557     -25.424  -1.218 -14.656  1.00 35.49     0.178 HD
ENDBRANCH   4   5
ENDBRANCH   3   4
ENDBRANCH   2   3
ENDBRANCH   1   2
END_RES ARG D 557
BEGIN_RES GLU D 570
REMARK  3 active torsions:
REMARK  status: ('A' for Active; 'I' for Inactive)
REMARK    5  A    between atoms: CA   and  CB  
REMARK    6  A    between atoms: CB   and  CG  
REMARK    7  A    between atoms: CG   and  CD  
ROOT
ATOM     14  CA  GLU D 570     -18.033  -6.348 -13.375  1.00 32.92     0.160 C 
ENDROOT
BRANCH  14  15
ATOM     15  CB  GLU D 570     -19.500  -6.345 -13.794  1.00 32.92     0.043 C 
BRANCH  15  16
ATOM     16  CG  GLU D 570     -20.100  -7.644 -14.194  1.00 32.92     0.100 C 
BRANCH  16  17
ATOM     17  CD  GLU D 570     -20.882  -7.559 -15.485  1.00 32.92     0.185 C 
ATOM     18  OE1 GLU D 570     -21.101  -8.603 -16.129  1.00 32.92    -0.647 OA
ATOM     19  OE2 GLU D 570     -21.265  -6.435 -15.864  1.00 32.92    -0.647 OA
ENDBRANCH  16  17
ENDBRANCH  15  16
ENDBRANCH  14  15
END_RES GLU D 570
ENDMDL
