MODEL 1
REMARK VINA RESULT:      -6.3      0.000      0.000
REMARK  2 active torsions:
REMARK  status: ('A' for Active; 'I' for Inactive)
REMARK    1  A    between atoms: C_3  and  C_8 
REMARK    2  A    between atoms: C_8  and  O_10 
ROOT
HETATM    1  C   UNL     1     -20.615  -4.397  -9.848  1.00  0.00     0.018 A 
HETATM    2  C   UNL     1     -21.929  -4.273  -9.398  1.00  0.00     0.021 A 
HETATM    3  C   UNL     1     -22.877  -3.663 -10.223  1.00  0.00     0.053 A 
HETATM    4  C   UNL     1     -22.457  -3.178 -11.455  1.00  0.00     0.105 A 
HETATM    5  N   UNL     1     -21.187  -3.293 -11.916  1.00  0.00    -0.374 N 
ATOM      6  HN  UNL     1     -20.918  -2.940 -12.834  1.00  0.00     0.164 HD
HETATM    7  C   UNL     1     -20.295  -3.899 -11.102  1.00  0.00     0.087 A 
ENDROOT
BRANCH   3   8
HETATM    8  C   UNL     1     -24.288  -3.461  -9.838  1.00  0.00     0.177 C 
HETATM    9  O   UNL     1     -25.155  -3.172 -10.643  1.00  0.00    -0.646 OA
BRANCH   8  10
HETATM   10  O   UNL     1     -24.538  -3.659  -8.527  1.00  0.00    -0.773 OA
HETATM   11  H   UNL     1     -24.534  -2.858  -7.970  1.00  0.00     0.167 HD
ENDBRANCH   8  10
ENDBRANCH   3   8
TORSDOF 2
BEGIN_RES ARG D 557
REMARK  4 active torsions:
REMARK  status: ('A' for Active; 'I' for Inactive)
REMARK    1  A    between atoms: CA   and  CB  
REMARK    2  A    between atoms: CB   and  CG  
REMARK    3  A    between atoms: CG   and  CD  
REMARK    4  A    between atoms: CD   and  NE  
REMARK       I    between atoms: NE   and  CZ  
REMARK       I    between atoms: CZ   and  NH1 
REMARK       I    between atoms: CZ   and  NH2 
ROOT
ATOM      1  CA  ARG D 557     -26.217   2.705 -17.014  1.00 35.49     0.159 C 
ENDROOT
BRANCH   1   2
ATOM      2  CB  ARG D 557     -26.789   1.319 -17.183  1.00 35.49     0.034 C 
BRANCH   2   3
ATOM      3  CG  ARG D 557     -25.940   0.198 -16.761  1.00 35.49     0.027 C 
BRANCH   3   4
ATOM      4  CD  ARG D 557     -26.714  -0.877 -16.099  1.00 35.49     0.116 C 
BRANCH   4   5
ATOM      5  NE  ARG D 557     -26.000  -1.456 -14.992  1.00 35.49    -0.212 N 
ATOM      6  CZ  ARG D 557     -25.986  -2.730 -14.668  1.00 35.49     0.666 C 
ATOM      7  NH1 ARG D 557     -26.662  -3.641 -15.344  1.00 35.49    -0.235 N 
ATOM      8  NH2 ARG D 557     -25.265  -3.081 -13.644  1.00 35.49    -0.235 N 
ATOM      9  HH  ARG D 557     -27.142  -3.432 -16.023  1.00 35.49     0.174 HD
ATOM     10  HH  ARG D 557     -26.613  -4.457 -15.088  1.00 35.49     0.174 HD
ATOM     11  HH  ARG D 557     -24.832  -2.473 -13.231  1.00 35.49     0.174 HD
ATOM     12  HH  ARG D 557     -25.228  -3.895 -13.407  1.00 35.49     0.174 HD
ATOM     13  HE  ARG D 557     -25.595  -0.931 -14.460  1.00 35.49     0.178 HD
ENDBRANCH   4   5
ENDBRANCH   3   4
ENDBRANCH   2   3
ENDBRANCH   1   2
END_RES ARG D 557
BEGIN_RES GLU D 570
REMARK  3 active torsions:
REMARK  status: ('A' for Active; 'I' for Inactive)
REMARK    5  A    between atoms: CA   and  CB  
REMARK    6  A    between atoms: CB   and  CG  
REMARK    7  A    between atoms: CG   and  CD  
ROOT
ATOM     14  CA  GLU D 570     -18.033  -6.348 -13.375  1.00 32.92     0.160 C 
ENDROOT
BRANCH  14  15
ATOM     15  CB  GLU D 570     -19.500  -6.345 -13.794  1.00 32.92     0.043 C 
BRANCH  15  16
ATOM     16  CG  GLU D 570     -19.802  -6.101 -15.228  1.00 32.92     0.100 C 
BRANCH  16  17
ATOM     17  CD  GLU D 570     -21.092  -5.344 -15.438  1.00 32.92     0.185 C 
ATOM     18  OE1 GLU D 570     -21.759  -4.997 -14.445  1.00 32.92    -0.647 OA
ATOM     19  OE2 GLU D 570     -21.448  -5.109 -16.610  1.00 32.92    -0.647 OA
ENDBRANCH  16  17
ENDBRANCH  15  16
ENDBRANCH  14  15
END_RES GLU D 570
ENDMDL
MODEL 2
REMARK VINA RESULT:      -6.2      1.705      2.181
REMARK  2 active torsions:
REMARK  status: ('A' for Active; 'I' for Inactive)
REMARK    1  A    between atoms: C_3  and  C_8 
REMARK    2  A    between atoms: C_8  and  O_10 
ROOT
HETATM    1  C   UNL     1     -20.892  -4.093  -9.338  1.00  0.00     0.018 A 
HETATM    2  C   UNL     1     -22.004  -3.820 -10.135  1.00  0.00     0.021 A 
HETATM    3  C   UNL     1     -23.274  -3.820  -9.555  1.00  0.00     0.053 A 
HETATM    4  C   UNL     1     -23.377  -4.123  -8.203  1.00  0.00     0.105 A 
HETATM    5  N   UNL     1     -22.310  -4.385  -7.408  1.00  0.00    -0.374 N 
ATOM      6  HN  UNL     1     -22.422  -4.587  -6.414  1.00  0.00     0.164 HD
HETATM    7  C   UNL     1     -21.093  -4.366  -7.993  1.00  0.00     0.087 A 
ENDROOT
BRANCH   3   8
HETATM    8  C   UNL     1     -24.518  -3.564 -10.308  1.00  0.00     0.177 C 
HETATM    9  O   UNL     1     -25.506  -3.066  -9.800  1.00  0.00    -0.646 OA
BRANCH   8  10
HETATM   10  O   UNL     1     -24.453  -3.898 -11.614  1.00  0.00    -0.773 OA
HETATM   11  H   UNL     1     -24.758  -4.797 -11.836  1.00  0.00     0.167 HD
ENDBRANCH   8  10
ENDBRANCH   3   8
TORSDOF 2
BEGIN_RES ARG D 557
REMARK  4 active torsions:
REMARK  status: ('A' for Active; 'I' for Inactive)
REMARK    1  A    between atoms: CA   and  CB  
REMARK    2  A    between atoms: CB   and  CG  
REMARK    3  A    between atoms: CG   and  CD  
REMARK    4  A    between atoms: CD   and  NE  
REMARK       I    between atoms: NE   and  CZ  
REMARK       I    between atoms: CZ   and  NH1 
REMARK       I    between atoms: CZ   and  NH2 
ROOT
ATOM      1  CA  ARG D 557     -26.217   2.705 -17.014  1.00 35.49     0.159 C 
ENDROOT
BRANCH   1   2
ATOM      2  CB  ARG D 557     -26.789   1.319 -17.183  1.00 35.49     0.034 C 
BRANCH   2   3
ATOM      3  CG  ARG D 557     -25.854   0.196 -17.041  1.00 35.49     0.027 C 
BRANCH   3   4
ATOM      4  CD  ARG D 557     -26.212  -0.698 -15.917  1.00 35.49     0.116 C 
BRANCH   4   5
ATOM      5  NE  ARG D 557     -25.163  -0.782 -14.936  1.00 35.49    -0.212 N 
ATOM      6  CZ  ARG D 557     -24.748  -1.882 -14.346  1.00 35.49     0.666 C 
ATOM      7  NH1 ARG D 557     -25.282  -3.063 -14.594  1.00 35.49    -0.235 N 
ATOM      8  NH2 ARG D 557     -23.769  -1.774 -13.496  1.00 35.49    -0.235 N 
ATOM      9  HH  ARG D 557     -25.926  -3.157 -15.152  1.00 35.49     0.174 HD
ATOM     10  HH  ARG D 557     -24.969  -3.746 -14.182  1.00 35.49     0.174 HD
ATOM     11  HH  ARG D 557     -23.439  -1.000 -13.361  1.00 35.49     0.174 HD
ATOM     12  HH  ARG D 557     -23.472  -2.462 -13.099  1.00 35.49     0.174 HD
ATOM     13  HE  ARG D 557     -24.812  -0.057 -14.663  1.00 35.49     0.178 HD
ENDBRANCH   4   5
ENDBRANCH   3   4
ENDBRANCH   2   3
ENDBRANCH   1   2
END_RES ARG D 557
BEGIN_RES GLU D 570
REMARK  3 active torsions:
REMARK  status: ('A' for Active; 'I' for Inactive)
REMARK    5  A    between atoms: CA   and  CB  
REMARK    6  A    between atoms: CB   and  CG  
REMARK    7  A    between atoms: CG   and  CD  
ROOT
ATOM     14  CA  GLU D 570     -18.033  -6.348 -13.375  1.00 32.92     0.160 C 
ENDROOT
BRANCH  14  15
ATOM     15  CB  GLU D 570     -19.500  -6.345 -13.794  1.00 32.92     0.043 C 
BRANCH  15  16
ATOM     16  CG  GLU D 570     -20.432  -5.486 -13.018  1.00 32.92     0.100 C 
BRANCH  16  17
ATOM     17  CD  GLU D 570     -21.759  -5.282 -13.710  1.00 32.92     0.185 C 
ATOM     18  OE1 GLU D 570     -22.241  -6.214 -14.383  1.00 32.92    -0.647 OA
ATOM     19  OE2 GLU D 570     -22.316  -4.173 -13.591  1.00 32.92    -0.647 OA
ENDBRANCH  16  17
ENDBRANCH  15  16
ENDBRANCH  14  15
END_RES GLU D 570
ENDMDL
MODEL 3
REMARK VINA RESULT:      -6.2      1.081      1.271
REMARK  2 active torsions:
REMARK  status: ('A' for Active; 'I' for Inactive)
REMARK    1  A    between atoms: C_3  and  C_8 
REMARK    2  A    between atoms: C_8  and  O_10 
ROOT
HETATM    1  C   UNL     1     -20.620  -4.511  -9.641  1.00  0.00     0.018 A 
HETATM    2  C   UNL     1     -21.956  -4.308  -9.297  1.00  0.00     0.021 A 
HETATM    3  C   UNL     1     -22.818  -3.724 -10.228  1.00  0.00     0.053 A 
HETATM    4  C   UNL     1     -22.292  -3.341 -11.456  1.00  0.00     0.105 A 
HETATM    5  N   UNL     1     -20.999  -3.534 -11.814  1.00  0.00    -0.374 N 
ATOM      6  HN  UNL     1     -20.652  -3.256 -12.732  1.00  0.00     0.164 HD
HETATM    7  C   UNL     1     -20.192  -4.113 -10.899  1.00  0.00     0.087 A 
ENDROOT
BRANCH   3   8
HETATM    8  C   UNL     1     -24.243  -3.445  -9.962  1.00  0.00     0.177 C 
HETATM    9  O   UNL     1     -25.038  -3.179 -10.845  1.00  0.00    -0.646 OA
BRANCH   8  10
HETATM   10  O   UNL     1     -24.593  -3.545  -8.663  1.00  0.00    -0.773 OA
HETATM   11  H   UNL     1     -25.475  -3.194  -8.435  1.00  0.00     0.167 HD
ENDBRANCH   8  10
ENDBRANCH   3   8
TORSDOF 2
BEGIN_RES ARG D 557
REMARK  4 active torsions:
REMARK  status: ('A' for Active; 'I' for Inactive)
REMARK    1  A    between atoms: CA   and  CB  
REMARK    2  A    between atoms: CB   and  CG  
REMARK    3  A    between atoms: CG   and  CD  
REMARK    4  A    between atoms: CD   and  NE  
REMARK       I    between atoms: NE   and  CZ  
REMARK       I    between atoms: CZ   and  NH1 
REMARK       I    between atoms: CZ   and  NH2 
ROOT
ATOM      1  CA  ARG D 557     -26.217   2.705 -17.014  1.00 35.49     0.159 C 
ENDROOT
BRANCH   1   2
ATOM      2  CB  ARG D 557     -26.789   1.319 -17.183  1.00 35.49     0.034 C 
BRANCH   2   3
ATOM      3  CG  ARG D 557     -25.833   0.205 -17.177  1.00 35.49     0.027 C 
BRANCH   3   4
ATOM      4  CD  ARG D 557     -24.773   0.376 -16.158  1.00 35.49     0.116 C 
BRANCH   4   5
ATOM      5  NE  ARG D 557     -24.966  -0.489 -15.024  1.00 35.49    -0.212 N 
ATOM      6  CZ  ARG D 557     -24.169  -1.468 -14.660  1.00 35.49     0.666 C 
ATOM      7  NH1 ARG D 557     -23.076  -1.780 -15.332  1.00 35.49    -0.235 N 
ATOM      8  NH2 ARG D 557     -24.489  -2.137 -13.590  1.00 35.49    -0.235 N 
ATOM      9  HH  ARG D 557     -22.845  -1.352 -16.038  1.00 35.49     0.174 HD
ATOM     10  HH  ARG D 557     -22.593  -2.427 -15.046  1.00 35.49     0.174 HD
ATOM     11  HH  ARG D 557     -25.197  -1.909 -13.172  1.00 35.49     0.174 HD
ATOM     12  HH  ARG D 557     -23.997  -2.773 -13.322  1.00 35.49     0.174 HD
ATOM     13  HE  ARG D 557     -25.684  -0.406 -14.576  1.00 35.49     0.178 HD
ENDBRANCH   4   5
ENDBRANCH   3   4
ENDBRANCH   2   3
ENDBRANCH   1   2
END_RES ARG D 557
BEGIN_RES GLU D 570
REMARK  3 active torsions:
REMARK  status: ('A' for Active; 'I' for Inactive)
REMARK    5  A    between atoms: CA   and  CB  
REMARK    6  A    between atoms: CB   and  CG  
REMARK    7  A    between atoms: CG   and  CD  
ROOT
ATOM     14  CA  GLU D 570     -18.033  -6.348 -13.375  1.00 32.92     0.160 C 
ENDROOT
BRANCH  14  15
ATOM     15  CB  GLU D 570     -19.500  -6.345 -13.794  1.00 32.92     0.043 C 
BRANCH  15  16
ATOM     16  CG  GLU D 570     -19.802  -6.107 -15.229  1.00 32.92     0.100 C 
BRANCH  16  17
ATOM     17  CD  GLU D 570     -21.095  -5.356 -15.443  1.00 32.92     0.185 C 
ATOM     18  OE1 GLU D 570     -21.752  -4.988 -14.450  1.00 32.92    -0.647 OA
ATOM     19  OE2 GLU D 570     -21.464  -5.148 -16.616  1.00 32.92    -0.647 OA
ENDBRANCH  16  17
ENDBRANCH  15  16
ENDBRANCH  14  15
END_RES GLU D 570
ENDMDL
MODEL 4
REMARK VINA RESULT:      -6.1      2.928      3.720
REMARK  2 active torsions:
REMARK  status: ('A' for Active; 'I' for Inactive)
REMARK    1  A    between atoms: C_3  and  C_8 
REMARK    2  A    between atoms: C_8  and  O_10 
ROOT
HETATM    1  C   UNL     1     -23.616  -3.811 -11.930  1.00  0.00     0.018 A 
HETATM    2  C   UNL     1     -24.513  -2.979 -12.601  1.00  0.00     0.021 A 
HETATM    3  C   UNL     1     -24.190  -2.520 -13.880  1.00  0.00     0.053 A 
HETATM    4  C   UNL     1     -22.966  -2.892 -14.420  1.00  0.00     0.105 A 
HETATM    5  N   UNL     1     -22.082  -3.705 -13.790  1.00  0.00    -0.374 N 
ATOM      6  HN  UNL     1     -21.198  -3.971 -14.225  1.00  0.00     0.164 HD
HETATM    7  C   UNL     1     -22.425  -4.144 -12.560  1.00  0.00     0.087 A 
ENDROOT
BRANCH   3   8
HETATM    8  C   UNL     1     -25.056  -1.621 -14.668  1.00  0.00     0.177 C 
HETATM    9  O   UNL     1     -26.083  -1.998 -15.203  1.00  0.00    -0.646 OA
BRANCH   8  10
HETATM   10  O   UNL     1     -24.628  -0.342 -14.717  1.00  0.00    -0.773 OA
HETATM   11  H   UNL     1     -23.666  -0.214 -14.626  1.00  0.00     0.167 HD
ENDBRANCH   8  10
ENDBRANCH   3   8
TORSDOF 2
BEGIN_RES ARG D 557
REMARK  4 active torsions:
REMARK  status: ('A' for Active; 'I' for Inactive)
REMARK    1  A    between atoms: CA   and  CB  
REMARK    2  A    between atoms: CB   and  CG  
REMARK    3  A    between atoms: CG   and  CD  
REMARK    4  A    between atoms: CD   and  NE  
REMARK       I    between atoms: NE   and  CZ  
REMARK       I    between atoms: CZ   and  NH1 
REMARK       I    between atoms: CZ   and  NH2 
ROOT
ATOM      1  CA  ARG D 557     -26.217   2.705 -17.014  1.00 35.49     0.159 C 
ENDROOT
BRANCH   1   2
ATOM      2  CB  ARG D 557     -26.789   1.319 -17.183  1.00 35.49     0.034 C 
BRANCH   2   3
ATOM      3  CG  ARG D 557     -28.143   1.095 -16.661  1.00 35.49     0.027 C 
BRANCH   3   4
ATOM      4  CD  ARG D 557     -28.825  -0.037 -17.330  1.00 35.49     0.116 C 
BRANCH   4   5
ATOM      5  NE  ARG D 557     -28.260  -1.307 -16.957  1.00 35.49    -0.212 N 
ATOM      6  CZ  ARG D 557     -28.834  -2.479 -17.115  1.00 35.49     0.666 C 
ATOM      7  NH1 ARG D 557     -30.038  -2.614 -17.639  1.00 35.49    -0.235 N 
ATOM      8  NH2 ARG D 557     -28.166  -3.530 -16.738  1.00 35.49    -0.235 N 
ATOM      9  HH  ARG D 557     -30.495  -1.936 -17.896  1.00 35.49     0.174 HD
ATOM     10  HH  ARG D 557     -30.361  -3.403 -17.720  1.00 35.49     0.174 HD
ATOM     11  HH  ARG D 557     -27.387  -3.413 -16.410  1.00 35.49     0.174 HD
ATOM     12  HH  ARG D 557     -28.502  -4.304 -16.828  1.00 35.49     0.174 HD
ATOM     13  HE  ARG D 557     -27.516  -1.308 -16.545  1.00 35.49     0.178 HD
ENDBRANCH   4   5
ENDBRANCH   3   4
ENDBRANCH   2   3
ENDBRANCH   1   2
END_RES ARG D 557
BEGIN_RES GLU D 570
REMARK  3 active torsions:
REMARK  status: ('A' for Active; 'I' for Inactive)
REMARK    5  A    between atoms: CA   and  CB  
REMARK    6  A    between atoms: CB   and  CG  
REMARK    7  A    between atoms: CG   and  CD  
ROOT
ATOM     14  CA  GLU D 570     -18.033  -6.348 -13.375  1.00 32.92     0.160 C 
ENDROOT
BRANCH  14  15
ATOM     15  CB  GLU D 570     -19.500  -6.345 -13.794  1.00 32.92     0.043 C 
BRANCH  15  16
ATOM     16  CG  GLU D 570     -19.802  -6.569 -15.232  1.00 32.92     0.100 C 
BRANCH  16  17
ATOM     17  CD  GLU D 570     -21.153  -7.205 -15.458  1.00 32.92     0.185 C 
ATOM     18  OE1 GLU D 570     -21.221  -8.270 -16.101  1.00 32.92    -0.647 OA
ATOM     19  OE2 GLU D 570     -22.157  -6.623 -15.002  1.00 32.92    -0.647 OA
ENDBRANCH  16  17
ENDBRANCH  15  16
ENDBRANCH  14  15
END_RES GLU D 570
ENDMDL
MODEL 5
REMARK VINA RESULT:      -5.7      2.250      2.811
REMARK  2 active torsions:
REMARK  status: ('A' for Active; 'I' for Inactive)
REMARK    1  A    between atoms: C_3  and  C_8 
REMARK    2  A    between atoms: C_8  and  O_10 
ROOT
HETATM    1  C   UNL     1     -20.930  -4.120  -9.375  1.00  0.00     0.018 A 
HETATM    2  C   UNL     1     -22.003  -3.699 -10.159  1.00  0.00     0.021 A 
HETATM    3  C   UNL     1     -23.286  -3.687  -9.608  1.00  0.00     0.053 A 
HETATM    4  C   UNL     1     -23.441  -4.128  -8.300  1.00  0.00     0.105 A 
HETATM    5  N   UNL     1     -22.412  -4.536  -7.517  1.00  0.00    -0.374 N 
ATOM      6  HN  UNL     1     -22.561  -4.837  -6.554  1.00  0.00     0.164 HD
HETATM    7  C   UNL     1     -21.181  -4.524  -8.071  1.00  0.00     0.087 A 
ENDROOT
BRANCH   3   8
HETATM    8  C   UNL     1     -24.493  -3.280 -10.354  1.00  0.00     0.177 C 
HETATM    9  O   UNL     1     -25.600  -3.244  -9.848  1.00  0.00    -0.646 OA
BRANCH   8  10
HETATM   10  O   UNL     1     -24.258  -2.919 -11.633  1.00  0.00    -0.773 OA
HETATM   11  H   UNL     1     -25.011  -3.017 -12.245  1.00  0.00     0.167 HD
ENDBRANCH   8  10
ENDBRANCH   3   8
TORSDOF 2
BEGIN_RES ARG D 557
REMARK  4 active torsions:
REMARK  status: ('A' for Active; 'I' for Inactive)
REMARK    1  A    between atoms: CA   and  CB  
REMARK    2  A    between atoms: CB   and  CG  
REMARK    3  A    between atoms: CG   and  CD  
REMARK    4  A    between atoms: CD   and  NE  
REMARK       I    between atoms: NE   and  CZ  
REMARK       I    between atoms: CZ   and  NH1 
REMARK       I    between atoms: CZ   and  NH2 
ROOT
ATOM      1  CA  ARG D 557     -26.217   2.705 -17.014  1.00 35.49     0.159 C 
ENDROOT
BRANCH   1   2
ATOM      2  CB  ARG D 557     -26.789   1.319 -17.183  1.00 35.49     0.034 C 
BRANCH   2   3
ATOM      3  CG  ARG D 557     -28.232   1.226 -17.437  1.00 35.49     0.027 C 
BRANCH   3   4
ATOM      4  CD  ARG D 557     -28.911   0.301 -16.501  1.00 35.49     0.116 C 
BRANCH   4   5
ATOM      5  NE  ARG D 557     -29.301  -0.928 -17.140  1.00 35.49    -0.212 N 
ATOM      6  CZ  ARG D 557     -28.675  -2.079 -17.038  1.00 35.49     0.666 C 
ATOM      7  NH1 ARG D 557     -27.575  -2.227 -16.324  1.00 35.49    -0.235 N 
ATOM      8  NH2 ARG D 557     -29.183  -3.096 -17.671  1.00 35.49    -0.235 N 
ATOM      9  HH  ARG D 557     -27.224  -1.571 -15.898  1.00 35.49     0.174 HD
ATOM     10  HH  ARG D 557     -27.211  -3.002 -16.292  1.00 35.49     0.174 HD
ATOM     11  HH  ARG D 557     -29.898  -2.973 -18.119  1.00 35.49     0.174 HD
ATOM     12  HH  ARG D 557     -28.809  -3.856 -17.626  1.00 35.49     0.174 HD
ATOM     13  HE  ARG D 557     -29.959  -0.906 -17.679  1.00 35.49     0.178 HD
ENDBRANCH   4   5
ENDBRANCH   3   4
ENDBRANCH   2   3
ENDBRANCH   1   2
END_RES ARG D 557
BEGIN_RES GLU D 570
REMARK  3 active torsions:
REMARK  status: ('A' for Active; 'I' for Inactive)
REMARK    5  A    between atoms: CA   and  CB  
REMARK    6  A    between atoms: CB   and  CG  
REMARK    7  A    between atoms: CG   and  CD  
ROOT
ATOM     14  CA  GLU D 570     -18.033  -6.348 -13.375  1.00 32.92     0.160 C 
ENDROOT
BRANCH  14  15
ATOM     15  CB  GLU D 570     -19.500  -6.345 -13.794  1.00 32.92     0.043 C 
BRANCH  15  16
ATOM     16  CG  GLU D 570     -20.442  -5.531 -12.983  1.00 32.92     0.100 C 
BRANCH  16  17
ATOM     17  CD  GLU D 570     -21.699  -5.161 -13.734  1.00 32.92     0.185 C 
ATOM     18  OE1 GLU D 570     -22.777  -5.092 -13.114  1.00 32.92    -0.647 OA
ATOM     19  OE2 GLU D 570     -21.608  -4.954 -14.961  1.00 32.92    -0.647 OA
ENDBRANCH  16  17
ENDBRANCH  15  16
ENDBRANCH  14  15
END_RES GLU D 570
ENDMDL
MODEL 6
REMARK VINA RESULT:      -5.6      1.747      2.239
REMARK  2 active torsions:
REMARK  status: ('A' for Active; 'I' for Inactive)
REMARK    1  A    between atoms: C_3  and  C_8 
REMARK    2  A    between atoms: C_8  and  O_10 
ROOT
HETATM    1  C   UNL     1     -21.200  -4.171  -9.342  1.00  0.00     0.018 A 
HETATM    2  C   UNL     1     -22.577  -3.976  -9.443  1.00  0.00     0.021 A 
HETATM    3  C   UNL     1     -23.116  -3.540 -10.656  1.00  0.00     0.053 A 
HETATM    4  C   UNL     1     -22.243  -3.290 -11.707  1.00  0.00     0.105 A 
HETATM    5  N   UNL     1     -20.903  -3.478 -11.633  1.00  0.00    -0.374 N 
ATOM      6  HN  UNL     1     -20.294  -3.300 -12.432  1.00  0.00     0.164 HD
HETATM    7  C   UNL     1     -20.411  -3.913 -10.453  1.00  0.00     0.087 A 
ENDROOT
BRANCH   3   8
HETATM    8  C   UNL     1     -24.554  -3.282 -10.867  1.00  0.00     0.177 C 
HETATM    9  O   UNL     1     -25.030  -3.061 -11.966  1.00  0.00    -0.646 OA
BRANCH   8  10
HETATM   10  O   UNL     1     -25.299  -3.347  -9.743  1.00  0.00    -0.773 OA
HETATM   11  H   UNL     1     -26.216  -3.023  -9.824  1.00  0.00     0.167 HD
ENDBRANCH   8  10
ENDBRANCH   3   8
TORSDOF 2
BEGIN_RES ARG D 557
REMARK  4 active torsions:
REMARK  status: ('A' for Active; 'I' for Inactive)
REMARK    1  A    between atoms: CA   and  CB  
REMARK    2  A    between atoms: CB   and  CG  
REMARK    3  A    between atoms: CG   and  CD  
REMARK    4  A    between atoms: CD   and  NE  
REMARK       I    between atoms: NE   and  CZ  
REMARK       I    between atoms: CZ   and  NH1 
REMARK       I    between atoms: CZ   and  NH2 
ROOT
ATOM      1  CA  ARG D 557     -26.217   2.705 -17.014  1.00 35.49     0.159 C 
ENDROOT
BRANCH   1   2
ATOM      2  CB  ARG D 557     -26.789   1.319 -17.183  1.00 35.49     0.034 C 
BRANCH   2   3
ATOM      3  CG  ARG D 557     -28.233   1.226 -17.429  1.00 35.49     0.027 C 
BRANCH   3   4
ATOM      4  CD  ARG D 557     -28.907   0.301 -16.488  1.00 35.49     0.116 C 
BRANCH   4   5
ATOM      5  NE  ARG D 557     -29.298  -0.929 -17.125  1.00 35.49    -0.212 N 
ATOM      6  CZ  ARG D 557     -28.664  -2.077 -17.033  1.00 35.49     0.666 C 
ATOM      7  NH1 ARG D 557     -27.554  -2.220 -16.333  1.00 35.49    -0.235 N 
ATOM      8  NH2 ARG D 557     -29.175  -3.096 -17.660  1.00 35.49    -0.235 N 
ATOM      9  HH  ARG D 557     -27.202  -1.563 -15.910  1.00 35.49     0.174 HD
ATOM     10  HH  ARG D 557     -27.186  -2.993 -16.307  1.00 35.49     0.174 HD
ATOM     11  HH  ARG D 557     -29.897  -2.976 -18.099  1.00 35.49     0.174 HD
ATOM     12  HH  ARG D 557     -28.796  -3.854 -17.621  1.00 35.49     0.174 HD
ATOM     13  HE  ARG D 557     -29.963  -0.911 -17.655  1.00 35.49     0.178 HD
ENDBRANCH   4   5
ENDBRANCH   3   4
ENDBRANCH   2   3
ENDBRANCH   1   2
END_RES ARG D 557
BEGIN_RES GLU D 570
REMARK  3 active torsions:
REMARK  status: ('A' for Active; 'I' for Inactive)
REMARK    5  A    between atoms: CA   and  CB  
REMARK    6  A    between atoms: CB   and  CG  
REMARK    7  A    between atoms: CG   and  CD  
ROOT
ATOM     14  CA  GLU D 570     -18.033  -6.348 -13.375  1.00 32.92     0.160 C 
ENDROOT
BRANCH  14  15
ATOM     15  CB  GLU D 570     -19.500  -6.345 -13.794  1.00 32.92     0.043 C 
BRANCH  15  16
ATOM     16  CG  GLU D 570     -19.803  -6.597 -15.226  1.00 32.92     0.100 C 
BRANCH  16  17
ATOM     17  CD  GLU D 570     -20.837  -5.648 -15.786  1.00 32.92     0.185 C 
ATOM     18  OE1 GLU D 570     -20.905  -5.485 -17.019  1.00 32.92    -0.647 OA
ATOM     19  OE2 GLU D 570     -21.577  -5.048 -14.981  1.00 32.92    -0.647 OA
ENDBRANCH  16  17
ENDBRANCH  15  16
ENDBRANCH  14  15
END_RES GLU D 570
ENDMDL
MODEL 7
REMARK VINA RESULT:      -5.5      2.542      3.378
REMARK  2 active torsions:
REMARK  status: ('A' for Active; 'I' for Inactive)
REMARK    1  A    between atoms: C_3  and  C_8 
REMARK    2  A    between atoms: C_8  and  O_10 
ROOT
HETATM    1  C   UNL     1     -24.320  -3.273 -11.012  1.00  0.00     0.018 A 
HETATM    2  C   UNL     1     -22.991  -3.543 -11.339  1.00  0.00     0.021 A 
HETATM    3  C   UNL     1     -22.104  -3.920 -10.328  1.00  0.00     0.053 A 
HETATM    4  C   UNL     1     -22.584  -3.982  -9.026  1.00  0.00     0.105 A 
HETATM    5  N   UNL     1     -23.872  -3.731  -8.686  1.00  0.00    -0.374 N 
ATOM      6  HN  UNL     1     -24.193  -3.803  -7.720  1.00  0.00     0.164 HD
HETATM    7  C   UNL     1     -24.711  -3.381  -9.685  1.00  0.00     0.087 A 
ENDROOT
BRANCH   3   8
HETATM    8  C   UNL     1     -20.675  -4.208 -10.559  1.00  0.00     0.177 C 
HETATM    9  O   UNL     1     -19.973  -4.763  -9.734  1.00  0.00    -0.646 OA
BRANCH   8  10
HETATM   10  O   UNL     1     -20.224  -3.834 -11.775  1.00  0.00    -0.773 OA
HETATM   11  H   UNL     1     -20.593  -3.001 -12.125  1.00  0.00     0.167 HD
ENDBRANCH   8  10
ENDBRANCH   3   8
TORSDOF 2
BEGIN_RES ARG D 557
REMARK  4 active torsions:
REMARK  status: ('A' for Active; 'I' for Inactive)
REMARK    1  A    between atoms: CA   and  CB  
REMARK    2  A    between atoms: CB   and  CG  
REMARK    3  A    between atoms: CG   and  CD  
REMARK    4  A    between atoms: CD   and  NE  
REMARK       I    between atoms: NE   and  CZ  
REMARK       I    between atoms: CZ   and  NH1 
REMARK       I    between atoms: CZ   and  NH2 
ROOT
ATOM      1  CA  ARG D 557     -26.217   2.705 -17.014  1.00 35.49     0.159 C 
ENDROOT
BRANCH   1   2
ATOM      2  CB  ARG D 557     -26.789   1.319 -17.183  1.00 35.49     0.034 C 
BRANCH   2   3
ATOM      3  CG  ARG D 557     -28.154   1.103 -16.688  1.00 35.49     0.027 C 
BRANCH   3   4
ATOM      4  CD  ARG D 557     -28.790  -0.091 -17.291  1.00 35.49     0.116 C 
BRANCH   4   5
ATOM      5  NE  ARG D 557     -28.174  -1.315 -16.851  1.00 35.49    -0.212 N 
ATOM      6  CZ  ARG D 557     -28.655  -2.524 -17.030  1.00 35.49     0.666 C 
ATOM      7  NH1 ARG D 557     -29.803  -2.748 -17.643  1.00 35.49    -0.235 N 
ATOM      8  NH2 ARG D 557     -27.950  -3.523 -16.583  1.00 35.49    -0.235 N 
ATOM      9  HH  ARG D 557     -30.282  -2.106 -17.948  1.00 35.49     0.174 HD
ATOM     10  HH  ARG D 557     -30.065  -3.558 -17.734  1.00 35.49     0.174 HD
ATOM     11  HH  ARG D 557     -27.209  -3.349 -16.198  1.00 35.49     0.174 HD
ATOM     12  HH  ARG D 557     -28.226  -4.318 -16.683  1.00 35.49     0.174 HD
ATOM     13  HE  ARG D 557     -27.466  -1.259 -16.383  1.00 35.49     0.178 HD
ENDBRANCH   4   5
ENDBRANCH   3   4
ENDBRANCH   2   3
ENDBRANCH   1   2
END_RES ARG D 557
BEGIN_RES GLU D 570
REMARK  3 active torsions:
REMARK  status: ('A' for Active; 'I' for Inactive)
REMARK    5  A    between atoms: CA   and  CB  
REMARK    6  A    between atoms: CB   and  CG  
REMARK    7  A    between atoms: CG   and  CD  
ROOT
ATOM     14  CA  GLU D 570     -18.033  -6.348 -13.375  1.00 32.92     0.160 C 
ENDROOT
BRANCH  14  15
ATOM     15  CB  GLU D 570     -19.500  -6.345 -13.794  1.00 32.92     0.043 C 
BRANCH  15  16
ATOM     16  CG  GLU D 570     -19.809  -5.992 -15.204  1.00 32.92     0.100 C 
BRANCH  16  17
ATOM     17  CD  GLU D 570     -21.131  -5.276 -15.356  1.00 32.92     0.185 C 
ATOM     18  OE1 GLU D 570     -21.567  -5.048 -16.501  1.00 32.92    -0.647 OA
ATOM     19  OE2 GLU D 570     -21.728  -4.925 -14.320  1.00 32.92    -0.647 OA
ENDBRANCH  16  17
ENDBRANCH  15  16
ENDBRANCH  14  15
END_RES GLU D 570
ENDMDL
MODEL 8
REMARK VINA RESULT:      -5.4     10.363     12.141
REMARK  2 active torsions:
REMARK  status: ('A' for Active; 'I' for Inactive)
REMARK    1  A    between atoms: C_3  and  C_8 
REMARK    2  A    between atoms: C_8  and  O_10 
ROOT
HETATM    1  C   UNL     1     -12.058   3.064 -20.740  1.00  0.00     0.018 A 
HETATM    2  C   UNL     1     -10.877   3.626 -20.257  1.00  0.00     0.021 A 
HETATM    3  C   UNL     1     -10.886   4.949 -19.808  1.00  0.00     0.053 A 
HETATM    4  C   UNL     1     -12.076   5.660 -19.892  1.00  0.00     0.105 A 
HETATM    5  N   UNL     1     -13.237   5.133 -20.352  1.00  0.00    -0.374 N 
ATOM      6  HN  UNL     1     -14.097   5.681 -20.383  1.00  0.00     0.164 HD
HETATM    7  C   UNL     1     -13.202   3.848 -20.768  1.00  0.00     0.087 A 
ENDROOT
BRANCH   3   8
HETATM    8  C   UNL     1      -9.690   5.647 -19.297  1.00  0.00     0.177 C 
HETATM    9  O   UNL     1      -8.864   6.161 -20.028  1.00  0.00    -0.646 OA
BRANCH   8  10
HETATM   10  O   UNL     1      -9.611   5.695 -17.950  1.00  0.00    -0.773 OA
HETATM   11  H   UNL     1      -9.281   6.533 -17.576  1.00  0.00     0.167 HD
ENDBRANCH   8  10
ENDBRANCH   3   8
TORSDOF 2
BEGIN_RES ARG D 557
REMARK  4 active torsions:
REMARK  status: ('A' for Active; 'I' for Inactive)
REMARK    1  A    between atoms: CA   and  CB  
REMARK    2  A    between atoms: CB   and  CG  
REMARK    3  A    between atoms: CG   and  CD  
REMARK    4  A    between atoms: CD   and  NE  
REMARK       I    between atoms: NE   and  CZ  
REMARK       I    between atoms: CZ   and  NH1 
REMARK       I    between atoms: CZ   and  NH2 
ROOT
ATOM      1  CA  ARG D 557     -26.217   2.705 -17.014  1.00 35.49     0.159 C 
ENDROOT
BRANCH   1   2
ATOM      2  CB  ARG D 557     -26.789   1.319 -17.183  1.00 35.49     0.034 C 
BRANCH   2   3
ATOM      3  CG  ARG D 557     -25.834   0.204 -17.174  1.00 35.49     0.027 C 
BRANCH   3   4
ATOM      4  CD  ARG D 557     -24.756   0.393 -16.177  1.00 35.49     0.116 C 
BRANCH   4   5
ATOM      5  NE  ARG D 557     -24.920  -0.463 -15.032  1.00 35.49    -0.212 N 
ATOM      6  CZ  ARG D 557     -24.098  -1.421 -14.665  1.00 35.49     0.666 C 
ATOM      7  NH1 ARG D 557     -23.004  -1.715 -15.343  1.00 35.49    -0.235 N 
ATOM      8  NH2 ARG D 557     -24.393  -2.085 -13.585  1.00 35.49    -0.235 N 
ATOM      9  HH  ARG D 557     -22.788  -1.289 -16.055  1.00 35.49     0.174 HD
ATOM     10  HH  ARG D 557     -22.504  -2.348 -15.054  1.00 35.49     0.174 HD
ATOM     11  HH  ARG D 557     -25.102  -1.868 -13.164  1.00 35.49     0.174 HD
ATOM     12  HH  ARG D 557     -23.885  -2.707 -13.315  1.00 35.49     0.174 HD
ATOM     13  HE  ARG D 557     -25.636  -0.392 -14.579  1.00 35.49     0.178 HD
ENDBRANCH   4   5
ENDBRANCH   3   4
ENDBRANCH   2   3
ENDBRANCH   1   2
END_RES ARG D 557
BEGIN_RES GLU D 570
REMARK  3 active torsions:
REMARK  status: ('A' for Active; 'I' for Inactive)
REMARK    5  A    between atoms: CA   and  CB  
REMARK    6  A    between atoms: CB   and  CG  
REMARK    7  A    between atoms: CG   and  CD  
ROOT
ATOM     14  CA  GLU D 570     -18.033  -6.348 -13.375  1.00 32.92     0.160 C 
ENDROOT
BRANCH  14  15
ATOM     15  CB  GLU D 570     -19.500  -6.345 -13.794  1.00 32.92     0.043 C 
BRANCH  15  16
ATOM     16  CG  GLU D 570     -20.442  -5.531 -12.983  1.00 32.92     0.100 C 
BRANCH  16  17
ATOM     17  CD  GLU D 570     -21.742  -5.246 -13.699  1.00 32.92     0.185 C 
ATOM     18  OE1 GLU D 570     -22.313  -4.155 -13.506  1.00 32.92    -0.647 OA
ATOM     19  OE2 GLU D 570     -22.202  -6.129 -14.448  1.00 32.92    -0.647 OA
ENDBRANCH  16  17
ENDBRANCH  15  16
ENDBRANCH  14  15
END_RES GLU D 570
ENDMDL
MODEL 9
REMARK VINA RESULT:      -5.2      2.026      2.995
REMARK  2 active torsions:
REMARK  status: ('A' for Active; 'I' for Inactive)
REMARK    1  A    between atoms: C_3  and  C_8 
REMARK    2  A    between atoms: C_8  and  O_10 
ROOT
HETATM    1  C   UNL     1     -24.284  -3.260 -10.883  1.00  0.00     0.018 A 
HETATM    2  C   UNL     1     -22.965  -3.529 -11.250  1.00  0.00     0.021 A 
HETATM    3  C   UNL     1     -22.054  -3.927 -10.270  1.00  0.00     0.053 A 
HETATM    4  C   UNL     1     -22.499  -4.010  -8.956  1.00  0.00     0.105 A 
HETATM    5  N   UNL     1     -23.776  -3.760  -8.578  1.00  0.00    -0.374 N 
ATOM      6  HN  UNL     1     -24.071  -3.848  -7.606  1.00  0.00     0.164 HD
HETATM    7  C   UNL     1     -24.639  -3.389  -9.548  1.00  0.00     0.087 A 
ENDROOT
BRANCH   3   8
HETATM    8  C   UNL     1     -20.632  -4.216 -10.544  1.00  0.00     0.177 C 
HETATM    9  O   UNL     1     -19.915  -4.805  -9.755  1.00  0.00    -0.646 OA
BRANCH   8  10
HETATM   10  O   UNL     1     -20.206  -3.803 -11.756  1.00  0.00    -0.773 OA
HETATM   11  H   UNL     1     -20.577  -2.956 -12.068  1.00  0.00     0.167 HD
ENDBRANCH   8  10
ENDBRANCH   3   8
TORSDOF 2
BEGIN_RES ARG D 557
REMARK  4 active torsions:
REMARK  status: ('A' for Active; 'I' for Inactive)
REMARK    1  A    between atoms: CA   and  CB  
REMARK    2  A    between atoms: CB   and  CG  
REMARK    3  A    between atoms: CG   and  CD  
REMARK    4  A    between atoms: CD   and  NE  
REMARK       I    between atoms: NE   and  CZ  
REMARK       I    between atoms: CZ   and  NH1 
REMARK       I    between atoms: CZ   and  NH2 
ROOT
ATOM      1  CA  ARG D 557     -26.217   2.705 -17.014  1.00 35.49     0.159 C 
ENDROOT
BRANCH   1   2
ATOM      2  CB  ARG D 557     -26.789   1.319 -17.183  1.00 35.49     0.034 C 
BRANCH   2   3
ATOM      3  CG  ARG D 557     -25.834   0.204 -17.171  1.00 35.49     0.027 C 
BRANCH   3   4
ATOM      4  CD  ARG D 557     -25.184   0.032 -15.852  1.00 35.49     0.116 C 
BRANCH   4   5
ATOM      5  NE  ARG D 557     -25.626  -1.161 -15.181  1.00 35.49    -0.212 N 
ATOM      6  CZ  ARG D 557     -24.850  -2.124 -14.736  1.00 35.49     0.666 C 
ATOM      7  NH1 ARG D 557     -23.538  -2.100 -14.877  1.00 35.49    -0.235 N 
ATOM      8  NH2 ARG D 557     -25.422  -3.125 -14.131  1.00 35.49    -0.235 N 
ATOM      9  HH  ARG D 557     -23.140  -1.451 -15.270  1.00 35.49     0.174 HD
ATOM     10  HH  ARG D 557     -23.082  -2.755 -14.564  1.00 35.49     0.174 HD
ATOM     11  HH  ARG D 557     -26.271  -3.110 -14.047  1.00 35.49     0.174 HD
ATOM     12  HH  ARG D 557     -24.954  -3.763 -13.827  1.00 35.49     0.174 HD
ATOM     13  HE  ARG D 557     -26.463  -1.294 -15.111  1.00 35.49     0.178 HD
ENDBRANCH   4   5
ENDBRANCH   3   4
ENDBRANCH   2   3
ENDBRANCH   1   2
END_RES ARG D 557
BEGIN_RES GLU D 570
REMARK  3 active torsions:
REMARK  status: ('A' for Active; 'I' for Inactive)
REMARK    5  A    between atoms: CA   and  CB  
REMARK    6  A    between atoms: CB   and  CG  
REMARK    7  A    between atoms: CG   and  CD  
ROOT
ATOM     14  CA  GLU D 570     -18.033  -6.348 -13.375  1.00 32.92     0.160 C 
ENDROOT
BRANCH  14  15
ATOM     15  CB  GLU D 570     -19.500  -6.345 -13.794  1.00 32.92     0.043 C 
BRANCH  15  16
ATOM     16  CG  GLU D 570     -19.811  -5.957 -15.194  1.00 32.92     0.100 C 
BRANCH  16  17
ATOM     17  CD  GLU D 570     -21.128  -5.228 -15.325  1.00 32.92     0.185 C 
ATOM     18  OE1 GLU D 570     -21.600  -5.029 -16.460  1.00 32.92    -0.647 OA
ATOM     19  OE2 GLU D 570     -21.686  -4.836 -14.280  1.00 32.92    -0.647 OA
ENDBRANCH  16  17
ENDBRANCH  15  16
ENDBRANCH  14  15
END_RES GLU D 570
ENDMDL
