MODEL 1
REMARK VINA RESULT:      -1.3      0.000      0.000
REMARK  7 active torsions:
REMARK  status: ('A' for Active; 'I' for Inactive)
REMARK    1  A    between atoms: C_5  and  S_40 
REMARK    2  A    between atoms: C_7  and  N_8 
REMARK    3  A    between atoms: N_8  and  C_9 
REMARK    4  A    between atoms: C_12  and  N_15 
REMARK    5  A    between atoms: N_15  and  C_16 
REMARK    6  A    between atoms: C_18  and  S_24 
REMARK    7  A    between atoms: S_40  and  O_41 
ROOT
HETATM    1 NA   UNL     3     -32.385  -8.526   4.528  1.00  0.00     0.000 Na
ENDROOT
TORSDOF 7
BEGIN_RES ARG D 557
REMARK  4 active torsions:
REMARK  status: ('A' for Active; 'I' for Inactive)
REMARK    1  A    between atoms: CA   and  CB  
REMARK    2  A    between atoms: CB   and  CG  
REMARK    3  A    between atoms: CG   and  CD  
REMARK    4  A    between atoms: CD   and  NE  
REMARK       I    between atoms: NE   and  CZ  
REMARK       I    between atoms: CZ   and  NH1 
REMARK       I    between atoms: CZ   and  NH2 
ROOT
ATOM      1  CA  ARG D 557     -26.217   2.705 -17.014  1.00 35.49     0.159 C 
ENDROOT
BRANCH   1   2
ATOM      2  CB  ARG D 557     -26.789   1.319 -17.183  1.00 35.49     0.034 C 
BRANCH   2   3
ATOM      3  CG  ARG D 557     -25.835   0.203 -17.159  1.00 35.49     0.027 C 
BRANCH   3   4
ATOM      4  CD  ARG D 557     -24.750   0.410 -16.174  1.00 35.49     0.116 C 
BRANCH   4   5
ATOM      5  NE  ARG D 557     -24.899  -0.434 -15.018  1.00 35.49    -0.212 N 
ATOM      6  CZ  ARG D 557     -24.089  -1.408 -14.668  1.00 35.49     0.666 C 
ATOM      7  NH1 ARG D 557     -23.022  -1.732 -15.375  1.00 35.49    -0.235 N 
ATOM      8  NH2 ARG D 557     -24.367  -2.056 -13.574  1.00 35.49    -0.235 N 
ATOM      9  HH  ARG D 557     -22.819  -1.317 -16.097  1.00 35.49     0.174 HD
ATOM     10  HH  ARG D 557     -22.529  -2.375 -15.097  1.00 35.49     0.174 HD
ATOM     11  HH  ARG D 557     -25.058  -1.820 -13.133  1.00 35.49     0.174 HD
ATOM     12  HH  ARG D 557     -23.865  -2.688 -13.314  1.00 35.49     0.174 HD
ATOM     13  HE  ARG D 557     -25.599  -0.342 -14.544  1.00 35.49     0.178 HD
ENDBRANCH   4   5
ENDBRANCH   3   4
ENDBRANCH   2   3
ENDBRANCH   1   2
END_RES ARG D 557
BEGIN_RES GLU D 570
REMARK  3 active torsions:
REMARK  status: ('A' for Active; 'I' for Inactive)
REMARK    5  A    between atoms: CA   and  CB  
REMARK    6  A    between atoms: CB   and  CG  
REMARK    7  A    between atoms: CG   and  CD  
ROOT
ATOM     14  CA  GLU D 570     -18.033  -6.348 -13.375  1.00 32.92     0.160 C 
ENDROOT
BRANCH  14  15
ATOM     15  CB  GLU D 570     -19.500  -6.345 -13.794  1.00 32.92     0.043 C 
BRANCH  15  16
ATOM     16  CG  GLU D 570     -20.444  -5.539 -12.977  1.00 32.92     0.100 C 
BRANCH  16  17
ATOM     17  CD  GLU D 570     -21.738  -5.240 -13.696  1.00 32.92     0.185 C 
ATOM     18  OE1 GLU D 570     -22.284  -4.133 -13.524  1.00 32.92    -0.647 OA
ATOM     19  OE2 GLU D 570     -22.221  -6.128 -14.425  1.00 32.92    -0.647 OA
ENDBRANCH  16  17
ENDBRANCH  15  16
ENDBRANCH  14  15
END_RES GLU D 570
ENDMDL
MODEL 2
REMARK VINA RESULT:      -1.2      4.477      4.573
REMARK  7 active torsions:
REMARK  status: ('A' for Active; 'I' for Inactive)
REMARK    1  A    between atoms: C_5  and  S_40 
REMARK    2  A    between atoms: C_7  and  N_8 
REMARK    3  A    between atoms: N_8  and  C_9 
REMARK    4  A    between atoms: C_12  and  N_15 
REMARK    5  A    between atoms: N_15  and  C_16 
REMARK    6  A    between atoms: C_18  and  S_24 
REMARK    7  A    between atoms: S_40  and  O_41 
ROOT
HETATM    1 NA   UNL     3     -27.271  -5.693  -9.119  1.00  0.00     0.000 Na
ENDROOT
TORSDOF 7
BEGIN_RES ARG D 557
REMARK  4 active torsions:
REMARK  status: ('A' for Active; 'I' for Inactive)
REMARK    1  A    between atoms: CA   and  CB  
REMARK    2  A    between atoms: CB   and  CG  
REMARK    3  A    between atoms: CG   and  CD  
REMARK    4  A    between atoms: CD   and  NE  
REMARK       I    between atoms: NE   and  CZ  
REMARK       I    between atoms: CZ   and  NH1 
REMARK       I    between atoms: CZ   and  NH2 
ROOT
ATOM      1  CA  ARG D 557     -26.217   2.705 -17.014  1.00 35.49     0.159 C 
ENDROOT
BRANCH   1   2
ATOM      2  CB  ARG D 557     -26.789   1.319 -17.183  1.00 35.49     0.034 C 
BRANCH   2   3
ATOM      3  CG  ARG D 557     -25.833   0.205 -17.179  1.00 35.49     0.027 C 
BRANCH   3   4
ATOM      4  CD  ARG D 557     -24.741   0.402 -16.199  1.00 35.49     0.116 C 
BRANCH   4   5
ATOM      5  NE  ARG D 557     -24.896  -0.437 -15.039  1.00 35.49    -0.212 N 
ATOM      6  CZ  ARG D 557     -24.083  -1.403 -14.676  1.00 35.49     0.666 C 
ATOM      7  NH1 ARG D 557     -23.009  -1.726 -15.372  1.00 35.49    -0.235 N 
ATOM      8  NH2 ARG D 557     -24.368  -2.047 -13.581  1.00 35.49    -0.235 N 
ATOM      9  HH  ARG D 557     -22.801  -1.314 -16.094  1.00 35.49     0.174 HD
ATOM     10  HH  ARG D 557     -22.514  -2.364 -15.085  1.00 35.49     0.174 HD
ATOM     11  HH  ARG D 557     -25.064  -1.813 -13.148  1.00 35.49     0.174 HD
ATOM     12  HH  ARG D 557     -23.865  -2.675 -13.313  1.00 35.49     0.174 HD
ATOM     13  HE  ARG D 557     -25.601  -0.346 -14.572  1.00 35.49     0.178 HD
ENDBRANCH   4   5
ENDBRANCH   3   4
ENDBRANCH   2   3
ENDBRANCH   1   2
END_RES ARG D 557
BEGIN_RES GLU D 570
REMARK  3 active torsions:
REMARK  status: ('A' for Active; 'I' for Inactive)
REMARK    5  A    between atoms: CA   and  CB  
REMARK    6  A    between atoms: CB   and  CG  
REMARK    7  A    between atoms: CG   and  CD  
ROOT
ATOM     14  CA  GLU D 570     -18.033  -6.348 -13.375  1.00 32.92     0.160 C 
ENDROOT
BRANCH  14  15
ATOM     15  CB  GLU D 570     -19.500  -6.345 -13.794  1.00 32.92     0.043 C 
BRANCH  15  16
ATOM     16  CG  GLU D 570     -20.440  -5.522 -12.990  1.00 32.92     0.100 C 
BRANCH  16  17
ATOM     17  CD  GLU D 570     -21.750  -5.264 -13.696  1.00 32.92     0.185 C 
ATOM     18  OE1 GLU D 570     -22.227  -6.151 -14.430  1.00 32.92    -0.647 OA
ATOM     19  OE2 GLU D 570     -22.298  -4.157 -13.527  1.00 32.92    -0.647 OA
ENDBRANCH  16  17
ENDBRANCH  15  16
ENDBRANCH  14  15
END_RES GLU D 570
ENDMDL
MODEL 3
REMARK VINA RESULT:      -1.2     10.531     10.573
REMARK  7 active torsions:
REMARK  status: ('A' for Active; 'I' for Inactive)
REMARK    1  A    between atoms: C_5  and  S_40 
REMARK    2  A    between atoms: C_7  and  N_8 
REMARK    3  A    between atoms: N_8  and  C_9 
REMARK    4  A    between atoms: C_12  and  N_15 
REMARK    5  A    between atoms: N_15  and  C_16 
REMARK    6  A    between atoms: C_18  and  S_24 
REMARK    7  A    between atoms: S_40  and  O_41 
ROOT
HETATM    1 NA   UNL     3      -9.129   5.876 -17.190  1.00  0.00     0.000 Na
ENDROOT
TORSDOF 7
BEGIN_RES ARG D 557
REMARK  4 active torsions:
REMARK  status: ('A' for Active; 'I' for Inactive)
REMARK    1  A    between atoms: CA   and  CB  
REMARK    2  A    between atoms: CB   and  CG  
REMARK    3  A    between atoms: CG   and  CD  
REMARK    4  A    between atoms: CD   and  NE  
REMARK       I    between atoms: NE   and  CZ  
REMARK       I    between atoms: CZ   and  NH1 
REMARK       I    between atoms: CZ   and  NH2 
ROOT
ATOM      1  CA  ARG D 557     -26.217   2.705 -17.014  1.00 35.49     0.159 C 
ENDROOT
BRANCH   1   2
ATOM      2  CB  ARG D 557     -26.789   1.319 -17.183  1.00 35.49     0.034 C 
BRANCH   2   3
ATOM      3  CG  ARG D 557     -25.835   0.203 -17.159  1.00 35.49     0.027 C 
BRANCH   3   4
ATOM      4  CD  ARG D 557     -24.739   0.419 -16.187  1.00 35.49     0.116 C 
BRANCH   4   5
ATOM      5  NE  ARG D 557     -24.876  -0.413 -15.021  1.00 35.49    -0.212 N 
ATOM      6  CZ  ARG D 557     -24.066  -1.387 -14.672  1.00 35.49     0.666 C 
ATOM      7  NH1 ARG D 557     -23.011  -1.723 -15.391  1.00 35.49    -0.235 N 
ATOM      8  NH2 ARG D 557     -24.332  -2.023 -13.569  1.00 35.49    -0.235 N 
ATOM      9  HH  ARG D 557     -22.816  -1.317 -16.120  1.00 35.49     0.174 HD
ATOM     10  HH  ARG D 557     -22.517  -2.366 -15.113  1.00 35.49     0.174 HD
ATOM     11  HH  ARG D 557     -25.016  -1.779 -13.121  1.00 35.49     0.174 HD
ATOM     12  HH  ARG D 557     -23.830  -2.655 -13.309  1.00 35.49     0.174 HD
ATOM     13  HE  ARG D 557     -25.570  -0.313 -14.539  1.00 35.49     0.178 HD
ENDBRANCH   4   5
ENDBRANCH   3   4
ENDBRANCH   2   3
ENDBRANCH   1   2
END_RES ARG D 557
BEGIN_RES GLU D 570
REMARK  3 active torsions:
REMARK  status: ('A' for Active; 'I' for Inactive)
REMARK    5  A    between atoms: CA   and  CB  
REMARK    6  A    between atoms: CB   and  CG  
REMARK    7  A    between atoms: CG   and  CD  
ROOT
ATOM     14  CA  GLU D 570     -18.033  -6.348 -13.375  1.00 32.92     0.160 C 
ENDROOT
BRANCH  14  15
ATOM     15  CB  GLU D 570     -19.500  -6.345 -13.794  1.00 32.92     0.043 C 
BRANCH  15  16
ATOM     16  CG  GLU D 570     -20.438  -5.515 -12.995  1.00 32.92     0.100 C 
BRANCH  16  17
ATOM     17  CD  GLU D 570     -21.746  -5.254 -13.706  1.00 32.92     0.185 C 
ATOM     18  OE1 GLU D 570     -22.213  -6.132 -14.456  1.00 32.92    -0.647 OA
ATOM     19  OE2 GLU D 570     -22.300  -4.152 -13.524  1.00 32.92    -0.647 OA
ENDBRANCH  16  17
ENDBRANCH  15  16
ENDBRANCH  14  15
END_RES GLU D 570
ENDMDL
MODEL 4
REMARK VINA RESULT:      -1.1      8.104      8.157
REMARK  7 active torsions:
REMARK  status: ('A' for Active; 'I' for Inactive)
REMARK    1  A    between atoms: C_5  and  S_40 
REMARK    2  A    between atoms: C_7  and  N_8 
REMARK    3  A    between atoms: N_8  and  C_9 
REMARK    4  A    between atoms: C_12  and  N_15 
REMARK    5  A    between atoms: N_15  and  C_16 
REMARK    6  A    between atoms: C_18  and  S_24 
REMARK    7  A    between atoms: S_40  and  O_41 
ROOT
HETATM    1 NA   UNL     3     -35.577  -5.056 -21.931  1.00  0.00     0.000 Na
ENDROOT
TORSDOF 7
BEGIN_RES ARG D 557
REMARK  4 active torsions:
REMARK  status: ('A' for Active; 'I' for Inactive)
REMARK    1  A    between atoms: CA   and  CB  
REMARK    2  A    between atoms: CB   and  CG  
REMARK    3  A    between atoms: CG   and  CD  
REMARK    4  A    between atoms: CD   and  NE  
REMARK       I    between atoms: NE   and  CZ  
REMARK       I    between atoms: CZ   and  NH1 
REMARK       I    between atoms: CZ   and  NH2 
ROOT
ATOM      1  CA  ARG D 557     -26.217   2.705 -17.014  1.00 35.49     0.159 C 
ENDROOT
BRANCH   1   2
ATOM      2  CB  ARG D 557     -26.789   1.319 -17.183  1.00 35.49     0.034 C 
BRANCH   2   3
ATOM      3  CG  ARG D 557     -25.836   0.203 -17.156  1.00 35.49     0.027 C 
BRANCH   3   4
ATOM      4  CD  ARG D 557     -24.750   0.412 -16.170  1.00 35.49     0.116 C 
BRANCH   4   5
ATOM      5  NE  ARG D 557     -24.894  -0.436 -15.017  1.00 35.49    -0.212 N 
ATOM      6  CZ  ARG D 557     -24.078  -1.406 -14.670  1.00 35.49     0.666 C 
ATOM      7  NH1 ARG D 557     -23.010  -1.722 -15.379  1.00 35.49    -0.235 N 
ATOM      8  NH2 ARG D 557     -24.352  -2.059 -13.578  1.00 35.49    -0.235 N 
ATOM      9  HH  ARG D 557     -22.809  -1.304 -16.100  1.00 35.49     0.174 HD
ATOM     10  HH  ARG D 557     -22.513  -2.362 -15.102  1.00 35.49     0.174 HD
ATOM     11  HH  ARG D 557     -25.044  -1.828 -13.136  1.00 35.49     0.174 HD
ATOM     12  HH  ARG D 557     -23.846  -2.689 -13.320  1.00 35.49     0.174 HD
ATOM     13  HE  ARG D 557     -25.594  -0.349 -14.542  1.00 35.49     0.178 HD
ENDBRANCH   4   5
ENDBRANCH   3   4
ENDBRANCH   2   3
ENDBRANCH   1   2
END_RES ARG D 557
BEGIN_RES GLU D 570
REMARK  3 active torsions:
REMARK  status: ('A' for Active; 'I' for Inactive)
REMARK    5  A    between atoms: CA   and  CB  
REMARK    6  A    between atoms: CB   and  CG  
REMARK    7  A    between atoms: CG   and  CD  
ROOT
ATOM     14  CA  GLU D 570     -18.033  -6.348 -13.375  1.00 32.92     0.160 C 
ENDROOT
BRANCH  14  15
ATOM     15  CB  GLU D 570     -19.500  -6.345 -13.794  1.00 32.92     0.043 C 
BRANCH  15  16
ATOM     16  CG  GLU D 570     -20.442  -5.533 -12.982  1.00 32.92     0.100 C 
BRANCH  16  17
ATOM     17  CD  GLU D 570     -21.745  -5.254 -13.694  1.00 32.92     0.185 C 
ATOM     18  OE1 GLU D 570     -22.232  -6.132 -14.431  1.00 32.92    -0.647 OA
ATOM     19  OE2 GLU D 570     -22.276  -4.138 -13.526  1.00 32.92    -0.647 OA
ENDBRANCH  16  17
ENDBRANCH  15  16
ENDBRANCH  14  15
END_RES GLU D 570
ENDMDL
MODEL 5
REMARK VINA RESULT:      -1.0      5.781      5.820
REMARK  7 active torsions:
REMARK  status: ('A' for Active; 'I' for Inactive)
REMARK    1  A    between atoms: C_5  and  S_40 
REMARK    2  A    between atoms: C_7  and  N_8 
REMARK    3  A    between atoms: N_8  and  C_9 
REMARK    4  A    between atoms: C_12  and  N_15 
REMARK    5  A    between atoms: N_15  and  C_16 
REMARK    6  A    between atoms: C_18  and  S_24 
REMARK    7  A    between atoms: S_40  and  O_41 
ROOT
HETATM    1 NA   UNL     3     -27.117 -13.700 -13.093  1.00  0.00     0.000 Na
ENDROOT
TORSDOF 7
BEGIN_RES ARG D 557
REMARK  4 active torsions:
REMARK  status: ('A' for Active; 'I' for Inactive)
REMARK    1  A    between atoms: CA   and  CB  
REMARK    2  A    between atoms: CB   and  CG  
REMARK    3  A    between atoms: CG   and  CD  
REMARK    4  A    between atoms: CD   and  NE  
REMARK       I    between atoms: NE   and  CZ  
REMARK       I    between atoms: CZ   and  NH1 
REMARK       I    between atoms: CZ   and  NH2 
ROOT
ATOM      1  CA  ARG D 557     -26.217   2.705 -17.014  1.00 35.49     0.159 C 
ENDROOT
BRANCH   1   2
ATOM      2  CB  ARG D 557     -26.789   1.319 -17.183  1.00 35.49     0.034 C 
BRANCH   2   3
ATOM      3  CG  ARG D 557     -25.838   0.201 -17.134  1.00 35.49     0.027 C 
BRANCH   3   4
ATOM      4  CD  ARG D 557     -24.759   0.421 -16.144  1.00 35.49     0.116 C 
BRANCH   4   5
ATOM      5  NE  ARG D 557     -24.876  -0.458 -15.010  1.00 35.49    -0.212 N 
ATOM      6  CZ  ARG D 557     -24.037  -1.418 -14.693  1.00 35.49     0.666 C 
ATOM      7  NH1 ARG D 557     -22.969  -1.694 -15.418  1.00 35.49    -0.235 N 
ATOM      8  NH2 ARG D 557     -24.289  -2.104 -13.616  1.00 35.49    -0.235 N 
ATOM      9  HH  ARG D 557     -22.782  -1.254 -16.129  1.00 35.49     0.174 HD
ATOM     10  HH  ARG D 557     -22.456  -2.330 -15.161  1.00 35.49     0.174 HD
ATOM     11  HH  ARG D 557     -24.982  -1.898 -13.164  1.00 35.49     0.174 HD
ATOM     12  HH  ARG D 557     -23.768  -2.729 -13.377  1.00 35.49     0.174 HD
ATOM     13  HE  ARG D 557     -25.575  -0.398 -14.529  1.00 35.49     0.178 HD
ENDBRANCH   4   5
ENDBRANCH   3   4
ENDBRANCH   2   3
ENDBRANCH   1   2
END_RES ARG D 557
BEGIN_RES GLU D 570
REMARK  3 active torsions:
REMARK  status: ('A' for Active; 'I' for Inactive)
REMARK    5  A    between atoms: CA   and  CB  
REMARK    6  A    between atoms: CB   and  CG  
REMARK    7  A    between atoms: CG   and  CD  
ROOT
ATOM     14  CA  GLU D 570     -18.033  -6.348 -13.375  1.00 32.92     0.160 C 
ENDROOT
BRANCH  14  15
ATOM     15  CB  GLU D 570     -19.500  -6.345 -13.794  1.00 32.92     0.043 C 
BRANCH  15  16
ATOM     16  CG  GLU D 570     -20.451  -5.574 -12.952  1.00 32.92     0.100 C 
BRANCH  16  17
ATOM     17  CD  GLU D 570     -21.637  -5.053 -13.729  1.00 32.92     0.185 C 
ATOM     18  OE1 GLU D 570     -21.580  -5.023 -14.973  1.00 32.92    -0.647 OA
ATOM     19  OE2 GLU D 570     -22.629  -4.655 -13.086  1.00 32.92    -0.647 OA
ENDBRANCH  16  17
ENDBRANCH  15  16
ENDBRANCH  14  15
END_RES GLU D 570
ENDMDL
MODEL 6
REMARK VINA RESULT:      -1.0      5.126      5.210
REMARK  7 active torsions:
REMARK  status: ('A' for Active; 'I' for Inactive)
REMARK    1  A    between atoms: C_5  and  S_40 
REMARK    2  A    between atoms: C_7  and  N_8 
REMARK    3  A    between atoms: N_8  and  C_9 
REMARK    4  A    between atoms: C_12  and  N_15 
REMARK    5  A    between atoms: N_15  and  C_16 
REMARK    6  A    between atoms: C_18  and  S_24 
REMARK    7  A    between atoms: S_40  and  O_41 
ROOT
HETATM    1 NA   UNL     3     -17.910   0.285   3.175  1.00  0.00     0.000 Na
ENDROOT
TORSDOF 7
BEGIN_RES ARG D 557
REMARK  4 active torsions:
REMARK  status: ('A' for Active; 'I' for Inactive)
REMARK    1  A    between atoms: CA   and  CB  
REMARK    2  A    between atoms: CB   and  CG  
REMARK    3  A    between atoms: CG   and  CD  
REMARK    4  A    between atoms: CD   and  NE  
REMARK       I    between atoms: NE   and  CZ  
REMARK       I    between atoms: CZ   and  NH1 
REMARK       I    between atoms: CZ   and  NH2 
ROOT
ATOM      1  CA  ARG D 557     -26.217   2.705 -17.014  1.00 35.49     0.159 C 
ENDROOT
BRANCH   1   2
ATOM      2  CB  ARG D 557     -26.789   1.319 -17.183  1.00 35.49     0.034 C 
BRANCH   2   3
ATOM      3  CG  ARG D 557     -25.836   0.203 -17.157  1.00 35.49     0.027 C 
BRANCH   3   4
ATOM      4  CD  ARG D 557     -24.749   0.412 -16.173  1.00 35.49     0.116 C 
BRANCH   4   5
ATOM      5  NE  ARG D 557     -24.893  -0.433 -15.018  1.00 35.49    -0.212 N 
ATOM      6  CZ  ARG D 557     -24.077  -1.402 -14.668  1.00 35.49     0.666 C 
ATOM      7  NH1 ARG D 557     -23.009  -1.720 -15.376  1.00 35.49    -0.235 N 
ATOM      8  NH2 ARG D 557     -24.351  -2.053 -13.575  1.00 35.49    -0.235 N 
ATOM      9  HH  ARG D 557     -22.808  -1.303 -16.098  1.00 35.49     0.174 HD
ATOM     10  HH  ARG D 557     -22.511  -2.359 -15.098  1.00 35.49     0.174 HD
ATOM     11  HH  ARG D 557     -25.043  -1.821 -13.134  1.00 35.49     0.174 HD
ATOM     12  HH  ARG D 557     -23.845  -2.682 -13.315  1.00 35.49     0.174 HD
ATOM     13  HE  ARG D 557     -25.594  -0.346 -14.544  1.00 35.49     0.178 HD
ENDBRANCH   4   5
ENDBRANCH   3   4
ENDBRANCH   2   3
ENDBRANCH   1   2
END_RES ARG D 557
BEGIN_RES GLU D 570
REMARK  3 active torsions:
REMARK  status: ('A' for Active; 'I' for Inactive)
REMARK    5  A    between atoms: CA   and  CB  
REMARK    6  A    between atoms: CB   and  CG  
REMARK    7  A    between atoms: CG   and  CD  
ROOT
ATOM     14  CA  GLU D 570     -18.033  -6.348 -13.375  1.00 32.92     0.160 C 
ENDROOT
BRANCH  14  15
ATOM     15  CB  GLU D 570     -19.500  -6.345 -13.794  1.00 32.92     0.043 C 
BRANCH  15  16
ATOM     16  CG  GLU D 570     -20.442  -5.532 -12.982  1.00 32.92     0.100 C 
BRANCH  16  17
ATOM     17  CD  GLU D 570     -21.741  -5.246 -13.698  1.00 32.92     0.185 C 
ATOM     18  OE1 GLU D 570     -22.209  -6.105 -14.470  1.00 32.92    -0.647 OA
ATOM     19  OE2 GLU D 570     -22.289  -4.144 -13.498  1.00 32.92    -0.647 OA
ENDBRANCH  16  17
ENDBRANCH  15  16
ENDBRANCH  14  15
END_RES GLU D 570
ENDMDL
MODEL 7
REMARK VINA RESULT:      -0.9      8.390      8.390
REMARK  7 active torsions:
REMARK  status: ('A' for Active; 'I' for Inactive)
REMARK    1  A    between atoms: C_5  and  S_40 
REMARK    2  A    between atoms: C_7  and  N_8 
REMARK    3  A    between atoms: N_8  and  C_9 
REMARK    4  A    between atoms: C_12  and  N_15 
REMARK    5  A    between atoms: N_15  and  C_16 
REMARK    6  A    between atoms: C_18  and  S_24 
REMARK    7  A    between atoms: S_40  and  O_41 
ROOT
HETATM    1 NA   UNL     3     -32.300   2.637 -20.959  1.00  0.00     0.000 Na
ENDROOT
TORSDOF 7
BEGIN_RES ARG D 557
REMARK  4 active torsions:
REMARK  status: ('A' for Active; 'I' for Inactive)
REMARK    1  A    between atoms: CA   and  CB  
REMARK    2  A    between atoms: CB   and  CG  
REMARK    3  A    between atoms: CG   and  CD  
REMARK    4  A    between atoms: CD   and  NE  
REMARK       I    between atoms: NE   and  CZ  
REMARK       I    between atoms: CZ   and  NH1 
REMARK       I    between atoms: CZ   and  NH2 
ROOT
ATOM      1  CA  ARG D 557     -26.217   2.705 -17.014  1.00 35.49     0.159 C 
ENDROOT
BRANCH   1   2
ATOM      2  CB  ARG D 557     -26.789   1.319 -17.183  1.00 35.49     0.034 C 
BRANCH   2   3
ATOM      3  CG  ARG D 557     -25.835   0.203 -17.159  1.00 35.49     0.027 C 
BRANCH   3   4
ATOM      4  CD  ARG D 557     -24.758   0.402 -16.163  1.00 35.49     0.116 C 
BRANCH   4   5
ATOM      5  NE  ARG D 557     -24.912  -0.459 -15.020  1.00 35.49    -0.212 N 
ATOM      6  CZ  ARG D 557     -24.094  -1.427 -14.672  1.00 35.49     0.666 C 
ATOM      7  NH1 ARG D 557     -23.015  -1.729 -15.371  1.00 35.49    -0.235 N 
ATOM      8  NH2 ARG D 557     -24.377  -2.093 -13.591  1.00 35.49    -0.235 N 
ATOM      9  HH  ARG D 557     -22.808  -1.302 -16.085  1.00 35.49     0.174 HD
ATOM     10  HH  ARG D 557     -22.517  -2.369 -15.095  1.00 35.49     0.174 HD
ATOM     11  HH  ARG D 557     -25.076  -1.871 -13.156  1.00 35.49     0.174 HD
ATOM     12  HH  ARG D 557     -23.871  -2.723 -13.333  1.00 35.49     0.174 HD
ATOM     13  HE  ARG D 557     -25.619  -0.381 -14.554  1.00 35.49     0.178 HD
ENDBRANCH   4   5
ENDBRANCH   3   4
ENDBRANCH   2   3
ENDBRANCH   1   2
END_RES ARG D 557
BEGIN_RES GLU D 570
REMARK  3 active torsions:
REMARK  status: ('A' for Active; 'I' for Inactive)
REMARK    5  A    between atoms: CA   and  CB  
REMARK    6  A    between atoms: CB   and  CG  
REMARK    7  A    between atoms: CG   and  CD  
ROOT
ATOM     14  CA  GLU D 570     -18.033  -6.348 -13.375  1.00 32.92     0.160 C 
ENDROOT
BRANCH  14  15
ATOM     15  CB  GLU D 570     -19.500  -6.345 -13.794  1.00 32.92     0.043 C 
BRANCH  15  16
ATOM     16  CG  GLU D 570     -20.440  -5.522 -12.990  1.00 32.92     0.100 C 
BRANCH  16  17
ATOM     17  CD  GLU D 570     -21.733  -5.227 -13.714  1.00 32.92     0.185 C 
ATOM     18  OE1 GLU D 570     -22.305  -4.139 -13.512  1.00 32.92    -0.647 OA
ATOM     19  OE2 GLU D 570     -22.187  -6.101 -14.479  1.00 32.92    -0.647 OA
ENDBRANCH  16  17
ENDBRANCH  15  16
ENDBRANCH  14  15
END_RES GLU D 570
ENDMDL
MODEL 8
REMARK VINA RESULT:      -0.8      2.483      2.838
REMARK  7 active torsions:
REMARK  status: ('A' for Active; 'I' for Inactive)
REMARK    1  A    between atoms: C_5  and  S_40 
REMARK    2  A    between atoms: C_7  and  N_8 
REMARK    3  A    between atoms: N_8  and  C_9 
REMARK    4  A    between atoms: C_12  and  N_15 
REMARK    5  A    between atoms: N_15  and  C_16 
REMARK    6  A    between atoms: C_18  and  S_24 
REMARK    7  A    between atoms: S_40  and  O_41 
ROOT
HETATM    1 NA   UNL     3     -32.322  -8.563   4.502  1.00  0.00     0.000 Na
ENDROOT
TORSDOF 7
BEGIN_RES ARG D 557
REMARK  4 active torsions:
REMARK  status: ('A' for Active; 'I' for Inactive)
REMARK    1  A    between atoms: CA   and  CB  
REMARK    2  A    between atoms: CB   and  CG  
REMARK    3  A    between atoms: CG   and  CD  
REMARK    4  A    between atoms: CD   and  NE  
REMARK       I    between atoms: NE   and  CZ  
REMARK       I    between atoms: CZ   and  NH1 
REMARK       I    between atoms: CZ   and  NH2 
ROOT
ATOM      1  CA  ARG D 557     -26.217   2.705 -17.014  1.00 35.49     0.159 C 
ENDROOT
BRANCH   1   2
ATOM      2  CB  ARG D 557     -26.789   1.319 -17.183  1.00 35.49     0.034 C 
BRANCH   2   3
ATOM      3  CG  ARG D 557     -28.213   1.149 -16.870  1.00 35.49     0.027 C 
BRANCH   3   4
ATOM      4  CD  ARG D 557     -28.600  -0.275 -16.756  1.00 35.49     0.116 C 
BRANCH   4   5
ATOM      5  NE  ARG D 557     -27.607  -1.053 -16.062  1.00 35.49    -0.212 N 
ATOM      6  CZ  ARG D 557     -27.469  -2.358 -16.130  1.00 35.49     0.666 C 
ATOM      7  NH1 ARG D 557     -28.265  -3.119 -16.857  1.00 35.49    -0.235 N 
ATOM      8  NH2 ARG D 557     -26.498  -2.895 -15.449  1.00 35.49    -0.235 N 
ATOM      9  HH  ARG D 557     -28.909  -2.787 -17.314  1.00 35.49     0.174 HD
ATOM     10  HH  ARG D 557     -28.125  -3.964 -16.865  1.00 35.49     0.174 HD
ATOM     11  HH  ARG D 557     -25.994  -2.378 -14.994  1.00 35.49     0.174 HD
ATOM     12  HH  ARG D 557     -26.374  -3.733 -15.471  1.00 35.49     0.174 HD
ATOM     13  HE  ARG D 557     -27.097  -0.651 -15.513  1.00 35.49     0.178 HD
ENDBRANCH   4   5
ENDBRANCH   3   4
ENDBRANCH   2   3
ENDBRANCH   1   2
END_RES ARG D 557
BEGIN_RES GLU D 570
REMARK  3 active torsions:
REMARK  status: ('A' for Active; 'I' for Inactive)
REMARK    5  A    between atoms: CA   and  CB  
REMARK    6  A    between atoms: CB   and  CG  
REMARK    7  A    between atoms: CG   and  CD  
ROOT
ATOM     14  CA  GLU D 570     -18.033  -6.348 -13.375  1.00 32.92     0.160 C 
ENDROOT
BRANCH  14  15
ATOM     15  CB  GLU D 570     -19.500  -6.345 -13.794  1.00 32.92     0.043 C 
BRANCH  15  16
ATOM     16  CG  GLU D 570     -20.448  -5.560 -12.962  1.00 32.92     0.100 C 
BRANCH  16  17
ATOM     17  CD  GLU D 570     -21.702  -5.168 -13.708  1.00 32.92     0.185 C 
ATOM     18  OE1 GLU D 570     -22.742  -4.933 -13.063  1.00 32.92    -0.647 OA
ATOM     19  OE2 GLU D 570     -21.649  -5.112 -14.953  1.00 32.92    -0.647 OA
ENDBRANCH  16  17
ENDBRANCH  15  16
ENDBRANCH  14  15
END_RES GLU D 570
ENDMDL
MODEL 9
REMARK VINA RESULT:      -0.8      1.722      1.956
REMARK  7 active torsions:
REMARK  status: ('A' for Active; 'I' for Inactive)
REMARK    1  A    between atoms: C_5  and  S_40 
REMARK    2  A    between atoms: C_7  and  N_8 
REMARK    3  A    between atoms: N_8  and  C_9 
REMARK    4  A    between atoms: C_12  and  N_15 
REMARK    5  A    between atoms: N_15  and  C_16 
REMARK    6  A    between atoms: C_18  and  S_24 
REMARK    7  A    between atoms: S_40  and  O_41 
ROOT
HETATM    1 NA   UNL     3     -34.032  -6.975  -0.709  1.00  0.00     0.000 Na
ENDROOT
TORSDOF 7
BEGIN_RES ARG D 557
REMARK  4 active torsions:
REMARK  status: ('A' for Active; 'I' for Inactive)
REMARK    1  A    between atoms: CA   and  CB  
REMARK    2  A    between atoms: CB   and  CG  
REMARK    3  A    between atoms: CG   and  CD  
REMARK    4  A    between atoms: CD   and  NE  
REMARK       I    between atoms: NE   and  CZ  
REMARK       I    between atoms: CZ   and  NH1 
REMARK       I    between atoms: CZ   and  NH2 
ROOT
ATOM      1  CA  ARG D 557     -26.217   2.705 -17.014  1.00 35.49     0.159 C 
ENDROOT
BRANCH   1   2
ATOM      2  CB  ARG D 557     -26.789   1.319 -17.183  1.00 35.49     0.034 C 
BRANCH   2   3
ATOM      3  CG  ARG D 557     -25.833   0.205 -17.185  1.00 35.49     0.027 C 
BRANCH   3   4
ATOM      4  CD  ARG D 557     -24.738   0.400 -16.207  1.00 35.49     0.116 C 
BRANCH   4   5
ATOM      5  NE  ARG D 557     -24.894  -0.435 -15.045  1.00 35.49    -0.212 N 
ATOM      6  CZ  ARG D 557     -24.085  -1.405 -14.682  1.00 35.49     0.666 C 
ATOM      7  NH1 ARG D 557     -23.013  -1.734 -15.381  1.00 35.49    -0.235 N 
ATOM      8  NH2 ARG D 557     -24.369  -2.046 -13.586  1.00 35.49    -0.235 N 
ATOM      9  HH  ARG D 557     -22.806  -1.324 -16.104  1.00 35.49     0.174 HD
ATOM     10  HH  ARG D 557     -22.521  -2.374 -15.094  1.00 35.49     0.174 HD
ATOM     11  HH  ARG D 557     -25.063  -1.807 -13.152  1.00 35.49     0.174 HD
ATOM     12  HH  ARG D 557     -23.868  -2.676 -13.318  1.00 35.49     0.174 HD
ATOM     13  HE  ARG D 557     -25.597  -0.341 -14.577  1.00 35.49     0.178 HD
ENDBRANCH   4   5
ENDBRANCH   3   4
ENDBRANCH   2   3
ENDBRANCH   1   2
END_RES ARG D 557
BEGIN_RES GLU D 570
REMARK  3 active torsions:
REMARK  status: ('A' for Active; 'I' for Inactive)
REMARK    5  A    between atoms: CA   and  CB  
REMARK    6  A    between atoms: CB   and  CG  
REMARK    7  A    between atoms: CG   and  CD  
ROOT
ATOM     14  CA  GLU D 570     -18.033  -6.348 -13.375  1.00 32.92     0.160 C 
ENDROOT
BRANCH  14  15
ATOM     15  CB  GLU D 570     -19.500  -6.345 -13.794  1.00 32.92     0.043 C 
BRANCH  15  16
ATOM     16  CG  GLU D 570     -20.439  -5.518 -12.993  1.00 32.92     0.100 C 
BRANCH  16  17
ATOM     17  CD  GLU D 570     -21.724  -5.210 -13.725  1.00 32.92     0.185 C 
ATOM     18  OE1 GLU D 570     -22.130  -6.003 -14.596  1.00 32.92    -0.647 OA
ATOM     19  OE2 GLU D 570     -22.324  -4.155 -13.435  1.00 32.92    -0.647 OA
ENDBRANCH  16  17
ENDBRANCH  15  16
ENDBRANCH  14  15
END_RES GLU D 570
ENDMDL
