MODEL 1
REMARK VINA RESULT:      -5.7      0.000      0.000
REMARK  13 active torsions:
REMARK  status: ('A' for Active; 'I' for Inactive)
REMARK    1  A    between atoms: C_2  and  C_3 
REMARK    2  A    between atoms: C_3  and  C_4 
REMARK    3  A    between atoms: C_4  and  O_5 
REMARK    4  A    between atoms: O_5  and  C_6 
REMARK    5  A    between atoms: C_6  and  C_7 
REMARK    6  A    between atoms: C_7  and  O_8 
REMARK    7  A    between atoms: O_8  and  C_9 
REMARK    8  A    between atoms: C_9  and  C_10 
REMARK    9  A    between atoms: C_10  and  O_12 
REMARK   10  A    between atoms: O_12  and  C_13 
REMARK   11  A    between atoms: C_13  and  C_14 
REMARK   12  A    between atoms: C_14  and  C_15 
REMARK   13  A    between atoms: C_15  and  O_16 
ROOT
HETATM    1  C   UNL     1     -34.946  -1.320 -12.474  1.00  0.00     0.199 C 
ENDROOT
BRANCH   1   2
HETATM    2  O   UNL     1     -36.352  -1.523 -12.565  1.00  0.00    -0.387 OA
BRANCH   2   3
HETATM    3  C   UNL     1     -37.049  -0.297 -12.356  1.00  0.00     0.193 C 
BRANCH   3   4
HETATM    4  C   UNL     1     -37.763  -0.367 -11.020  1.00  0.00     0.193 C 
BRANCH   4   5
HETATM    5  O   UNL     1     -37.080   0.457 -10.080  1.00  0.00    -0.389 OA
BRANCH   5   6
HETATM    6  C   UNL     1     -36.716  -0.285  -8.922  1.00  0.00     0.167 C 
BRANCH   6   7
HETATM    7  C   UNL     1     -37.660   0.089  -7.792  1.00  0.00     0.026 C 
BRANCH   7   8
HETATM    8  C   UNL     1     -37.018   1.107  -6.856  1.00  0.00    -0.002 C 
HETATM    9  C   UNL     1     -37.177   0.700  -5.402  1.00  0.00     0.005 C 
ENDBRANCH   7   8
ENDBRANCH   6   7
ENDBRANCH   5   6
ENDBRANCH   4   5
ENDBRANCH   3   4
ENDBRANCH   2   3
ENDBRANCH   1   2
BRANCH   1  10
HETATM   10  C   UNL     1     -34.255  -2.547 -11.861  1.00  0.00     0.141 C 
HETATM   11  C   UNL     1     -33.562  -2.177 -10.550  1.00  0.00     0.042 C 
BRANCH  10  12
HETATM   12  O   UNL     1     -35.200  -3.593 -11.581  1.00  0.00    -0.384 OA
BRANCH  12  13
HETATM   13  C   UNL     1     -34.823  -4.839 -12.173  1.00  0.00     0.170 C 
BRANCH  13  14
HETATM   14  C   UNL     1     -33.883  -5.598 -11.248  1.00  0.00     0.052 C 
BRANCH  14  15
HETATM   15  C   UNL     1     -34.675  -6.299 -10.149  1.00  0.00     0.169 C 
BRANCH  15  16
HETATM   16  O   UNL     1     -34.910  -7.650 -10.541  1.00  0.00    -0.396 OA
HETATM   17  C   UNL     1     -34.037  -8.556  -9.882  1.00  0.00     0.201 C 
ENDBRANCH  15  16
ENDBRANCH  14  15
ENDBRANCH  13  14
ENDBRANCH  12  13
ENDBRANCH  10  12
ENDBRANCH   1  10
TORSDOF 13
BEGIN_RES ARG D 557
REMARK  4 active torsions:
REMARK  status: ('A' for Active; 'I' for Inactive)
REMARK    1  A    between atoms: CA   and  CB  
REMARK    2  A    between atoms: CB   and  CG  
REMARK    3  A    between atoms: CG   and  CD  
REMARK    4  A    between atoms: CD   and  NE  
REMARK       I    between atoms: NE   and  CZ  
REMARK       I    between atoms: CZ   and  NH1 
REMARK       I    between atoms: CZ   and  NH2 
ROOT
ATOM      1  CA  ARG D 557     -26.217   2.705 -17.014  1.00 35.49     0.159 C 
ENDROOT
BRANCH   1   2
ATOM      2  CB  ARG D 557     -26.789   1.319 -17.183  1.00 35.49     0.034 C 
BRANCH   2   3
ATOM      3  CG  ARG D 557     -25.924   0.196 -16.800  1.00 35.49     0.027 C 
BRANCH   3   4
ATOM      4  CD  ARG D 557     -26.668  -0.875 -16.099  1.00 35.49     0.116 C 
BRANCH   4   5
ATOM      5  NE  ARG D 557     -25.863  -1.532 -15.103  1.00 35.49    -0.212 N 
ATOM      6  CZ  ARG D 557     -25.916  -2.808 -14.793  1.00 35.49     0.666 C 
ATOM      7  NH1 ARG D 557     -26.754  -3.646 -15.375  1.00 35.49    -0.235 N 
ATOM      8  NH2 ARG D 557     -25.095  -3.238 -13.879  1.00 35.49    -0.235 N 
ATOM      9  HH  ARG D 557     -27.301  -3.385 -15.981  1.00 35.49     0.174 HD
ATOM     10  HH  ARG D 557     -26.741  -4.468 -15.134  1.00 35.49     0.174 HD
ATOM     11  HH  ARG D 557     -24.560  -2.676 -13.525  1.00 35.49     0.174 HD
ATOM     12  HH  ARG D 557     -25.097  -4.056 -13.654  1.00 35.49     0.174 HD
ATOM     13  HE  ARG D 557     -25.346  -1.053 -14.628  1.00 35.49     0.178 HD
ENDBRANCH   4   5
ENDBRANCH   3   4
ENDBRANCH   2   3
ENDBRANCH   1   2
END_RES ARG D 557
BEGIN_RES GLU D 570
REMARK  3 active torsions:
REMARK  status: ('A' for Active; 'I' for Inactive)
REMARK    5  A    between atoms: CA   and  CB  
REMARK    6  A    between atoms: CB   and  CG  
REMARK    7  A    between atoms: CG   and  CD  
ROOT
ATOM     14  CA  GLU D 570     -18.033  -6.348 -13.375  1.00 32.92     0.160 C 
ENDROOT
BRANCH  14  15
ATOM     15  CB  GLU D 570     -19.500  -6.345 -13.794  1.00 32.92     0.043 C 
BRANCH  15  16
ATOM     16  CG  GLU D 570     -20.445  -5.545 -12.973  1.00 32.92     0.100 C 
BRANCH  16  17
ATOM     17  CD  GLU D 570     -21.755  -5.277 -13.675  1.00 32.92     0.185 C 
ATOM     18  OE1 GLU D 570     -22.238  -6.158 -14.412  1.00 32.92    -0.647 OA
ATOM     19  OE2 GLU D 570     -22.296  -4.167 -13.501  1.00 32.92    -0.647 OA
ENDBRANCH  16  17
ENDBRANCH  15  16
ENDBRANCH  14  15
END_RES GLU D 570
ENDMDL
MODEL 2
REMARK VINA RESULT:      -5.5      8.684     12.508
REMARK  13 active torsions:
REMARK  status: ('A' for Active; 'I' for Inactive)
REMARK    1  A    between atoms: C_2  and  C_3 
REMARK    2  A    between atoms: C_3  and  C_4 
REMARK    3  A    between atoms: C_4  and  O_5 
REMARK    4  A    between atoms: O_5  and  C_6 
REMARK    5  A    between atoms: C_6  and  C_7 
REMARK    6  A    between atoms: C_7  and  O_8 
REMARK    7  A    between atoms: O_8  and  C_9 
REMARK    8  A    between atoms: C_9  and  C_10 
REMARK    9  A    between atoms: C_10  and  O_12 
REMARK   10  A    between atoms: O_12  and  C_13 
REMARK   11  A    between atoms: C_13  and  C_14 
REMARK   12  A    between atoms: C_14  and  C_15 
REMARK   13  A    between atoms: C_15  and  O_16 
ROOT
HETATM    1  C   UNL     1     -21.039  -5.895  -7.013  1.00  0.00     0.199 C 
ENDROOT
BRANCH   1   2
HETATM    2  O   UNL     1     -20.087  -6.739  -6.373  1.00  0.00    -0.387 OA
BRANCH   2   3
HETATM    3  C   UNL     1     -20.567  -7.158  -5.098  1.00  0.00     0.193 C 
BRANCH   3   4
HETATM    4  C   UNL     1     -22.059  -6.890  -5.029  1.00  0.00     0.193 C 
BRANCH   4   5
HETATM    5  O   UNL     1     -22.343  -6.123  -3.863  1.00  0.00    -0.389 OA
BRANCH   5   6
HETATM    6  C   UNL     1     -21.488  -6.495  -2.788  1.00  0.00     0.167 C 
BRANCH   6   7
HETATM    7  C   UNL     1     -22.301  -6.503  -1.504  1.00  0.00     0.026 C 
BRANCH   7   8
HETATM    8  C   UNL     1     -21.856  -7.632  -0.582  1.00  0.00    -0.002 C 
HETATM    9  C   UNL     1     -22.957  -8.021   0.389  1.00  0.00     0.005 C 
ENDBRANCH   7   8
ENDBRANCH   6   7
ENDBRANCH   5   6
ENDBRANCH   4   5
ENDBRANCH   3   4
ENDBRANCH   2   3
ENDBRANCH   1   2
BRANCH   1  10
HETATM   10  C   UNL     1     -20.559  -4.437  -7.023  1.00  0.00     0.141 C 
HETATM   11  C   UNL     1     -19.397  -4.258  -8.000  1.00  0.00     0.042 C 
BRANCH  10  12
HETATM   12  O   UNL     1     -21.612  -3.543  -7.422  1.00  0.00    -0.384 OA
BRANCH  12  13
HETATM   13  C   UNL     1     -22.753  -4.239  -7.929  1.00  0.00     0.170 C 
BRANCH  13  14
HETATM   14  C   UNL     1     -23.014  -3.837  -9.374  1.00  0.00     0.052 C 
BRANCH  14  15
HETATM   15  C   UNL     1     -24.495  -3.538  -9.579  1.00  0.00     0.169 C 
BRANCH  15  16
HETATM   16  O   UNL     1     -24.673  -2.948 -10.866  1.00  0.00    -0.396 OA
HETATM   17  C   UNL     1     -23.923  -3.618 -11.869  1.00  0.00     0.201 C 
ENDBRANCH  15  16
ENDBRANCH  14  15
ENDBRANCH  13  14
ENDBRANCH  12  13
ENDBRANCH  10  12
ENDBRANCH   1  10
TORSDOF 13
BEGIN_RES ARG D 557
REMARK  4 active torsions:
REMARK  status: ('A' for Active; 'I' for Inactive)
REMARK    1  A    between atoms: CA   and  CB  
REMARK    2  A    between atoms: CB   and  CG  
REMARK    3  A    between atoms: CG   and  CD  
REMARK    4  A    between atoms: CD   and  NE  
REMARK       I    between atoms: NE   and  CZ  
REMARK       I    between atoms: CZ   and  NH1 
REMARK       I    between atoms: CZ   and  NH2 
ROOT
ATOM      1  CA  ARG D 557     -26.217   2.705 -17.014  1.00 35.49     0.159 C 
ENDROOT
BRANCH   1   2
ATOM      2  CB  ARG D 557     -26.789   1.319 -17.183  1.00 35.49     0.034 C 
BRANCH   2   3
ATOM      3  CG  ARG D 557     -28.157   1.105 -16.696  1.00 35.49     0.027 C 
BRANCH   3   4
ATOM      4  CD  ARG D 557     -28.795  -0.083 -17.308  1.00 35.49     0.116 C 
BRANCH   4   5
ATOM      5  NE  ARG D 557     -28.193  -1.312 -16.863  1.00 35.49    -0.212 N 
ATOM      6  CZ  ARG D 557     -28.681  -2.518 -17.050  1.00 35.49     0.666 C 
ATOM      7  NH1 ARG D 557     -29.823  -2.731 -17.677  1.00 35.49    -0.235 N 
ATOM      8  NH2 ARG D 557     -27.989  -3.522 -16.596  1.00 35.49    -0.235 N 
ATOM      9  HH  ARG D 557     -30.294  -2.085 -17.986  1.00 35.49     0.174 HD
ATOM     10  HH  ARG D 557     -30.090  -3.540 -17.772  1.00 35.49     0.174 HD
ATOM     11  HH  ARG D 557     -27.252  -3.355 -16.202  1.00 35.49     0.174 HD
ATOM     12  HH  ARG D 557     -28.270  -4.316 -16.701  1.00 35.49     0.174 HD
ATOM     13  HE  ARG D 557     -27.491  -1.263 -16.386  1.00 35.49     0.178 HD
ENDBRANCH   4   5
ENDBRANCH   3   4
ENDBRANCH   2   3
ENDBRANCH   1   2
END_RES ARG D 557
BEGIN_RES GLU D 570
REMARK  3 active torsions:
REMARK  status: ('A' for Active; 'I' for Inactive)
REMARK    5  A    between atoms: CA   and  CB  
REMARK    6  A    between atoms: CB   and  CG  
REMARK    7  A    between atoms: CG   and  CD  
ROOT
ATOM     14  CA  GLU D 570     -18.033  -6.348 -13.375  1.00 32.92     0.160 C 
ENDROOT
BRANCH  14  15
ATOM     15  CB  GLU D 570     -19.500  -6.345 -13.794  1.00 32.92     0.043 C 
BRANCH  15  16
ATOM     16  CG  GLU D 570     -19.809  -5.989 -15.203  1.00 32.92     0.100 C 
BRANCH  16  17
ATOM     17  CD  GLU D 570     -21.251  -5.587 -15.407  1.00 32.92     0.185 C 
ATOM     18  OE1 GLU D 570     -22.111  -5.986 -14.598  1.00 32.92    -0.647 OA
ATOM     19  OE2 GLU D 570     -21.527  -4.879 -16.396  1.00 32.92    -0.647 OA
ENDBRANCH  16  17
ENDBRANCH  15  16
ENDBRANCH  14  15
END_RES GLU D 570
ENDMDL
MODEL 3
REMARK VINA RESULT:      -5.3      9.368     13.066
REMARK  13 active torsions:
REMARK  status: ('A' for Active; 'I' for Inactive)
REMARK    1  A    between atoms: C_2  and  C_3 
REMARK    2  A    between atoms: C_3  and  C_4 
REMARK    3  A    between atoms: C_4  and  O_5 
REMARK    4  A    between atoms: O_5  and  C_6 
REMARK    5  A    between atoms: C_6  and  C_7 
REMARK    6  A    between atoms: C_7  and  O_8 
REMARK    7  A    between atoms: O_8  and  C_9 
REMARK    8  A    between atoms: C_9  and  C_10 
REMARK    9  A    between atoms: C_10  and  O_12 
REMARK   10  A    between atoms: O_12  and  C_13 
REMARK   11  A    between atoms: C_13  and  C_14 
REMARK   12  A    between atoms: C_14  and  C_15 
REMARK   13  A    between atoms: C_15  and  O_16 
ROOT
HETATM    1  C   UNL     1     -20.690  -5.965  -5.465  1.00  0.00     0.199 C 
ENDROOT
BRANCH   1   2
HETATM    2  O   UNL     1     -21.870  -5.876  -4.674  1.00  0.00    -0.387 OA
BRANCH   2   3
HETATM    3  C   UNL     1     -21.870  -6.879  -3.660  1.00  0.00     0.193 C 
BRANCH   3   4
HETATM    4  C   UNL     1     -22.039  -6.206  -2.311  1.00  0.00     0.193 C 
BRANCH   4   5
HETATM    5  O   UNL     1     -21.523  -7.059  -1.295  1.00  0.00    -0.389 OA
BRANCH   5   6
HETATM    6  C   UNL     1     -22.521  -7.359  -0.326  1.00  0.00     0.167 C 
BRANCH   6   7
HETATM    7  C   UNL     1     -22.636  -8.870  -0.203  1.00  0.00     0.026 C 
BRANCH   7   8
HETATM    8  C   UNL     1     -21.274  -9.536  -0.356  1.00  0.00    -0.002 C 
HETATM    9  C   UNL     1     -20.860 -10.249   0.919  1.00  0.00     0.005 C 
ENDBRANCH   7   8
ENDBRANCH   6   7
ENDBRANCH   5   6
ENDBRANCH   4   5
ENDBRANCH   3   4
ENDBRANCH   2   3
ENDBRANCH   1   2
BRANCH   1  10
HETATM   10  C   UNL     1     -20.327  -4.597  -6.062  1.00  0.00     0.141 C 
HETATM   11  C   UNL     1     -19.218  -4.741  -7.105  1.00  0.00     0.042 C 
BRANCH  10  12
HETATM   12  O   UNL     1     -21.460  -3.990  -6.704  1.00  0.00    -0.384 OA
BRANCH  12  13
HETATM   13  C   UNL     1     -21.315  -3.935  -8.125  1.00  0.00     0.170 C 
BRANCH  13  14
HETATM   14  C   UNL     1     -22.675  -4.062  -8.798  1.00  0.00     0.052 C 
BRANCH  14  15
HETATM   15  C   UNL     1     -22.559  -3.751 -10.286  1.00  0.00     0.169 C 
BRANCH  15  16
HETATM   16  O   UNL     1     -23.783  -3.171 -10.733  1.00  0.00    -0.396 OA
HETATM   17  C   UNL     1     -24.838  -3.367  -9.803  1.00  0.00     0.201 C 
ENDBRANCH  15  16
ENDBRANCH  14  15
ENDBRANCH  13  14
ENDBRANCH  12  13
ENDBRANCH  10  12
ENDBRANCH   1  10
TORSDOF 13
BEGIN_RES ARG D 557
REMARK  4 active torsions:
REMARK  status: ('A' for Active; 'I' for Inactive)
REMARK    1  A    between atoms: CA   and  CB  
REMARK    2  A    between atoms: CB   and  CG  
REMARK    3  A    between atoms: CG   and  CD  
REMARK    4  A    between atoms: CD   and  NE  
REMARK       I    between atoms: NE   and  CZ  
REMARK       I    between atoms: CZ   and  NH1 
REMARK       I    between atoms: CZ   and  NH2 
ROOT
ATOM      1  CA  ARG D 557     -26.217   2.705 -17.014  1.00 35.49     0.159 C 
ENDROOT
BRANCH   1   2
ATOM      2  CB  ARG D 557     -26.789   1.319 -17.183  1.00 35.49     0.034 C 
BRANCH   2   3
ATOM      3  CG  ARG D 557     -25.837   0.202 -17.145  1.00 35.49     0.027 C 
BRANCH   3   4
ATOM      4  CD  ARG D 557     -24.751   0.419 -16.162  1.00 35.49     0.116 C 
BRANCH   4   5
ATOM      5  NE  ARG D 557     -24.889  -0.427 -15.006  1.00 35.49    -0.212 N 
ATOM      6  CZ  ARG D 557     -24.074  -1.400 -14.665  1.00 35.49     0.666 C 
ATOM      7  NH1 ARG D 557     -23.014  -1.722 -15.384  1.00 35.49    -0.235 N 
ATOM      8  NH2 ARG D 557     -24.342  -2.051 -13.571  1.00 35.49    -0.235 N 
ATOM      9  HH  ARG D 557     -22.818  -1.306 -16.106  1.00 35.49     0.174 HD
ATOM     10  HH  ARG D 557     -22.517  -2.364 -15.110  1.00 35.49     0.174 HD
ATOM     11  HH  ARG D 557     -25.029  -1.817 -13.123  1.00 35.49     0.174 HD
ATOM     12  HH  ARG D 557     -23.837  -2.683 -13.316  1.00 35.49     0.174 HD
ATOM     13  HE  ARG D 557     -25.585  -0.337 -14.526  1.00 35.49     0.178 HD
ENDBRANCH   4   5
ENDBRANCH   3   4
ENDBRANCH   2   3
ENDBRANCH   1   2
END_RES ARG D 557
BEGIN_RES GLU D 570
REMARK  3 active torsions:
REMARK  status: ('A' for Active; 'I' for Inactive)
REMARK    5  A    between atoms: CA   and  CB  
REMARK    6  A    between atoms: CB   and  CG  
REMARK    7  A    between atoms: CG   and  CD  
ROOT
ATOM     14  CA  GLU D 570     -18.033  -6.348 -13.375  1.00 32.92     0.160 C 
ENDROOT
BRANCH  14  15
ATOM     15  CB  GLU D 570     -19.500  -6.345 -13.794  1.00 32.92     0.043 C 
BRANCH  15  16
ATOM     16  CG  GLU D 570     -20.438  -5.513 -12.996  1.00 32.92     0.100 C 
BRANCH  16  17
ATOM     17  CD  GLU D 570     -21.744  -5.249 -13.710  1.00 32.92     0.185 C 
ATOM     18  OE1 GLU D 570     -22.306  -6.185 -14.310  1.00 32.92    -0.647 OA
ATOM     19  OE2 GLU D 570     -22.201  -4.089 -13.682  1.00 32.92    -0.647 OA
ENDBRANCH  16  17
ENDBRANCH  15  16
ENDBRANCH  14  15
END_RES GLU D 570
ENDMDL
MODEL 4
REMARK VINA RESULT:      -5.2     10.391     13.330
REMARK  13 active torsions:
REMARK  status: ('A' for Active; 'I' for Inactive)
REMARK    1  A    between atoms: C_2  and  C_3 
REMARK    2  A    between atoms: C_3  and  C_4 
REMARK    3  A    between atoms: C_4  and  O_5 
REMARK    4  A    between atoms: O_5  and  C_6 
REMARK    5  A    between atoms: C_6  and  C_7 
REMARK    6  A    between atoms: C_7  and  O_8 
REMARK    7  A    between atoms: O_8  and  C_9 
REMARK    8  A    between atoms: C_9  and  C_10 
REMARK    9  A    between atoms: C_10  and  O_12 
REMARK   10  A    between atoms: O_12  and  C_13 
REMARK   11  A    between atoms: C_13  and  C_14 
REMARK   12  A    between atoms: C_14  and  C_15 
REMARK   13  A    between atoms: C_15  and  O_16 
ROOT
HETATM    1  C   UNL     1     -21.111  -5.872  -4.583  1.00  0.00     0.199 C 
ENDROOT
BRANCH   1   2
HETATM    2  O   UNL     1     -22.223  -6.367  -3.844  1.00  0.00    -0.387 OA
BRANCH   2   3
HETATM    3  C   UNL     1     -21.997  -6.225  -2.443  1.00  0.00     0.193 C 
BRANCH   3   4
HETATM    4  C   UNL     1     -20.881  -7.168  -2.034  1.00  0.00     0.193 C 
BRANCH   4   5
HETATM    5  O   UNL     1     -21.381  -8.095  -1.075  1.00  0.00    -0.389 OA
BRANCH   5   6
HETATM    6  C   UNL     1     -22.324  -7.474  -0.209  1.00  0.00     0.167 C 
BRANCH   6   7
HETATM    7  C   UNL     1     -23.283  -8.537   0.302  1.00  0.00     0.026 C 
BRANCH   7   8
HETATM    8  C   UNL     1     -23.017  -9.880  -0.366  1.00  0.00    -0.002 C 
HETATM    9  C   UNL     1     -24.092 -10.895  -0.016  1.00  0.00     0.005 C 
ENDBRANCH   7   8
ENDBRANCH   6   7
ENDBRANCH   5   6
ENDBRANCH   4   5
ENDBRANCH   3   4
ENDBRANCH   2   3
ENDBRANCH   1   2
BRANCH   1  10
HETATM   10  C   UNL     1     -20.631  -6.909  -5.609  1.00  0.00     0.141 C 
HETATM   11  C   UNL     1     -21.399  -8.221  -5.450  1.00  0.00     0.042 C 
BRANCH  10  12
HETATM   12  O   UNL     1     -20.827  -6.442  -6.954  1.00  0.00    -0.384 OA
BRANCH  12  13
HETATM   13  C   UNL     1     -19.831  -5.496  -7.352  1.00  0.00     0.170 C 
BRANCH  13  14
HETATM   14  C   UNL     1     -20.429  -4.472  -8.305  1.00  0.00     0.052 C 
BRANCH  14  15
HETATM   15  C   UNL     1     -21.631  -3.790  -7.661  1.00  0.00     0.169 C 
BRANCH  15  16
HETATM   16  O   UNL     1     -22.759  -3.933  -8.523  1.00  0.00    -0.396 OA
HETATM   17  C   UNL     1     -22.377  -4.079  -9.883  1.00  0.00     0.201 C 
ENDBRANCH  15  16
ENDBRANCH  14  15
ENDBRANCH  13  14
ENDBRANCH  12  13
ENDBRANCH  10  12
ENDBRANCH   1  10
TORSDOF 13
BEGIN_RES ARG D 557
REMARK  4 active torsions:
REMARK  status: ('A' for Active; 'I' for Inactive)
REMARK    1  A    between atoms: CA   and  CB  
REMARK    2  A    between atoms: CB   and  CG  
REMARK    3  A    between atoms: CG   and  CD  
REMARK    4  A    between atoms: CD   and  NE  
REMARK       I    between atoms: NE   and  CZ  
REMARK       I    between atoms: CZ   and  NH1 
REMARK       I    between atoms: CZ   and  NH2 
ROOT
ATOM      1  CA  ARG D 557     -26.217   2.705 -17.014  1.00 35.49     0.159 C 
ENDROOT
BRANCH   1   2
ATOM      2  CB  ARG D 557     -26.789   1.319 -17.183  1.00 35.49     0.034 C 
BRANCH   2   3
ATOM      3  CG  ARG D 557     -25.835   0.203 -17.159  1.00 35.49     0.027 C 
BRANCH   3   4
ATOM      4  CD  ARG D 557     -24.748   0.412 -16.175  1.00 35.49     0.116 C 
BRANCH   4   5
ATOM      5  NE  ARG D 557     -24.891  -0.435 -15.021  1.00 35.49    -0.212 N 
ATOM      6  CZ  ARG D 557     -24.074  -1.403 -14.672  1.00 35.49     0.666 C 
ATOM      7  NH1 ARG D 557     -23.005  -1.719 -15.380  1.00 35.49    -0.235 N 
ATOM      8  NH2 ARG D 557     -24.348  -2.056 -13.580  1.00 35.49    -0.235 N 
ATOM      9  HH  ARG D 557     -22.805  -1.302 -16.101  1.00 35.49     0.174 HD
ATOM     10  HH  ARG D 557     -22.507  -2.358 -15.102  1.00 35.49     0.174 HD
ATOM     11  HH  ARG D 557     -25.040  -1.825 -13.139  1.00 35.49     0.174 HD
ATOM     12  HH  ARG D 557     -23.841  -2.685 -13.320  1.00 35.49     0.174 HD
ATOM     13  HE  ARG D 557     -25.592  -0.349 -14.547  1.00 35.49     0.178 HD
ENDBRANCH   4   5
ENDBRANCH   3   4
ENDBRANCH   2   3
ENDBRANCH   1   2
END_RES ARG D 557
BEGIN_RES GLU D 570
REMARK  3 active torsions:
REMARK  status: ('A' for Active; 'I' for Inactive)
REMARK    5  A    between atoms: CA   and  CB  
REMARK    6  A    between atoms: CB   and  CG  
REMARK    7  A    between atoms: CG   and  CD  
ROOT
ATOM     14  CA  GLU D 570     -18.033  -6.348 -13.375  1.00 32.92     0.160 C 
ENDROOT
BRANCH  14  15
ATOM     15  CB  GLU D 570     -19.500  -6.345 -13.794  1.00 32.92     0.043 C 
BRANCH  15  16
ATOM     16  CG  GLU D 570     -20.448  -5.560 -12.961  1.00 32.92     0.100 C 
BRANCH  16  17
ATOM     17  CD  GLU D 570     -21.741  -5.246 -13.678  1.00 32.92     0.185 C 
ATOM     18  OE1 GLU D 570     -22.246  -4.115 -13.546  1.00 32.92    -0.647 OA
ATOM     19  OE2 GLU D 570     -22.262  -6.146 -14.365  1.00 32.92    -0.647 OA
ENDBRANCH  16  17
ENDBRANCH  15  16
ENDBRANCH  14  15
END_RES GLU D 570
ENDMDL
MODEL 5
REMARK VINA RESULT:      -5.2      8.911     12.765
REMARK  13 active torsions:
REMARK  status: ('A' for Active; 'I' for Inactive)
REMARK    1  A    between atoms: C_2  and  C_3 
REMARK    2  A    between atoms: C_3  and  C_4 
REMARK    3  A    between atoms: C_4  and  O_5 
REMARK    4  A    between atoms: O_5  and  C_6 
REMARK    5  A    between atoms: C_6  and  C_7 
REMARK    6  A    between atoms: C_7  and  O_8 
REMARK    7  A    between atoms: O_8  and  C_9 
REMARK    8  A    between atoms: C_9  and  C_10 
REMARK    9  A    between atoms: C_10  and  O_12 
REMARK   10  A    between atoms: O_12  and  C_13 
REMARK   11  A    between atoms: C_13  and  C_14 
REMARK   12  A    between atoms: C_14  and  C_15 
REMARK   13  A    between atoms: C_15  and  O_16 
ROOT
HETATM    1  C   UNL     1     -20.821  -5.541  -5.242  1.00  0.00     0.199 C 
ENDROOT
BRANCH   1   2
HETATM    2  O   UNL     1     -21.917  -6.399  -5.540  1.00  0.00    -0.387 OA
BRANCH   2   3
HETATM    3  C   UNL     1     -21.546  -7.765  -5.367  1.00  0.00     0.193 C 
BRANCH   3   4
HETATM    4  C   UNL     1     -20.300  -7.823  -4.503  1.00  0.00     0.193 C 
BRANCH   4   5
HETATM    5  O   UNL     1     -20.513  -8.744  -3.437  1.00  0.00    -0.389 OA
BRANCH   5   6
HETATM    6  C   UNL     1     -20.355  -8.107  -2.175  1.00  0.00     0.167 C 
BRANCH   6   7
HETATM    7  C   UNL     1     -21.480  -8.562  -1.260  1.00  0.00     0.026 C 
BRANCH   7   8
HETATM    8  C   UNL     1     -22.322  -7.379  -0.797  1.00  0.00    -0.002 C 
HETATM    9  C   UNL     1     -22.216  -6.213  -1.764  1.00  0.00     0.005 C 
ENDBRANCH   7   8
ENDBRANCH   6   7
ENDBRANCH   5   6
ENDBRANCH   4   5
ENDBRANCH   3   4
ENDBRANCH   2   3
ENDBRANCH   1   2
BRANCH   1  10
HETATM   10  C   UNL     1     -20.624  -4.499  -6.353  1.00  0.00     0.141 C 
HETATM   11  C   UNL     1     -19.397  -4.839  -7.199  1.00  0.00     0.042 C 
BRANCH  10  12
HETATM   12  O   UNL     1     -21.763  -4.446  -7.228  1.00  0.00    -0.384 OA
BRANCH  12  13
HETATM   13  C   UNL     1     -21.411  -4.681  -8.593  1.00  0.00     0.170 C 
BRANCH  13  14
HETATM   14  C   UNL     1     -22.358  -3.928  -9.517  1.00  0.00     0.052 C 
BRANCH  14  15
HETATM   15  C   UNL     1     -23.364  -4.890 -10.140  1.00  0.00     0.169 C 
BRANCH  15  16
HETATM   16  O   UNL     1     -24.458  -4.139 -10.664  1.00  0.00    -0.396 OA
HETATM   17  C   UNL     1     -24.952  -3.194  -9.727  1.00  0.00     0.201 C 
ENDBRANCH  15  16
ENDBRANCH  14  15
ENDBRANCH  13  14
ENDBRANCH  12  13
ENDBRANCH  10  12
ENDBRANCH   1  10
TORSDOF 13
BEGIN_RES ARG D 557
REMARK  4 active torsions:
REMARK  status: ('A' for Active; 'I' for Inactive)
REMARK    1  A    between atoms: CA   and  CB  
REMARK    2  A    between atoms: CB   and  CG  
REMARK    3  A    between atoms: CG   and  CD  
REMARK    4  A    between atoms: CD   and  NE  
REMARK       I    between atoms: NE   and  CZ  
REMARK       I    between atoms: CZ   and  NH1 
REMARK       I    between atoms: CZ   and  NH2 
ROOT
ATOM      1  CA  ARG D 557     -26.217   2.705 -17.014  1.00 35.49     0.159 C 
ENDROOT
BRANCH   1   2
ATOM      2  CB  ARG D 557     -26.789   1.319 -17.183  1.00 35.49     0.034 C 
BRANCH   2   3
ATOM      3  CG  ARG D 557     -25.924   0.196 -16.801  1.00 35.49     0.027 C 
BRANCH   3   4
ATOM      4  CD  ARG D 557     -26.670  -0.883 -16.114  1.00 35.49     0.116 C 
BRANCH   4   5
ATOM      5  NE  ARG D 557     -25.933  -1.433 -15.008  1.00 35.49    -0.212 N 
ATOM      6  CZ  ARG D 557     -25.935  -2.693 -14.634  1.00 35.49     0.666 C 
ATOM      7  NH1 ARG D 557     -26.651  -3.615 -15.251  1.00 35.49    -0.235 N 
ATOM      8  NH2 ARG D 557     -25.188  -3.019 -13.619  1.00 35.49    -0.235 N 
ATOM      9  HH  ARG D 557     -27.148  -3.423 -15.922  1.00 35.49     0.174 HD
ATOM     10  HH  ARG D 557     -26.611  -4.421 -14.964  1.00 35.49     0.174 HD
ATOM     11  HH  ARG D 557     -24.730  -2.405 -13.245  1.00 35.49     0.174 HD
ATOM     12  HH  ARG D 557     -25.160  -3.823 -13.351  1.00 35.49     0.174 HD
ATOM     13  HE  ARG D 557     -25.500  -0.896 -14.510  1.00 35.49     0.178 HD
ENDBRANCH   4   5
ENDBRANCH   3   4
ENDBRANCH   2   3
ENDBRANCH   1   2
END_RES ARG D 557
BEGIN_RES GLU D 570
REMARK  3 active torsions:
REMARK  status: ('A' for Active; 'I' for Inactive)
REMARK    5  A    between atoms: CA   and  CB  
REMARK    6  A    between atoms: CB   and  CG  
REMARK    7  A    between atoms: CG   and  CD  
ROOT
ATOM     14  CA  GLU D 570     -18.033  -6.348 -13.375  1.00 32.92     0.160 C 
ENDROOT
BRANCH  14  15
ATOM     15  CB  GLU D 570     -19.500  -6.345 -13.794  1.00 32.92     0.043 C 
BRANCH  15  16
ATOM     16  CG  GLU D 570     -20.437  -5.508 -13.001  1.00 32.92     0.100 C 
BRANCH  16  17
ATOM     17  CD  GLU D 570     -21.729  -5.218 -13.729  1.00 32.92     0.185 C 
ATOM     18  OE1 GLU D 570     -22.101  -5.991 -14.632  1.00 32.92    -0.647 OA
ATOM     19  OE2 GLU D 570     -22.366  -4.197 -13.403  1.00 32.92    -0.647 OA
ENDBRANCH  16  17
ENDBRANCH  15  16
ENDBRANCH  14  15
END_RES GLU D 570
ENDMDL
MODEL 6
REMARK VINA RESULT:      -5.1      8.937     13.192
REMARK  13 active torsions:
REMARK  status: ('A' for Active; 'I' for Inactive)
REMARK    1  A    between atoms: C_2  and  C_3 
REMARK    2  A    between atoms: C_3  and  C_4 
REMARK    3  A    between atoms: C_4  and  O_5 
REMARK    4  A    between atoms: O_5  and  C_6 
REMARK    5  A    between atoms: C_6  and  C_7 
REMARK    6  A    between atoms: C_7  and  O_8 
REMARK    7  A    between atoms: O_8  and  C_9 
REMARK    8  A    between atoms: C_9  and  C_10 
REMARK    9  A    between atoms: C_10  and  O_12 
REMARK   10  A    between atoms: O_12  and  C_13 
REMARK   11  A    between atoms: C_13  and  C_14 
REMARK   12  A    between atoms: C_14  and  C_15 
REMARK   13  A    between atoms: C_15  and  O_16 
ROOT
HETATM    1  C   UNL     1     -21.187  -5.852  -4.584  1.00  0.00     0.199 C 
ENDROOT
BRANCH   1   2
HETATM    2  O   UNL     1     -22.160  -6.381  -3.690  1.00  0.00    -0.387 OA
BRANCH   2   3
HETATM    3  C   UNL     1     -21.828  -6.059  -2.341  1.00  0.00     0.193 C 
BRANCH   3   4
HETATM    4  C   UNL     1     -21.989  -7.306  -1.491  1.00  0.00     0.193 C 
BRANCH   4   5
HETATM    5  O   UNL     1     -22.822  -7.006  -0.375  1.00  0.00    -0.389 OA
BRANCH   5   6
HETATM    6  C   UNL     1     -23.027  -8.160   0.431  1.00  0.00     0.167 C 
BRANCH   6   7
HETATM    7  C   UNL     1     -22.838  -9.395  -0.436  1.00  0.00     0.026 C 
BRANCH   7   8
HETATM    8  C   UNL     1     -23.839 -10.482  -0.064  1.00  0.00    -0.002 C 
HETATM    9  C   UNL     1     -23.951 -11.529  -1.159  1.00  0.00     0.005 C 
ENDBRANCH   7   8
ENDBRANCH   6   7
ENDBRANCH   5   6
ENDBRANCH   4   5
ENDBRANCH   3   4
ENDBRANCH   2   3
ENDBRANCH   1   2
BRANCH   1  10
HETATM   10  C   UNL     1     -20.614  -6.956  -5.484  1.00  0.00     0.141 C 
HETATM   11  C   UNL     1     -21.303  -8.291  -5.206  1.00  0.00     0.042 C 
BRANCH  10  12
HETATM   12  O   UNL     1     -20.799  -6.644  -6.875  1.00  0.00    -0.384 OA
BRANCH  12  13
HETATM   13  C   UNL     1     -20.577  -5.261  -7.157  1.00  0.00     0.170 C 
BRANCH  13  14
HETATM   14  C   UNL     1     -20.860  -4.971  -8.624  1.00  0.00     0.052 C 
BRANCH  14  15
HETATM   15  C   UNL     1     -22.325  -4.594  -8.815  1.00  0.00     0.169 C 
BRANCH  15  16
HETATM   16  O   UNL     1     -22.668  -4.756 -10.190  1.00  0.00    -0.396 OA
HETATM   17  C   UNL     1     -23.991  -4.320 -10.465  1.00  0.00     0.201 C 
ENDBRANCH  15  16
ENDBRANCH  14  15
ENDBRANCH  13  14
ENDBRANCH  12  13
ENDBRANCH  10  12
ENDBRANCH   1  10
TORSDOF 13
BEGIN_RES ARG D 557
REMARK  4 active torsions:
REMARK  status: ('A' for Active; 'I' for Inactive)
REMARK    1  A    between atoms: CA   and  CB  
REMARK    2  A    between atoms: CB   and  CG  
REMARK    3  A    between atoms: CG   and  CD  
REMARK    4  A    between atoms: CD   and  NE  
REMARK       I    between atoms: NE   and  CZ  
REMARK       I    between atoms: CZ   and  NH1 
REMARK       I    between atoms: CZ   and  NH2 
ROOT
ATOM      1  CA  ARG D 557     -26.217   2.705 -17.014  1.00 35.49     0.159 C 
ENDROOT
BRANCH   1   2
ATOM      2  CB  ARG D 557     -26.789   1.319 -17.183  1.00 35.49     0.034 C 
BRANCH   2   3
ATOM      3  CG  ARG D 557     -28.232   1.226 -17.435  1.00 35.49     0.027 C 
BRANCH   3   4
ATOM      4  CD  ARG D 557     -28.912   0.310 -16.492  1.00 35.49     0.116 C 
BRANCH   4   5
ATOM      5  NE  ARG D 557     -29.324  -0.915 -17.126  1.00 35.49    -0.212 N 
ATOM      6  CZ  ARG D 557     -28.713  -2.074 -17.028  1.00 35.49     0.666 C 
ATOM      7  NH1 ARG D 557     -27.609  -2.236 -16.322  1.00 35.49    -0.235 N 
ATOM      8  NH2 ARG D 557     -29.239  -3.085 -17.655  1.00 35.49    -0.235 N 
ATOM      9  HH  ARG D 557     -27.246  -1.585 -15.900  1.00 35.49     0.174 HD
ATOM     10  HH  ARG D 557     -27.255  -3.016 -16.293  1.00 35.49     0.174 HD
ATOM     11  HH  ARG D 557     -29.957  -2.953 -18.097  1.00 35.49     0.174 HD
ATOM     12  HH  ARG D 557     -28.876  -3.850 -17.612  1.00 35.49     0.174 HD
ATOM     13  HE  ARG D 557     -29.986  -0.885 -17.659  1.00 35.49     0.178 HD
ENDBRANCH   4   5
ENDBRANCH   3   4
ENDBRANCH   2   3
ENDBRANCH   1   2
END_RES ARG D 557
BEGIN_RES GLU D 570
REMARK  3 active torsions:
REMARK  status: ('A' for Active; 'I' for Inactive)
REMARK    5  A    between atoms: CA   and  CB  
REMARK    6  A    between atoms: CB   and  CG  
REMARK    7  A    between atoms: CG   and  CD  
ROOT
ATOM     14  CA  GLU D 570     -18.033  -6.348 -13.375  1.00 32.92     0.160 C 
ENDROOT
BRANCH  14  15
ATOM     15  CB  GLU D 570     -19.500  -6.345 -13.794  1.00 32.92     0.043 C 
BRANCH  15  16
ATOM     16  CG  GLU D 570     -20.437  -5.511 -12.999  1.00 32.92     0.100 C 
BRANCH  16  17
ATOM     17  CD  GLU D 570     -21.737  -5.234 -13.719  1.00 32.92     0.185 C 
ATOM     18  OE1 GLU D 570     -22.220  -6.116 -14.454  1.00 32.92    -0.647 OA
ATOM     19  OE2 GLU D 570     -22.268  -4.118 -13.559  1.00 32.92    -0.647 OA
ENDBRANCH  16  17
ENDBRANCH  15  16
ENDBRANCH  14  15
END_RES GLU D 570
ENDMDL
MODEL 7
REMARK VINA RESULT:      -4.9      9.183     12.608
REMARK  13 active torsions:
REMARK  status: ('A' for Active; 'I' for Inactive)
REMARK    1  A    between atoms: C_2  and  C_3 
REMARK    2  A    between atoms: C_3  and  C_4 
REMARK    3  A    between atoms: C_4  and  O_5 
REMARK    4  A    between atoms: O_5  and  C_6 
REMARK    5  A    between atoms: C_6  and  C_7 
REMARK    6  A    between atoms: C_7  and  O_8 
REMARK    7  A    between atoms: O_8  and  C_9 
REMARK    8  A    between atoms: C_9  and  C_10 
REMARK    9  A    between atoms: C_10  and  O_12 
REMARK   10  A    between atoms: O_12  and  C_13 
REMARK   11  A    between atoms: C_13  and  C_14 
REMARK   12  A    between atoms: C_14  and  C_15 
REMARK   13  A    between atoms: C_15  and  O_16 
ROOT
HETATM    1  C   UNL     1     -20.503  -6.457  -6.052  1.00  0.00     0.199 C 
ENDROOT
BRANCH   1   2
HETATM    2  O   UNL     1     -20.818  -6.247  -7.424  1.00  0.00    -0.387 OA
BRANCH   2   3
HETATM    3  C   UNL     1     -21.034  -4.860  -7.681  1.00  0.00     0.193 C 
BRANCH   3   4
HETATM    4  C   UNL     1     -21.956  -4.727  -8.879  1.00  0.00     0.193 C 
BRANCH   4   5
HETATM    5  O   UNL     1     -22.732  -3.540  -8.742  1.00  0.00    -0.389 OA
BRANCH   5   6
HETATM    6  C   UNL     1     -24.045  -3.729  -9.257  1.00  0.00     0.167 C 
BRANCH   6   7
HETATM    7  C   UNL     1     -23.936  -4.275 -10.671  1.00  0.00     0.026 C 
BRANCH   7   8
HETATM    8  C   UNL     1     -24.024  -3.154 -11.699  1.00  0.00    -0.002 C 
HETATM    9  C   UNL     1     -22.649  -2.766 -12.215  1.00  0.00     0.005 C 
ENDBRANCH   7   8
ENDBRANCH   6   7
ENDBRANCH   5   6
ENDBRANCH   4   5
ENDBRANCH   3   4
ENDBRANCH   2   3
ENDBRANCH   1   2
BRANCH   1  10
HETATM   10  C   UNL     1     -21.740  -6.926  -5.272  1.00  0.00     0.141 C 
HETATM   11  C   UNL     1     -21.526  -8.334  -4.717  1.00  0.00     0.042 C 
BRANCH  10  12
HETATM   12  O   UNL     1     -22.021  -6.053  -4.165  1.00  0.00    -0.384 OA
BRANCH  12  13
HETATM   13  C   UNL     1     -21.359  -6.464  -2.967  1.00  0.00     0.170 C 
BRANCH  13  14
HETATM   14  C   UNL     1     -22.245  -6.198  -1.758  1.00  0.00     0.052 C 
BRANCH  14  15
HETATM   15  C   UNL     1     -22.155  -7.356  -0.771  1.00  0.00     0.169 C 
BRANCH  15  16
HETATM   16  O   UNL     1     -20.965  -8.098  -1.037  1.00  0.00    -0.396 OA
HETATM   17  C   UNL     1     -21.139  -9.488  -0.805  1.00  0.00     0.201 C 
ENDBRANCH  15  16
ENDBRANCH  14  15
ENDBRANCH  13  14
ENDBRANCH  12  13
ENDBRANCH  10  12
ENDBRANCH   1  10
TORSDOF 13
BEGIN_RES ARG D 557
REMARK  4 active torsions:
REMARK  status: ('A' for Active; 'I' for Inactive)
REMARK    1  A    between atoms: CA   and  CB  
REMARK    2  A    between atoms: CB   and  CG  
REMARK    3  A    between atoms: CG   and  CD  
REMARK    4  A    between atoms: CD   and  NE  
REMARK       I    between atoms: NE   and  CZ  
REMARK       I    between atoms: CZ   and  NH1 
REMARK       I    between atoms: CZ   and  NH2 
ROOT
ATOM      1  CA  ARG D 557     -26.217   2.705 -17.014  1.00 35.49     0.159 C 
ENDROOT
BRANCH   1   2
ATOM      2  CB  ARG D 557     -26.789   1.319 -17.183  1.00 35.49     0.034 C 
BRANCH   2   3
ATOM      3  CG  ARG D 557     -28.142   1.095 -16.661  1.00 35.49     0.027 C 
BRANCH   3   4
ATOM      4  CD  ARG D 557     -28.792  -0.090 -17.267  1.00 35.49     0.116 C 
BRANCH   4   5
ATOM      5  NE  ARG D 557     -28.173  -1.321 -16.850  1.00 35.49    -0.212 N 
ATOM      6  CZ  ARG D 557     -28.662  -2.527 -17.035  1.00 35.49     0.666 C 
ATOM      7  NH1 ARG D 557     -29.820  -2.739 -17.631  1.00 35.49    -0.235 N 
ATOM      8  NH2 ARG D 557     -27.953  -3.533 -16.610  1.00 35.49    -0.235 N 
ATOM      9  HH  ARG D 557     -30.302  -2.092 -17.920  1.00 35.49     0.174 HD
ATOM     10  HH  ARG D 557     -30.087  -3.548 -17.726  1.00 35.49     0.174 HD
ATOM     11  HH  ARG D 557     -27.206  -3.366 -16.235  1.00 35.49     0.174 HD
ATOM     12  HH  ARG D 557     -28.234  -4.326 -16.714  1.00 35.49     0.174 HD
ATOM     13  HE  ARG D 557     -27.457  -1.273 -16.394  1.00 35.49     0.178 HD
ENDBRANCH   4   5
ENDBRANCH   3   4
ENDBRANCH   2   3
ENDBRANCH   1   2
END_RES ARG D 557
BEGIN_RES GLU D 570
REMARK  3 active torsions:
REMARK  status: ('A' for Active; 'I' for Inactive)
REMARK    5  A    between atoms: CA   and  CB  
REMARK    6  A    between atoms: CB   and  CG  
REMARK    7  A    between atoms: CG   and  CD  
ROOT
ATOM     14  CA  GLU D 570     -18.033  -6.348 -13.375  1.00 32.92     0.160 C 
ENDROOT
BRANCH  14  15
ATOM     15  CB  GLU D 570     -19.500  -6.345 -13.794  1.00 32.92     0.043 C 
BRANCH  15  16
ATOM     16  CG  GLU D 570     -20.103  -7.645 -14.185  1.00 32.92     0.100 C 
BRANCH  16  17
ATOM     17  CD  GLU D 570     -20.656  -7.640 -15.591  1.00 32.92     0.185 C 
ATOM     18  OE1 GLU D 570     -21.032  -6.561 -16.089  1.00 32.92    -0.647 OA
ATOM     19  OE2 GLU D 570     -20.730  -8.728 -16.195  1.00 32.92    -0.647 OA
ENDBRANCH  16  17
ENDBRANCH  15  16
ENDBRANCH  14  15
END_RES GLU D 570
ENDMDL
MODEL 8
REMARK VINA RESULT:      -4.9      8.958     12.786
REMARK  13 active torsions:
REMARK  status: ('A' for Active; 'I' for Inactive)
REMARK    1  A    between atoms: C_2  and  C_3 
REMARK    2  A    between atoms: C_3  and  C_4 
REMARK    3  A    between atoms: C_4  and  O_5 
REMARK    4  A    between atoms: O_5  and  C_6 
REMARK    5  A    between atoms: C_6  and  C_7 
REMARK    6  A    between atoms: C_7  and  O_8 
REMARK    7  A    between atoms: O_8  and  C_9 
REMARK    8  A    between atoms: C_9  and  C_10 
REMARK    9  A    between atoms: C_10  and  O_12 
REMARK   10  A    between atoms: O_12  and  C_13 
REMARK   11  A    between atoms: C_13  and  C_14 
REMARK   12  A    between atoms: C_14  and  C_15 
REMARK   13  A    between atoms: C_15  and  O_16 
ROOT
HETATM    1  C   UNL     1     -21.193  -6.134  -6.322  1.00  0.00     0.199 C 
ENDROOT
BRANCH   1   2
HETATM    2  O   UNL     1     -22.178  -5.833  -5.338  1.00  0.00    -0.387 OA
BRANCH   2   3
HETATM    3  C   UNL     1     -22.086  -6.741  -4.243  1.00  0.00     0.193 C 
BRANCH   3   4
HETATM    4  C   UNL     1     -21.382  -6.045  -3.094  1.00  0.00     0.193 C 
BRANCH   4   5
HETATM    5  O   UNL     1     -22.168  -6.176  -1.914  1.00  0.00    -0.389 OA
BRANCH   5   6
HETATM    6  C   UNL     1     -21.937  -7.431  -1.285  1.00  0.00     0.167 C 
BRANCH   6   7
HETATM    7  C   UNL     1     -22.681  -7.451   0.041  1.00  0.00     0.026 C 
BRANCH   7   8
HETATM    8  C   UNL     1     -23.221  -8.844   0.343  1.00  0.00    -0.002 C 
HETATM    9  C   UNL     1     -22.759  -9.855  -0.692  1.00  0.00     0.005 C 
ENDBRANCH   7   8
ENDBRANCH   6   7
ENDBRANCH   5   6
ENDBRANCH   4   5
ENDBRANCH   3   4
ENDBRANCH   2   3
ENDBRANCH   1   2
BRANCH   1  10
HETATM   10  C   UNL     1     -20.932  -4.920  -7.224  1.00  0.00     0.141 C 
HETATM   11  C   UNL     1     -19.433  -4.645  -7.338  1.00  0.00     0.042 C 
BRANCH  10  12
HETATM   12  O   UNL     1     -21.444  -5.135  -8.550  1.00  0.00    -0.384 OA
BRANCH  12  13
HETATM   13  C   UNL     1     -21.705  -3.908  -9.237  1.00  0.00     0.170 C 
BRANCH  13  14
HETATM   14  C   UNL     1     -20.985  -3.894 -10.578  1.00  0.00     0.052 C 
BRANCH  14  15
HETATM   15  C   UNL     1     -21.913  -4.391 -11.681  1.00  0.00     0.169 C 
BRANCH  15  16
HETATM   16  O   UNL     1     -23.035  -3.513 -11.771  1.00  0.00    -0.396 OA
HETATM   17  C   UNL     1     -23.062  -2.806 -13.001  1.00  0.00     0.201 C 
ENDBRANCH  15  16
ENDBRANCH  14  15
ENDBRANCH  13  14
ENDBRANCH  12  13
ENDBRANCH  10  12
ENDBRANCH   1  10
TORSDOF 13
BEGIN_RES ARG D 557
REMARK  4 active torsions:
REMARK  status: ('A' for Active; 'I' for Inactive)
REMARK    1  A    between atoms: CA   and  CB  
REMARK    2  A    between atoms: CB   and  CG  
REMARK    3  A    between atoms: CG   and  CD  
REMARK    4  A    between atoms: CD   and  NE  
REMARK       I    between atoms: NE   and  CZ  
REMARK       I    between atoms: CZ   and  NH1 
REMARK       I    between atoms: CZ   and  NH2 
ROOT
ATOM      1  CA  ARG D 557     -26.217   2.705 -17.014  1.00 35.49     0.159 C 
ENDROOT
BRANCH   1   2
ATOM      2  CB  ARG D 557     -26.789   1.319 -17.183  1.00 35.49     0.034 C 
BRANCH   2   3
ATOM      3  CG  ARG D 557     -28.222   1.158 -16.909  1.00 35.49     0.027 C 
BRANCH   3   4
ATOM      4  CD  ARG D 557     -28.595  -0.255 -16.667  1.00 35.49     0.116 C 
BRANCH   4   5
ATOM      5  NE  ARG D 557     -27.569  -0.972 -15.957  1.00 35.49    -0.212 N 
ATOM      6  CZ  ARG D 557     -27.347  -2.266 -16.029  1.00 35.49     0.666 C 
ATOM      7  NH1 ARG D 557     -28.079  -3.071 -16.777  1.00 35.49    -0.235 N 
ATOM      8  NH2 ARG D 557     -26.357  -2.744 -15.332  1.00 35.49    -0.235 N 
ATOM      9  HH  ARG D 557     -28.733  -2.777 -17.245  1.00 35.49     0.174 HD
ATOM     10  HH  ARG D 557     -27.885  -3.905 -16.786  1.00 35.49     0.174 HD
ATOM     11  HH  ARG D 557     -25.897  -2.200 -14.864  1.00 35.49     0.174 HD
ATOM     12  HH  ARG D 557     -26.181  -3.573 -15.356  1.00 35.49     0.174 HD
ATOM     13  HE  ARG D 557     -27.096  -0.542 -15.396  1.00 35.49     0.178 HD
ENDBRANCH   4   5
ENDBRANCH   3   4
ENDBRANCH   2   3
ENDBRANCH   1   2
END_RES ARG D 557
BEGIN_RES GLU D 570
REMARK  3 active torsions:
REMARK  status: ('A' for Active; 'I' for Inactive)
REMARK    5  A    between atoms: CA   and  CB  
REMARK    6  A    between atoms: CB   and  CG  
REMARK    7  A    between atoms: CG   and  CD  
ROOT
ATOM     14  CA  GLU D 570     -18.033  -6.348 -13.375  1.00 32.92     0.160 C 
ENDROOT
BRANCH  14  15
ATOM     15  CB  GLU D 570     -19.500  -6.345 -13.794  1.00 32.92     0.043 C 
BRANCH  15  16
ATOM     16  CG  GLU D 570     -19.816  -5.902 -15.177  1.00 32.92     0.100 C 
BRANCH  16  17
ATOM     17  CD  GLU D 570     -21.278  -5.572 -15.370  1.00 32.92     0.185 C 
ATOM     18  OE1 GLU D 570     -21.591  -4.638 -16.134  1.00 32.92    -0.647 OA
ATOM     19  OE2 GLU D 570     -22.117  -6.243 -14.738  1.00 32.92    -0.647 OA
ENDBRANCH  16  17
ENDBRANCH  15  16
ENDBRANCH  14  15
END_RES GLU D 570
ENDMDL
MODEL 9
REMARK VINA RESULT:      -4.8     10.384     13.442
REMARK  13 active torsions:
REMARK  status: ('A' for Active; 'I' for Inactive)
REMARK    1  A    between atoms: C_2  and  C_3 
REMARK    2  A    between atoms: C_3  and  C_4 
REMARK    3  A    between atoms: C_4  and  O_5 
REMARK    4  A    between atoms: O_5  and  C_6 
REMARK    5  A    between atoms: C_6  and  C_7 
REMARK    6  A    between atoms: C_7  and  O_8 
REMARK    7  A    between atoms: O_8  and  C_9 
REMARK    8  A    between atoms: C_9  and  C_10 
REMARK    9  A    between atoms: C_10  and  O_12 
REMARK   10  A    between atoms: O_12  and  C_13 
REMARK   11  A    between atoms: C_13  and  C_14 
REMARK   12  A    between atoms: C_14  and  C_15 
REMARK   13  A    between atoms: C_15  and  O_16 
ROOT
HETATM    1  C   UNL     1     -21.531  -7.474  -3.515  1.00  0.00     0.199 C 
ENDROOT
BRANCH   1   2
HETATM    2  O   UNL     1     -21.911  -6.183  -3.979  1.00  0.00    -0.387 OA
BRANCH   2   3
HETATM    3  C   UNL     1     -20.953  -5.684  -4.911  1.00  0.00     0.193 C 
BRANCH   3   4
HETATM    4  C   UNL     1     -21.610  -5.582  -6.274  1.00  0.00     0.193 C 
BRANCH   4   5
HETATM    5  O   UNL     1     -20.794  -6.243  -7.237  1.00  0.00    -0.389 OA
BRANCH   5   6
HETATM    6  C   UNL     1     -20.259  -5.315  -8.174  1.00  0.00     0.167 C 
BRANCH   6   7
HETATM    7  C   UNL     1     -21.247  -4.171  -8.339  1.00  0.00     0.026 C 
BRANCH   7   8
HETATM    8  C   UNL     1     -21.645  -4.000  -9.800  1.00  0.00    -0.002 C 
HETATM    9  C   UNL     1     -22.955  -4.706 -10.104  1.00  0.00     0.005 C 
ENDBRANCH   7   8
ENDBRANCH   6   7
ENDBRANCH   5   6
ENDBRANCH   4   5
ENDBRANCH   3   4
ENDBRANCH   2   3
ENDBRANCH   1   2
BRANCH   1  10
HETATM   10  C   UNL     1     -21.198  -7.440  -2.017  1.00  0.00     0.141 C 
HETATM   11  C   UNL     1     -22.263  -6.661  -1.245  1.00  0.00     0.042 C 
BRANCH  10  12
HETATM   12  O   UNL     1     -21.135  -8.767  -1.465  1.00  0.00    -0.384 OA
BRANCH  12  13
HETATM   13  C   UNL     1     -22.313  -9.106  -0.729  1.00  0.00     0.170 C 
BRANCH  13  14
HETATM   14  C   UNL     1     -22.851 -10.453  -1.189  1.00  0.00     0.052 C 
BRANCH  14  15
HETATM   15  C   UNL     1     -23.916 -10.955  -0.220  1.00  0.00     0.169 C 
BRANCH  15  16
HETATM   16  O   UNL     1     -23.697 -12.343   0.027  1.00  0.00    -0.396 OA
HETATM   17  C   UNL     1     -22.496 -12.574   0.747  1.00  0.00     0.201 C 
ENDBRANCH  15  16
ENDBRANCH  14  15
ENDBRANCH  13  14
ENDBRANCH  12  13
ENDBRANCH  10  12
ENDBRANCH   1  10
TORSDOF 13
BEGIN_RES ARG D 557
REMARK  4 active torsions:
REMARK  status: ('A' for Active; 'I' for Inactive)
REMARK    1  A    between atoms: CA   and  CB  
REMARK    2  A    between atoms: CB   and  CG  
REMARK    3  A    between atoms: CG   and  CD  
REMARK    4  A    between atoms: CD   and  NE  
REMARK       I    between atoms: NE   and  CZ  
REMARK       I    between atoms: CZ   and  NH1 
REMARK       I    between atoms: CZ   and  NH2 
ROOT
ATOM      1  CA  ARG D 557     -26.217   2.705 -17.014  1.00 35.49     0.159 C 
ENDROOT
BRANCH   1   2
ATOM      2  CB  ARG D 557     -26.789   1.319 -17.183  1.00 35.49     0.034 C 
BRANCH   2   3
ATOM      3  CG  ARG D 557     -25.836   0.203 -17.155  1.00 35.49     0.027 C 
BRANCH   3   4
ATOM      4  CD  ARG D 557     -24.758   0.406 -16.160  1.00 35.49     0.116 C 
BRANCH   4   5
ATOM      5  NE  ARG D 557     -24.910  -0.450 -15.013  1.00 35.49    -0.212 N 
ATOM      6  CZ  ARG D 557     -24.095  -1.421 -14.666  1.00 35.49     0.666 C 
ATOM      7  NH1 ARG D 557     -23.022  -1.731 -15.369  1.00 35.49    -0.235 N 
ATOM      8  NH2 ARG D 557     -24.377  -2.082 -13.581  1.00 35.49    -0.235 N 
ATOM      9  HH  ARG D 557     -22.816  -1.308 -16.085  1.00 35.49     0.174 HD
ATOM     10  HH  ARG D 557     -22.526  -2.373 -15.093  1.00 35.49     0.174 HD
ATOM     11  HH  ARG D 557     -25.073  -1.855 -13.143  1.00 35.49     0.174 HD
ATOM     12  HH  ARG D 557     -23.873  -2.713 -13.323  1.00 35.49     0.174 HD
ATOM     13  HE  ARG D 557     -25.614  -0.367 -14.543  1.00 35.49     0.178 HD
ENDBRANCH   4   5
ENDBRANCH   3   4
ENDBRANCH   2   3
ENDBRANCH   1   2
END_RES ARG D 557
BEGIN_RES GLU D 570
REMARK  3 active torsions:
REMARK  status: ('A' for Active; 'I' for Inactive)
REMARK    5  A    between atoms: CA   and  CB  
REMARK    6  A    between atoms: CB   and  CG  
REMARK    7  A    between atoms: CG   and  CD  
ROOT
ATOM     14  CA  GLU D 570     -18.033  -6.348 -13.375  1.00 32.92     0.160 C 
ENDROOT
BRANCH  14  15
ATOM     15  CB  GLU D 570     -19.500  -6.345 -13.794  1.00 32.92     0.043 C 
BRANCH  15  16
ATOM     16  CG  GLU D 570     -20.443  -5.538 -12.978  1.00 32.92     0.100 C 
BRANCH  16  17
ATOM     17  CD  GLU D 570     -21.750  -5.265 -13.686  1.00 32.92     0.185 C 
ATOM     18  OE1 GLU D 570     -22.267  -6.167 -14.372  1.00 32.92    -0.647 OA
ATOM     19  OE2 GLU D 570     -22.254  -4.130 -13.566  1.00 32.92    -0.647 OA
ENDBRANCH  16  17
ENDBRANCH  15  16
ENDBRANCH  14  15
END_RES GLU D 570
ENDMDL
