MODEL 1
REMARK VINA RESULT:      -4.3      0.000      0.000
REMARK  0 active torsions:
REMARK  status: ('A' for Active; 'I' for Inactive)
ROOT
HETATM    1  C   UNL     1     -24.114  -3.561 -10.372  1.00  0.00     0.168 C 
HETATM    2  N   UNL     1     -22.698  -3.827 -10.345  1.00  0.00    -0.289 N 
HETATM    3  C   UNL     1     -21.872  -3.764 -11.447  1.00  0.00     0.253 A 
HETATM    4  O   UNL     1     -22.170  -3.481 -12.597  1.00  0.00    -0.268 OA
HETATM    5  C   UNL     1     -20.489  -4.102 -11.047  1.00  0.00     0.083 A 
HETATM    6  C   UNL     1     -20.413  -4.375  -9.741  1.00  0.00     0.073 A 
HETATM    7  S   UNL     1     -21.919  -4.259  -8.900  1.00  0.00    -0.022 SA
ENDROOT
TORSDOF 0
BEGIN_RES ARG D 557
REMARK  4 active torsions:
REMARK  status: ('A' for Active; 'I' for Inactive)
REMARK    1  A    between atoms: CA   and  CB  
REMARK    2  A    between atoms: CB   and  CG  
REMARK    3  A    between atoms: CG   and  CD  
REMARK    4  A    between atoms: CD   and  NE  
REMARK       I    between atoms: NE   and  CZ  
REMARK       I    between atoms: CZ   and  NH1 
REMARK       I    between atoms: CZ   and  NH2 
ROOT
ATOM      1  CA  ARG D 557     -26.217   2.705 -17.014  1.00 35.49     0.159 C 
ENDROOT
BRANCH   1   2
ATOM      2  CB  ARG D 557     -26.789   1.319 -17.183  1.00 35.49     0.034 C 
BRANCH   2   3
ATOM      3  CG  ARG D 557     -25.833   0.205 -17.180  1.00 35.49     0.027 C 
BRANCH   3   4
ATOM      4  CD  ARG D 557     -24.774   0.373 -16.159  1.00 35.49     0.116 C 
BRANCH   4   5
ATOM      5  NE  ARG D 557     -24.975  -0.488 -15.023  1.00 35.49    -0.212 N 
ATOM      6  CZ  ARG D 557     -24.179  -1.463 -14.647  1.00 35.49     0.666 C 
ATOM      7  NH1 ARG D 557     -23.078  -1.774 -15.308  1.00 35.49    -0.235 N 
ATOM      8  NH2 ARG D 557     -24.506  -2.128 -13.578  1.00 35.49    -0.235 N 
ATOM      9  HH  ARG D 557     -22.842  -1.348 -16.013  1.00 35.49     0.174 HD
ATOM     10  HH  ARG D 557     -22.596  -2.419 -15.014  1.00 35.49     0.174 HD
ATOM     11  HH  ARG D 557     -25.219  -1.901 -13.168  1.00 35.49     0.174 HD
ATOM     12  HH  ARG D 557     -24.015  -2.762 -13.302  1.00 35.49     0.174 HD
ATOM     13  HE  ARG D 557     -25.698  -0.405 -14.582  1.00 35.49     0.178 HD
ENDBRANCH   4   5
ENDBRANCH   3   4
ENDBRANCH   2   3
ENDBRANCH   1   2
END_RES ARG D 557
BEGIN_RES GLU D 570
REMARK  3 active torsions:
REMARK  status: ('A' for Active; 'I' for Inactive)
REMARK    5  A    between atoms: CA   and  CB  
REMARK    6  A    between atoms: CB   and  CG  
REMARK    7  A    between atoms: CG   and  CD  
ROOT
ATOM     14  CA  GLU D 570     -18.033  -6.348 -13.375  1.00 32.92     0.160 C 
ENDROOT
BRANCH  14  15
ATOM     15  CB  GLU D 570     -19.500  -6.345 -13.794  1.00 32.92     0.043 C 
BRANCH  15  16
ATOM     16  CG  GLU D 570     -19.818  -5.882 -15.169  1.00 32.92     0.100 C 
BRANCH  16  17
ATOM     17  CD  GLU D 570     -21.294  -5.637 -15.382  1.00 32.92     0.185 C 
ATOM     18  OE1 GLU D 570     -21.672  -4.514 -15.767  1.00 32.92    -0.647 OA
ATOM     19  OE2 GLU D 570     -22.082  -6.574 -15.146  1.00 32.92    -0.647 OA
ENDBRANCH  16  17
ENDBRANCH  15  16
ENDBRANCH  14  15
END_RES GLU D 570
ENDMDL
MODEL 2
REMARK VINA RESULT:      -4.3      2.327      2.883
REMARK  0 active torsions:
REMARK  status: ('A' for Active; 'I' for Inactive)
ROOT
HETATM    1  C   UNL     1     -22.950  -4.027  -8.741  1.00  0.00     0.168 C 
HETATM    2  N   UNL     1     -23.073  -3.619 -10.118  1.00  0.00    -0.289 N 
HETATM    3  C   UNL     1     -24.263  -3.288 -10.730  1.00  0.00     0.253 A 
HETATM    4  O   UNL     1     -25.382  -3.275 -10.242  1.00  0.00    -0.268 OA
HETATM    5  C   UNL     1     -24.009  -2.926 -12.141  1.00  0.00     0.083 A 
HETATM    6  C   UNL     1     -22.709  -3.016 -12.440  1.00  0.00     0.073 A 
HETATM    7  S   UNL     1     -21.708  -3.520 -11.124  1.00  0.00    -0.022 SA
ENDROOT
TORSDOF 0
BEGIN_RES ARG D 557
REMARK  4 active torsions:
REMARK  status: ('A' for Active; 'I' for Inactive)
REMARK    1  A    between atoms: CA   and  CB  
REMARK    2  A    between atoms: CB   and  CG  
REMARK    3  A    between atoms: CG   and  CD  
REMARK    4  A    between atoms: CD   and  NE  
REMARK       I    between atoms: NE   and  CZ  
REMARK       I    between atoms: CZ   and  NH1 
REMARK       I    between atoms: CZ   and  NH2 
ROOT
ATOM      1  CA  ARG D 557     -26.217   2.705 -17.014  1.00 35.49     0.159 C 
ENDROOT
BRANCH   1   2
ATOM      2  CB  ARG D 557     -26.789   1.319 -17.183  1.00 35.49     0.034 C 
BRANCH   2   3
ATOM      3  CG  ARG D 557     -28.222   1.158 -16.910  1.00 35.49     0.027 C 
BRANCH   3   4
ATOM      4  CD  ARG D 557     -28.594  -0.253 -16.659  1.00 35.49     0.116 C 
BRANCH   4   5
ATOM      5  NE  ARG D 557     -27.566  -0.967 -15.948  1.00 35.49    -0.212 N 
ATOM      6  CZ  ARG D 557     -27.347  -2.261 -16.009  1.00 35.49     0.666 C 
ATOM      7  NH1 ARG D 557     -28.084  -3.071 -16.746  1.00 35.49    -0.235 N 
ATOM      8  NH2 ARG D 557     -26.356  -2.735 -15.311  1.00 35.49    -0.235 N 
ATOM      9  HH  ARG D 557     -28.740  -2.781 -17.214  1.00 35.49     0.174 HD
ATOM     10  HH  ARG D 557     -27.892  -3.906 -16.748  1.00 35.49     0.174 HD
ATOM     11  HH  ARG D 557     -25.892  -2.187 -14.851  1.00 35.49     0.174 HD
ATOM     12  HH  ARG D 557     -26.181  -3.565 -15.328  1.00 35.49     0.174 HD
ATOM     13  HE  ARG D 557     -27.090  -0.533 -15.393  1.00 35.49     0.178 HD
ENDBRANCH   4   5
ENDBRANCH   3   4
ENDBRANCH   2   3
ENDBRANCH   1   2
END_RES ARG D 557
BEGIN_RES GLU D 570
REMARK  3 active torsions:
REMARK  status: ('A' for Active; 'I' for Inactive)
REMARK    5  A    between atoms: CA   and  CB  
REMARK    6  A    between atoms: CB   and  CG  
REMARK    7  A    between atoms: CG   and  CD  
ROOT
ATOM     14  CA  GLU D 570     -18.033  -6.348 -13.375  1.00 32.92     0.160 C 
ENDROOT
BRANCH  14  15
ATOM     15  CB  GLU D 570     -19.500  -6.345 -13.794  1.00 32.92     0.043 C 
BRANCH  15  16
ATOM     16  CG  GLU D 570     -19.811  -5.963 -15.196  1.00 32.92     0.100 C 
BRANCH  16  17
ATOM     17  CD  GLU D 570     -21.253  -5.555 -15.390  1.00 32.92     0.185 C 
ATOM     18  OE1 GLU D 570     -21.577  -4.955 -16.432  1.00 32.92    -0.647 OA
ATOM     19  OE2 GLU D 570     -22.064  -5.825 -14.482  1.00 32.92    -0.647 OA
ENDBRANCH  16  17
ENDBRANCH  15  16
ENDBRANCH  14  15
END_RES GLU D 570
ENDMDL
MODEL 3
REMARK VINA RESULT:      -4.3      2.606      3.049
REMARK  0 active torsions:
REMARK  status: ('A' for Active; 'I' for Inactive)
ROOT
HETATM    1  C   UNL     1     -24.221  -2.918 -12.549  1.00  0.00     0.168 C 
HETATM    2  N   UNL     1     -23.687  -3.312 -11.270  1.00  0.00    -0.289 N 
HETATM    3  C   UNL     1     -24.431  -3.418 -10.114  1.00  0.00     0.253 A 
HETATM    4  O   UNL     1     -25.625  -3.211  -9.966  1.00  0.00    -0.268 OA
HETATM    5  C   UNL     1     -23.555  -3.840  -9.000  1.00  0.00     0.083 A 
HETATM    6  C   UNL     1     -22.293  -4.002  -9.409  1.00  0.00     0.073 A 
HETATM    7  S   UNL     1     -22.040  -3.682 -11.088  1.00  0.00    -0.022 SA
ENDROOT
TORSDOF 0
BEGIN_RES ARG D 557
REMARK  4 active torsions:
REMARK  status: ('A' for Active; 'I' for Inactive)
REMARK    1  A    between atoms: CA   and  CB  
REMARK    2  A    between atoms: CB   and  CG  
REMARK    3  A    between atoms: CG   and  CD  
REMARK    4  A    between atoms: CD   and  NE  
REMARK       I    between atoms: NE   and  CZ  
REMARK       I    between atoms: CZ   and  NH1 
REMARK       I    between atoms: CZ   and  NH2 
ROOT
ATOM      1  CA  ARG D 557     -26.217   2.705 -17.014  1.00 35.49     0.159 C 
ENDROOT
BRANCH   1   2
ATOM      2  CB  ARG D 557     -26.789   1.319 -17.183  1.00 35.49     0.034 C 
BRANCH   2   3
ATOM      3  CG  ARG D 557     -28.230   1.165 -16.946  1.00 35.49     0.027 C 
BRANCH   3   4
ATOM      4  CD  ARG D 557     -28.620  -0.248 -16.742  1.00 35.49     0.116 C 
BRANCH   4   5
ATOM      5  NE  ARG D 557     -27.603  -0.997 -16.052  1.00 35.49    -0.212 N 
ATOM      6  CZ  ARG D 557     -27.434  -2.299 -16.113  1.00 35.49     0.666 C 
ATOM      7  NH1 ARG D 557     -28.217  -3.083 -16.831  1.00 35.49    -0.235 N 
ATOM      8  NH2 ARG D 557     -26.445  -2.808 -15.437  1.00 35.49    -0.235 N 
ATOM      9  HH  ARG D 557     -28.872  -2.770 -17.285  1.00 35.49     0.174 HD
ATOM     10  HH  ARG D 557     -28.056  -3.925 -16.835  1.00 35.49     0.174 HD
ATOM     11  HH  ARG D 557     -25.951  -2.277 -14.989  1.00 35.49     0.174 HD
ATOM     12  HH  ARG D 557     -26.301  -3.644 -15.456  1.00 35.49     0.174 HD
ATOM     13  HE  ARG D 557     -27.099  -0.580 -15.509  1.00 35.49     0.178 HD
ENDBRANCH   4   5
ENDBRANCH   3   4
ENDBRANCH   2   3
ENDBRANCH   1   2
END_RES ARG D 557
BEGIN_RES GLU D 570
REMARK  3 active torsions:
REMARK  status: ('A' for Active; 'I' for Inactive)
REMARK    5  A    between atoms: CA   and  CB  
REMARK    6  A    between atoms: CB   and  CG  
REMARK    7  A    between atoms: CG   and  CD  
ROOT
ATOM     14  CA  GLU D 570     -18.033  -6.348 -13.375  1.00 32.92     0.160 C 
ENDROOT
BRANCH  14  15
ATOM     15  CB  GLU D 570     -19.500  -6.345 -13.794  1.00 32.92     0.043 C 
BRANCH  15  16
ATOM     16  CG  GLU D 570     -20.086  -7.634 -14.244  1.00 32.92     0.100 C 
BRANCH  16  17
ATOM     17  CD  GLU D 570     -20.697  -7.553 -15.624  1.00 32.92     0.185 C 
ATOM     18  OE1 GLU D 570     -20.720  -6.456 -16.212  1.00 32.92    -0.647 OA
ATOM     19  OE2 GLU D 570     -21.173  -8.596 -16.114  1.00 32.92    -0.647 OA
ENDBRANCH  16  17
ENDBRANCH  15  16
ENDBRANCH  14  15
END_RES GLU D 570
ENDMDL
MODEL 4
REMARK VINA RESULT:      -4.1      8.949     10.212
REMARK  0 active torsions:
REMARK  status: ('A' for Active; 'I' for Inactive)
ROOT
HETATM    1  C   UNL     1     -14.403   4.948 -20.275  1.00  0.00     0.168 C 
HETATM    2  N   UNL     1     -13.182   4.190 -20.381  1.00  0.00    -0.289 N 
HETATM    3  C   UNL     1     -11.999   4.525 -19.757  1.00  0.00     0.253 A 
HETATM    4  O   UNL     1     -11.776   5.479 -19.028  1.00  0.00    -0.268 OA
HETATM    5  C   UNL     1     -10.962   3.527 -20.095  1.00  0.00     0.083 A 
HETATM    6  C   UNL     1     -11.444   2.580 -20.906  1.00  0.00     0.073 A 
HETATM    7  S   UNL     1     -13.109   2.780 -21.325  1.00  0.00    -0.022 SA
ENDROOT
TORSDOF 0
BEGIN_RES ARG D 557
REMARK  4 active torsions:
REMARK  status: ('A' for Active; 'I' for Inactive)
REMARK    1  A    between atoms: CA   and  CB  
REMARK    2  A    between atoms: CB   and  CG  
REMARK    3  A    between atoms: CG   and  CD  
REMARK    4  A    between atoms: CD   and  NE  
REMARK       I    between atoms: NE   and  CZ  
REMARK       I    between atoms: CZ   and  NH1 
REMARK       I    between atoms: CZ   and  NH2 
ROOT
ATOM      1  CA  ARG D 557     -26.217   2.705 -17.014  1.00 35.49     0.159 C 
ENDROOT
BRANCH   1   2
ATOM      2  CB  ARG D 557     -26.789   1.319 -17.183  1.00 35.49     0.034 C 
BRANCH   2   3
ATOM      3  CG  ARG D 557     -25.836   0.203 -17.157  1.00 35.49     0.027 C 
BRANCH   3   4
ATOM      4  CD  ARG D 557     -24.752   0.410 -16.169  1.00 35.49     0.116 C 
BRANCH   4   5
ATOM      5  NE  ARG D 557     -24.898  -0.440 -15.017  1.00 35.49    -0.212 N 
ATOM      6  CZ  ARG D 557     -24.082  -1.409 -14.669  1.00 35.49     0.666 C 
ATOM      7  NH1 ARG D 557     -23.011  -1.722 -15.375  1.00 35.49    -0.235 N 
ATOM      8  NH2 ARG D 557     -24.358  -2.065 -13.579  1.00 35.49    -0.235 N 
ATOM      9  HH  ARG D 557     -22.808  -1.302 -16.094  1.00 35.49     0.174 HD
ATOM     10  HH  ARG D 557     -22.513  -2.362 -15.097  1.00 35.49     0.174 HD
ATOM     11  HH  ARG D 557     -25.053  -1.836 -13.140  1.00 35.49     0.174 HD
ATOM     12  HH  ARG D 557     -23.853  -2.694 -13.320  1.00 35.49     0.174 HD
ATOM     13  HE  ARG D 557     -25.601  -0.356 -14.546  1.00 35.49     0.178 HD
ENDBRANCH   4   5
ENDBRANCH   3   4
ENDBRANCH   2   3
ENDBRANCH   1   2
END_RES ARG D 557
BEGIN_RES GLU D 570
REMARK  3 active torsions:
REMARK  status: ('A' for Active; 'I' for Inactive)
REMARK    5  A    between atoms: CA   and  CB  
REMARK    6  A    between atoms: CB   and  CG  
REMARK    7  A    between atoms: CG   and  CD  
ROOT
ATOM     14  CA  GLU D 570     -18.033  -6.348 -13.375  1.00 32.92     0.160 C 
ENDROOT
BRANCH  14  15
ATOM     15  CB  GLU D 570     -19.500  -6.345 -13.794  1.00 32.92     0.043 C 
BRANCH  15  16
ATOM     16  CG  GLU D 570     -20.441  -5.527 -12.986  1.00 32.92     0.100 C 
BRANCH  16  17
ATOM     17  CD  GLU D 570     -21.740  -5.242 -13.704  1.00 32.92     0.185 C 
ATOM     18  OE1 GLU D 570     -22.214  -6.108 -14.463  1.00 32.92    -0.647 OA
ATOM     19  OE2 GLU D 570     -22.280  -4.134 -13.517  1.00 32.92    -0.647 OA
ENDBRANCH  16  17
ENDBRANCH  15  16
ENDBRANCH  14  15
END_RES GLU D 570
ENDMDL
MODEL 5
REMARK VINA RESULT:      -4.0      5.467      7.254
REMARK  0 active torsions:
REMARK  status: ('A' for Active; 'I' for Inactive)
ROOT
HETATM    1  C   UNL     1     -32.570  -4.623 -16.546  1.00  0.00     0.168 C 
HETATM    2  N   UNL     1     -31.264  -4.834 -17.118  1.00  0.00    -0.289 N 
HETATM    3  C   UNL     1     -30.417  -3.824 -17.521  1.00  0.00     0.253 A 
HETATM    4  O   UNL     1     -30.604  -2.618 -17.467  1.00  0.00    -0.268 OA
HETATM    5  C   UNL     1     -29.172  -4.410 -18.062  1.00  0.00     0.083 A 
HETATM    6  C   UNL     1     -29.202  -5.745 -18.016  1.00  0.00     0.073 A 
HETATM    7  S   UNL     1     -30.656  -6.402 -17.352  1.00  0.00    -0.022 SA
ENDROOT
TORSDOF 0
BEGIN_RES ARG D 557
REMARK  4 active torsions:
REMARK  status: ('A' for Active; 'I' for Inactive)
REMARK    1  A    between atoms: CA   and  CB  
REMARK    2  A    between atoms: CB   and  CG  
REMARK    3  A    between atoms: CG   and  CD  
REMARK    4  A    between atoms: CD   and  NE  
REMARK       I    between atoms: NE   and  CZ  
REMARK       I    between atoms: CZ   and  NH1 
REMARK       I    between atoms: CZ   and  NH2 
ROOT
ATOM      1  CA  ARG D 557     -26.217   2.705 -17.014  1.00 35.49     0.159 C 
ENDROOT
BRANCH   1   2
ATOM      2  CB  ARG D 557     -26.789   1.319 -17.183  1.00 35.49     0.034 C 
BRANCH   2   3
ATOM      3  CG  ARG D 557     -25.863   0.195 -16.997  1.00 35.49     0.027 C 
BRANCH   3   4
ATOM      4  CD  ARG D 557     -26.269  -0.692 -15.883  1.00 35.49     0.116 C 
BRANCH   4   5
ATOM      5  NE  ARG D 557     -25.201  -0.904 -14.942  1.00 35.49    -0.212 N 
ATOM      6  CZ  ARG D 557     -24.900  -2.047 -14.367  1.00 35.49     0.666 C 
ATOM      7  NH1 ARG D 557     -25.581  -3.155 -14.591  1.00 35.49    -0.235 N 
ATOM      8  NH2 ARG D 557     -23.883  -2.060 -13.554  1.00 35.49    -0.235 N 
ATOM      9  HH  ARG D 557     -26.252  -3.170 -15.124  1.00 35.49     0.174 HD
ATOM     10  HH  ARG D 557     -25.337  -3.872 -14.190  1.00 35.49     0.174 HD
ATOM     11  HH  ARG D 557     -23.457  -1.331 -13.434  1.00 35.49     0.174 HD
ATOM     12  HH  ARG D 557     -23.656  -2.780 -13.167  1.00 35.49     0.174 HD
ATOM     13  HE  ARG D 557     -24.756  -0.227 -14.685  1.00 35.49     0.178 HD
ENDBRANCH   4   5
ENDBRANCH   3   4
ENDBRANCH   2   3
ENDBRANCH   1   2
END_RES ARG D 557
BEGIN_RES GLU D 570
REMARK  3 active torsions:
REMARK  status: ('A' for Active; 'I' for Inactive)
REMARK    5  A    between atoms: CA   and  CB  
REMARK    6  A    between atoms: CB   and  CG  
REMARK    7  A    between atoms: CG   and  CD  
ROOT
ATOM     14  CA  GLU D 570     -18.033  -6.348 -13.375  1.00 32.92     0.160 C 
ENDROOT
BRANCH  14  15
ATOM     15  CB  GLU D 570     -19.500  -6.345 -13.794  1.00 32.92     0.043 C 
BRANCH  15  16
ATOM     16  CG  GLU D 570     -20.444  -5.539 -12.977  1.00 32.92     0.100 C 
BRANCH  16  17
ATOM     17  CD  GLU D 570     -21.681  -5.127 -13.741  1.00 32.92     0.185 C 
ATOM     18  OE1 GLU D 570     -22.743  -4.942 -13.117  1.00 32.92    -0.647 OA
ATOM     19  OE2 GLU D 570     -21.590  -5.005 -14.978  1.00 32.92    -0.647 OA
ENDBRANCH  16  17
ENDBRANCH  15  16
ENDBRANCH  14  15
END_RES GLU D 570
ENDMDL
MODEL 6
REMARK VINA RESULT:      -3.9      5.561      7.343
REMARK  0 active torsions:
REMARK  status: ('A' for Active; 'I' for Inactive)
ROOT
HETATM    1  C   UNL     1     -27.665  -6.314 -19.144  1.00  0.00     0.168 C 
HETATM    2  N   UNL     1     -28.870  -6.101 -18.383  1.00  0.00    -0.289 N 
HETATM    3  C   UNL     1     -29.823  -7.068 -18.144  1.00  0.00     0.253 A 
HETATM    4  O   UNL     1     -29.821  -8.233 -18.511  1.00  0.00    -0.268 OA
HETATM    5  C   UNL     1     -30.919  -6.492 -17.336  1.00  0.00     0.083 A 
HETATM    6  C   UNL     1     -30.696  -5.204 -17.060  1.00  0.00     0.073 A 
HETATM    7  S   UNL     1     -29.219  -4.582 -17.708  1.00  0.00    -0.022 SA
ENDROOT
TORSDOF 0
BEGIN_RES ARG D 557
REMARK  4 active torsions:
REMARK  status: ('A' for Active; 'I' for Inactive)
REMARK    1  A    between atoms: CA   and  CB  
REMARK    2  A    between atoms: CB   and  CG  
REMARK    3  A    between atoms: CG   and  CD  
REMARK    4  A    between atoms: CD   and  NE  
REMARK       I    between atoms: NE   and  CZ  
REMARK       I    between atoms: CZ   and  NH1 
REMARK       I    between atoms: CZ   and  NH2 
ROOT
ATOM      1  CA  ARG D 557     -26.217   2.705 -17.014  1.00 35.49     0.159 C 
ENDROOT
BRANCH   1   2
ATOM      2  CB  ARG D 557     -26.789   1.319 -17.183  1.00 35.49     0.034 C 
BRANCH   2   3
ATOM      3  CG  ARG D 557     -25.866   0.195 -16.986  1.00 35.49     0.027 C 
BRANCH   3   4
ATOM      4  CD  ARG D 557     -26.288  -0.694 -15.878  1.00 35.49     0.116 C 
BRANCH   4   5
ATOM      5  NE  ARG D 557     -25.229  -0.916 -14.929  1.00 35.49    -0.212 N 
ATOM      6  CZ  ARG D 557     -24.931  -2.066 -14.367  1.00 35.49     0.666 C 
ATOM      7  NH1 ARG D 557     -25.606  -3.173 -14.615  1.00 35.49    -0.235 N 
ATOM      8  NH2 ARG D 557     -23.923  -2.088 -13.543  1.00 35.49    -0.235 N 
ATOM      9  HH  ARG D 557     -26.271  -3.182 -15.155  1.00 35.49     0.174 HD
ATOM     10  HH  ARG D 557     -25.364  -3.895 -14.221  1.00 35.49     0.174 HD
ATOM     11  HH  ARG D 557     -23.501  -1.360 -13.408  1.00 35.49     0.174 HD
ATOM     12  HH  ARG D 557     -23.698  -2.813 -13.164  1.00 35.49     0.174 HD
ATOM     13  HE  ARG D 557     -24.789  -0.242 -14.656  1.00 35.49     0.178 HD
ENDBRANCH   4   5
ENDBRANCH   3   4
ENDBRANCH   2   3
ENDBRANCH   1   2
END_RES ARG D 557
BEGIN_RES GLU D 570
REMARK  3 active torsions:
REMARK  status: ('A' for Active; 'I' for Inactive)
REMARK    5  A    between atoms: CA   and  CB  
REMARK    6  A    between atoms: CB   and  CG  
REMARK    7  A    between atoms: CG   and  CD  
ROOT
ATOM     14  CA  GLU D 570     -18.033  -6.348 -13.375  1.00 32.92     0.160 C 
ENDROOT
BRANCH  14  15
ATOM     15  CB  GLU D 570     -19.500  -6.345 -13.794  1.00 32.92     0.043 C 
BRANCH  15  16
ATOM     16  CG  GLU D 570     -20.448  -5.558 -12.963  1.00 32.92     0.100 C 
BRANCH  16  17
ATOM     17  CD  GLU D 570     -21.699  -5.162 -13.712  1.00 32.92     0.185 C 
ATOM     18  OE1 GLU D 570     -21.684  -5.160 -14.957  1.00 32.92    -0.647 OA
ATOM     19  OE2 GLU D 570     -22.700  -4.833 -13.045  1.00 32.92    -0.647 OA
ENDBRANCH  16  17
ENDBRANCH  15  16
ENDBRANCH  14  15
END_RES GLU D 570
ENDMDL
MODEL 7
REMARK VINA RESULT:      -3.9      2.435      2.938
REMARK  0 active torsions:
REMARK  status: ('A' for Active; 'I' for Inactive)
ROOT
HETATM    1  C   UNL     1     -20.459  -4.796  -6.083  1.00  0.00     0.168 C 
HETATM    2  N   UNL     1     -21.099  -4.530  -7.346  1.00  0.00    -0.289 N 
HETATM    3  C   UNL     1     -22.464  -4.456  -7.529  1.00  0.00     0.253 A 
HETATM    4  O   UNL     1     -23.344  -4.593  -6.694  1.00  0.00    -0.268 OA
HETATM    5  C   UNL     1     -22.757  -4.174  -8.951  1.00  0.00     0.083 A 
HETATM    6  C   UNL     1     -21.634  -4.067  -9.667  1.00  0.00     0.073 A 
HETATM    7  S   UNL     1     -20.183  -4.285  -8.755  1.00  0.00    -0.022 SA
ENDROOT
TORSDOF 0
BEGIN_RES ARG D 557
REMARK  4 active torsions:
REMARK  status: ('A' for Active; 'I' for Inactive)
REMARK    1  A    between atoms: CA   and  CB  
REMARK    2  A    between atoms: CB   and  CG  
REMARK    3  A    between atoms: CG   and  CD  
REMARK    4  A    between atoms: CD   and  NE  
REMARK       I    between atoms: NE   and  CZ  
REMARK       I    between atoms: CZ   and  NH1 
REMARK       I    between atoms: CZ   and  NH2 
ROOT
ATOM      1  CA  ARG D 557     -26.217   2.705 -17.014  1.00 35.49     0.159 C 
ENDROOT
BRANCH   1   2
ATOM      2  CB  ARG D 557     -26.789   1.319 -17.183  1.00 35.49     0.034 C 
BRANCH   2   3
ATOM      3  CG  ARG D 557     -25.865   0.195 -16.989  1.00 35.49     0.027 C 
BRANCH   3   4
ATOM      4  CD  ARG D 557     -26.280  -0.691 -15.877  1.00 35.49     0.116 C 
BRANCH   4   5
ATOM      5  NE  ARG D 557     -25.216  -0.911 -14.933  1.00 35.49    -0.212 N 
ATOM      6  CZ  ARG D 557     -24.918  -2.059 -14.366  1.00 35.49     0.666 C 
ATOM      7  NH1 ARG D 557     -25.599  -3.165 -14.603  1.00 35.49    -0.235 N 
ATOM      8  NH2 ARG D 557     -23.905  -2.079 -13.549  1.00 35.49    -0.235 N 
ATOM      9  HH  ARG D 557     -26.268  -3.175 -15.138  1.00 35.49     0.174 HD
ATOM     10  HH  ARG D 557     -25.356  -3.885 -14.206  1.00 35.49     0.174 HD
ATOM     11  HH  ARG D 557     -23.479  -1.352 -13.421  1.00 35.49     0.174 HD
ATOM     12  HH  ARG D 557     -23.680  -2.802 -13.167  1.00 35.49     0.174 HD
ATOM     13  HE  ARG D 557     -24.772  -0.237 -14.668  1.00 35.49     0.178 HD
ENDBRANCH   4   5
ENDBRANCH   3   4
ENDBRANCH   2   3
ENDBRANCH   1   2
END_RES ARG D 557
BEGIN_RES GLU D 570
REMARK  3 active torsions:
REMARK  status: ('A' for Active; 'I' for Inactive)
REMARK    5  A    between atoms: CA   and  CB  
REMARK    6  A    between atoms: CB   and  CG  
REMARK    7  A    between atoms: CG   and  CD  
ROOT
ATOM     14  CA  GLU D 570     -18.033  -6.348 -13.375  1.00 32.92     0.160 C 
ENDROOT
BRANCH  14  15
ATOM     15  CB  GLU D 570     -19.500  -6.345 -13.794  1.00 32.92     0.043 C 
BRANCH  15  16
ATOM     16  CG  GLU D 570     -20.447  -5.556 -12.965  1.00 32.92     0.100 C 
BRANCH  16  17
ATOM     17  CD  GLU D 570     -21.683  -5.132 -13.723  1.00 32.92     0.185 C 
ATOM     18  OE1 GLU D 570     -22.743  -4.942 -13.096  1.00 32.92    -0.647 OA
ATOM     19  OE2 GLU D 570     -21.595  -5.006 -14.961  1.00 32.92    -0.647 OA
ENDBRANCH  16  17
ENDBRANCH  15  16
ENDBRANCH  14  15
END_RES GLU D 570
ENDMDL
MODEL 8
REMARK VINA RESULT:      -3.9      2.650      3.342
REMARK  0 active torsions:
REMARK  status: ('A' for Active; 'I' for Inactive)
ROOT
HETATM    1  C   UNL     1     -22.156  -4.072  -8.830  1.00  0.00     0.168 C 
HETATM    2  N   UNL     1     -22.624  -3.640 -10.123  1.00  0.00    -0.289 N 
HETATM    3  C   UNL     1     -21.801  -3.277 -11.168  1.00  0.00     0.253 A 
HETATM    4  O   UNL     1     -20.581  -3.259 -11.194  1.00  0.00    -0.268 OA
HETATM    5  C   UNL     1     -22.625  -2.886 -12.332  1.00  0.00     0.083 A 
HETATM    6  C   UNL     1     -23.930  -2.988 -12.061  1.00  0.00     0.073 A 
HETATM    7  S   UNL     1     -24.285  -3.536 -10.460  1.00  0.00    -0.022 SA
ENDROOT
TORSDOF 0
BEGIN_RES ARG D 557
REMARK  4 active torsions:
REMARK  status: ('A' for Active; 'I' for Inactive)
REMARK    1  A    between atoms: CA   and  CB  
REMARK    2  A    between atoms: CB   and  CG  
REMARK    3  A    between atoms: CG   and  CD  
REMARK    4  A    between atoms: CD   and  NE  
REMARK       I    between atoms: NE   and  CZ  
REMARK       I    between atoms: CZ   and  NH1 
REMARK       I    between atoms: CZ   and  NH2 
ROOT
ATOM      1  CA  ARG D 557     -26.217   2.705 -17.014  1.00 35.49     0.159 C 
ENDROOT
BRANCH   1   2
ATOM      2  CB  ARG D 557     -26.789   1.319 -17.183  1.00 35.49     0.034 C 
BRANCH   2   3
ATOM      3  CG  ARG D 557     -28.230   1.227 -17.445  1.00 35.49     0.027 C 
BRANCH   3   4
ATOM      4  CD  ARG D 557     -28.916   0.307 -16.509  1.00 35.49     0.116 C 
BRANCH   4   5
ATOM      5  NE  ARG D 557     -29.290  -0.931 -17.142  1.00 35.49    -0.212 N 
ATOM      6  CZ  ARG D 557     -28.651  -2.074 -17.031  1.00 35.49     0.666 C 
ATOM      7  NH1 ARG D 557     -27.551  -2.205 -16.312  1.00 35.49    -0.235 N 
ATOM      8  NH2 ARG D 557     -29.145  -3.102 -17.658  1.00 35.49    -0.235 N 
ATOM      9  HH  ARG D 557     -27.209  -1.542 -15.889  1.00 35.49     0.174 HD
ATOM     10  HH  ARG D 557     -27.179  -2.975 -16.274  1.00 35.49     0.174 HD
ATOM     11  HH  ARG D 557     -29.860  -2.989 -18.109  1.00 35.49     0.174 HD
ATOM     12  HH  ARG D 557     -28.763  -3.857 -17.607  1.00 35.49     0.174 HD
ATOM     13  HE  ARG D 557     -29.946  -0.921 -17.682  1.00 35.49     0.178 HD
ENDBRANCH   4   5
ENDBRANCH   3   4
ENDBRANCH   2   3
ENDBRANCH   1   2
END_RES ARG D 557
BEGIN_RES GLU D 570
REMARK  3 active torsions:
REMARK  status: ('A' for Active; 'I' for Inactive)
REMARK    5  A    between atoms: CA   and  CB  
REMARK    6  A    between atoms: CB   and  CG  
REMARK    7  A    between atoms: CG   and  CD  
ROOT
ATOM     14  CA  GLU D 570     -18.033  -6.348 -13.375  1.00 32.92     0.160 C 
ENDROOT
BRANCH  14  15
ATOM     15  CB  GLU D 570     -19.500  -6.345 -13.794  1.00 32.92     0.043 C 
BRANCH  15  16
ATOM     16  CG  GLU D 570     -19.811  -5.962 -15.196  1.00 32.92     0.100 C 
BRANCH  16  17
ATOM     17  CD  GLU D 570     -21.258  -5.578 -15.395  1.00 32.92     0.185 C 
ATOM     18  OE1 GLU D 570     -22.123  -6.068 -14.643  1.00 32.92    -0.647 OA
ATOM     19  OE2 GLU D 570     -21.532  -4.792 -16.322  1.00 32.92    -0.647 OA
ENDBRANCH  16  17
ENDBRANCH  15  16
ENDBRANCH  14  15
END_RES GLU D 570
ENDMDL
MODEL 9
REMARK VINA RESULT:      -3.8      4.758      6.247
REMARK  0 active torsions:
REMARK  status: ('A' for Active; 'I' for Inactive)
ROOT
HETATM    1  C   UNL     1     -27.468  -6.288 -19.294  1.00  0.00     0.168 C 
HETATM    2  N   UNL     1     -28.064  -5.963 -18.023  1.00  0.00    -0.289 N 
HETATM    3  C   UNL     1     -27.352  -5.708 -16.870  1.00  0.00     0.253 A 
HETATM    4  O   UNL     1     -26.141  -5.707 -16.718  1.00  0.00    -0.268 OA
HETATM    5  C   UNL     1     -28.290  -5.418 -15.764  1.00  0.00     0.083 A 
HETATM    6  C   UNL     1     -29.560  -5.480 -16.175  1.00  0.00     0.073 A 
HETATM    7  S   UNL     1     -29.751  -5.874 -17.847  1.00  0.00    -0.022 SA
ENDROOT
TORSDOF 0
BEGIN_RES ARG D 557
REMARK  4 active torsions:
REMARK  status: ('A' for Active; 'I' for Inactive)
REMARK    1  A    between atoms: CA   and  CB  
REMARK    2  A    between atoms: CB   and  CG  
REMARK    3  A    between atoms: CG   and  CD  
REMARK    4  A    between atoms: CD   and  NE  
REMARK       I    between atoms: NE   and  CZ  
REMARK       I    between atoms: CZ   and  NH1 
REMARK       I    between atoms: CZ   and  NH2 
ROOT
ATOM      1  CA  ARG D 557     -26.217   2.705 -17.014  1.00 35.49     0.159 C 
ENDROOT
BRANCH   1   2
ATOM      2  CB  ARG D 557     -26.789   1.319 -17.183  1.00 35.49     0.034 C 
BRANCH   2   3
ATOM      3  CG  ARG D 557     -25.834   0.204 -17.174  1.00 35.49     0.027 C 
BRANCH   3   4
ATOM      4  CD  ARG D 557     -24.763   0.387 -16.168  1.00 35.49     0.116 C 
BRANCH   4   5
ATOM      5  NE  ARG D 557     -24.941  -0.468 -15.025  1.00 35.49    -0.212 N 
ATOM      6  CZ  ARG D 557     -24.132  -1.436 -14.656  1.00 35.49     0.666 C 
ATOM      7  NH1 ARG D 557     -23.039  -1.743 -15.331  1.00 35.49    -0.235 N 
ATOM      8  NH2 ARG D 557     -24.439  -2.098 -13.578  1.00 35.49    -0.235 N 
ATOM      9  HH  ARG D 557     -22.817  -1.320 -16.042  1.00 35.49     0.174 HD
ATOM     10  HH  ARG D 557     -22.548  -2.383 -15.042  1.00 35.49     0.174 HD
ATOM     11  HH  ARG D 557     -25.146  -1.873 -13.159  1.00 35.49     0.174 HD
ATOM     12  HH  ARG D 557     -23.939  -2.727 -13.307  1.00 35.49     0.174 HD
ATOM     13  HE  ARG D 557     -25.657  -0.388 -14.574  1.00 35.49     0.178 HD
ENDBRANCH   4   5
ENDBRANCH   3   4
ENDBRANCH   2   3
ENDBRANCH   1   2
END_RES ARG D 557
BEGIN_RES GLU D 570
REMARK  3 active torsions:
REMARK  status: ('A' for Active; 'I' for Inactive)
REMARK    5  A    between atoms: CA   and  CB  
REMARK    6  A    between atoms: CB   and  CG  
REMARK    7  A    between atoms: CG   and  CD  
ROOT
ATOM     14  CA  GLU D 570     -18.033  -6.348 -13.375  1.00 32.92     0.160 C 
ENDROOT
BRANCH  14  15
ATOM     15  CB  GLU D 570     -19.500  -6.345 -13.794  1.00 32.92     0.043 C 
BRANCH  15  16
ATOM     16  CG  GLU D 570     -20.439  -5.519 -12.992  1.00 32.92     0.100 C 
BRANCH  16  17
ATOM     17  CD  GLU D 570     -21.602  -4.995 -13.802  1.00 32.92     0.185 C 
ATOM     18  OE1 GLU D 570     -22.401  -4.201 -13.269  1.00 32.92    -0.647 OA
ATOM     19  OE2 GLU D 570     -21.724  -5.394 -14.976  1.00 32.92    -0.647 OA
ENDBRANCH  16  17
ENDBRANCH  15  16
ENDBRANCH  14  15
END_RES GLU D 570
ENDMDL
