MODEL 1
REMARK VINA RESULT:      -1.3      0.000      0.000
REMARK  7 active torsions:
REMARK  status: ('A' for Active; 'I' for Inactive)
REMARK    1  A    between atoms: C_1  and  C_2 
REMARK    2  A    between atoms: C_1  and  O_16 
REMARK    3  A    between atoms: C_2  and  C_3 
REMARK    4  A    between atoms: C_2  and  O_15 
REMARK    5  A    between atoms: C_5  and  O_9 
REMARK    6  A    between atoms: O_9  and  P_10 
REMARK    7  A    between atoms: P_10  and  O_11 
ROOT
HETATM    1 NA   UNL     3     -11.258   1.718   2.516  1.00  0.00     0.000 Na
ENDROOT
TORSDOF 7
BEGIN_RES ARG D 557
REMARK  4 active torsions:
REMARK  status: ('A' for Active; 'I' for Inactive)
REMARK    1  A    between atoms: CA   and  CB  
REMARK    2  A    between atoms: CB   and  CG  
REMARK    3  A    between atoms: CG   and  CD  
REMARK    4  A    between atoms: CD   and  NE  
REMARK       I    between atoms: NE   and  CZ  
REMARK       I    between atoms: CZ   and  NH1 
REMARK       I    between atoms: CZ   and  NH2 
ROOT
ATOM      1  CA  ARG D 557     -26.217   2.705 -17.014  1.00 35.49     0.159 C 
ENDROOT
BRANCH   1   2
ATOM      2  CB  ARG D 557     -26.789   1.319 -17.183  1.00 35.49     0.034 C 
BRANCH   2   3
ATOM      3  CG  ARG D 557     -25.835   0.203 -17.159  1.00 35.49     0.027 C 
BRANCH   3   4
ATOM      4  CD  ARG D 557     -24.748   0.411 -16.175  1.00 35.49     0.116 C 
BRANCH   4   5
ATOM      5  NE  ARG D 557     -24.892  -0.438 -15.022  1.00 35.49    -0.212 N 
ATOM      6  CZ  ARG D 557     -24.075  -1.407 -14.675  1.00 35.49     0.666 C 
ATOM      7  NH1 ARG D 557     -23.007  -1.722 -15.385  1.00 35.49    -0.235 N 
ATOM      8  NH2 ARG D 557     -24.348  -2.061 -13.584  1.00 35.49    -0.235 N 
ATOM      9  HH  ARG D 557     -22.806  -1.304 -16.105  1.00 35.49     0.174 HD
ATOM     10  HH  ARG D 557     -22.509  -2.362 -15.108  1.00 35.49     0.174 HD
ATOM     11  HH  ARG D 557     -25.041  -1.831 -13.142  1.00 35.49     0.174 HD
ATOM     12  HH  ARG D 557     -23.842  -2.691 -13.326  1.00 35.49     0.174 HD
ATOM     13  HE  ARG D 557     -25.592  -0.352 -14.547  1.00 35.49     0.178 HD
ENDBRANCH   4   5
ENDBRANCH   3   4
ENDBRANCH   2   3
ENDBRANCH   1   2
END_RES ARG D 557
BEGIN_RES GLU D 570
REMARK  3 active torsions:
REMARK  status: ('A' for Active; 'I' for Inactive)
REMARK    5  A    between atoms: CA   and  CB  
REMARK    6  A    between atoms: CB   and  CG  
REMARK    7  A    between atoms: CG   and  CD  
ROOT
ATOM     14  CA  GLU D 570     -18.033  -6.348 -13.375  1.00 32.92     0.160 C 
ENDROOT
BRANCH  14  15
ATOM     15  CB  GLU D 570     -19.500  -6.345 -13.794  1.00 32.92     0.043 C 
BRANCH  15  16
ATOM     16  CG  GLU D 570     -20.443  -5.535 -12.980  1.00 32.92     0.100 C 
BRANCH  16  17
ATOM     17  CD  GLU D 570     -21.746  -5.256 -13.692  1.00 32.92     0.185 C 
ATOM     18  OE1 GLU D 570     -22.246  -6.144 -14.408  1.00 32.92    -0.647 OA
ATOM     19  OE2 GLU D 570     -22.264  -4.131 -13.544  1.00 32.92    -0.647 OA
ENDBRANCH  16  17
ENDBRANCH  15  16
ENDBRANCH  14  15
END_RES GLU D 570
ENDMDL
MODEL 2
REMARK VINA RESULT:      -1.2      6.114      6.114
REMARK  7 active torsions:
REMARK  status: ('A' for Active; 'I' for Inactive)
REMARK    1  A    between atoms: C_1  and  C_2 
REMARK    2  A    between atoms: C_1  and  O_16 
REMARK    3  A    between atoms: C_2  and  C_3 
REMARK    4  A    between atoms: C_2  and  O_15 
REMARK    5  A    between atoms: C_5  and  O_9 
REMARK    6  A    between atoms: O_9  and  P_10 
REMARK    7  A    between atoms: P_10  and  O_11 
ROOT
HETATM    1 NA   UNL     3      -9.097   5.896 -17.208  1.00  0.00     0.000 Na
ENDROOT
TORSDOF 7
BEGIN_RES ARG D 557
REMARK  4 active torsions:
REMARK  status: ('A' for Active; 'I' for Inactive)
REMARK    1  A    between atoms: CA   and  CB  
REMARK    2  A    between atoms: CB   and  CG  
REMARK    3  A    between atoms: CG   and  CD  
REMARK    4  A    between atoms: CD   and  NE  
REMARK       I    between atoms: NE   and  CZ  
REMARK       I    between atoms: CZ   and  NH1 
REMARK       I    between atoms: CZ   and  NH2 
ROOT
ATOM      1  CA  ARG D 557     -26.217   2.705 -17.014  1.00 35.49     0.159 C 
ENDROOT
BRANCH   1   2
ATOM      2  CB  ARG D 557     -26.789   1.319 -17.183  1.00 35.49     0.034 C 
BRANCH   2   3
ATOM      3  CG  ARG D 557     -25.835   0.203 -17.158  1.00 35.49     0.027 C 
BRANCH   3   4
ATOM      4  CD  ARG D 557     -24.748   0.413 -16.175  1.00 35.49     0.116 C 
BRANCH   4   5
ATOM      5  NE  ARG D 557     -24.890  -0.433 -15.020  1.00 35.49    -0.212 N 
ATOM      6  CZ  ARG D 557     -24.076  -1.405 -14.675  1.00 35.49     0.666 C 
ATOM      7  NH1 ARG D 557     -23.012  -1.726 -15.387  1.00 35.49    -0.235 N 
ATOM      8  NH2 ARG D 557     -24.348  -2.057 -13.581  1.00 35.49    -0.235 N 
ATOM      9  HH  ARG D 557     -22.812  -1.309 -16.109  1.00 35.49     0.174 HD
ATOM     10  HH  ARG D 557     -22.515  -2.368 -15.111  1.00 35.49     0.174 HD
ATOM     11  HH  ARG D 557     -25.038  -1.823 -13.137  1.00 35.49     0.174 HD
ATOM     12  HH  ARG D 557     -23.843  -2.688 -13.324  1.00 35.49     0.174 HD
ATOM     13  HE  ARG D 557     -25.589  -0.344 -14.543  1.00 35.49     0.178 HD
ENDBRANCH   4   5
ENDBRANCH   3   4
ENDBRANCH   2   3
ENDBRANCH   1   2
END_RES ARG D 557
BEGIN_RES GLU D 570
REMARK  3 active torsions:
REMARK  status: ('A' for Active; 'I' for Inactive)
REMARK    5  A    between atoms: CA   and  CB  
REMARK    6  A    between atoms: CB   and  CG  
REMARK    7  A    between atoms: CG   and  CD  
ROOT
ATOM     14  CA  GLU D 570     -18.033  -6.348 -13.375  1.00 32.92     0.160 C 
ENDROOT
BRANCH  14  15
ATOM     15  CB  GLU D 570     -19.500  -6.345 -13.794  1.00 32.92     0.043 C 
BRANCH  15  16
ATOM     16  CG  GLU D 570     -20.444  -5.542 -12.975  1.00 32.92     0.100 C 
BRANCH  16  17
ATOM     17  CD  GLU D 570     -21.744  -5.251 -13.688  1.00 32.92     0.185 C 
ATOM     18  OE1 GLU D 570     -22.252  -6.135 -14.405  1.00 32.92    -0.647 OA
ATOM     19  OE2 GLU D 570     -22.250  -4.121 -13.543  1.00 32.92    -0.647 OA
ENDBRANCH  16  17
ENDBRANCH  15  16
ENDBRANCH  14  15
END_RES GLU D 570
ENDMDL
MODEL 3
REMARK VINA RESULT:      -1.1      8.148      8.148
REMARK  7 active torsions:
REMARK  status: ('A' for Active; 'I' for Inactive)
REMARK    1  A    between atoms: C_1  and  C_2 
REMARK    2  A    between atoms: C_1  and  O_16 
REMARK    3  A    between atoms: C_2  and  C_3 
REMARK    4  A    between atoms: C_2  and  O_15 
REMARK    5  A    between atoms: C_5  and  O_9 
REMARK    6  A    between atoms: O_9  and  P_10 
REMARK    7  A    between atoms: P_10  and  O_11 
ROOT
HETATM    1 NA   UNL     3     -27.084 -13.650 -13.080  1.00  0.00     0.000 Na
ENDROOT
TORSDOF 7
BEGIN_RES ARG D 557
REMARK  4 active torsions:
REMARK  status: ('A' for Active; 'I' for Inactive)
REMARK    1  A    between atoms: CA   and  CB  
REMARK    2  A    between atoms: CB   and  CG  
REMARK    3  A    between atoms: CG   and  CD  
REMARK    4  A    between atoms: CD   and  NE  
REMARK       I    between atoms: NE   and  CZ  
REMARK       I    between atoms: CZ   and  NH1 
REMARK       I    between atoms: CZ   and  NH2 
ROOT
ATOM      1  CA  ARG D 557     -26.217   2.705 -17.014  1.00 35.49     0.159 C 
ENDROOT
BRANCH   1   2
ATOM      2  CB  ARG D 557     -26.789   1.319 -17.183  1.00 35.49     0.034 C 
BRANCH   2   3
ATOM      3  CG  ARG D 557     -25.834   0.204 -17.169  1.00 35.49     0.027 C 
BRANCH   3   4
ATOM      4  CD  ARG D 557     -24.777   0.379 -16.147  1.00 35.49     0.116 C 
BRANCH   4   5
ATOM      5  NE  ARG D 557     -24.974  -0.479 -15.009  1.00 35.49    -0.212 N 
ATOM      6  CZ  ARG D 557     -24.177  -1.454 -14.634  1.00 35.49     0.666 C 
ATOM      7  NH1 ARG D 557     -23.078  -1.766 -15.297  1.00 35.49    -0.235 N 
ATOM      8  NH2 ARG D 557     -24.501  -2.116 -13.563  1.00 35.49    -0.235 N 
ATOM      9  HH  ARG D 557     -22.844  -1.341 -16.004  1.00 35.49     0.174 HD
ATOM     10  HH  ARG D 557     -22.595  -2.410 -15.004  1.00 35.49     0.174 HD
ATOM     11  HH  ARG D 557     -25.212  -1.888 -13.151  1.00 35.49     0.174 HD
ATOM     12  HH  ARG D 557     -24.009  -2.750 -13.287  1.00 35.49     0.174 HD
ATOM     13  HE  ARG D 557     -25.696  -0.395 -14.567  1.00 35.49     0.178 HD
ENDBRANCH   4   5
ENDBRANCH   3   4
ENDBRANCH   2   3
ENDBRANCH   1   2
END_RES ARG D 557
BEGIN_RES GLU D 570
REMARK  3 active torsions:
REMARK  status: ('A' for Active; 'I' for Inactive)
REMARK    5  A    between atoms: CA   and  CB  
REMARK    6  A    between atoms: CB   and  CG  
REMARK    7  A    between atoms: CG   and  CD  
ROOT
ATOM     14  CA  GLU D 570     -18.033  -6.348 -13.375  1.00 32.92     0.160 C 
ENDROOT
BRANCH  14  15
ATOM     15  CB  GLU D 570     -19.500  -6.345 -13.794  1.00 32.92     0.043 C 
BRANCH  15  16
ATOM     16  CG  GLU D 570     -20.443  -5.534 -12.980  1.00 32.92     0.100 C 
BRANCH  16  17
ATOM     17  CD  GLU D 570     -21.693  -5.150 -13.736  1.00 32.92     0.185 C 
ATOM     18  OE1 GLU D 570     -22.025  -5.815 -14.736  1.00 32.92    -0.647 OA
ATOM     19  OE2 GLU D 570     -22.340  -4.163 -13.333  1.00 32.92    -0.647 OA
ENDBRANCH  16  17
ENDBRANCH  15  16
ENDBRANCH  14  15
END_RES GLU D 570
ENDMDL
MODEL 4
REMARK VINA RESULT:      -1.1      7.187      7.255
REMARK  7 active torsions:
REMARK  status: ('A' for Active; 'I' for Inactive)
REMARK    1  A    between atoms: C_1  and  C_2 
REMARK    2  A    between atoms: C_1  and  O_16 
REMARK    3  A    between atoms: C_2  and  C_3 
REMARK    4  A    between atoms: C_2  and  O_15 
REMARK    5  A    between atoms: C_5  and  O_9 
REMARK    6  A    between atoms: O_9  and  P_10 
REMARK    7  A    between atoms: P_10  and  O_11 
ROOT
HETATM    1 NA   UNL     3     -32.419  -8.539   4.502  1.00  0.00     0.000 Na
ENDROOT
TORSDOF 7
BEGIN_RES ARG D 557
REMARK  4 active torsions:
REMARK  status: ('A' for Active; 'I' for Inactive)
REMARK    1  A    between atoms: CA   and  CB  
REMARK    2  A    between atoms: CB   and  CG  
REMARK    3  A    between atoms: CG   and  CD  
REMARK    4  A    between atoms: CD   and  NE  
REMARK       I    between atoms: NE   and  CZ  
REMARK       I    between atoms: CZ   and  NH1 
REMARK       I    between atoms: CZ   and  NH2 
ROOT
ATOM      1  CA  ARG D 557     -26.217   2.705 -17.014  1.00 35.49     0.159 C 
ENDROOT
BRANCH   1   2
ATOM      2  CB  ARG D 557     -26.789   1.319 -17.183  1.00 35.49     0.034 C 
BRANCH   2   3
ATOM      3  CG  ARG D 557     -25.864   0.195 -16.992  1.00 35.49     0.027 C 
BRANCH   3   4
ATOM      4  CD  ARG D 557     -26.286  -0.701 -15.891  1.00 35.49     0.116 C 
BRANCH   4   5
ATOM      5  NE  ARG D 557     -25.233  -0.917 -14.934  1.00 35.49    -0.212 N 
ATOM      6  CZ  ARG D 557     -24.946  -2.060 -14.352  1.00 35.49     0.666 C 
ATOM      7  NH1 ARG D 557     -25.629  -3.165 -14.584  1.00 35.49    -0.235 N 
ATOM      8  NH2 ARG D 557     -23.942  -2.076 -13.524  1.00 35.49    -0.235 N 
ATOM      9  HH  ARG D 557     -26.292  -3.178 -15.127  1.00 35.49     0.174 HD
ATOM     10  HH  ARG D 557     -25.394  -3.882 -14.178  1.00 35.49     0.174 HD
ATOM     11  HH  ARG D 557     -23.514  -1.349 -13.399  1.00 35.49     0.174 HD
ATOM     12  HH  ARG D 557     -23.724  -2.796 -13.133  1.00 35.49     0.174 HD
ATOM     13  HE  ARG D 557     -24.788  -0.241 -14.671  1.00 35.49     0.178 HD
ENDBRANCH   4   5
ENDBRANCH   3   4
ENDBRANCH   2   3
ENDBRANCH   1   2
END_RES ARG D 557
BEGIN_RES GLU D 570
REMARK  3 active torsions:
REMARK  status: ('A' for Active; 'I' for Inactive)
REMARK    5  A    between atoms: CA   and  CB  
REMARK    6  A    between atoms: CB   and  CG  
REMARK    7  A    between atoms: CG   and  CD  
ROOT
ATOM     14  CA  GLU D 570     -18.033  -6.348 -13.375  1.00 32.92     0.160 C 
ENDROOT
BRANCH  14  15
ATOM     15  CB  GLU D 570     -19.500  -6.345 -13.794  1.00 32.92     0.043 C 
BRANCH  15  16
ATOM     16  CG  GLU D 570     -20.445  -5.547 -12.971  1.00 32.92     0.100 C 
BRANCH  16  17
ATOM     17  CD  GLU D 570     -21.684  -5.133 -13.731  1.00 32.92     0.185 C 
ATOM     18  OE1 GLU D 570     -22.728  -4.886 -13.098  1.00 32.92    -0.647 OA
ATOM     19  OE2 GLU D 570     -21.614  -5.072 -14.975  1.00 32.92    -0.647 OA
ENDBRANCH  16  17
ENDBRANCH  15  16
ENDBRANCH  14  15
END_RES GLU D 570
ENDMDL
MODEL 5
REMARK VINA RESULT:      -1.0      6.440      6.545
REMARK  7 active torsions:
REMARK  status: ('A' for Active; 'I' for Inactive)
REMARK    1  A    between atoms: C_1  and  C_2 
REMARK    2  A    between atoms: C_1  and  O_16 
REMARK    3  A    between atoms: C_2  and  C_3 
REMARK    4  A    between atoms: C_2  and  O_15 
REMARK    5  A    between atoms: C_5  and  O_9 
REMARK    6  A    between atoms: O_9  and  P_10 
REMARK    7  A    between atoms: P_10  and  O_11 
ROOT
HETATM    1 NA   UNL     3     -27.310  -5.660  -9.154  1.00  0.00     0.000 Na
ENDROOT
TORSDOF 7
BEGIN_RES ARG D 557
REMARK  4 active torsions:
REMARK  status: ('A' for Active; 'I' for Inactive)
REMARK    1  A    between atoms: CA   and  CB  
REMARK    2  A    between atoms: CB   and  CG  
REMARK    3  A    between atoms: CG   and  CD  
REMARK    4  A    between atoms: CD   and  NE  
REMARK       I    between atoms: NE   and  CZ  
REMARK       I    between atoms: CZ   and  NH1 
REMARK       I    between atoms: CZ   and  NH2 
ROOT
ATOM      1  CA  ARG D 557     -26.217   2.705 -17.014  1.00 35.49     0.159 C 
ENDROOT
BRANCH   1   2
ATOM      2  CB  ARG D 557     -26.789   1.319 -17.183  1.00 35.49     0.034 C 
BRANCH   2   3
ATOM      3  CG  ARG D 557     -25.854   0.196 -17.039  1.00 35.49     0.027 C 
BRANCH   3   4
ATOM      4  CD  ARG D 557     -26.231  -0.713 -15.933  1.00 35.49     0.116 C 
BRANCH   4   5
ATOM      5  NE  ARG D 557     -25.187  -0.834 -14.950  1.00 35.49    -0.212 N 
ATOM      6  CZ  ARG D 557     -24.816  -1.945 -14.355  1.00 35.49     0.666 C 
ATOM      7  NH1 ARG D 557     -25.395  -3.107 -14.599  1.00 35.49    -0.235 N 
ATOM      8  NH2 ARG D 557     -23.834  -1.872 -13.504  1.00 35.49    -0.235 N 
ATOM      9  HH  ARG D 557     -26.041  -3.179 -15.157  1.00 35.49     0.174 HD
ATOM     10  HH  ARG D 557     -25.108  -3.799 -14.183  1.00 35.49     0.174 HD
ATOM     11  HH  ARG D 557     -23.475  -1.110 -13.372  1.00 35.49     0.174 HD
ATOM     12  HH  ARG D 557     -23.564  -2.569 -13.104  1.00 35.49     0.174 HD
ATOM     13  HE  ARG D 557     -24.809  -0.121 -14.679  1.00 35.49     0.178 HD
ENDBRANCH   4   5
ENDBRANCH   3   4
ENDBRANCH   2   3
ENDBRANCH   1   2
END_RES ARG D 557
BEGIN_RES GLU D 570
REMARK  3 active torsions:
REMARK  status: ('A' for Active; 'I' for Inactive)
REMARK    5  A    between atoms: CA   and  CB  
REMARK    6  A    between atoms: CB   and  CG  
REMARK    7  A    between atoms: CG   and  CD  
ROOT
ATOM     14  CA  GLU D 570     -18.033  -6.348 -13.375  1.00 32.92     0.160 C 
ENDROOT
BRANCH  14  15
ATOM     15  CB  GLU D 570     -19.500  -6.345 -13.794  1.00 32.92     0.043 C 
BRANCH  15  16
ATOM     16  CG  GLU D 570     -20.433  -5.493 -13.012  1.00 32.92     0.100 C 
BRANCH  16  17
ATOM     17  CD  GLU D 570     -21.784  -5.341 -13.672  1.00 32.92     0.185 C 
ATOM     18  OE1 GLU D 570     -22.486  -4.350 -13.391  1.00 32.92    -0.647 OA
ATOM     19  OE2 GLU D 570     -22.151  -6.229 -14.465  1.00 32.92    -0.647 OA
ENDBRANCH  16  17
ENDBRANCH  15  16
ENDBRANCH  14  15
END_RES GLU D 570
ENDMDL
MODEL 6
REMARK VINA RESULT:      -0.9      2.090      2.289
REMARK  7 active torsions:
REMARK  status: ('A' for Active; 'I' for Inactive)
REMARK    1  A    between atoms: C_1  and  C_2 
REMARK    2  A    between atoms: C_1  and  O_16 
REMARK    3  A    between atoms: C_2  and  C_3 
REMARK    4  A    between atoms: C_2  and  O_15 
REMARK    5  A    between atoms: C_5  and  O_9 
REMARK    6  A    between atoms: O_9  and  P_10 
REMARK    7  A    between atoms: P_10  and  O_11 
ROOT
HETATM    1 NA   UNL     3     -18.002   0.267   3.198  1.00  0.00     0.000 Na
ENDROOT
TORSDOF 7
BEGIN_RES ARG D 557
REMARK  4 active torsions:
REMARK  status: ('A' for Active; 'I' for Inactive)
REMARK    1  A    between atoms: CA   and  CB  
REMARK    2  A    between atoms: CB   and  CG  
REMARK    3  A    between atoms: CG   and  CD  
REMARK    4  A    between atoms: CD   and  NE  
REMARK       I    between atoms: NE   and  CZ  
REMARK       I    between atoms: CZ   and  NH1 
REMARK       I    between atoms: CZ   and  NH2 
ROOT
ATOM      1  CA  ARG D 557     -26.217   2.705 -17.014  1.00 35.49     0.159 C 
ENDROOT
BRANCH   1   2
ATOM      2  CB  ARG D 557     -26.789   1.319 -17.183  1.00 35.49     0.034 C 
BRANCH   2   3
ATOM      3  CG  ARG D 557     -25.836   0.203 -17.153  1.00 35.49     0.027 C 
BRANCH   3   4
ATOM      4  CD  ARG D 557     -24.747   0.416 -16.173  1.00 35.49     0.116 C 
BRANCH   4   5
ATOM      5  NE  ARG D 557     -24.884  -0.431 -15.017  1.00 35.49    -0.212 N 
ATOM      6  CZ  ARG D 557     -24.065  -1.400 -14.674  1.00 35.49     0.666 C 
ATOM      7  NH1 ARG D 557     -23.002  -1.717 -15.390  1.00 35.49    -0.235 N 
ATOM      8  NH2 ARG D 557     -24.333  -2.053 -13.581  1.00 35.49    -0.235 N 
ATOM      9  HH  ARG D 557     -22.806  -1.299 -16.112  1.00 35.49     0.174 HD
ATOM     10  HH  ARG D 557     -22.503  -2.357 -15.116  1.00 35.49     0.174 HD
ATOM     11  HH  ARG D 557     -25.022  -1.821 -13.135  1.00 35.49     0.174 HD
ATOM     12  HH  ARG D 557     -23.826  -2.682 -13.325  1.00 35.49     0.174 HD
ATOM     13  HE  ARG D 557     -25.582  -0.344 -14.539  1.00 35.49     0.178 HD
ENDBRANCH   4   5
ENDBRANCH   3   4
ENDBRANCH   2   3
ENDBRANCH   1   2
END_RES ARG D 557
BEGIN_RES GLU D 570
REMARK  3 active torsions:
REMARK  status: ('A' for Active; 'I' for Inactive)
REMARK    5  A    between atoms: CA   and  CB  
REMARK    6  A    between atoms: CB   and  CG  
REMARK    7  A    between atoms: CG   and  CD  
ROOT
ATOM     14  CA  GLU D 570     -18.033  -6.348 -13.375  1.00 32.92     0.160 C 
ENDROOT
BRANCH  14  15
ATOM     15  CB  GLU D 570     -19.500  -6.345 -13.794  1.00 32.92     0.043 C 
BRANCH  15  16
ATOM     16  CG  GLU D 570     -20.447  -5.554 -12.966  1.00 32.92     0.100 C 
BRANCH  16  17
ATOM     17  CD  GLU D 570     -21.739  -5.241 -13.684  1.00 32.92     0.185 C 
ATOM     18  OE1 GLU D 570     -22.261  -4.121 -13.529  1.00 32.92    -0.647 OA
ATOM     19  OE2 GLU D 570     -22.242  -6.132 -14.397  1.00 32.92    -0.647 OA
ENDBRANCH  16  17
ENDBRANCH  15  16
ENDBRANCH  14  15
END_RES GLU D 570
ENDMDL
MODEL 7
REMARK VINA RESULT:      -0.9      8.929      8.929
REMARK  7 active torsions:
REMARK  status: ('A' for Active; 'I' for Inactive)
REMARK    1  A    between atoms: C_1  and  C_2 
REMARK    2  A    between atoms: C_1  and  O_16 
REMARK    3  A    between atoms: C_2  and  C_3 
REMARK    4  A    between atoms: C_2  and  O_15 
REMARK    5  A    between atoms: C_5  and  O_9 
REMARK    6  A    between atoms: O_9  and  P_10 
REMARK    7  A    between atoms: P_10  and  O_11 
ROOT
HETATM    1 NA   UNL     3     -35.132  -8.582 -11.660  1.00  0.00     0.000 Na
ENDROOT
TORSDOF 7
BEGIN_RES ARG D 557
REMARK  4 active torsions:
REMARK  status: ('A' for Active; 'I' for Inactive)
REMARK    1  A    between atoms: CA   and  CB  
REMARK    2  A    between atoms: CB   and  CG  
REMARK    3  A    between atoms: CG   and  CD  
REMARK    4  A    between atoms: CD   and  NE  
REMARK       I    between atoms: NE   and  CZ  
REMARK       I    between atoms: CZ   and  NH1 
REMARK       I    between atoms: CZ   and  NH2 
ROOT
ATOM      1  CA  ARG D 557     -26.217   2.705 -17.014  1.00 35.49     0.159 C 
ENDROOT
BRANCH   1   2
ATOM      2  CB  ARG D 557     -26.789   1.319 -17.183  1.00 35.49     0.034 C 
BRANCH   2   3
ATOM      3  CG  ARG D 557     -25.838   0.202 -17.139  1.00 35.49     0.027 C 
BRANCH   3   4
ATOM      4  CD  ARG D 557     -24.744   0.430 -16.167  1.00 35.49     0.116 C 
BRANCH   4   5
ATOM      5  NE  ARG D 557     -24.869  -0.409 -15.004  1.00 35.49    -0.212 N 
ATOM      6  CZ  ARG D 557     -24.054  -1.384 -14.670  1.00 35.49     0.666 C 
ATOM      7  NH1 ARG D 557     -23.007  -1.716 -15.402  1.00 35.49    -0.235 N 
ATOM      8  NH2 ARG D 557     -24.308  -2.028 -13.567  1.00 35.49    -0.235 N 
ATOM      9  HH  ARG D 557     -22.819  -1.305 -16.130  1.00 35.49     0.174 HD
ATOM     10  HH  ARG D 557     -22.509  -2.360 -15.133  1.00 35.49     0.174 HD
ATOM     11  HH  ARG D 557     -24.987  -1.786 -13.111  1.00 35.49     0.174 HD
ATOM     12  HH  ARG D 557     -23.803  -2.661 -13.317  1.00 35.49     0.174 HD
ATOM     13  HE  ARG D 557     -25.557  -0.312 -14.514  1.00 35.49     0.178 HD
ENDBRANCH   4   5
ENDBRANCH   3   4
ENDBRANCH   2   3
ENDBRANCH   1   2
END_RES ARG D 557
BEGIN_RES GLU D 570
REMARK  3 active torsions:
REMARK  status: ('A' for Active; 'I' for Inactive)
REMARK    5  A    between atoms: CA   and  CB  
REMARK    6  A    between atoms: CB   and  CG  
REMARK    7  A    between atoms: CG   and  CD  
ROOT
ATOM     14  CA  GLU D 570     -18.033  -6.348 -13.375  1.00 32.92     0.160 C 
ENDROOT
BRANCH  14  15
ATOM     15  CB  GLU D 570     -19.500  -6.345 -13.794  1.00 32.92     0.043 C 
BRANCH  15  16
ATOM     16  CG  GLU D 570     -20.439  -5.519 -12.992  1.00 32.92     0.100 C 
BRANCH  16  17
ATOM     17  CD  GLU D 570     -21.746  -5.255 -13.703  1.00 32.92     0.185 C 
ATOM     18  OE1 GLU D 570     -22.240  -6.151 -14.414  1.00 32.92    -0.647 OA
ATOM     19  OE2 GLU D 570     -22.273  -4.134 -13.561  1.00 32.92    -0.647 OA
ENDBRANCH  16  17
ENDBRANCH  15  16
ENDBRANCH  14  15
END_RES GLU D 570
ENDMDL
MODEL 8
REMARK VINA RESULT:      -0.9      5.537      5.537
REMARK  7 active torsions:
REMARK  status: ('A' for Active; 'I' for Inactive)
REMARK    1  A    between atoms: C_1  and  C_2 
REMARK    2  A    between atoms: C_1  and  O_16 
REMARK    3  A    between atoms: C_2  and  C_3 
REMARK    4  A    between atoms: C_2  and  O_15 
REMARK    5  A    between atoms: C_5  and  O_9 
REMARK    6  A    between atoms: O_9  and  P_10 
REMARK    7  A    between atoms: P_10  and  O_11 
ROOT
HETATM    1 NA   UNL     3     -21.116  -2.540 -12.381  1.00  0.00     0.000 Na
ENDROOT
TORSDOF 7
BEGIN_RES ARG D 557
REMARK  4 active torsions:
REMARK  status: ('A' for Active; 'I' for Inactive)
REMARK    1  A    between atoms: CA   and  CB  
REMARK    2  A    between atoms: CB   and  CG  
REMARK    3  A    between atoms: CG   and  CD  
REMARK    4  A    between atoms: CD   and  NE  
REMARK       I    between atoms: NE   and  CZ  
REMARK       I    between atoms: CZ   and  NH1 
REMARK       I    between atoms: CZ   and  NH2 
ROOT
ATOM      1  CA  ARG D 557     -26.217   2.705 -17.014  1.00 35.49     0.159 C 
ENDROOT
BRANCH   1   2
ATOM      2  CB  ARG D 557     -26.789   1.319 -17.183  1.00 35.49     0.034 C 
BRANCH   2   3
ATOM      3  CG  ARG D 557     -25.835   0.204 -17.164  1.00 35.49     0.027 C 
BRANCH   3   4
ATOM      4  CD  ARG D 557     -24.746   0.409 -16.181  1.00 35.49     0.116 C 
BRANCH   4   5
ATOM      5  NE  ARG D 557     -24.892  -0.436 -15.026  1.00 35.49    -0.212 N 
ATOM      6  CZ  ARG D 557     -24.073  -1.401 -14.672  1.00 35.49     0.666 C 
ATOM      7  NH1 ARG D 557     -23.000  -1.715 -15.376  1.00 35.49    -0.235 N 
ATOM      8  NH2 ARG D 557     -24.349  -2.053 -13.580  1.00 35.49    -0.235 N 
ATOM      9  HH  ARG D 557     -22.798  -1.298 -16.096  1.00 35.49     0.174 HD
ATOM     10  HH  ARG D 557     -22.501  -2.352 -15.095  1.00 35.49     0.174 HD
ATOM     11  HH  ARG D 557     -25.044  -1.824 -13.142  1.00 35.49     0.174 HD
ATOM     12  HH  ARG D 557     -23.842  -2.680 -13.318  1.00 35.49     0.174 HD
ATOM     13  HE  ARG D 557     -25.595  -0.352 -14.555  1.00 35.49     0.178 HD
ENDBRANCH   4   5
ENDBRANCH   3   4
ENDBRANCH   2   3
ENDBRANCH   1   2
END_RES ARG D 557
BEGIN_RES GLU D 570
REMARK  3 active torsions:
REMARK  status: ('A' for Active; 'I' for Inactive)
REMARK    5  A    between atoms: CA   and  CB  
REMARK    6  A    between atoms: CB   and  CG  
REMARK    7  A    between atoms: CG   and  CD  
ROOT
ATOM     14  CA  GLU D 570     -18.033  -6.348 -13.375  1.00 32.92     0.160 C 
ENDROOT
BRANCH  14  15
ATOM     15  CB  GLU D 570     -19.500  -6.345 -13.794  1.00 32.92     0.043 C 
BRANCH  15  16
ATOM     16  CG  GLU D 570     -20.438  -5.512 -12.997  1.00 32.92     0.100 C 
BRANCH  16  17
ATOM     17  CD  GLU D 570     -21.755  -5.275 -13.698  1.00 32.92     0.185 C 
ATOM     18  OE1 GLU D 570     -22.239  -6.182 -14.401  1.00 32.92    -0.647 OA
ATOM     19  OE2 GLU D 570     -22.301  -4.163 -13.554  1.00 32.92    -0.647 OA
ENDBRANCH  16  17
ENDBRANCH  15  16
ENDBRANCH  14  15
END_RES GLU D 570
ENDMDL
MODEL 9
REMARK VINA RESULT:      -0.9      8.710      8.967
REMARK  7 active torsions:
REMARK  status: ('A' for Active; 'I' for Inactive)
REMARK    1  A    between atoms: C_1  and  C_2 
REMARK    2  A    between atoms: C_1  and  O_16 
REMARK    3  A    between atoms: C_2  and  C_3 
REMARK    4  A    between atoms: C_2  and  O_15 
REMARK    5  A    between atoms: C_5  and  O_9 
REMARK    6  A    between atoms: O_9  and  P_10 
REMARK    7  A    between atoms: P_10  and  O_11 
ROOT
HETATM    1 NA   UNL     3     -27.134 -13.720 -13.110  1.00  0.00     0.000 Na
ENDROOT
TORSDOF 7
BEGIN_RES ARG D 557
REMARK  4 active torsions:
REMARK  status: ('A' for Active; 'I' for Inactive)
REMARK    1  A    between atoms: CA   and  CB  
REMARK    2  A    between atoms: CB   and  CG  
REMARK    3  A    between atoms: CG   and  CD  
REMARK    4  A    between atoms: CD   and  NE  
REMARK       I    between atoms: NE   and  CZ  
REMARK       I    between atoms: CZ   and  NH1 
REMARK       I    between atoms: CZ   and  NH2 
ROOT
ATOM      1  CA  ARG D 557     -26.217   2.705 -17.014  1.00 35.49     0.159 C 
ENDROOT
BRANCH   1   2
ATOM      2  CB  ARG D 557     -26.789   1.319 -17.183  1.00 35.49     0.034 C 
BRANCH   2   3
ATOM      3  CG  ARG D 557     -28.231   1.226 -17.440  1.00 35.49     0.027 C 
BRANCH   3   4
ATOM      4  CD  ARG D 557     -28.914   0.308 -16.501  1.00 35.49     0.116 C 
BRANCH   4   5
ATOM      5  NE  ARG D 557     -29.326  -0.914 -17.140  1.00 35.49    -0.212 N 
ATOM      6  CZ  ARG D 557     -28.714  -2.074 -17.047  1.00 35.49     0.666 C 
ATOM      7  NH1 ARG D 557     -27.609  -2.238 -16.343  1.00 35.49    -0.235 N 
ATOM      8  NH2 ARG D 557     -29.241  -3.083 -17.678  1.00 35.49    -0.235 N 
ATOM      9  HH  ARG D 557     -27.247  -1.588 -15.918  1.00 35.49     0.174 HD
ATOM     10  HH  ARG D 557     -27.256  -3.018 -16.317  1.00 35.49     0.174 HD
ATOM     11  HH  ARG D 557     -29.958  -2.949 -18.119  1.00 35.49     0.174 HD
ATOM     12  HH  ARG D 557     -28.877  -3.847 -17.639  1.00 35.49     0.174 HD
ATOM     13  HE  ARG D 557     -29.988  -0.883 -17.673  1.00 35.49     0.178 HD
ENDBRANCH   4   5
ENDBRANCH   3   4
ENDBRANCH   2   3
ENDBRANCH   1   2
END_RES ARG D 557
BEGIN_RES GLU D 570
REMARK  3 active torsions:
REMARK  status: ('A' for Active; 'I' for Inactive)
REMARK    5  A    between atoms: CA   and  CB  
REMARK    6  A    between atoms: CB   and  CG  
REMARK    7  A    between atoms: CG   and  CD  
ROOT
ATOM     14  CA  GLU D 570     -18.033  -6.348 -13.375  1.00 32.92     0.160 C 
ENDROOT
BRANCH  14  15
ATOM     15  CB  GLU D 570     -19.500  -6.345 -13.794  1.00 32.92     0.043 C 
BRANCH  15  16
ATOM     16  CG  GLU D 570     -20.439  -5.518 -12.993  1.00 32.92     0.100 C 
BRANCH  16  17
ATOM     17  CD  GLU D 570     -21.736  -5.233 -13.714  1.00 32.92     0.185 C 
ATOM     18  OE1 GLU D 570     -22.304  -4.140 -13.528  1.00 32.92    -0.647 OA
ATOM     19  OE2 GLU D 570     -22.197  -6.119 -14.460  1.00 32.92    -0.647 OA
ENDBRANCH  16  17
ENDBRANCH  15  16
ENDBRANCH  14  15
END_RES GLU D 570
ENDMDL
