MODEL 1
REMARK VINA RESULT:      -2.8      0.000      0.000
REMARK  0 active torsions:
REMARK  status: ('A' for Active; 'I' for Inactive)
ROOT
HETATM    1  C   UNL     1     -22.547  -4.560  -9.709  1.00  0.00     0.042 C 
HETATM    2  C   UNL     1     -23.416  -3.476 -10.232  1.00  0.00     0.141 A 
HETATM    3  C   UNL     1     -24.824  -3.302  -9.735  1.00  0.00     0.199 A 
HETATM    4  O   UNL     1     -24.539  -3.939 -10.990  1.00  0.00    -0.382 OA
ENDROOT
TORSDOF 0
BEGIN_RES ARG D 557
REMARK  4 active torsions:
REMARK  status: ('A' for Active; 'I' for Inactive)
REMARK    1  A    between atoms: CA   and  CB  
REMARK    2  A    between atoms: CB   and  CG  
REMARK    3  A    between atoms: CG   and  CD  
REMARK    4  A    between atoms: CD   and  NE  
REMARK       I    between atoms: NE   and  CZ  
REMARK       I    between atoms: CZ   and  NH1 
REMARK       I    between atoms: CZ   and  NH2 
ROOT
ATOM      1  CA  ARG D 557     -26.217   2.705 -17.014  1.00 35.49     0.159 C 
ENDROOT
BRANCH   1   2
ATOM      2  CB  ARG D 557     -26.789   1.319 -17.183  1.00 35.49     0.034 C 
BRANCH   2   3
ATOM      3  CG  ARG D 557     -25.834   0.204 -17.171  1.00 35.49     0.027 C 
BRANCH   3   4
ATOM      4  CD  ARG D 557     -24.772   0.382 -16.155  1.00 35.49     0.116 C 
BRANCH   4   5
ATOM      5  NE  ARG D 557     -24.961  -0.479 -15.017  1.00 35.49    -0.212 N 
ATOM      6  CZ  ARG D 557     -24.158  -1.452 -14.647  1.00 35.49     0.666 C 
ATOM      7  NH1 ARG D 557     -23.061  -1.758 -15.316  1.00 35.49    -0.235 N 
ATOM      8  NH2 ARG D 557     -24.475  -2.117 -13.575  1.00 35.49    -0.235 N 
ATOM      9  HH  ARG D 557     -22.832  -1.332 -16.023  1.00 35.49     0.174 HD
ATOM     10  HH  ARG D 557     -22.574  -2.401 -15.026  1.00 35.49     0.174 HD
ATOM     11  HH  ARG D 557     -25.185  -1.892 -13.160  1.00 35.49     0.174 HD
ATOM     12  HH  ARG D 557     -23.979  -2.749 -13.303  1.00 35.49     0.174 HD
ATOM     13  HE  ARG D 557     -25.681  -0.399 -14.571  1.00 35.49     0.178 HD
ENDBRANCH   4   5
ENDBRANCH   3   4
ENDBRANCH   2   3
ENDBRANCH   1   2
END_RES ARG D 557
BEGIN_RES GLU D 570
REMARK  3 active torsions:
REMARK  status: ('A' for Active; 'I' for Inactive)
REMARK    5  A    between atoms: CA   and  CB  
REMARK    6  A    between atoms: CB   and  CG  
REMARK    7  A    between atoms: CG   and  CD  
ROOT
ATOM     14  CA  GLU D 570     -18.033  -6.348 -13.375  1.00 32.92     0.160 C 
ENDROOT
BRANCH  14  15
ATOM     15  CB  GLU D 570     -19.500  -6.345 -13.794  1.00 32.92     0.043 C 
BRANCH  15  16
ATOM     16  CG  GLU D 570     -20.444  -5.539 -12.977  1.00 32.92     0.100 C 
BRANCH  16  17
ATOM     17  CD  GLU D 570     -21.753  -5.271 -13.682  1.00 32.92     0.185 C 
ATOM     18  OE1 GLU D 570     -22.258  -6.169 -14.382  1.00 32.92    -0.647 OA
ATOM     19  OE2 GLU D 570     -22.271  -4.145 -13.545  1.00 32.92    -0.647 OA
ENDBRANCH  16  17
ENDBRANCH  15  16
ENDBRANCH  14  15
END_RES GLU D 570
ENDMDL
MODEL 2
REMARK VINA RESULT:      -2.6      4.927      5.471
REMARK  0 active torsions:
REMARK  status: ('A' for Active; 'I' for Inactive)
ROOT
HETATM    1  C   UNL     1     -32.835  -3.821 -11.686  1.00  0.00     0.042 C 
HETATM    2  C   UNL     1     -33.691  -3.072 -10.732  1.00  0.00     0.141 A 
HETATM    3  C   UNL     1     -34.582  -1.956 -11.202  1.00  0.00     0.199 A 
HETATM    4  O   UNL     1     -33.320  -1.700 -10.566  1.00  0.00    -0.382 OA
ENDROOT
TORSDOF 0
BEGIN_RES ARG D 557
REMARK  4 active torsions:
REMARK  status: ('A' for Active; 'I' for Inactive)
REMARK    1  A    between atoms: CA   and  CB  
REMARK    2  A    between atoms: CB   and  CG  
REMARK    3  A    between atoms: CG   and  CD  
REMARK    4  A    between atoms: CD   and  NE  
REMARK       I    between atoms: NE   and  CZ  
REMARK       I    between atoms: CZ   and  NH1 
REMARK       I    between atoms: CZ   and  NH2 
ROOT
ATOM      1  CA  ARG D 557     -26.217   2.705 -17.014  1.00 35.49     0.159 C 
ENDROOT
BRANCH   1   2
ATOM      2  CB  ARG D 557     -26.789   1.319 -17.183  1.00 35.49     0.034 C 
BRANCH   2   3
ATOM      3  CG  ARG D 557     -25.865   0.195 -16.991  1.00 35.49     0.027 C 
BRANCH   3   4
ATOM      4  CD  ARG D 557     -26.283  -0.698 -15.886  1.00 35.49     0.116 C 
BRANCH   4   5
ATOM      5  NE  ARG D 557     -25.229  -0.907 -14.929  1.00 35.49    -0.212 N 
ATOM      6  CZ  ARG D 557     -24.929  -2.051 -14.355  1.00 35.49     0.666 C 
ATOM      7  NH1 ARG D 557     -25.599  -3.162 -14.596  1.00 35.49    -0.235 N 
ATOM      8  NH2 ARG D 557     -23.925  -2.061 -13.527  1.00 35.49    -0.235 N 
ATOM      9  HH  ARG D 557     -26.262  -3.179 -15.139  1.00 35.49     0.174 HD
ATOM     10  HH  ARG D 557     -25.356  -3.879 -14.194  1.00 35.49     0.174 HD
ATOM     11  HH  ARG D 557     -23.506  -1.330 -13.396  1.00 35.49     0.174 HD
ATOM     12  HH  ARG D 557     -23.699  -2.781 -13.140  1.00 35.49     0.174 HD
ATOM     13  HE  ARG D 557     -24.792  -0.229 -14.661  1.00 35.49     0.178 HD
ENDBRANCH   4   5
ENDBRANCH   3   4
ENDBRANCH   2   3
ENDBRANCH   1   2
END_RES ARG D 557
BEGIN_RES GLU D 570
REMARK  3 active torsions:
REMARK  status: ('A' for Active; 'I' for Inactive)
REMARK    5  A    between atoms: CA   and  CB  
REMARK    6  A    between atoms: CB   and  CG  
REMARK    7  A    between atoms: CG   and  CD  
ROOT
ATOM     14  CA  GLU D 570     -18.033  -6.348 -13.375  1.00 32.92     0.160 C 
ENDROOT
BRANCH  14  15
ATOM     15  CB  GLU D 570     -19.500  -6.345 -13.794  1.00 32.92     0.043 C 
BRANCH  15  16
ATOM     16  CG  GLU D 570     -20.447  -5.557 -12.964  1.00 32.92     0.100 C 
BRANCH  16  17
ATOM     17  CD  GLU D 570     -21.685  -5.136 -13.721  1.00 32.92     0.185 C 
ATOM     18  OE1 GLU D 570     -22.706  -4.816 -13.082  1.00 32.92    -0.647 OA
ATOM     19  OE2 GLU D 570     -21.638  -5.141 -14.967  1.00 32.92    -0.647 OA
ENDBRANCH  16  17
ENDBRANCH  15  16
ENDBRANCH  14  15
END_RES GLU D 570
ENDMDL
MODEL 3
REMARK VINA RESULT:      -2.5      2.721      3.198
REMARK  0 active torsions:
REMARK  status: ('A' for Active; 'I' for Inactive)
ROOT
HETATM    1  C   UNL     1     -23.473  -4.056  -8.745  1.00  0.00     0.042 C 
HETATM    2  C   UNL     1     -24.394  -4.238  -9.896  1.00  0.00     0.141 A 
HETATM    3  C   UNL     1     -24.373  -3.289 -11.063  1.00  0.00     0.199 A 
HETATM    4  O   UNL     1     -25.371  -3.201 -10.034  1.00  0.00    -0.382 OA
ENDROOT
TORSDOF 0
BEGIN_RES ARG D 557
REMARK  4 active torsions:
REMARK  status: ('A' for Active; 'I' for Inactive)
REMARK    1  A    between atoms: CA   and  CB  
REMARK    2  A    between atoms: CB   and  CG  
REMARK    3  A    between atoms: CG   and  CD  
REMARK    4  A    between atoms: CD   and  NE  
REMARK       I    between atoms: NE   and  CZ  
REMARK       I    between atoms: CZ   and  NH1 
REMARK       I    between atoms: CZ   and  NH2 
ROOT
ATOM      1  CA  ARG D 557     -26.217   2.705 -17.014  1.00 35.49     0.159 C 
ENDROOT
BRANCH   1   2
ATOM      2  CB  ARG D 557     -26.789   1.319 -17.183  1.00 35.49     0.034 C 
BRANCH   2   3
ATOM      3  CG  ARG D 557     -28.232   1.226 -17.434  1.00 35.49     0.027 C 
BRANCH   3   4
ATOM      4  CD  ARG D 557     -28.910   0.301 -16.496  1.00 35.49     0.116 C 
BRANCH   4   5
ATOM      5  NE  ARG D 557     -29.299  -0.929 -17.134  1.00 35.49    -0.212 N 
ATOM      6  CZ  ARG D 557     -28.670  -2.079 -17.032  1.00 35.49     0.666 C 
ATOM      7  NH1 ARG D 557     -27.569  -2.224 -16.318  1.00 35.49    -0.235 N 
ATOM      8  NH2 ARG D 557     -29.178  -3.098 -17.662  1.00 35.49    -0.235 N 
ATOM      9  HH  ARG D 557     -27.219  -1.568 -15.893  1.00 35.49     0.174 HD
ATOM     10  HH  ARG D 557     -27.204  -2.999 -16.286  1.00 35.49     0.174 HD
ATOM     11  HH  ARG D 557     -29.894  -2.976 -18.109  1.00 35.49     0.174 HD
ATOM     12  HH  ARG D 557     -28.803  -3.857 -17.617  1.00 35.49     0.174 HD
ATOM     13  HE  ARG D 557     -29.957  -0.909 -17.672  1.00 35.49     0.178 HD
ENDBRANCH   4   5
ENDBRANCH   3   4
ENDBRANCH   2   3
ENDBRANCH   1   2
END_RES ARG D 557
BEGIN_RES GLU D 570
REMARK  3 active torsions:
REMARK  status: ('A' for Active; 'I' for Inactive)
REMARK    5  A    between atoms: CA   and  CB  
REMARK    6  A    between atoms: CB   and  CG  
REMARK    7  A    between atoms: CG   and  CD  
ROOT
ATOM     14  CA  GLU D 570     -18.033  -6.348 -13.375  1.00 32.92     0.160 C 
ENDROOT
BRANCH  14  15
ATOM     15  CB  GLU D 570     -19.500  -6.345 -13.794  1.00 32.92     0.043 C 
BRANCH  15  16
ATOM     16  CG  GLU D 570     -20.432  -5.487 -13.018  1.00 32.92     0.100 C 
BRANCH  16  17
ATOM     17  CD  GLU D 570     -21.745  -5.251 -13.727  1.00 32.92     0.185 C 
ATOM     18  OE1 GLU D 570     -22.254  -6.181 -14.383  1.00 32.92    -0.647 OA
ATOM     19  OE2 GLU D 570     -22.263  -4.120 -13.639  1.00 32.92    -0.647 OA
ENDBRANCH  16  17
ENDBRANCH  15  16
ENDBRANCH  14  15
END_RES GLU D 570
ENDMDL
MODEL 4
REMARK VINA RESULT:      -2.4      5.431      5.675
REMARK  0 active torsions:
REMARK  status: ('A' for Active; 'I' for Inactive)
ROOT
HETATM    1  C   UNL     1     -21.833  -8.145   0.915  1.00  0.00     0.042 C 
HETATM    2  C   UNL     1     -22.422  -8.043  -0.444  1.00  0.00     0.141 A 
HETATM    3  C   UNL     1     -21.660  -7.409  -1.574  1.00  0.00     0.199 A 
HETATM    4  O   UNL     1     -22.692  -6.702  -0.867  1.00  0.00    -0.382 OA
ENDROOT
TORSDOF 0
BEGIN_RES ARG D 557
REMARK  4 active torsions:
REMARK  status: ('A' for Active; 'I' for Inactive)
REMARK    1  A    between atoms: CA   and  CB  
REMARK    2  A    between atoms: CB   and  CG  
REMARK    3  A    between atoms: CG   and  CD  
REMARK    4  A    between atoms: CD   and  NE  
REMARK       I    between atoms: NE   and  CZ  
REMARK       I    between atoms: CZ   and  NH1 
REMARK       I    between atoms: CZ   and  NH2 
ROOT
ATOM      1  CA  ARG D 557     -26.217   2.705 -17.014  1.00 35.49     0.159 C 
ENDROOT
BRANCH   1   2
ATOM      2  CB  ARG D 557     -26.789   1.319 -17.183  1.00 35.49     0.034 C 
BRANCH   2   3
ATOM      3  CG  ARG D 557     -25.835   0.204 -17.163  1.00 35.49     0.027 C 
BRANCH   3   4
ATOM      4  CD  ARG D 557     -24.753   0.404 -16.172  1.00 35.49     0.116 C 
BRANCH   4   5
ATOM      5  NE  ARG D 557     -24.910  -0.444 -15.019  1.00 35.49    -0.212 N 
ATOM      6  CZ  ARG D 557     -24.099  -1.415 -14.663  1.00 35.49     0.666 C 
ATOM      7  NH1 ARG D 557     -23.025  -1.733 -15.361  1.00 35.49    -0.235 N 
ATOM      8  NH2 ARG D 557     -24.386  -2.067 -13.575  1.00 35.49    -0.235 N 
ATOM      9  HH  ARG D 557     -22.816  -1.315 -16.080  1.00 35.49     0.174 HD
ATOM     10  HH  ARG D 557     -22.531  -2.374 -15.079  1.00 35.49     0.174 HD
ATOM     11  HH  ARG D 557     -25.082  -1.835 -13.140  1.00 35.49     0.174 HD
ATOM     12  HH  ARG D 557     -23.884  -2.698 -13.311  1.00 35.49     0.174 HD
ATOM     13  HE  ARG D 557     -25.616  -0.356 -14.552  1.00 35.49     0.178 HD
ENDBRANCH   4   5
ENDBRANCH   3   4
ENDBRANCH   2   3
ENDBRANCH   1   2
END_RES ARG D 557
BEGIN_RES GLU D 570
REMARK  3 active torsions:
REMARK  status: ('A' for Active; 'I' for Inactive)
REMARK    5  A    between atoms: CA   and  CB  
REMARK    6  A    between atoms: CB   and  CG  
REMARK    7  A    between atoms: CG   and  CD  
ROOT
ATOM     14  CA  GLU D 570     -18.033  -6.348 -13.375  1.00 32.92     0.160 C 
ENDROOT
BRANCH  14  15
ATOM     15  CB  GLU D 570     -19.500  -6.345 -13.794  1.00 32.92     0.043 C 
BRANCH  15  16
ATOM     16  CG  GLU D 570     -20.441  -5.527 -12.986  1.00 32.92     0.100 C 
BRANCH  16  17
ATOM     17  CD  GLU D 570     -21.748  -5.259 -13.695  1.00 32.92     0.185 C 
ATOM     18  OE1 GLU D 570     -22.223  -6.137 -14.441  1.00 32.92    -0.647 OA
ATOM     19  OE2 GLU D 570     -22.294  -4.153 -13.516  1.00 32.92    -0.647 OA
ENDBRANCH  16  17
ENDBRANCH  15  16
ENDBRANCH  14  15
END_RES GLU D 570
ENDMDL
MODEL 5
REMARK VINA RESULT:      -2.3      7.735      9.499
REMARK  0 active torsions:
REMARK  status: ('A' for Active; 'I' for Inactive)
ROOT
HETATM    1  C   UNL     1     -11.133   3.361 -20.277  1.00  0.00     0.042 C 
HETATM    2  C   UNL     1     -12.168   4.339 -19.856  1.00  0.00     0.141 A 
HETATM    3  C   UNL     1     -12.051   5.793 -20.217  1.00  0.00     0.199 A 
HETATM    4  O   UNL     1     -11.705   5.309 -18.910  1.00  0.00    -0.382 OA
ENDROOT
TORSDOF 0
BEGIN_RES ARG D 557
REMARK  4 active torsions:
REMARK  status: ('A' for Active; 'I' for Inactive)
REMARK    1  A    between atoms: CA   and  CB  
REMARK    2  A    between atoms: CB   and  CG  
REMARK    3  A    between atoms: CG   and  CD  
REMARK    4  A    between atoms: CD   and  NE  
REMARK       I    between atoms: NE   and  CZ  
REMARK       I    between atoms: CZ   and  NH1 
REMARK       I    between atoms: CZ   and  NH2 
ROOT
ATOM      1  CA  ARG D 557     -26.217   2.705 -17.014  1.00 35.49     0.159 C 
ENDROOT
BRANCH   1   2
ATOM      2  CB  ARG D 557     -26.789   1.319 -17.183  1.00 35.49     0.034 C 
BRANCH   2   3
ATOM      3  CG  ARG D 557     -25.835   0.203 -17.160  1.00 35.49     0.027 C 
BRANCH   3   4
ATOM      4  CD  ARG D 557     -24.748   0.411 -16.176  1.00 35.49     0.116 C 
BRANCH   4   5
ATOM      5  NE  ARG D 557     -24.893  -0.436 -15.021  1.00 35.49    -0.212 N 
ATOM      6  CZ  ARG D 557     -24.077  -1.405 -14.672  1.00 35.49     0.666 C 
ATOM      7  NH1 ARG D 557     -23.008  -1.721 -15.379  1.00 35.49    -0.235 N 
ATOM      8  NH2 ARG D 557     -24.352  -2.057 -13.580  1.00 35.49    -0.235 N 
ATOM      9  HH  ARG D 557     -22.806  -1.303 -16.100  1.00 35.49     0.174 HD
ATOM     10  HH  ARG D 557     -22.510  -2.361 -15.101  1.00 35.49     0.174 HD
ATOM     11  HH  ARG D 557     -25.045  -1.826 -13.139  1.00 35.49     0.174 HD
ATOM     12  HH  ARG D 557     -23.846  -2.686 -13.320  1.00 35.49     0.174 HD
ATOM     13  HE  ARG D 557     -25.594  -0.350 -14.548  1.00 35.49     0.178 HD
ENDBRANCH   4   5
ENDBRANCH   3   4
ENDBRANCH   2   3
ENDBRANCH   1   2
END_RES ARG D 557
BEGIN_RES GLU D 570
REMARK  3 active torsions:
REMARK  status: ('A' for Active; 'I' for Inactive)
REMARK    5  A    between atoms: CA   and  CB  
REMARK    6  A    between atoms: CB   and  CG  
REMARK    7  A    between atoms: CG   and  CD  
ROOT
ATOM     14  CA  GLU D 570     -18.033  -6.348 -13.375  1.00 32.92     0.160 C 
ENDROOT
BRANCH  14  15
ATOM     15  CB  GLU D 570     -19.500  -6.345 -13.794  1.00 32.92     0.043 C 
BRANCH  15  16
ATOM     16  CG  GLU D 570     -20.442  -5.531 -12.983  1.00 32.92     0.100 C 
BRANCH  16  17
ATOM     17  CD  GLU D 570     -21.736  -5.234 -13.705  1.00 32.92     0.185 C 
ATOM     18  OE1 GLU D 570     -22.311  -4.149 -13.494  1.00 32.92    -0.647 OA
ATOM     19  OE2 GLU D 570     -22.188  -6.102 -14.477  1.00 32.92    -0.647 OA
ENDBRANCH  16  17
ENDBRANCH  15  16
ENDBRANCH  14  15
END_RES GLU D 570
ENDMDL
MODEL 6
REMARK VINA RESULT:      -2.3      2.495      2.793
REMARK  0 active torsions:
REMARK  status: ('A' for Active; 'I' for Inactive)
ROOT
HETATM    1  C   UNL     1     -23.533  -4.044  -8.830  1.00  0.00     0.042 C 
HETATM    2  C   UNL     1     -24.337  -4.228 -10.064  1.00  0.00     0.141 A 
HETATM    3  C   UNL     1     -24.248  -3.249 -11.201  1.00  0.00     0.199 A 
HETATM    4  O   UNL     1     -25.338  -3.225 -10.266  1.00  0.00    -0.382 OA
ENDROOT
TORSDOF 0
BEGIN_RES ARG D 557
REMARK  4 active torsions:
REMARK  status: ('A' for Active; 'I' for Inactive)
REMARK    1  A    between atoms: CA   and  CB  
REMARK    2  A    between atoms: CB   and  CG  
REMARK    3  A    between atoms: CG   and  CD  
REMARK    4  A    between atoms: CD   and  NE  
REMARK       I    between atoms: NE   and  CZ  
REMARK       I    between atoms: CZ   and  NH1 
REMARK       I    between atoms: CZ   and  NH2 
ROOT
ATOM      1  CA  ARG D 557     -26.217   2.705 -17.014  1.00 35.49     0.159 C 
ENDROOT
BRANCH   1   2
ATOM      2  CB  ARG D 557     -26.789   1.319 -17.183  1.00 35.49     0.034 C 
BRANCH   2   3
ATOM      3  CG  ARG D 557     -28.218   1.153 -16.889  1.00 35.49     0.027 C 
BRANCH   3   4
ATOM      4  CD  ARG D 557     -28.606  -0.270 -16.759  1.00 35.49     0.116 C 
BRANCH   4   5
ATOM      5  NE  ARG D 557     -27.610  -1.042 -16.064  1.00 35.49    -0.212 N 
ATOM      6  CZ  ARG D 557     -27.465  -2.347 -16.132  1.00 35.49     0.666 C 
ATOM      7  NH1 ARG D 557     -28.257  -3.112 -16.860  1.00 35.49    -0.235 N 
ATOM      8  NH2 ARG D 557     -26.492  -2.879 -15.450  1.00 35.49    -0.235 N 
ATOM      9  HH  ARG D 557     -28.902  -2.783 -17.319  1.00 35.49     0.174 HD
ATOM     10  HH  ARG D 557     -28.113  -3.956 -16.868  1.00 35.49     0.174 HD
ATOM     11  HH  ARG D 557     -25.992  -2.359 -14.995  1.00 35.49     0.174 HD
ATOM     12  HH  ARG D 557     -26.365  -3.717 -15.472  1.00 35.49     0.174 HD
ATOM     13  HE  ARG D 557     -27.102  -0.638 -15.515  1.00 35.49     0.178 HD
ENDBRANCH   4   5
ENDBRANCH   3   4
ENDBRANCH   2   3
ENDBRANCH   1   2
END_RES ARG D 557
BEGIN_RES GLU D 570
REMARK  3 active torsions:
REMARK  status: ('A' for Active; 'I' for Inactive)
REMARK    5  A    between atoms: CA   and  CB  
REMARK    6  A    between atoms: CB   and  CG  
REMARK    7  A    between atoms: CG   and  CD  
ROOT
ATOM     14  CA  GLU D 570     -18.033  -6.348 -13.375  1.00 32.92     0.160 C 
ENDROOT
BRANCH  14  15
ATOM     15  CB  GLU D 570     -19.500  -6.345 -13.794  1.00 32.92     0.043 C 
BRANCH  15  16
ATOM     16  CG  GLU D 570     -19.803  -6.082 -15.225  1.00 32.92     0.100 C 
BRANCH  16  17
ATOM     17  CD  GLU D 570     -21.269  -5.821 -15.478  1.00 32.92     0.185 C 
ATOM     18  OE1 GLU D 570     -22.111  -6.640 -15.062  1.00 32.92    -0.647 OA
ATOM     19  OE2 GLU D 570     -21.578  -4.794 -16.115  1.00 32.92    -0.647 OA
ENDBRANCH  16  17
ENDBRANCH  15  16
ENDBRANCH  14  15
END_RES GLU D 570
ENDMDL
MODEL 7
REMARK VINA RESULT:      -2.2      2.090      2.492
REMARK  0 active torsions:
REMARK  status: ('A' for Active; 'I' for Inactive)
ROOT
HETATM    1  C   UNL     1     -20.158  -4.724  -5.705  1.00  0.00     0.042 C 
HETATM    2  C   UNL     1     -20.562  -4.336  -7.080  1.00  0.00     0.141 A 
HETATM    3  C   UNL     1     -22.011  -4.159  -7.440  1.00  0.00     0.199 A 
HETATM    4  O   UNL     1     -21.286  -5.350  -7.785  1.00  0.00    -0.382 OA
ENDROOT
TORSDOF 0
BEGIN_RES ARG D 557
REMARK  4 active torsions:
REMARK  status: ('A' for Active; 'I' for Inactive)
REMARK    1  A    between atoms: CA   and  CB  
REMARK    2  A    between atoms: CB   and  CG  
REMARK    3  A    between atoms: CG   and  CD  
REMARK    4  A    between atoms: CD   and  NE  
REMARK       I    between atoms: NE   and  CZ  
REMARK       I    between atoms: CZ   and  NH1 
REMARK       I    between atoms: CZ   and  NH2 
ROOT
ATOM      1  CA  ARG D 557     -26.217   2.705 -17.014  1.00 35.49     0.159 C 
ENDROOT
BRANCH   1   2
ATOM      2  CB  ARG D 557     -26.789   1.319 -17.183  1.00 35.49     0.034 C 
BRANCH   2   3
ATOM      3  CG  ARG D 557     -25.833   0.205 -17.180  1.00 35.49     0.027 C 
BRANCH   3   4
ATOM      4  CD  ARG D 557     -24.743   0.399 -16.197  1.00 35.49     0.116 C 
BRANCH   4   5
ATOM      5  NE  ARG D 557     -24.902  -0.439 -15.038  1.00 35.49    -0.212 N 
ATOM      6  CZ  ARG D 557     -24.091  -1.406 -14.673  1.00 35.49     0.666 C 
ATOM      7  NH1 ARG D 557     -23.014  -1.729 -15.366  1.00 35.49    -0.235 N 
ATOM      8  NH2 ARG D 557     -24.379  -2.051 -13.579  1.00 35.49    -0.235 N 
ATOM      9  HH  ARG D 557     -22.804  -1.317 -16.087  1.00 35.49     0.174 HD
ATOM     10  HH  ARG D 557     -22.520  -2.367 -15.077  1.00 35.49     0.174 HD
ATOM     11  HH  ARG D 557     -25.076  -1.816 -13.149  1.00 35.49     0.174 HD
ATOM     12  HH  ARG D 557     -23.877  -2.679 -13.310  1.00 35.49     0.174 HD
ATOM     13  HE  ARG D 557     -25.609  -0.349 -14.574  1.00 35.49     0.178 HD
ENDBRANCH   4   5
ENDBRANCH   3   4
ENDBRANCH   2   3
ENDBRANCH   1   2
END_RES ARG D 557
BEGIN_RES GLU D 570
REMARK  3 active torsions:
REMARK  status: ('A' for Active; 'I' for Inactive)
REMARK    5  A    between atoms: CA   and  CB  
REMARK    6  A    between atoms: CB   and  CG  
REMARK    7  A    between atoms: CG   and  CD  
ROOT
ATOM     14  CA  GLU D 570     -18.033  -6.348 -13.375  1.00 32.92     0.160 C 
ENDROOT
BRANCH  14  15
ATOM     15  CB  GLU D 570     -19.500  -6.345 -13.794  1.00 32.92     0.043 C 
BRANCH  15  16
ATOM     16  CG  GLU D 570     -20.438  -5.515 -12.995  1.00 32.92     0.100 C 
BRANCH  16  17
ATOM     17  CD  GLU D 570     -21.748  -5.258 -13.704  1.00 32.92     0.185 C 
ATOM     18  OE1 GLU D 570     -22.348  -4.186 -13.496  1.00 32.92    -0.647 OA
ATOM     19  OE2 GLU D 570     -22.185  -6.145 -14.463  1.00 32.92    -0.647 OA
ENDBRANCH  16  17
ENDBRANCH  15  16
ENDBRANCH  14  15
END_RES GLU D 570
ENDMDL
MODEL 8
REMARK VINA RESULT:      -2.0     11.699     11.760
REMARK  0 active torsions:
REMARK  status: ('A' for Active; 'I' for Inactive)
ROOT
HETATM    1  C   UNL     1     -13.118   9.061   5.912  1.00  0.00     0.042 C 
HETATM    2  C   UNL     1     -14.285   9.089   4.995  1.00  0.00     0.141 A 
HETATM    3  C   UNL     1     -15.568   8.391   5.352  1.00  0.00     0.199 A 
HETATM    4  O   UNL     1     -14.623   7.814   4.437  1.00  0.00    -0.382 OA
ENDROOT
TORSDOF 0
BEGIN_RES ARG D 557
REMARK  4 active torsions:
REMARK  status: ('A' for Active; 'I' for Inactive)
REMARK    1  A    between atoms: CA   and  CB  
REMARK    2  A    between atoms: CB   and  CG  
REMARK    3  A    between atoms: CG   and  CD  
REMARK    4  A    between atoms: CD   and  NE  
REMARK       I    between atoms: NE   and  CZ  
REMARK       I    between atoms: CZ   and  NH1 
REMARK       I    between atoms: CZ   and  NH2 
ROOT
ATOM      1  CA  ARG D 557     -26.217   2.705 -17.014  1.00 35.49     0.159 C 
ENDROOT
BRANCH   1   2
ATOM      2  CB  ARG D 557     -26.789   1.319 -17.183  1.00 35.49     0.034 C 
BRANCH   2   3
ATOM      3  CG  ARG D 557     -25.858   0.196 -17.022  1.00 35.49     0.027 C 
BRANCH   3   4
ATOM      4  CD  ARG D 557     -26.223  -0.682 -15.887  1.00 35.49     0.116 C 
BRANCH   4   5
ATOM      5  NE  ARG D 557     -25.147  -0.823 -14.942  1.00 35.49    -0.212 N 
ATOM      6  CZ  ARG D 557     -24.769  -1.944 -14.369  1.00 35.49     0.666 C 
ATOM      7  NH1 ARG D 557     -25.371  -3.096 -14.600  1.00 35.49    -0.235 N 
ATOM      8  NH2 ARG D 557     -23.758  -1.889 -13.552  1.00 35.49    -0.235 N 
ATOM      9  HH  ARG D 557     -26.038  -3.155 -15.135  1.00 35.49     0.174 HD
ATOM     10  HH  ARG D 557     -25.080  -3.795 -14.199  1.00 35.49     0.174 HD
ATOM     11  HH  ARG D 557     -23.384  -1.133 -13.428  1.00 35.49     0.174 HD
ATOM     12  HH  ARG D 557     -23.483  -2.593 -13.166  1.00 35.49     0.174 HD
ATOM     13  HE  ARG D 557     -24.750  -0.118 -14.681  1.00 35.49     0.178 HD
ENDBRANCH   4   5
ENDBRANCH   3   4
ENDBRANCH   2   3
ENDBRANCH   1   2
END_RES ARG D 557
BEGIN_RES GLU D 570
REMARK  3 active torsions:
REMARK  status: ('A' for Active; 'I' for Inactive)
REMARK    5  A    between atoms: CA   and  CB  
REMARK    6  A    between atoms: CB   and  CG  
REMARK    7  A    between atoms: CG   and  CD  
ROOT
ATOM     14  CA  GLU D 570     -18.033  -6.348 -13.375  1.00 32.92     0.160 C 
ENDROOT
BRANCH  14  15
ATOM     15  CB  GLU D 570     -19.500  -6.345 -13.794  1.00 32.92     0.043 C 
BRANCH  15  16
ATOM     16  CG  GLU D 570     -20.439  -5.516 -12.995  1.00 32.92     0.100 C 
BRANCH  16  17
ATOM     17  CD  GLU D 570     -21.649  -5.070 -13.782  1.00 32.92     0.185 C 
ATOM     18  OE1 GLU D 570     -22.641  -4.632 -13.170  1.00 32.92    -0.647 OA
ATOM     19  OE2 GLU D 570     -21.610  -5.177 -15.024  1.00 32.92    -0.647 OA
ENDBRANCH  16  17
ENDBRANCH  15  16
ENDBRANCH  14  15
END_RES GLU D 570
ENDMDL
MODEL 9
REMARK VINA RESULT:      -1.9      1.943      2.252
REMARK  0 active torsions:
REMARK  status: ('A' for Active; 'I' for Inactive)
ROOT
HETATM    1  C   UNL     1     -20.253  -4.129  -8.371  1.00  0.00     0.042 C 
HETATM    2  C   UNL     1     -21.599  -4.755  -8.371  1.00  0.00     0.141 A 
HETATM    3  C   UNL     1     -22.823  -3.963  -8.740  1.00  0.00     0.199 A 
HETATM    4  O   UNL     1     -22.485  -4.239  -7.371  1.00  0.00    -0.382 OA
ENDROOT
TORSDOF 0
BEGIN_RES ARG D 557
REMARK  4 active torsions:
REMARK  status: ('A' for Active; 'I' for Inactive)
REMARK    1  A    between atoms: CA   and  CB  
REMARK    2  A    between atoms: CB   and  CG  
REMARK    3  A    between atoms: CG   and  CD  
REMARK    4  A    between atoms: CD   and  NE  
REMARK       I    between atoms: NE   and  CZ  
REMARK       I    between atoms: CZ   and  NH1 
REMARK       I    between atoms: CZ   and  NH2 
ROOT
ATOM      1  CA  ARG D 557     -26.217   2.705 -17.014  1.00 35.49     0.159 C 
ENDROOT
BRANCH   1   2
ATOM      2  CB  ARG D 557     -26.789   1.319 -17.183  1.00 35.49     0.034 C 
BRANCH   2   3
ATOM      3  CG  ARG D 557     -25.933   0.197 -16.777  1.00 35.49     0.027 C 
BRANCH   3   4
ATOM      4  CD  ARG D 557     -26.688  -0.860 -16.066  1.00 35.49     0.116 C 
BRANCH   4   5
ATOM      5  NE  ARG D 557     -25.929  -1.436 -14.988  1.00 35.49    -0.212 N 
ATOM      6  CZ  ARG D 557     -25.908  -2.708 -14.657  1.00 35.49     0.666 C 
ATOM      7  NH1 ARG D 557     -26.619  -3.619 -15.296  1.00 35.49    -0.235 N 
ATOM      8  NH2 ARG D 557     -25.144  -3.057 -13.663  1.00 35.49    -0.235 N 
ATOM      9  HH  ARG D 557     -27.126  -3.411 -15.955  1.00 35.49     0.174 HD
ATOM     10  HH  ARG D 557     -26.563  -4.434 -15.038  1.00 35.49     0.174 HD
ATOM     11  HH  ARG D 557     -24.691  -2.448 -13.273  1.00 35.49     0.174 HD
ATOM     12  HH  ARG D 557     -25.101  -3.869 -13.423  1.00 35.49     0.174 HD
ATOM     13  HE  ARG D 557     -25.499  -0.910 -14.477  1.00 35.49     0.178 HD
ENDBRANCH   4   5
ENDBRANCH   3   4
ENDBRANCH   2   3
ENDBRANCH   1   2
END_RES ARG D 557
BEGIN_RES GLU D 570
REMARK  3 active torsions:
REMARK  status: ('A' for Active; 'I' for Inactive)
REMARK    5  A    between atoms: CA   and  CB  
REMARK    6  A    between atoms: CB   and  CG  
REMARK    7  A    between atoms: CG   and  CD  
ROOT
ATOM     14  CA  GLU D 570     -18.033  -6.348 -13.375  1.00 32.92     0.160 C 
ENDROOT
BRANCH  14  15
ATOM     15  CB  GLU D 570     -19.500  -6.345 -13.794  1.00 32.92     0.043 C 
BRANCH  15  16
ATOM     16  CG  GLU D 570     -20.447  -5.555 -12.966  1.00 32.92     0.100 C 
BRANCH  16  17
ATOM     17  CD  GLU D 570     -21.692  -5.148 -13.719  1.00 32.92     0.185 C 
ATOM     18  OE1 GLU D 570     -21.631  -5.006 -14.956  1.00 32.92    -0.647 OA
ATOM     19  OE2 GLU D 570     -22.734  -4.952 -13.064  1.00 32.92    -0.647 OA
ENDBRANCH  16  17
ENDBRANCH  15  16
ENDBRANCH  14  15
END_RES GLU D 570
ENDMDL
