MODEL 1
REMARK VINA RESULT:      -9.2      0.000      0.000
REMARK  0 active torsions:
REMARK  status: ('A' for Active; 'I' for Inactive)
ROOT
HETATM    1  C   UNL     1     -20.023  -4.859  -4.583  1.00  0.00     0.025 C 
HETATM    2  C   UNL     1     -20.831  -5.536  -5.668  1.00  0.00     0.110 C 
HETATM    3  C   UNL     1     -21.910  -4.993  -6.270  1.00  0.00     0.032 C 
HETATM    4  C   UNL     1     -21.822  -4.475  -7.622  1.00  0.00     0.015 C 
HETATM    5  C   UNL     1     -20.688  -4.265  -8.306  1.00  0.00     0.043 C 
HETATM    6  C   UNL     1     -20.801  -3.692  -9.598  1.00  0.00     0.008 A 
HETATM    7  C   UNL     1     -19.910  -3.293 -10.524  1.00  0.00     0.101 A 
HETATM    8  N   UNL     1     -20.553  -2.899 -11.683  1.00  0.00    -0.364 N 
HETATM    9  C   UNL     1     -21.913  -3.081 -11.589  1.00  0.00     0.054 A 
HETATM   10  C   UNL     1     -22.915  -2.976 -12.458  1.00  0.00     0.020 A 
HETATM   11  C   UNL     1     -24.292  -3.298 -11.939  1.00  0.00     0.230 A 
HETATM   12  O   UNL     1     -25.264  -3.223 -12.686  1.00  0.00    -0.283 OA
HETATM   13  C   UNL     1     -24.482  -3.729 -10.454  1.00  0.00     0.234 A 
HETATM   14  O   UNL     1     -25.589  -4.023 -10.021  1.00  0.00    -0.283 OA
HETATM   15  C   UNL     1     -23.267  -3.816  -9.606  1.00  0.00     0.044 A 
HETATM   16  C   UNL     1     -22.107  -3.528 -10.241  1.00  0.00     0.019 A 
HETATM   17  C   UNL     1     -23.149  -4.240  -8.206  1.00  0.00     0.008 C 
HETATM   18  C   UNL     1     -23.975  -4.613  -7.207  1.00  0.00     0.101 C 
HETATM   19  N   UNL     1     -23.273  -4.946  -6.020  1.00  0.00    -0.367 N 
HETATM   20  C   UNL     1     -22.745  -2.584 -13.885  1.00  0.00     0.055 C 
HETATM   21  C   UNL     1     -19.490  -4.855  -7.709  1.00  0.00     0.230 C 
HETATM   22  O   UNL     1     -18.342  -4.531  -7.932  1.00  0.00    -0.283 OA
HETATM   23  C   UNL     1     -19.856  -5.968  -6.724  1.00  0.00     0.209 C 
HETATM   24  O   UNL     1     -19.504  -7.122  -6.884  1.00  0.00    -0.288 OA
HETATM   25  H   UNL     1     -20.063  -2.779 -12.559  1.00  0.00     0.165 HD
HETATM   26  H   UNL     1     -23.686  -5.632  -5.392  1.00  0.00     0.165 HD
ENDROOT
TORSDOF 0
BEGIN_RES ARG D 557
REMARK  4 active torsions:
REMARK  status: ('A' for Active; 'I' for Inactive)
REMARK    1  A    between atoms: CA   and  CB  
REMARK    2  A    between atoms: CB   and  CG  
REMARK    3  A    between atoms: CG   and  CD  
REMARK    4  A    between atoms: CD   and  NE  
REMARK       I    between atoms: NE   and  CZ  
REMARK       I    between atoms: CZ   and  NH1 
REMARK       I    between atoms: CZ   and  NH2 
ROOT
ATOM      1  CA  ARG D 557     -26.217   2.705 -17.014  1.00 35.49     0.159 C 
ENDROOT
BRANCH   1   2
ATOM      2  CB  ARG D 557     -26.789   1.319 -17.183  1.00 35.49     0.034 C 
BRANCH   2   3
ATOM      3  CG  ARG D 557     -28.239   1.223 -17.388  1.00 35.49     0.027 C 
BRANCH   3   4
ATOM      4  CD  ARG D 557     -28.880   0.269 -16.454  1.00 35.49     0.116 C 
BRANCH   4   5
ATOM      5  NE  ARG D 557     -29.276  -0.949 -17.111  1.00 35.49    -0.212 N 
ATOM      6  CZ  ARG D 557     -28.654  -2.103 -17.028  1.00 35.49     0.666 C 
ATOM      7  NH1 ARG D 557     -27.552  -2.266 -16.319  1.00 35.49    -0.235 N 
ATOM      8  NH2 ARG D 557     -29.168  -3.110 -17.674  1.00 35.49    -0.235 N 
ATOM      9  HH  ARG D 557     -27.198  -1.618 -15.884  1.00 35.49     0.174 HD
ATOM     10  HH  ARG D 557     -27.192  -3.043 -16.300  1.00 35.49     0.174 HD
ATOM     11  HH  ARG D 557     -29.884  -2.977 -18.117  1.00 35.49     0.174 HD
ATOM     12  HH  ARG D 557     -28.797  -3.871 -17.641  1.00 35.49     0.174 HD
ATOM     13  HE  ARG D 557     -29.935  -0.917 -17.647  1.00 35.49     0.178 HD
ENDBRANCH   4   5
ENDBRANCH   3   4
ENDBRANCH   2   3
ENDBRANCH   1   2
END_RES ARG D 557
BEGIN_RES GLU D 570
REMARK  3 active torsions:
REMARK  status: ('A' for Active; 'I' for Inactive)
REMARK    5  A    between atoms: CA   and  CB  
REMARK    6  A    between atoms: CB   and  CG  
REMARK    7  A    between atoms: CG   and  CD  
ROOT
ATOM     14  CA  GLU D 570     -18.033  -6.348 -13.375  1.00 32.92     0.160 C 
ENDROOT
BRANCH  14  15
ATOM     15  CB  GLU D 570     -19.500  -6.345 -13.794  1.00 32.92     0.043 C 
BRANCH  15  16
ATOM     16  CG  GLU D 570     -19.810  -5.973 -15.199  1.00 32.92     0.100 C 
BRANCH  16  17
ATOM     17  CD  GLU D 570     -21.273  -5.665 -15.418  1.00 32.92     0.185 C 
ATOM     18  OE1 GLU D 570     -21.615  -5.053 -16.448  1.00 32.92    -0.647 OA
ATOM     19  OE2 GLU D 570     -22.084  -6.024 -14.541  1.00 32.92    -0.647 OA
ENDBRANCH  16  17
ENDBRANCH  15  16
ENDBRANCH  14  15
END_RES GLU D 570
ENDMDL
MODEL 2
REMARK VINA RESULT:      -8.9      5.048      7.670
REMARK  0 active torsions:
REMARK  status: ('A' for Active; 'I' for Inactive)
ROOT
HETATM    1  C   UNL     1     -23.198 -12.004   0.719  1.00  0.00     0.025 C 
HETATM    2  C   UNL     1     -21.909 -11.591   0.044  1.00  0.00     0.110 C 
HETATM    3  C   UNL     1     -21.761 -11.431  -1.288  1.00  0.00     0.032 C 
HETATM    4  C   UNL     1     -21.680 -10.104  -1.870  1.00  0.00     0.015 C 
HETATM    5  C   UNL     1     -21.962  -8.955  -1.237  1.00  0.00     0.043 C 
HETATM    6  C   UNL     1     -21.884  -7.758  -1.994  1.00  0.00     0.008 A 
HETATM    7  C   UNL     1     -22.145  -6.466  -1.725  1.00  0.00     0.101 A 
HETATM    8  N   UNL     1     -21.791  -5.663  -2.794  1.00  0.00    -0.364 N 
HETATM    9  C   UNL     1     -21.216  -6.398  -3.804  1.00  0.00     0.054 A 
HETATM   10  C   UNL     1     -20.614  -6.075  -4.945  1.00  0.00     0.020 A 
HETATM   11  C   UNL     1     -20.087  -7.216  -5.775  1.00  0.00     0.230 A 
HETATM   12  O   UNL     1     -19.519  -6.992  -6.840  1.00  0.00    -0.283 OA
HETATM   13  C   UNL     1     -20.262  -8.683  -5.278  1.00  0.00     0.234 A 
HETATM   14  O   UNL     1     -19.815  -9.623  -5.925  1.00  0.00    -0.283 OA
HETATM   15  C   UNL     1     -20.944  -8.888  -3.976  1.00  0.00     0.044 A 
HETATM   16  C   UNL     1     -21.321  -7.753  -3.346  1.00  0.00     0.019 A 
HETATM   17  C   UNL     1     -21.193 -10.142  -3.255  1.00  0.00     0.008 C 
HETATM   18  C   UNL     1     -21.005 -11.461  -3.460  1.00  0.00     0.101 C 
HETATM   19  N   UNL     1     -21.443 -12.247  -2.362  1.00  0.00    -0.367 N 
HETATM   20  C   UNL     1     -20.422  -4.677  -5.421  1.00  0.00     0.055 C 
HETATM   21  C   UNL     1     -22.108  -9.070   0.214  1.00  0.00     0.230 C 
HETATM   22  O   UNL     1     -22.679  -8.286   0.942  1.00  0.00    -0.283 OA
HETATM   23  C   UNL     1     -21.442 -10.345   0.736  1.00  0.00     0.209 C 
HETATM   24  O   UNL     1     -20.515 -10.320   1.525  1.00  0.00    -0.288 OA
HETATM   25  H   UNL     1     -21.701  -4.660  -2.710  1.00  0.00     0.165 HD
HETATM   26  H   UNL     1     -20.978 -13.135  -2.189  1.00  0.00     0.165 HD
ENDROOT
TORSDOF 0
BEGIN_RES ARG D 557
REMARK  4 active torsions:
REMARK  status: ('A' for Active; 'I' for Inactive)
REMARK    1  A    between atoms: CA   and  CB  
REMARK    2  A    between atoms: CB   and  CG  
REMARK    3  A    between atoms: CG   and  CD  
REMARK    4  A    between atoms: CD   and  NE  
REMARK       I    between atoms: NE   and  CZ  
REMARK       I    between atoms: CZ   and  NH1 
REMARK       I    between atoms: CZ   and  NH2 
ROOT
ATOM      1  CA  ARG D 557     -26.217   2.705 -17.014  1.00 35.49     0.159 C 
ENDROOT
BRANCH   1   2
ATOM      2  CB  ARG D 557     -26.789   1.319 -17.183  1.00 35.49     0.034 C 
BRANCH   2   3
ATOM      3  CG  ARG D 557     -25.845   0.199 -17.088  1.00 35.49     0.027 C 
BRANCH   3   4
ATOM      4  CD  ARG D 557     -24.773   0.447 -16.097  1.00 35.49     0.116 C 
BRANCH   4   5
ATOM      5  NE  ARG D 557     -24.849  -0.455 -14.978  1.00 35.49    -0.212 N 
ATOM      6  CZ  ARG D 557     -24.003  -1.426 -14.715  1.00 35.49     0.666 C 
ATOM      7  NH1 ARG D 557     -22.966  -1.691 -15.487  1.00 35.49    -0.235 N 
ATOM      8  NH2 ARG D 557     -24.216  -2.133 -13.643  1.00 35.49    -0.235 N 
ATOM      9  HH  ARG D 557     -22.806  -1.238 -16.196  1.00 35.49     0.174 HD
ATOM     10  HH  ARG D 557     -22.446  -2.335 -15.264  1.00 35.49     0.174 HD
ATOM     11  HH  ARG D 557     -24.889  -1.934 -13.159  1.00 35.49     0.174 HD
ATOM     12  HH  ARG D 557     -23.689  -2.765 -13.438  1.00 35.49     0.174 HD
ATOM     13  HE  ARG D 557     -25.528  -0.402 -14.468  1.00 35.49     0.178 HD
ENDBRANCH   4   5
ENDBRANCH   3   4
ENDBRANCH   2   3
ENDBRANCH   1   2
END_RES ARG D 557
BEGIN_RES GLU D 570
REMARK  3 active torsions:
REMARK  status: ('A' for Active; 'I' for Inactive)
REMARK    5  A    between atoms: CA   and  CB  
REMARK    6  A    between atoms: CB   and  CG  
REMARK    7  A    between atoms: CG   and  CD  
ROOT
ATOM     14  CA  GLU D 570     -18.033  -6.348 -13.375  1.00 32.92     0.160 C 
ENDROOT
BRANCH  14  15
ATOM     15  CB  GLU D 570     -19.500  -6.345 -13.794  1.00 32.92     0.043 C 
BRANCH  15  16
ATOM     16  CG  GLU D 570     -20.444  -5.542 -12.975  1.00 32.92     0.100 C 
BRANCH  16  17
ATOM     17  CD  GLU D 570     -21.660  -5.089 -13.750  1.00 32.92     0.185 C 
ATOM     18  OE1 GLU D 570     -22.681  -4.742 -13.126  1.00 32.92    -0.647 OA
ATOM     19  OE2 GLU D 570     -21.595  -5.098 -14.995  1.00 32.92    -0.647 OA
ENDBRANCH  16  17
ENDBRANCH  15  16
ENDBRANCH  14  15
END_RES GLU D 570
ENDMDL
MODEL 3
REMARK VINA RESULT:      -8.9      5.181      8.240
REMARK  0 active torsions:
REMARK  status: ('A' for Active; 'I' for Inactive)
ROOT
HETATM    1  C   UNL     1     -22.821  -7.516   1.453  1.00  0.00     0.025 C 
HETATM    2  C   UNL     1     -22.980  -7.986   0.025  1.00  0.00     0.110 C 
HETATM    3  C   UNL     1     -22.233  -7.549  -1.012  1.00  0.00     0.032 C 
HETATM    4  C   UNL     1     -21.195  -8.388  -1.583  1.00  0.00     0.015 C 
HETATM    5  C   UNL     1     -20.720  -9.519  -1.042  1.00  0.00     0.043 C 
HETATM    6  C   UNL     1     -19.657 -10.169  -1.720  1.00  0.00     0.008 A 
HETATM    7  C   UNL     1     -18.908 -11.256  -1.456  1.00  0.00     0.101 A 
HETATM    8  N   UNL     1     -18.063 -11.535  -2.514  1.00  0.00    -0.364 N 
HETATM    9  C   UNL     1     -18.266 -10.666  -3.561  1.00  0.00     0.054 A 
HETATM   10  C   UNL     1     -17.805 -10.609  -4.807  1.00  0.00     0.020 A 
HETATM   11  C   UNL     1     -18.313  -9.476  -5.661  1.00  0.00     0.230 A 
HETATM   12  O   UNL     1     -17.931  -9.361  -6.822  1.00  0.00    -0.283 OA
HETATM   13  C   UNL     1     -19.328  -8.452  -5.069  1.00  0.00     0.234 A 
HETATM   14  O   UNL     1     -19.774  -7.542  -5.756  1.00  0.00    -0.283 OA
HETATM   15  C   UNL     1     -19.763  -8.653  -3.665  1.00  0.00     0.044 A 
HETATM   16  C   UNL     1     -19.237  -9.740  -3.055  1.00  0.00     0.019 A 
HETATM   17  C   UNL     1     -20.736  -7.882  -2.883  1.00  0.00     0.008 C 
HETATM   18  C   UNL     1     -21.492  -6.777  -3.047  1.00  0.00     0.101 C 
HETATM   19  N   UNL     1     -22.294  -6.495  -1.910  1.00  0.00    -0.367 N 
HETATM   20  C   UNL     1     -16.851 -11.592  -5.391  1.00  0.00     0.055 C 
HETATM   21  C   UNL     1     -21.508 -10.049   0.071  1.00  0.00     0.230 C 
HETATM   22  O   UNL     1     -21.121 -10.828   0.917  1.00  0.00    -0.283 OA
HETATM   23  C   UNL     1     -22.930  -9.485   0.057  1.00  0.00     0.209 C 
HETATM   24  O   UNL     1     -23.911 -10.195  -0.071  1.00  0.00    -0.288 OA
HETATM   25  H   UNL     1     -17.588 -12.422  -2.606  1.00  0.00     0.165 HD
HETATM   26  H   UNL     1     -23.179  -6.014  -2.051  1.00  0.00     0.165 HD
ENDROOT
TORSDOF 0
BEGIN_RES ARG D 557
REMARK  4 active torsions:
REMARK  status: ('A' for Active; 'I' for Inactive)
REMARK    1  A    between atoms: CA   and  CB  
REMARK    2  A    between atoms: CB   and  CG  
REMARK    3  A    between atoms: CG   and  CD  
REMARK    4  A    between atoms: CD   and  NE  
REMARK       I    between atoms: NE   and  CZ  
REMARK       I    between atoms: CZ   and  NH1 
REMARK       I    between atoms: CZ   and  NH2 
ROOT
ATOM      1  CA  ARG D 557     -26.217   2.705 -17.014  1.00 35.49     0.159 C 
ENDROOT
BRANCH   1   2
ATOM      2  CB  ARG D 557     -26.789   1.319 -17.183  1.00 35.49     0.034 C 
BRANCH   2   3
ATOM      3  CG  ARG D 557     -25.838   0.202 -17.140  1.00 35.49     0.027 C 
BRANCH   3   4
ATOM      4  CD  ARG D 557     -24.753   0.422 -16.156  1.00 35.49     0.116 C 
BRANCH   4   5
ATOM      5  NE  ARG D 557     -24.883  -0.432 -15.005  1.00 35.49    -0.212 N 
ATOM      6  CZ  ARG D 557     -24.057  -1.396 -14.667  1.00 35.49     0.666 C 
ATOM      7  NH1 ARG D 557     -22.992  -1.702 -15.384  1.00 35.49    -0.235 N 
ATOM      8  NH2 ARG D 557     -24.319  -2.056 -13.576  1.00 35.49    -0.235 N 
ATOM      9  HH  ARG D 557     -22.799  -1.279 -16.104  1.00 35.49     0.174 HD
ATOM     10  HH  ARG D 557     -22.487  -2.339 -15.113  1.00 35.49     0.174 HD
ATOM     11  HH  ARG D 557     -25.010  -1.832 -13.129  1.00 35.49     0.174 HD
ATOM     12  HH  ARG D 557     -23.807  -2.683 -13.324  1.00 35.49     0.174 HD
ATOM     13  HE  ARG D 557     -25.581  -0.352 -14.526  1.00 35.49     0.178 HD
ENDBRANCH   4   5
ENDBRANCH   3   4
ENDBRANCH   2   3
ENDBRANCH   1   2
END_RES ARG D 557
BEGIN_RES GLU D 570
REMARK  3 active torsions:
REMARK  status: ('A' for Active; 'I' for Inactive)
REMARK    5  A    between atoms: CA   and  CB  
REMARK    6  A    between atoms: CB   and  CG  
REMARK    7  A    between atoms: CG   and  CD  
ROOT
ATOM     14  CA  GLU D 570     -18.033  -6.348 -13.375  1.00 32.92     0.160 C 
ENDROOT
BRANCH  14  15
ATOM     15  CB  GLU D 570     -19.500  -6.345 -13.794  1.00 32.92     0.043 C 
BRANCH  15  16
ATOM     16  CG  GLU D 570     -20.444  -5.542 -12.975  1.00 32.92     0.100 C 
BRANCH  16  17
ATOM     17  CD  GLU D 570     -21.729  -5.220 -13.703  1.00 32.92     0.185 C 
ATOM     18  OE1 GLU D 570     -22.283  -4.123 -13.495  1.00 32.92    -0.647 OA
ATOM     19  OE2 GLU D 570     -22.194  -6.080 -14.476  1.00 32.92    -0.647 OA
ENDBRANCH  16  17
ENDBRANCH  15  16
ENDBRANCH  14  15
END_RES GLU D 570
ENDMDL
MODEL 4
REMARK VINA RESULT:      -8.8      5.086      8.783
REMARK  0 active torsions:
REMARK  status: ('A' for Active; 'I' for Inactive)
ROOT
HETATM    1  C   UNL     1     -20.148  -4.981  -5.331  1.00  0.00     0.025 C 
HETATM    2  C   UNL     1     -20.789  -6.349  -5.402  1.00  0.00     0.110 C 
HETATM    3  C   UNL     1     -20.156  -7.506  -5.112  1.00  0.00     0.032 C 
HETATM    4  C   UNL     1     -20.428  -8.207  -3.871  1.00  0.00     0.015 C 
HETATM    5  C   UNL     1     -21.108  -7.712  -2.827  1.00  0.00     0.043 C 
HETATM    6  C   UNL     1     -21.217  -8.529  -1.672  1.00  0.00     0.008 A 
HETATM    7  C   UNL     1     -21.754  -8.352  -0.451  1.00  0.00     0.101 A 
HETATM    8  N   UNL     1     -21.692  -9.522   0.283  1.00  0.00    -0.364 N 
HETATM    9  C   UNL     1     -21.159 -10.552  -0.457  1.00  0.00     0.054 A 
HETATM   10  C   UNL     1     -21.017 -11.857  -0.244  1.00  0.00     0.020 A 
HETATM   11  C   UNL     1     -20.387 -12.655  -1.355  1.00  0.00     0.230 A 
HETATM   12  O   UNL     1     -20.225 -13.866  -1.228  1.00  0.00    -0.283 OA
HETATM   13  C   UNL     1     -19.941 -11.943  -2.668  1.00  0.00     0.234 A 
HETATM   14  O   UNL     1     -19.453 -12.580  -3.593  1.00  0.00    -0.283 OA
HETATM   15  C   UNL     1     -20.176 -10.481  -2.767  1.00  0.00     0.044 A 
HETATM   16  C   UNL     1     -20.786  -9.929  -1.693  1.00  0.00     0.019 A 
HETATM   17  C   UNL     1     -19.907  -9.580  -3.893  1.00  0.00     0.008 C 
HETATM   18  C   UNL     1     -19.347  -9.658  -5.118  1.00  0.00     0.101 C 
HETATM   19  N   UNL     1     -19.376  -8.417  -5.806  1.00  0.00    -0.367 N 
HETATM   20  C   UNL     1     -21.457 -12.553   0.997  1.00  0.00     0.055 C 
HETATM   21  C   UNL     1     -21.833  -6.470  -3.096  1.00  0.00     0.230 C 
HETATM   22  O   UNL     1     -22.220  -5.671  -2.269  1.00  0.00    -0.283 OA
HETATM   23  C   UNL     1     -22.053  -6.274  -4.597  1.00  0.00     0.209 C 
HETATM   24  O   UNL     1     -23.164  -6.220  -5.092  1.00  0.00    -0.288 OA
HETATM   25  H   UNL     1     -22.232  -9.660   1.127  1.00  0.00     0.165 HD
HETATM   26  H   UNL     1     -19.415  -8.431  -6.823  1.00  0.00     0.165 HD
ENDROOT
TORSDOF 0
BEGIN_RES ARG D 557
REMARK  4 active torsions:
REMARK  status: ('A' for Active; 'I' for Inactive)
REMARK    1  A    between atoms: CA   and  CB  
REMARK    2  A    between atoms: CB   and  CG  
REMARK    3  A    between atoms: CG   and  CD  
REMARK    4  A    between atoms: CD   and  NE  
REMARK       I    between atoms: NE   and  CZ  
REMARK       I    between atoms: CZ   and  NH1 
REMARK       I    between atoms: CZ   and  NH2 
ROOT
ATOM      1  CA  ARG D 557     -26.217   2.705 -17.014  1.00 35.49     0.159 C 
ENDROOT
BRANCH   1   2
ATOM      2  CB  ARG D 557     -26.789   1.319 -17.183  1.00 35.49     0.034 C 
BRANCH   2   3
ATOM      3  CG  ARG D 557     -25.836   0.203 -17.150  1.00 35.49     0.027 C 
BRANCH   3   4
ATOM      4  CD  ARG D 557     -24.756   0.412 -16.160  1.00 35.49     0.116 C 
BRANCH   4   5
ATOM      5  NE  ARG D 557     -24.900  -0.443 -15.011  1.00 35.49    -0.212 N 
ATOM      6  CZ  ARG D 557     -24.081  -1.411 -14.666  1.00 35.49     0.666 C 
ATOM      7  NH1 ARG D 557     -23.008  -1.717 -15.372  1.00 35.49    -0.235 N 
ATOM      8  NH2 ARG D 557     -24.356  -2.071 -13.579  1.00 35.49    -0.235 N 
ATOM      9  HH  ARG D 557     -22.806  -1.295 -16.089  1.00 35.49     0.174 HD
ATOM     10  HH  ARG D 557     -22.509  -2.357 -15.096  1.00 35.49     0.174 HD
ATOM     11  HH  ARG D 557     -25.051  -1.846 -13.139  1.00 35.49     0.174 HD
ATOM     12  HH  ARG D 557     -23.848  -2.700 -13.321  1.00 35.49     0.174 HD
ATOM     13  HE  ARG D 557     -25.603  -0.363 -14.540  1.00 35.49     0.178 HD
ENDBRANCH   4   5
ENDBRANCH   3   4
ENDBRANCH   2   3
ENDBRANCH   1   2
END_RES ARG D 557
BEGIN_RES GLU D 570
REMARK  3 active torsions:
REMARK  status: ('A' for Active; 'I' for Inactive)
REMARK    5  A    between atoms: CA   and  CB  
REMARK    6  A    between atoms: CB   and  CG  
REMARK    7  A    between atoms: CG   and  CD  
ROOT
ATOM     14  CA  GLU D 570     -18.033  -6.348 -13.375  1.00 32.92     0.160 C 
ENDROOT
BRANCH  14  15
ATOM     15  CB  GLU D 570     -19.500  -6.345 -13.794  1.00 32.92     0.043 C 
BRANCH  15  16
ATOM     16  CG  GLU D 570     -20.443  -5.535 -12.980  1.00 32.92     0.100 C 
BRANCH  16  17
ATOM     17  CD  GLU D 570     -21.735  -5.232 -13.702  1.00 32.92     0.185 C 
ATOM     18  OE1 GLU D 570     -22.287  -4.130 -13.518  1.00 32.92    -0.647 OA
ATOM     19  OE2 GLU D 570     -22.209  -6.112 -14.447  1.00 32.92    -0.647 OA
ENDBRANCH  16  17
ENDBRANCH  15  16
ENDBRANCH  14  15
END_RES GLU D 570
ENDMDL
MODEL 5
REMARK VINA RESULT:      -8.5      4.881      8.559
REMARK  0 active torsions:
REMARK  status: ('A' for Active; 'I' for Inactive)
ROOT
HETATM    1  C   UNL     1     -20.158  -4.988  -5.294  1.00  0.00     0.025 C 
HETATM    2  C   UNL     1     -20.804  -6.353  -5.367  1.00  0.00     0.110 C 
HETATM    3  C   UNL     1     -20.177  -7.512  -5.076  1.00  0.00     0.032 C 
HETATM    4  C   UNL     1     -20.454  -8.213  -3.835  1.00  0.00     0.015 C 
HETATM    5  C   UNL     1     -21.134  -7.715  -2.793  1.00  0.00     0.043 C 
HETATM    6  C   UNL     1     -21.249  -8.532  -1.638  1.00  0.00     0.008 A 
HETATM    7  C   UNL     1     -21.788  -8.353  -0.419  1.00  0.00     0.101 A 
HETATM    8  N   UNL     1     -21.733  -9.524   0.316  1.00  0.00    -0.364 N 
HETATM    9  C   UNL     1     -21.202 -10.555  -0.423  1.00  0.00     0.054 A 
HETATM   10  C   UNL     1     -21.066 -11.861  -0.210  1.00  0.00     0.020 A 
HETATM   11  C   UNL     1     -20.436 -12.662  -1.320  1.00  0.00     0.230 A 
HETATM   12  O   UNL     1     -20.280 -13.873  -1.193  1.00  0.00    -0.283 OA
HETATM   13  C   UNL     1     -19.985 -11.951  -2.631  1.00  0.00     0.234 A 
HETATM   14  O   UNL     1     -19.497 -12.590  -3.556  1.00  0.00    -0.283 OA
HETATM   15  C   UNL     1     -20.214 -10.488  -2.731  1.00  0.00     0.044 A 
HETATM   16  C   UNL     1     -20.824  -9.933  -1.659  1.00  0.00     0.019 A 
HETATM   17  C   UNL     1     -19.939  -9.588  -3.856  1.00  0.00     0.008 C 
HETATM   18  C   UNL     1     -19.377  -9.668  -5.080  1.00  0.00     0.101 C 
HETATM   19  N   UNL     1     -19.399  -8.427  -5.768  1.00  0.00    -0.367 N 
HETATM   20  C   UNL     1     -21.511 -12.556   1.030  1.00  0.00     0.055 C 
HETATM   21  C   UNL     1     -21.854  -6.471  -3.063  1.00  0.00     0.230 C 
HETATM   22  O   UNL     1     -22.240  -5.670  -2.237  1.00  0.00    -0.283 OA
HETATM   23  C   UNL     1     -22.070  -6.274  -4.565  1.00  0.00     0.209 C 
HETATM   24  O   UNL     1     -23.179  -6.214  -5.062  1.00  0.00    -0.288 OA
HETATM   25  H   UNL     1     -22.275  -9.659   1.158  1.00  0.00     0.165 HD
HETATM   26  H   UNL     1     -19.436  -8.440  -6.785  1.00  0.00     0.165 HD
ENDROOT
TORSDOF 0
BEGIN_RES ARG D 557
REMARK  4 active torsions:
REMARK  status: ('A' for Active; 'I' for Inactive)
REMARK    1  A    between atoms: CA   and  CB  
REMARK    2  A    between atoms: CB   and  CG  
REMARK    3  A    between atoms: CG   and  CD  
REMARK    4  A    between atoms: CD   and  NE  
REMARK       I    between atoms: NE   and  CZ  
REMARK       I    between atoms: CZ   and  NH1 
REMARK       I    between atoms: CZ   and  NH2 
ROOT
ATOM      1  CA  ARG D 557     -26.217   2.705 -17.014  1.00 35.49     0.159 C 
ENDROOT
BRANCH   1   2
ATOM      2  CB  ARG D 557     -26.789   1.319 -17.183  1.00 35.49     0.034 C 
BRANCH   2   3
ATOM      3  CG  ARG D 557     -28.233   1.226 -17.432  1.00 35.49     0.027 C 
BRANCH   3   4
ATOM      4  CD  ARG D 557     -28.908   0.298 -16.496  1.00 35.49     0.116 C 
BRANCH   4   5
ATOM      5  NE  ARG D 557     -29.283  -0.937 -17.133  1.00 35.49    -0.212 N 
ATOM      6  CZ  ARG D 557     -28.644  -2.081 -17.025  1.00 35.49     0.666 C 
ATOM      7  NH1 ARG D 557     -27.545  -2.215 -16.307  1.00 35.49    -0.235 N 
ATOM      8  NH2 ARG D 557     -29.139  -3.106 -17.656  1.00 35.49    -0.235 N 
ATOM      9  HH  ARG D 557     -27.203  -1.554 -15.882  1.00 35.49     0.174 HD
ATOM     10  HH  ARG D 557     -27.173  -2.986 -16.272  1.00 35.49     0.174 HD
ATOM     11  HH  ARG D 557     -29.854  -2.992 -18.106  1.00 35.49     0.174 HD
ATOM     12  HH  ARG D 557     -28.757  -3.861 -17.608  1.00 35.49     0.174 HD
ATOM     13  HE  ARG D 557     -29.939  -0.925 -17.673  1.00 35.49     0.178 HD
ENDBRANCH   4   5
ENDBRANCH   3   4
ENDBRANCH   2   3
ENDBRANCH   1   2
END_RES ARG D 557
BEGIN_RES GLU D 570
REMARK  3 active torsions:
REMARK  status: ('A' for Active; 'I' for Inactive)
REMARK    5  A    between atoms: CA   and  CB  
REMARK    6  A    between atoms: CB   and  CG  
REMARK    7  A    between atoms: CG   and  CD  
ROOT
ATOM     14  CA  GLU D 570     -18.033  -6.348 -13.375  1.00 32.92     0.160 C 
ENDROOT
BRANCH  14  15
ATOM     15  CB  GLU D 570     -19.500  -6.345 -13.794  1.00 32.92     0.043 C 
BRANCH  15  16
ATOM     16  CG  GLU D 570     -20.448  -5.560 -12.962  1.00 32.92     0.100 C 
BRANCH  16  17
ATOM     17  CD  GLU D 570     -21.705  -5.174 -13.706  1.00 32.92     0.185 C 
ATOM     18  OE1 GLU D 570     -21.685  -5.140 -14.951  1.00 32.92    -0.647 OA
ATOM     19  OE2 GLU D 570     -22.717  -4.887 -13.035  1.00 32.92    -0.647 OA
ENDBRANCH  16  17
ENDBRANCH  15  16
ENDBRANCH  14  15
END_RES GLU D 570
ENDMDL
MODEL 6
REMARK VINA RESULT:      -8.5      1.057      5.547
REMARK  0 active torsions:
REMARK  status: ('A' for Active; 'I' for Inactive)
ROOT
HETATM    1  C   UNL     1     -22.797  -2.004 -13.120  1.00  0.00     0.025 C 
HETATM    2  C   UNL     1     -22.413  -3.384 -12.634  1.00  0.00     0.110 C 
HETATM    3  C   UNL     1     -21.464  -3.632 -11.707  1.00  0.00     0.032 C 
HETATM    4  C   UNL     1     -21.830  -4.015 -10.356  1.00  0.00     0.015 C 
HETATM    5  C   UNL     1     -23.062  -3.943  -9.830  1.00  0.00     0.043 C 
HETATM    6  C   UNL     1     -23.212  -4.306  -8.467  1.00  0.00     0.008 A 
HETATM    7  C   UNL     1     -24.248  -4.303  -7.609  1.00  0.00     0.101 A 
HETATM    8  N   UNL     1     -23.884  -4.870  -6.402  1.00  0.00    -0.364 N 
HETATM    9  C   UNL     1     -22.589  -5.334  -6.435  1.00  0.00     0.054 A 
HETATM   10  C   UNL     1     -21.849  -6.049  -5.593  1.00  0.00     0.020 A 
HETATM   11  C   UNL     1     -20.447  -6.372  -6.037  1.00  0.00     0.230 A 
HETATM   12  O   UNL     1     -19.707  -7.029  -5.310  1.00  0.00    -0.283 OA
HETATM   13  C   UNL     1     -19.936  -5.873  -7.422  1.00  0.00     0.234 A 
HETATM   14  O   UNL     1     -18.809  -6.149  -7.813  1.00  0.00    -0.283 OA
HETATM   15  C   UNL     1     -20.882  -5.095  -8.261  1.00  0.00     0.044 A 
HETATM   16  C   UNL     1     -22.113  -4.928  -7.725  1.00  0.00     0.019 A 
HETATM   17  C   UNL     1     -20.686  -4.556  -9.611  1.00  0.00     0.008 C 
HETATM   18  C   UNL     1     -19.688  -4.478 -10.516  1.00  0.00     0.101 C 
HETATM   19  N   UNL     1     -20.092  -3.831 -11.712  1.00  0.00    -0.367 N 
HETATM   20  C   UNL     1     -22.332  -6.550  -4.275  1.00  0.00     0.055 C 
HETATM   21  C   UNL     1     -24.132  -3.700 -10.798  1.00  0.00     0.230 C 
HETATM   22  O   UNL     1     -25.237  -3.266 -10.551  1.00  0.00    -0.283 OA
HETATM   23  C   UNL     1     -23.685  -4.061 -12.216  1.00  0.00     0.209 C 
HETATM   24  O   UNL     1     -24.232  -4.930 -12.870  1.00  0.00    -0.288 OA
HETATM   25  H   UNL     1     -24.566  -5.161  -5.714  1.00  0.00     0.165 HD
HETATM   26  H   UNL     1     -19.633  -4.093 -12.581  1.00  0.00     0.165 HD
ENDROOT
TORSDOF 0
BEGIN_RES ARG D 557
REMARK  4 active torsions:
REMARK  status: ('A' for Active; 'I' for Inactive)
REMARK    1  A    between atoms: CA   and  CB  
REMARK    2  A    between atoms: CB   and  CG  
REMARK    3  A    between atoms: CG   and  CD  
REMARK    4  A    between atoms: CD   and  NE  
REMARK       I    between atoms: NE   and  CZ  
REMARK       I    between atoms: CZ   and  NH1 
REMARK       I    between atoms: CZ   and  NH2 
ROOT
ATOM      1  CA  ARG D 557     -26.217   2.705 -17.014  1.00 35.49     0.159 C 
ENDROOT
BRANCH   1   2
ATOM      2  CB  ARG D 557     -26.789   1.319 -17.183  1.00 35.49     0.034 C 
BRANCH   2   3
ATOM      3  CG  ARG D 557     -28.225   1.161 -16.925  1.00 35.49     0.027 C 
BRANCH   3   4
ATOM      4  CD  ARG D 557     -28.606  -0.252 -16.697  1.00 35.49     0.116 C 
BRANCH   4   5
ATOM      5  NE  ARG D 557     -27.575  -0.988 -16.013  1.00 35.49    -0.212 N 
ATOM      6  CZ  ARG D 557     -27.389  -2.287 -16.075  1.00 35.49     0.666 C 
ATOM      7  NH1 ARG D 557     -28.166  -3.082 -16.787  1.00 35.49    -0.235 N 
ATOM      8  NH2 ARG D 557     -26.389  -2.783 -15.406  1.00 35.49    -0.235 N 
ATOM      9  HH  ARG D 557     -28.829  -2.777 -17.237  1.00 35.49     0.174 HD
ATOM     10  HH  ARG D 557     -27.995  -3.921 -16.792  1.00 35.49     0.174 HD
ATOM     11  HH  ARG D 557     -25.899  -2.245 -14.961  1.00 35.49     0.174 HD
ATOM     12  HH  ARG D 557     -26.235  -3.616 -15.424  1.00 35.49     0.174 HD
ATOM     13  HE  ARG D 557     -27.072  -0.563 -15.474  1.00 35.49     0.178 HD
ENDBRANCH   4   5
ENDBRANCH   3   4
ENDBRANCH   2   3
ENDBRANCH   1   2
END_RES ARG D 557
BEGIN_RES GLU D 570
REMARK  3 active torsions:
REMARK  status: ('A' for Active; 'I' for Inactive)
REMARK    5  A    between atoms: CA   and  CB  
REMARK    6  A    between atoms: CB   and  CG  
REMARK    7  A    between atoms: CG   and  CD  
ROOT
ATOM     14  CA  GLU D 570     -18.033  -6.348 -13.375  1.00 32.92     0.160 C 
ENDROOT
BRANCH  14  15
ATOM     15  CB  GLU D 570     -19.500  -6.345 -13.794  1.00 32.92     0.043 C 
BRANCH  15  16
ATOM     16  CG  GLU D 570     -19.820  -5.867 -15.164  1.00 32.92     0.100 C 
BRANCH  16  17
ATOM     17  CD  GLU D 570     -21.295  -5.614 -15.371  1.00 32.92     0.185 C 
ATOM     18  OE1 GLU D 570     -22.119  -6.424 -14.906  1.00 32.92    -0.647 OA
ATOM     19  OE2 GLU D 570     -21.629  -4.603 -16.019  1.00 32.92    -0.647 OA
ENDBRANCH  16  17
ENDBRANCH  15  16
ENDBRANCH  14  15
END_RES GLU D 570
ENDMDL
MODEL 7
REMARK VINA RESULT:      -8.4      5.008      8.058
REMARK  0 active torsions:
REMARK  status: ('A' for Active; 'I' for Inactive)
ROOT
HETATM    1  C   UNL     1     -22.821  -7.528   1.453  1.00  0.00     0.025 C 
HETATM    2  C   UNL     1     -22.982  -7.998   0.025  1.00  0.00     0.110 C 
HETATM    3  C   UNL     1     -22.229  -7.569  -1.011  1.00  0.00     0.032 C 
HETATM    4  C   UNL     1     -21.198  -8.417  -1.579  1.00  0.00     0.015 C 
HETATM    5  C   UNL     1     -20.734  -9.552  -1.036  1.00  0.00     0.043 C 
HETATM    6  C   UNL     1     -19.675 -10.213  -1.711  1.00  0.00     0.008 A 
HETATM    7  C   UNL     1     -18.937 -11.305  -1.445  1.00  0.00     0.101 A 
HETATM    8  N   UNL     1     -18.092 -11.593  -2.501  1.00  0.00    -0.364 N 
HETATM    9  C   UNL     1     -18.285 -10.723  -3.550  1.00  0.00     0.054 A 
HETATM   10  C   UNL     1     -17.821 -10.671  -4.795  1.00  0.00     0.020 A 
HETATM   11  C   UNL     1     -18.318  -9.535  -5.650  1.00  0.00     0.230 A 
HETATM   12  O   UNL     1     -17.933  -9.424  -6.811  1.00  0.00    -0.283 OA
HETATM   13  C   UNL     1     -19.324  -8.501  -5.061  1.00  0.00     0.234 A 
HETATM   14  O   UNL     1     -19.761  -7.587  -5.750  1.00  0.00    -0.283 OA
HETATM   15  C   UNL     1     -19.764  -8.697  -3.658  1.00  0.00     0.044 A 
HETATM   16  C   UNL     1     -19.249  -9.789  -3.047  1.00  0.00     0.019 A 
HETATM   17  C   UNL     1     -20.732  -7.916  -2.878  1.00  0.00     0.008 C 
HETATM   18  C   UNL     1     -21.478  -6.805  -3.045  1.00  0.00     0.101 C 
HETATM   19  N   UNL     1     -22.278  -6.515  -1.910  1.00  0.00    -0.367 N 
HETATM   20  C   UNL     1     -16.875 -11.664  -5.377  1.00  0.00     0.055 C 
HETATM   21  C   UNL     1     -21.528 -10.074   0.075  1.00  0.00     0.230 C 
HETATM   22  O   UNL     1     -21.150 -10.856   0.923  1.00  0.00    -0.283 OA
HETATM   23  C   UNL     1     -22.945  -9.498   0.059  1.00  0.00     0.209 C 
HETATM   24  O   UNL     1     -23.932 -10.198  -0.071  1.00  0.00    -0.288 OA
HETATM   25  H   UNL     1     -17.624 -12.485  -2.592  1.00  0.00     0.165 HD
HETATM   26  H   UNL     1     -23.159  -6.026  -2.053  1.00  0.00     0.165 HD
ENDROOT
TORSDOF 0
BEGIN_RES ARG D 557
REMARK  4 active torsions:
REMARK  status: ('A' for Active; 'I' for Inactive)
REMARK    1  A    between atoms: CA   and  CB  
REMARK    2  A    between atoms: CB   and  CG  
REMARK    3  A    between atoms: CG   and  CD  
REMARK    4  A    between atoms: CD   and  NE  
REMARK       I    between atoms: NE   and  CZ  
REMARK       I    between atoms: CZ   and  NH1 
REMARK       I    between atoms: CZ   and  NH2 
ROOT
ATOM      1  CA  ARG D 557     -26.217   2.705 -17.014  1.00 35.49     0.159 C 
ENDROOT
BRANCH   1   2
ATOM      2  CB  ARG D 557     -26.789   1.319 -17.183  1.00 35.49     0.034 C 
BRANCH   2   3
ATOM      3  CG  ARG D 557     -28.231   1.167 -16.953  1.00 35.49     0.027 C 
BRANCH   3   4
ATOM      4  CD  ARG D 557     -28.623  -0.246 -16.747  1.00 35.49     0.116 C 
BRANCH   4   5
ATOM      5  NE  ARG D 557     -27.603  -0.999 -16.066  1.00 35.49    -0.212 N 
ATOM      6  CZ  ARG D 557     -27.449  -2.303 -16.115  1.00 35.49     0.666 C 
ATOM      7  NH1 ARG D 557     -28.254  -3.087 -16.808  1.00 35.49    -0.235 N 
ATOM      8  NH2 ARG D 557     -26.454  -2.816 -15.450  1.00 35.49    -0.235 N 
ATOM      9  HH  ARG D 557     -28.914  -2.771 -17.254  1.00 35.49     0.174 HD
ATOM     10  HH  ARG D 557     -28.103  -3.930 -16.805  1.00 35.49     0.174 HD
ATOM     11  HH  ARG D 557     -25.946  -2.285 -15.017  1.00 35.49     0.174 HD
ATOM     12  HH  ARG D 557     -26.321  -3.653 -15.461  1.00 35.49     0.174 HD
ATOM     13  HE  ARG D 557     -27.084  -0.581 -15.538  1.00 35.49     0.178 HD
ENDBRANCH   4   5
ENDBRANCH   3   4
ENDBRANCH   2   3
ENDBRANCH   1   2
END_RES ARG D 557
BEGIN_RES GLU D 570
REMARK  3 active torsions:
REMARK  status: ('A' for Active; 'I' for Inactive)
REMARK    5  A    between atoms: CA   and  CB  
REMARK    6  A    between atoms: CB   and  CG  
REMARK    7  A    between atoms: CG   and  CD  
ROOT
ATOM     14  CA  GLU D 570     -18.033  -6.348 -13.375  1.00 32.92     0.160 C 
ENDROOT
BRANCH  14  15
ATOM     15  CB  GLU D 570     -19.500  -6.345 -13.794  1.00 32.92     0.043 C 
BRANCH  15  16
ATOM     16  CG  GLU D 570     -20.448  -5.560 -12.962  1.00 32.92     0.100 C 
BRANCH  16  17
ATOM     17  CD  GLU D 570     -21.704  -5.173 -13.706  1.00 32.92     0.185 C 
ATOM     18  OE1 GLU D 570     -22.735  -4.908 -13.058  1.00 32.92    -0.647 OA
ATOM     19  OE2 GLU D 570     -21.662  -5.150 -14.952  1.00 32.92    -0.647 OA
ENDBRANCH  16  17
ENDBRANCH  15  16
ENDBRANCH  14  15
END_RES GLU D 570
ENDMDL
MODEL 8
REMARK VINA RESULT:      -8.4      5.345      8.622
REMARK  0 active torsions:
REMARK  status: ('A' for Active; 'I' for Inactive)
ROOT
HETATM    1  C   UNL     1     -16.651 -12.462  -5.785  1.00  0.00     0.025 C 
HETATM    2  C   UNL     1     -16.709 -11.101  -5.128  1.00  0.00     0.110 C 
HETATM    3  C   UNL     1     -17.787 -10.287  -5.150  1.00  0.00     0.032 C 
HETATM    4  C   UNL     1     -18.616 -10.125  -3.970  1.00  0.00     0.015 C 
HETATM    5  C   UNL     1     -18.565 -10.887  -2.868  1.00  0.00     0.043 C 
HETATM    6  C   UNL     1     -19.503 -10.611  -1.840  1.00  0.00     0.008 A 
HETATM    7  C   UNL     1     -19.784 -11.184  -0.656  1.00  0.00     0.101 A 
HETATM    8  N   UNL     1     -20.732 -10.448   0.030  1.00  0.00    -0.364 N 
HETATM    9  C   UNL     1     -21.076  -9.307  -0.659  1.00  0.00     0.054 A 
HETATM   10  C   UNL     1     -21.824  -8.248  -0.363  1.00  0.00     0.020 A 
HETATM   11  C   UNL     1     -21.923  -7.179  -1.419  1.00  0.00     0.230 A 
HETATM   12  O   UNL     1     -22.595  -6.172  -1.215  1.00  0.00    -0.283 OA
HETATM   13  C   UNL     1     -21.167  -7.350  -2.771  1.00  0.00     0.234 A 
HETATM   14  O   UNL     1     -21.212  -6.478  -3.631  1.00  0.00    -0.283 OA
HETATM   15  C   UNL     1     -20.359  -8.581  -2.952  1.00  0.00     0.044 A 
HETATM   16  C   UNL     1     -20.351  -9.419  -1.890  1.00  0.00     0.019 A 
HETATM   17  C   UNL     1     -19.516  -8.970  -4.089  1.00  0.00     0.008 C 
HETATM   18  C   UNL     1     -19.209  -8.488  -5.311  1.00  0.00     0.101 C 
HETATM   19  N   UNL     1     -18.282  -9.312  -6.000  1.00  0.00    -0.367 N 
HETATM   20  C   UNL     1     -22.534  -8.062   0.933  1.00  0.00     0.055 C 
HETATM   21  C   UNL     1     -17.402 -11.770  -2.783  1.00  0.00     0.230 C 
HETATM   22  O   UNL     1     -17.304 -12.763  -2.093  1.00  0.00    -0.283 OA
HETATM   23  C   UNL     1     -16.278 -11.292  -3.704  1.00  0.00     0.209 C 
HETATM   24  O   UNL     1     -15.187 -10.956  -3.280  1.00  0.00    -0.288 OA
HETATM   25  H   UNL     1     -20.913 -10.583   1.015  1.00  0.00     0.165 HD
HETATM   26  H   UNL     1     -17.656  -8.875  -6.673  1.00  0.00     0.165 HD
ENDROOT
TORSDOF 0
BEGIN_RES ARG D 557
REMARK  4 active torsions:
REMARK  status: ('A' for Active; 'I' for Inactive)
REMARK    1  A    between atoms: CA   and  CB  
REMARK    2  A    between atoms: CB   and  CG  
REMARK    3  A    between atoms: CG   and  CD  
REMARK    4  A    between atoms: CD   and  NE  
REMARK       I    between atoms: NE   and  CZ  
REMARK       I    between atoms: CZ   and  NH1 
REMARK       I    between atoms: CZ   and  NH2 
ROOT
ATOM      1  CA  ARG D 557     -26.217   2.705 -17.014  1.00 35.49     0.159 C 
ENDROOT
BRANCH   1   2
ATOM      2  CB  ARG D 557     -26.789   1.319 -17.183  1.00 35.49     0.034 C 
BRANCH   2   3
ATOM      3  CG  ARG D 557     -25.837   0.202 -17.147  1.00 35.49     0.027 C 
BRANCH   3   4
ATOM      4  CD  ARG D 557     -24.753   0.417 -16.161  1.00 35.49     0.116 C 
BRANCH   4   5
ATOM      5  NE  ARG D 557     -24.891  -0.435 -15.009  1.00 35.49    -0.212 N 
ATOM      6  CZ  ARG D 557     -24.072  -1.405 -14.668  1.00 35.49     0.666 C 
ATOM      7  NH1 ARG D 557     -23.007  -1.717 -15.382  1.00 35.49    -0.235 N 
ATOM      8  NH2 ARG D 557     -24.341  -2.062 -13.578  1.00 35.49    -0.235 N 
ATOM      9  HH  ARG D 557     -22.809  -1.296 -16.102  1.00 35.49     0.174 HD
ATOM     10  HH  ARG D 557     -22.507  -2.357 -15.109  1.00 35.49     0.174 HD
ATOM     11  HH  ARG D 557     -25.032  -1.833 -13.133  1.00 35.49     0.174 HD
ATOM     12  HH  ARG D 557     -23.834  -2.692 -13.323  1.00 35.49     0.174 HD
ATOM     13  HE  ARG D 557     -25.590  -0.351 -14.532  1.00 35.49     0.178 HD
ENDBRANCH   4   5
ENDBRANCH   3   4
ENDBRANCH   2   3
ENDBRANCH   1   2
END_RES ARG D 557
BEGIN_RES GLU D 570
REMARK  3 active torsions:
REMARK  status: ('A' for Active; 'I' for Inactive)
REMARK    5  A    between atoms: CA   and  CB  
REMARK    6  A    between atoms: CB   and  CG  
REMARK    7  A    between atoms: CG   and  CD  
ROOT
ATOM     14  CA  GLU D 570     -18.033  -6.348 -13.375  1.00 32.92     0.160 C 
ENDROOT
BRANCH  14  15
ATOM     15  CB  GLU D 570     -19.500  -6.345 -13.794  1.00 32.92     0.043 C 
BRANCH  15  16
ATOM     16  CG  GLU D 570     -20.447  -5.557 -12.964  1.00 32.92     0.100 C 
BRANCH  16  17
ATOM     17  CD  GLU D 570     -21.729  -5.221 -13.691  1.00 32.92     0.185 C 
ATOM     18  OE1 GLU D 570     -22.261  -4.111 -13.496  1.00 32.92    -0.647 OA
ATOM     19  OE2 GLU D 570     -22.214  -6.083 -14.449  1.00 32.92    -0.647 OA
ENDBRANCH  16  17
ENDBRANCH  15  16
ENDBRANCH  14  15
END_RES GLU D 570
ENDMDL
MODEL 9
REMARK VINA RESULT:      -7.9      5.054      8.313
REMARK  0 active torsions:
REMARK  status: ('A' for Active; 'I' for Inactive)
ROOT
HETATM    1  C   UNL     1     -16.646 -12.402  -5.860  1.00  0.00     0.025 C 
HETATM    2  C   UNL     1     -16.708 -11.044  -5.196  1.00  0.00     0.110 C 
HETATM    3  C   UNL     1     -17.789 -10.235  -5.210  1.00  0.00     0.032 C 
HETATM    4  C   UNL     1     -18.614 -10.082  -4.026  1.00  0.00     0.015 C 
HETATM    5  C   UNL     1     -18.555 -10.849  -2.928  1.00  0.00     0.043 C 
HETATM    6  C   UNL     1     -19.489 -10.583  -1.895  1.00  0.00     0.008 A 
HETATM    7  C   UNL     1     -19.763 -11.162  -0.712  1.00  0.00     0.101 A 
HETATM    8  N   UNL     1     -20.712 -10.433  -0.019  1.00  0.00    -0.364 N 
HETATM    9  C   UNL     1     -21.064  -9.291  -0.701  1.00  0.00     0.054 A 
HETATM   10  C   UNL     1     -21.815  -8.237  -0.397  1.00  0.00     0.020 A 
HETATM   11  C   UNL     1     -21.923  -7.163  -1.447  1.00  0.00     0.230 A 
HETATM   12  O   UNL     1     -22.600  -6.160  -1.236  1.00  0.00    -0.283 OA
HETATM   13  C   UNL     1     -21.173  -7.325  -2.804  1.00  0.00     0.234 A 
HETATM   14  O   UNL     1     -21.226  -6.449  -3.659  1.00  0.00    -0.283 OA
HETATM   15  C   UNL     1     -20.360  -8.551  -2.994  1.00  0.00     0.044 A 
HETATM   16  C   UNL     1     -20.344  -9.394  -1.936  1.00  0.00     0.019 A 
HETATM   17  C   UNL     1     -19.520  -8.931  -4.136  1.00  0.00     0.008 C 
HETATM   18  C   UNL     1     -19.220  -8.442  -5.357  1.00  0.00     0.101 C 
HETATM   19  N   UNL     1     -18.293  -9.259  -6.054  1.00  0.00    -0.367 N 
HETATM   20  C   UNL     1     -22.521  -8.061   0.903  1.00  0.00     0.055 C 
HETATM   21  C   UNL     1     -17.388 -11.727  -2.852  1.00  0.00     0.230 C 
HETATM   22  O   UNL     1     -17.282 -12.723  -2.167  1.00  0.00    -0.283 OA
HETATM   23  C   UNL     1     -16.269 -11.240  -3.775  1.00  0.00     0.209 C 
HETATM   24  O   UNL     1     -15.178 -10.900  -3.354  1.00  0.00    -0.288 OA
HETATM   25  H   UNL     1     -20.888 -10.574   0.967  1.00  0.00     0.165 HD
HETATM   26  H   UNL     1     -17.671  -8.816  -6.727  1.00  0.00     0.165 HD
ENDROOT
TORSDOF 0
BEGIN_RES ARG D 557
REMARK  4 active torsions:
REMARK  status: ('A' for Active; 'I' for Inactive)
REMARK    1  A    between atoms: CA   and  CB  
REMARK    2  A    between atoms: CB   and  CG  
REMARK    3  A    between atoms: CG   and  CD  
REMARK    4  A    between atoms: CD   and  NE  
REMARK       I    between atoms: NE   and  CZ  
REMARK       I    between atoms: CZ   and  NH1 
REMARK       I    between atoms: CZ   and  NH2 
ROOT
ATOM      1  CA  ARG D 557     -26.217   2.705 -17.014  1.00 35.49     0.159 C 
ENDROOT
BRANCH   1   2
ATOM      2  CB  ARG D 557     -26.789   1.319 -17.183  1.00 35.49     0.034 C 
BRANCH   2   3
ATOM      3  CG  ARG D 557     -28.237   1.224 -17.404  1.00 35.49     0.027 C 
BRANCH   3   4
ATOM      4  CD  ARG D 557     -28.890   0.280 -16.468  1.00 35.49     0.116 C 
BRANCH   4   5
ATOM      5  NE  ARG D 557     -29.268  -0.949 -17.115  1.00 35.49    -0.212 N 
ATOM      6  CZ  ARG D 557     -28.631  -2.095 -17.018  1.00 35.49     0.666 C 
ATOM      7  NH1 ARG D 557     -27.531  -2.237 -16.303  1.00 35.49    -0.235 N 
ATOM      8  NH2 ARG D 557     -29.129  -3.114 -17.657  1.00 35.49    -0.235 N 
ATOM      9  HH  ARG D 557     -27.187  -1.581 -15.872  1.00 35.49     0.174 HD
ATOM     10  HH  ARG D 557     -27.161  -3.009 -16.274  1.00 35.49     0.174 HD
ATOM     11  HH  ARG D 557     -29.845  -2.995 -18.105  1.00 35.49     0.174 HD
ATOM     12  HH  ARG D 557     -28.749  -3.871 -17.615  1.00 35.49     0.174 HD
ATOM     13  HE  ARG D 557     -29.925  -0.931 -17.654  1.00 35.49     0.178 HD
ENDBRANCH   4   5
ENDBRANCH   3   4
ENDBRANCH   2   3
ENDBRANCH   1   2
END_RES ARG D 557
BEGIN_RES GLU D 570
REMARK  3 active torsions:
REMARK  status: ('A' for Active; 'I' for Inactive)
REMARK    5  A    between atoms: CA   and  CB  
REMARK    6  A    between atoms: CB   and  CG  
REMARK    7  A    between atoms: CG   and  CD  
ROOT
ATOM     14  CA  GLU D 570     -18.033  -6.348 -13.375  1.00 32.92     0.160 C 
ENDROOT
BRANCH  14  15
ATOM     15  CB  GLU D 570     -19.500  -6.345 -13.794  1.00 32.92     0.043 C 
BRANCH  15  16
ATOM     16  CG  GLU D 570     -19.802  -6.098 -15.228  1.00 32.92     0.100 C 
BRANCH  16  17
ATOM     17  CD  GLU D 570     -21.264  -5.812 -15.481  1.00 32.92     0.185 C 
ATOM     18  OE1 GLU D 570     -21.578  -4.801 -16.138  1.00 32.92    -0.647 OA
ATOM     19  OE2 GLU D 570     -22.105  -6.600 -15.004  1.00 32.92    -0.647 OA
ENDBRANCH  16  17
ENDBRANCH  15  16
ENDBRANCH  14  15
END_RES GLU D 570
ENDMDL
