MODEL 1
REMARK VINA RESULT:      -6.0      0.000      0.000
REMARK  22 active torsions:
REMARK  status: ('A' for Active; 'I' for Inactive)
REMARK       I    between atoms: C_2  and  N_4 
REMARK    1  A    between atoms: N_4  and  C_5 
REMARK    2  A    between atoms: C_6  and  O_51 
REMARK    3  A    between atoms: C_7  and  O_25 
REMARK    4  A    between atoms: C_8  and  C_23 
REMARK    5  A    between atoms: C_10  and  N_11 
REMARK       I    between atoms: N_11  and  C_12 
REMARK    6  A    between atoms: C_12  and  C_14 
REMARK    7  A    between atoms: C_14  and  C_15 
REMARK    8  A    between atoms: C_15  and  C_16 
REMARK    9  A    between atoms: C_15  and  N_19 
REMARK       I    between atoms: C_16  and  N_18 
REMARK       I    between atoms: N_19  and  C_20 
REMARK   10  A    between atoms: C_23  and  O_24 
REMARK   11  A    between atoms: O_25  and  C_26 
REMARK   12  A    between atoms: C_27  and  N_47 
REMARK   13  A    between atoms: C_28  and  O_46 
REMARK   14  A    between atoms: C_29  and  O_34 
REMARK   15  A    between atoms: C_30  and  C_32 
REMARK   16  A    between atoms: C_32  and  O_33 
REMARK   17  A    between atoms: O_34  and  C_35 
REMARK   18  A    between atoms: C_36  and  O_45 
REMARK   19  A    between atoms: C_37  and  O_44 
REMARK   20  A    between atoms: C_38  and  O_43 
REMARK   21  A    between atoms: C_39  and  C_41 
REMARK   22  A    between atoms: C_41  and  O_42 
REMARK       I    between atoms: N_47  and  C_48 
ROOT
HETATM    1  O   UNL     1     -19.147 -10.678  -2.300  1.00  0.00    -0.348 OA
ENDROOT
BRANCH   1   2
HETATM    2  C   UNL     1     -17.941 -10.948  -1.547  1.00  0.00     0.186 C 
HETATM    3  C   UNL     1     -16.781 -11.042  -2.503  1.00  0.00     0.176 C 
HETATM    4  C   UNL     1     -16.687 -12.380  -3.260  1.00  0.00     0.164 C 
HETATM    5  C   UNL     1     -16.527 -13.540  -2.247  1.00  0.00     0.249 C 
HETATM    6  O   UNL     1     -17.580 -13.489  -1.273  1.00  0.00    -0.354 OA
HETATM    7  C   UNL     1     -17.920 -12.230  -0.640  1.00  0.00     0.179 C 
BRANCH   3   8
HETATM    8  O   UNL     1     -15.559 -10.727  -1.821  1.00  0.00    -0.391 OA
HETATM    9  H   UNL     1     -15.780 -10.086  -1.119  1.00  0.00     0.210 HD
ENDBRANCH   3   8
BRANCH   4  10
HETATM   10  N   UNL     1     -15.585 -12.208  -4.211  1.00  0.00    -0.350 N 
HETATM   11  C   UNL     1     -15.582 -12.634  -5.507  1.00  0.00     0.214 C 
HETATM   12  C   UNL     1     -14.312 -12.237  -6.232  1.00  0.00     0.117 C 
HETATM   13  O   UNL     1     -16.493 -13.253  -6.032  1.00  0.00    -0.274 OA
HETATM   14  H   UNL     1     -14.841 -11.567  -3.948  1.00  0.00     0.163 HD
ENDBRANCH   4  10
BRANCH   5  15
HETATM   15  N   UNL     1     -15.235 -13.559  -1.559  1.00  0.00    -0.333 N 
HETATM   16  C   UNL     1     -14.482 -14.712  -1.423  1.00  0.00     0.222 C 
HETATM   17  O   UNL     1     -14.889 -15.833  -1.698  1.00  0.00    -0.273 OA
HETATM   18  H   UNL     1     -15.088 -12.850  -0.859  1.00  0.00     0.165 HD
BRANCH  16  19
HETATM   19  C   UNL     1     -13.067 -14.463  -0.906  1.00  0.00     0.137 C 
BRANCH  19  20
HETATM   20  C   UNL     1     -12.826 -15.213   0.413  1.00  0.00     0.185 C 
BRANCH  20  21
HETATM   21  C   UNL     1     -11.420 -14.879   1.007  1.00  0.00     0.238 C 
HETATM   22  O   UNL     1     -10.939 -13.758   0.998  1.00  0.00    -0.271 OA
HETATM   23  N   UNL     1     -10.777 -15.930   1.567  1.00  0.00    -0.368 N 
HETATM   24  H   UNL     1     -11.137 -16.882   1.510  1.00  0.00     0.159 HD
HETATM   25  H   UNL     1      -9.823 -15.803   1.908  1.00  0.00     0.159 HD
ENDBRANCH  20  21
BRANCH  20  26
HETATM   26  N   UNL     1     -13.800 -14.821   1.454  1.00  0.00    -0.348 N 
HETATM   27  C   UNL     1     -14.180 -15.729   2.424  1.00  0.00     0.214 C 
HETATM   28  O   UNL     1     -13.804 -16.904   2.424  1.00  0.00    -0.274 OA
HETATM   29  C   UNL     1     -15.017 -15.162   3.524  1.00  0.00     0.117 C 
HETATM   30  H   UNL     1     -13.781 -13.856   1.740  1.00  0.00     0.163 HD
ENDBRANCH  20  26
ENDBRANCH  19  20
ENDBRANCH  16  19
ENDBRANCH   5  15
BRANCH   7  31
HETATM   31  C   UNL     1     -16.964 -12.021   0.563  1.00  0.00     0.198 C 
BRANCH  31  32
HETATM   32  O   UNL     1     -16.557 -13.247   1.160  1.00  0.00    -0.398 OA
HETATM   33  H   UNL     1     -17.161 -13.425   1.902  1.00  0.00     0.209 HD
ENDBRANCH  31  32
ENDBRANCH   7  31
ENDBRANCH   1   2
BRANCH   1  34
HETATM   34  C   UNL     1     -19.279  -9.289  -2.761  1.00  0.00     0.286 C 
HETATM   35  C   UNL     1     -20.748  -8.821  -2.858  1.00  0.00     0.170 C 
HETATM   36  C   UNL     1     -21.384  -9.517  -4.055  1.00  0.00     0.177 C 
HETATM   37  C   UNL     1     -20.763  -9.173  -5.400  1.00  0.00     0.186 C 
HETATM   38  C   UNL     1     -19.201  -9.169  -5.288  1.00  0.00     0.180 C 
HETATM   39  O   UNL     1     -18.602  -8.926  -3.984  1.00  0.00    -0.349 OA
BRANCH  35  40
HETATM   40  N   UNL     1     -21.501  -8.941  -1.589  1.00  0.00    -0.349 N 
HETATM   41  C   UNL     1     -22.192  -7.914  -0.956  1.00  0.00     0.214 C 
HETATM   42  O   UNL     1     -22.244  -6.747  -1.312  1.00  0.00    -0.274 OA
HETATM   43  C   UNL     1     -22.928  -8.335   0.280  1.00  0.00     0.117 C 
HETATM   44  H   UNL     1     -21.420  -9.819  -1.093  1.00  0.00     0.163 HD
ENDBRANCH  35  40
BRANCH  36  45
HETATM   45  O   UNL     1     -21.310 -10.942  -3.930  1.00  0.00    -0.391 OA
HETATM   46  H   UNL     1     -21.116 -11.131  -2.994  1.00  0.00     0.210 HD
ENDBRANCH  36  45
BRANCH  37  47
HETATM   47  O   UNL     1     -21.458  -8.143  -6.168  1.00  0.00    -0.348 OA
BRANCH  47  48
HETATM   48  C   UNL     1     -20.869  -6.797  -6.039  1.00  0.00     0.292 C 
HETATM   49  C   UNL     1     -21.580  -5.694  -5.204  1.00  0.00     0.204 C 
HETATM   50  C   UNL     1     -22.412  -4.716  -6.018  1.00  0.00     0.183 C 
HETATM   51  C   UNL     1     -21.624  -4.150  -7.196  1.00  0.00     0.180 C 
HETATM   52  C   UNL     1     -20.665  -5.137  -7.895  1.00  0.00     0.179 C 
HETATM   53  O   UNL     1     -20.312  -6.371  -7.273  1.00  0.00    -0.348 OA
BRANCH  49  54
HETATM   54  O   UNL     1     -22.367  -6.167  -4.107  1.00  0.00    -0.388 OA
HETATM   55  H   UNL     1     -23.040  -6.744  -4.528  1.00  0.00     0.210 HD
ENDBRANCH  49  54
BRANCH  50  56
HETATM   56  O   UNL     1     -23.629  -5.358  -6.405  1.00  0.00    -0.390 OA
HETATM   57  H   UNL     1     -23.674  -6.227  -5.962  1.00  0.00     0.210 HD
ENDBRANCH  50  56
BRANCH  51  58
HETATM   58  O   UNL     1     -20.865  -2.992  -6.785  1.00  0.00    -0.390 OA
HETATM   59  H   UNL     1     -20.334  -2.644  -7.522  1.00  0.00     0.210 HD
ENDBRANCH  51  58
BRANCH  52  60
HETATM   60  C   UNL     1     -21.181  -5.545  -9.276  1.00  0.00     0.198 C 
BRANCH  60  61
HETATM   61  O   UNL     1     -21.881  -4.455  -9.870  1.00  0.00    -0.398 OA
HETATM   62  H   UNL     1     -21.654  -3.669  -9.333  1.00  0.00     0.209 HD
ENDBRANCH  60  61
ENDBRANCH  52  60
ENDBRANCH  47  48
ENDBRANCH  37  47
BRANCH  38  63
HETATM   63  C   UNL     1     -18.684 -10.534  -5.827  1.00  0.00     0.198 C 
BRANCH  63  64
HETATM   64  O   UNL     1     -19.668 -11.243  -6.574  1.00  0.00    -0.398 OA
HETATM   65  H   UNL     1     -19.333 -11.337  -7.482  1.00  0.00     0.209 HD
ENDBRANCH  63  64
ENDBRANCH  38  63
ENDBRANCH   1  34
TORSDOF 22
BEGIN_RES ARG D 557
REMARK  4 active torsions:
REMARK  status: ('A' for Active; 'I' for Inactive)
REMARK    1  A    between atoms: CA   and  CB  
REMARK    2  A    between atoms: CB   and  CG  
REMARK    3  A    between atoms: CG   and  CD  
REMARK    4  A    between atoms: CD   and  NE  
REMARK       I    between atoms: NE   and  CZ  
REMARK       I    between atoms: CZ   and  NH1 
REMARK       I    between atoms: CZ   and  NH2 
ROOT
ATOM      1  CA  ARG D 557     -26.217   2.705 -17.014  1.00 35.49     0.159 C 
ENDROOT
BRANCH   1   2
ATOM      2  CB  ARG D 557     -26.789   1.319 -17.183  1.00 35.49     0.034 C 
BRANCH   2   3
ATOM      3  CG  ARG D 557     -25.836   0.203 -17.151  1.00 35.49     0.027 C 
BRANCH   3   4
ATOM      4  CD  ARG D 557     -24.757   0.410 -16.158  1.00 35.49     0.116 C 
BRANCH   4   5
ATOM      5  NE  ARG D 557     -24.907  -0.444 -15.009  1.00 35.49    -0.212 N 
ATOM      6  CZ  ARG D 557     -24.094  -1.416 -14.663  1.00 35.49     0.666 C 
ATOM      7  NH1 ARG D 557     -23.024  -1.731 -15.369  1.00 35.49    -0.235 N 
ATOM      8  NH2 ARG D 557     -24.374  -2.075 -13.576  1.00 35.49    -0.235 N 
ATOM      9  HH  ARG D 557     -22.819  -1.309 -16.087  1.00 35.49     0.174 HD
ATOM     10  HH  ARG D 557     -22.528  -2.373 -15.093  1.00 35.49     0.174 HD
ATOM     11  HH  ARG D 557     -25.067  -1.845 -13.136  1.00 35.49     0.174 HD
ATOM     12  HH  ARG D 557     -23.870  -2.706 -13.318  1.00 35.49     0.174 HD
ATOM     13  HE  ARG D 557     -25.610  -0.359 -14.537  1.00 35.49     0.178 HD
ENDBRANCH   4   5
ENDBRANCH   3   4
ENDBRANCH   2   3
ENDBRANCH   1   2
END_RES ARG D 557
BEGIN_RES GLU D 570
REMARK  3 active torsions:
REMARK  status: ('A' for Active; 'I' for Inactive)
REMARK    5  A    between atoms: CA   and  CB  
REMARK    6  A    between atoms: CB   and  CG  
REMARK    7  A    between atoms: CG   and  CD  
ROOT
ATOM     14  CA  GLU D 570     -18.033  -6.348 -13.375  1.00 32.92     0.160 C 
ENDROOT
BRANCH  14  15
ATOM     15  CB  GLU D 570     -19.500  -6.345 -13.794  1.00 32.92     0.043 C 
BRANCH  15  16
ATOM     16  CG  GLU D 570     -20.445  -5.548 -12.971  1.00 32.92     0.100 C 
BRANCH  16  17
ATOM     17  CD  GLU D 570     -21.720  -5.203 -13.705  1.00 32.92     0.185 C 
ATOM     18  OE1 GLU D 570     -22.149  -5.986 -14.574  1.00 32.92    -0.647 OA
ATOM     19  OE2 GLU D 570     -22.287  -4.129 -13.420  1.00 32.92    -0.647 OA
ENDBRANCH  16  17
ENDBRANCH  15  16
ENDBRANCH  14  15
END_RES GLU D 570
ENDMDL
MODEL 2
REMARK VINA RESULT:      -5.9      1.524      2.834
REMARK  22 active torsions:
REMARK  status: ('A' for Active; 'I' for Inactive)
REMARK       I    between atoms: C_2  and  N_4 
REMARK    1  A    between atoms: N_4  and  C_5 
REMARK    2  A    between atoms: C_6  and  O_51 
REMARK    3  A    between atoms: C_7  and  O_25 
REMARK    4  A    between atoms: C_8  and  C_23 
REMARK    5  A    between atoms: C_10  and  N_11 
REMARK       I    between atoms: N_11  and  C_12 
REMARK    6  A    between atoms: C_12  and  C_14 
REMARK    7  A    between atoms: C_14  and  C_15 
REMARK    8  A    between atoms: C_15  and  C_16 
REMARK    9  A    between atoms: C_15  and  N_19 
REMARK       I    between atoms: C_16  and  N_18 
REMARK       I    between atoms: N_19  and  C_20 
REMARK   10  A    between atoms: C_23  and  O_24 
REMARK   11  A    between atoms: O_25  and  C_26 
REMARK   12  A    between atoms: C_27  and  N_47 
REMARK   13  A    between atoms: C_28  and  O_46 
REMARK   14  A    between atoms: C_29  and  O_34 
REMARK   15  A    between atoms: C_30  and  C_32 
REMARK   16  A    between atoms: C_32  and  O_33 
REMARK   17  A    between atoms: O_34  and  C_35 
REMARK   18  A    between atoms: C_36  and  O_45 
REMARK   19  A    between atoms: C_37  and  O_44 
REMARK   20  A    between atoms: C_38  and  O_43 
REMARK   21  A    between atoms: C_39  and  C_41 
REMARK   22  A    between atoms: C_41  and  O_42 
REMARK       I    between atoms: N_47  and  C_48 
ROOT
HETATM    1  O   UNL     1     -19.313 -10.315  -2.288  1.00  0.00    -0.348 OA
ENDROOT
BRANCH   1   2
HETATM    2  C   UNL     1     -18.310 -11.272  -2.700  1.00  0.00     0.186 C 
HETATM    3  C   UNL     1     -18.570 -12.582  -2.001  1.00  0.00     0.176 C 
HETATM    4  C   UNL     1     -18.105 -12.624  -0.534  1.00  0.00     0.164 C 
HETATM    5  C   UNL     1     -16.578 -12.378  -0.466  1.00  0.00     0.249 C 
HETATM    6  O   UNL     1     -16.246 -11.162  -1.153  1.00  0.00    -0.354 OA
HETATM    7  C   UNL     1     -16.803 -10.896  -2.464  1.00  0.00     0.179 C 
BRANCH   3   8
HETATM    8  O   UNL     1     -18.021 -13.662  -2.768  1.00  0.00    -0.391 OA
HETATM    9  H   UNL     1     -18.579 -14.446  -2.601  1.00  0.00     0.210 HD
ENDBRANCH   3   8
BRANCH   4  10
HETATM   10  N   UNL     1     -18.565 -13.918  -0.022  1.00  0.00    -0.350 N 
HETATM   11  C   UNL     1     -19.815 -14.181   0.460  1.00  0.00     0.214 C 
HETATM   12  C   UNL     1     -19.978 -15.637   0.847  1.00  0.00     0.117 C 
HETATM   13  O   UNL     1     -20.704 -13.352   0.561  1.00  0.00    -0.274 OA
HETATM   14  H   UNL     1     -17.976 -14.726  -0.205  1.00  0.00     0.163 HD
ENDBRANCH   4  10
BRANCH   5  15
HETATM   15  N   UNL     1     -15.771 -13.472  -1.010  1.00  0.00    -0.333 N 
HETATM   16  C   UNL     1     -14.960 -14.263  -0.215  1.00  0.00     0.222 C 
HETATM   17  O   UNL     1     -14.704 -14.023   0.957  1.00  0.00    -0.273 OA
HETATM   18  H   UNL     1     -15.501 -13.396  -1.977  1.00  0.00     0.165 HD
BRANCH  16  19
HETATM   19  C   UNL     1     -14.412 -15.496  -0.932  1.00  0.00     0.137 C 
BRANCH  19  20
HETATM   20  C   UNL     1     -12.927 -15.312  -1.277  1.00  0.00     0.185 C 
BRANCH  20  21
HETATM   21  C   UNL     1     -12.741 -14.857  -2.760  1.00  0.00     0.238 C 
HETATM   22  O   UNL     1     -12.595 -13.692  -3.090  1.00  0.00    -0.271 OA
HETATM   23  N   UNL     1     -12.722 -15.864  -3.665  1.00  0.00    -0.368 N 
HETATM   24  H   UNL     1     -12.920 -16.831  -3.407  1.00  0.00     0.159 HD
HETATM   25  H   UNL     1     -12.680 -15.638  -4.659  1.00  0.00     0.159 HD
ENDBRANCH  20  21
BRANCH  20  26
HETATM   26  N   UNL     1     -12.297 -14.255  -0.457  1.00  0.00    -0.348 N 
HETATM   27  C   UNL     1     -11.368 -14.589   0.509  1.00  0.00     0.214 C 
HETATM   28  O   UNL     1     -11.084 -15.756   0.789  1.00  0.00    -0.274 OA
HETATM   29  C   UNL     1     -10.667 -13.428   1.137  1.00  0.00     0.117 C 
HETATM   30  H   UNL     1     -12.162 -13.364  -0.907  1.00  0.00     0.163 HD
ENDBRANCH  20  26
ENDBRANCH  19  20
ENDBRANCH  16  19
ENDBRANCH   5  15
BRANCH   7  31
HETATM   31  C   UNL     1     -15.904 -11.591  -3.520  1.00  0.00     0.198 C 
BRANCH  31  32
HETATM   32  O   UNL     1     -14.560 -11.744  -3.080  1.00  0.00    -0.398 OA
HETATM   33  H   UNL     1     -14.002 -11.182  -3.646  1.00  0.00     0.209 HD
ENDBRANCH  31  32
ENDBRANCH   7  31
ENDBRANCH   1   2
BRANCH   1  34
HETATM   34  C   UNL     1     -19.227  -9.013  -2.963  1.00  0.00     0.286 C 
HETATM   35  C   UNL     1     -20.591  -8.295  -3.071  1.00  0.00     0.170 C 
HETATM   36  C   UNL     1     -21.428  -9.032  -4.110  1.00  0.00     0.177 C 
HETATM   37  C   UNL     1     -20.854  -9.020  -5.518  1.00  0.00     0.186 C 
HETATM   38  C   UNL     1     -19.314  -9.295  -5.477  1.00  0.00     0.180 C 
HETATM   39  O   UNL     1     -18.587  -8.975  -4.257  1.00  0.00    -0.349 OA
BRANCH  35  40
HETATM   40  N   UNL     1     -21.258  -8.076  -1.768  1.00  0.00    -0.349 N 
HETATM   41  C   UNL     1     -22.088  -7.007  -1.451  1.00  0.00     0.214 C 
HETATM   42  O   UNL     1     -22.355  -6.058  -2.172  1.00  0.00    -0.274 OA
HETATM   43  C   UNL     1     -22.688  -7.076  -0.080  1.00  0.00     0.117 C 
HETATM   44  H   UNL     1     -21.006  -8.706  -1.016  1.00  0.00     0.163 HD
ENDBRANCH  35  40
BRANCH  36  45
HETATM   45  O   UNL     1     -21.602 -10.410  -3.758  1.00  0.00    -0.391 OA
HETATM   46  H   UNL     1     -20.718 -10.821  -3.789  1.00  0.00     0.210 HD
ENDBRANCH  36  45
BRANCH  37  47
HETATM   47  O   UNL     1     -21.407  -8.006  -6.413  1.00  0.00    -0.348 OA
BRANCH  47  48
HETATM   48  C   UNL     1     -21.045  -6.623  -6.049  1.00  0.00     0.292 C 
HETATM   49  C   UNL     1     -22.129  -5.620  -5.561  1.00  0.00     0.204 C 
HETATM   50  C   UNL     1     -22.655  -4.679  -6.634  1.00  0.00     0.183 C 
HETATM   51  C   UNL     1     -21.520  -3.999  -7.394  1.00  0.00     0.180 C 
HETATM   52  C   UNL     1     -20.274  -4.873  -7.657  1.00  0.00     0.179 C 
HETATM   53  O   UNL     1     -20.086  -6.100  -6.955  1.00  0.00    -0.348 OA
BRANCH  49  54
HETATM   54  O   UNL     1     -23.240  -6.203  -4.874  1.00  0.00    -0.388 OA
HETATM   55  H   UNL     1     -23.186  -7.157  -5.101  1.00  0.00     0.210 HD
ENDBRANCH  49  54
BRANCH  50  56
HETATM   56  O   UNL     1     -23.552  -5.401  -7.480  1.00  0.00    -0.390 OA
HETATM   57  H   UNL     1     -24.305  -5.709  -6.939  1.00  0.00     0.210 HD
ENDBRANCH  50  56
BRANCH  51  58
HETATM   58  O   UNL     1     -21.097  -2.802  -6.705  1.00  0.00    -0.390 OA
HETATM   59  H   UNL     1     -20.490  -2.279  -7.256  1.00  0.00     0.210 HD
ENDBRANCH  51  58
BRANCH  52  60
HETATM   60  C   UNL     1     -20.158  -5.262  -9.132  1.00  0.00     0.198 C 
BRANCH  60  61
HETATM   61  O   UNL     1     -20.694  -4.224  -9.948  1.00  0.00    -0.398 OA
HETATM   62  H   UNL     1     -21.568  -4.009  -9.564  1.00  0.00     0.209 HD
ENDBRANCH  60  61
ENDBRANCH  52  60
ENDBRANCH  47  48
ENDBRANCH  37  47
BRANCH  38  63
HETATM   63  C   UNL     1     -19.092 -10.799  -5.808  1.00  0.00     0.198 C 
BRANCH  63  64
HETATM   64  O   UNL     1     -20.214 -11.396  -6.451  1.00  0.00    -0.398 OA
HETATM   65  H   UNL     1     -20.416 -12.221  -5.977  1.00  0.00     0.209 HD
ENDBRANCH  63  64
ENDBRANCH  38  63
ENDBRANCH   1  34
TORSDOF 22
BEGIN_RES ARG D 557
REMARK  4 active torsions:
REMARK  status: ('A' for Active; 'I' for Inactive)
REMARK    1  A    between atoms: CA   and  CB  
REMARK    2  A    between atoms: CB   and  CG  
REMARK    3  A    between atoms: CG   and  CD  
REMARK    4  A    between atoms: CD   and  NE  
REMARK       I    between atoms: NE   and  CZ  
REMARK       I    between atoms: CZ   and  NH1 
REMARK       I    between atoms: CZ   and  NH2 
ROOT
ATOM      1  CA  ARG D 557     -26.217   2.705 -17.014  1.00 35.49     0.159 C 
ENDROOT
BRANCH   1   2
ATOM      2  CB  ARG D 557     -26.789   1.319 -17.183  1.00 35.49     0.034 C 
BRANCH   2   3
ATOM      3  CG  ARG D 557     -25.837   0.202 -17.142  1.00 35.49     0.027 C 
BRANCH   3   4
ATOM      4  CD  ARG D 557     -24.758   0.417 -16.151  1.00 35.49     0.116 C 
BRANCH   4   5
ATOM      5  NE  ARG D 557     -24.898  -0.438 -15.002  1.00 35.49    -0.212 N 
ATOM      6  CZ  ARG D 557     -24.077  -1.406 -14.660  1.00 35.49     0.666 C 
ATOM      7  NH1 ARG D 557     -23.008  -1.713 -15.370  1.00 35.49    -0.235 N 
ATOM      8  NH2 ARG D 557     -24.349  -2.066 -13.572  1.00 35.49    -0.235 N 
ATOM      9  HH  ARG D 557     -22.809  -1.290 -16.088  1.00 35.49     0.174 HD
ATOM     10  HH  ARG D 557     -22.507  -2.352 -15.096  1.00 35.49     0.174 HD
ATOM     11  HH  ARG D 557     -25.042  -1.841 -13.129  1.00 35.49     0.174 HD
ATOM     12  HH  ARG D 557     -23.840  -2.695 -13.317  1.00 35.49     0.174 HD
ATOM     13  HE  ARG D 557     -25.599  -0.357 -14.528  1.00 35.49     0.178 HD
ENDBRANCH   4   5
ENDBRANCH   3   4
ENDBRANCH   2   3
ENDBRANCH   1   2
END_RES ARG D 557
BEGIN_RES GLU D 570
REMARK  3 active torsions:
REMARK  status: ('A' for Active; 'I' for Inactive)
REMARK    5  A    between atoms: CA   and  CB  
REMARK    6  A    between atoms: CB   and  CG  
REMARK    7  A    between atoms: CG   and  CD  
ROOT
ATOM     14  CA  GLU D 570     -18.033  -6.348 -13.375  1.00 32.92     0.160 C 
ENDROOT
BRANCH  14  15
ATOM     15  CB  GLU D 570     -19.500  -6.345 -13.794  1.00 32.92     0.043 C 
BRANCH  15  16
ATOM     16  CG  GLU D 570     -20.444  -5.542 -12.975  1.00 32.92     0.100 C 
BRANCH  16  17
ATOM     17  CD  GLU D 570     -21.722  -5.206 -13.708  1.00 32.92     0.185 C 
ATOM     18  OE1 GLU D 570     -22.168  -6.012 -14.548  1.00 32.92    -0.647 OA
ATOM     19  OE2 GLU D 570     -22.275  -4.119 -13.452  1.00 32.92    -0.647 OA
ENDBRANCH  16  17
ENDBRANCH  15  16
ENDBRANCH  14  15
END_RES GLU D 570
ENDMDL
MODEL 3
REMARK VINA RESULT:      -5.8      2.534      9.697
REMARK  22 active torsions:
REMARK  status: ('A' for Active; 'I' for Inactive)
REMARK       I    between atoms: C_2  and  N_4 
REMARK    1  A    between atoms: N_4  and  C_5 
REMARK    2  A    between atoms: C_6  and  O_51 
REMARK    3  A    between atoms: C_7  and  O_25 
REMARK    4  A    between atoms: C_8  and  C_23 
REMARK    5  A    between atoms: C_10  and  N_11 
REMARK       I    between atoms: N_11  and  C_12 
REMARK    6  A    between atoms: C_12  and  C_14 
REMARK    7  A    between atoms: C_14  and  C_15 
REMARK    8  A    between atoms: C_15  and  C_16 
REMARK    9  A    between atoms: C_15  and  N_19 
REMARK       I    between atoms: C_16  and  N_18 
REMARK       I    between atoms: N_19  and  C_20 
REMARK   10  A    between atoms: C_23  and  O_24 
REMARK   11  A    between atoms: O_25  and  C_26 
REMARK   12  A    between atoms: C_27  and  N_47 
REMARK   13  A    between atoms: C_28  and  O_46 
REMARK   14  A    between atoms: C_29  and  O_34 
REMARK   15  A    between atoms: C_30  and  C_32 
REMARK   16  A    between atoms: C_32  and  O_33 
REMARK   17  A    between atoms: O_34  and  C_35 
REMARK   18  A    between atoms: C_36  and  O_45 
REMARK   19  A    between atoms: C_37  and  O_44 
REMARK   20  A    between atoms: C_38  and  O_43 
REMARK   21  A    between atoms: C_39  and  C_41 
REMARK   22  A    between atoms: C_41  and  O_42 
REMARK       I    between atoms: N_47  and  C_48 
ROOT
HETATM    1  O   UNL     1     -19.468 -12.188  -1.085  1.00  0.00    -0.348 OA
ENDROOT
BRANCH   1   2
HETATM    2  C   UNL     1     -20.531 -11.492  -1.776  1.00  0.00     0.186 C 
HETATM    3  C   UNL     1     -19.993 -10.946  -3.074  1.00  0.00     0.176 C 
HETATM    4  C   UNL     1     -19.156  -9.661  -2.925  1.00  0.00     0.164 C 
HETATM    5  C   UNL     1     -20.026  -8.544  -2.298  1.00  0.00     0.249 C 
HETATM    6  O   UNL     1     -20.611  -9.010  -1.072  1.00  0.00    -0.354 OA
HETATM    7  C   UNL     1     -21.242 -10.313  -1.019  1.00  0.00     0.179 C 
BRANCH   3   8
HETATM    8  O   UNL     1     -21.062 -10.783  -4.016  1.00  0.00    -0.391 OA
HETATM    9  H   UNL     1     -21.870 -11.136  -3.596  1.00  0.00     0.210 HD
ENDBRANCH   3   8
BRANCH   4  10
HETATM   10  N   UNL     1     -18.636  -9.385  -4.267  1.00  0.00    -0.350 N 
HETATM   11  C   UNL     1     -17.438  -9.818  -4.758  1.00  0.00     0.214 C 
HETATM   12  C   UNL     1     -17.237  -9.410  -6.203  1.00  0.00     0.117 C 
HETATM   13  O   UNL     1     -16.625 -10.466  -4.120  1.00  0.00    -0.274 OA
HETATM   14  H   UNL     1     -19.286  -8.999  -4.947  1.00  0.00     0.163 HD
ENDBRANCH   4  10
BRANCH   5  15
HETATM   15  N   UNL     1     -21.086  -8.046  -3.177  1.00  0.00    -0.333 N 
HETATM   16  C   UNL     1     -21.508  -6.728  -3.159  1.00  0.00     0.222 C 
HETATM   17  O   UNL     1     -21.174  -5.913  -2.309  1.00  0.00    -0.273 OA
HETATM   18  H   UNL     1     -21.761  -8.722  -3.496  1.00  0.00     0.165 HD
BRANCH  16  19
HETATM   19  C   UNL     1     -22.429  -6.363  -4.320  1.00  0.00     0.137 C 
BRANCH  19  20
HETATM   20  C   UNL     1     -21.620  -5.844  -5.519  1.00  0.00     0.185 C 
BRANCH  20  21
HETATM   21  C   UNL     1     -20.756  -6.980  -6.154  1.00  0.00     0.238 C 
HETATM   22  O   UNL     1     -21.032  -8.164  -6.059  1.00  0.00    -0.271 OA
HETATM   23  N   UNL     1     -19.680  -6.550  -6.853  1.00  0.00    -0.368 N 
HETATM   24  H   UNL     1     -19.399  -5.570  -6.873  1.00  0.00     0.159 HD
HETATM   25  H   UNL     1     -19.027  -7.237  -7.233  1.00  0.00     0.159 HD
ENDBRANCH  20  21
BRANCH  20  26
HETATM   26  N   UNL     1     -22.497  -5.358  -6.606  1.00  0.00    -0.348 N 
HETATM   27  C   UNL     1     -22.114  -4.274  -7.372  1.00  0.00     0.214 C 
HETATM   28  O   UNL     1     -21.092  -3.623  -7.146  1.00  0.00    -0.274 OA
HETATM   29  C   UNL     1     -22.987  -3.999  -8.553  1.00  0.00     0.117 C 
HETATM   30  H   UNL     1     -23.050  -6.055  -7.077  1.00  0.00     0.163 HD
ENDBRANCH  20  26
ENDBRANCH  19  20
ENDBRANCH  16  19
ENDBRANCH   5  15
BRANCH   7  31
HETATM   31  C   UNL     1     -22.704 -10.162  -1.515  1.00  0.00     0.198 C 
BRANCH  31  32
HETATM   32  O   UNL     1     -23.241 -11.378  -2.019  1.00  0.00    -0.398 OA
HETATM   33  H   UNL     1     -23.786 -11.159  -2.795  1.00  0.00     0.209 HD
ENDBRANCH  31  32
ENDBRANCH   7  31
ENDBRANCH   1   2
BRANCH   1  34
HETATM   34  C   UNL     1     -19.460 -13.644  -1.287  1.00  0.00     0.286 C 
HETATM   35  C   UNL     1     -19.359 -14.438   0.034  1.00  0.00     0.170 C 
HETATM   36  C   UNL     1     -17.942 -14.278   0.570  1.00  0.00     0.177 C 
HETATM   37  C   UNL     1     -16.852 -14.846  -0.325  1.00  0.00     0.186 C 
HETATM   38  C   UNL     1     -17.126 -14.466  -1.819  1.00  0.00     0.180 C 
HETATM   39  O   UNL     1     -18.497 -14.182  -2.219  1.00  0.00    -0.349 OA
BRANCH  35  40
HETATM   40  N   UNL     1     -20.436 -14.130   1.003  1.00  0.00    -0.349 N 
HETATM   41  C   UNL     1     -21.787 -14.401   0.826  1.00  0.00     0.214 C 
HETATM   42  O   UNL     1     -22.308 -14.882  -0.168  1.00  0.00    -0.274 OA
HETATM   43  C   UNL     1     -22.647 -14.049   2.003  1.00  0.00     0.117 C 
HETATM   44  H   UNL     1     -20.174 -13.587   1.816  1.00  0.00     0.163 HD
ENDBRANCH  35  40
BRANCH  36  45
HETATM   45  O   UNL     1     -17.615 -12.899   0.777  1.00  0.00    -0.391 OA
HETATM   46  H   UNL     1     -17.791 -12.440  -0.065  1.00  0.00     0.210 HD
ENDBRANCH  36  45
BRANCH  37  47
HETATM   47  O   UNL     1     -16.381 -16.183   0.030  1.00  0.00    -0.348 OA
BRANCH  47  48
HETATM   48  C   UNL     1     -14.944 -16.246   0.360  1.00  0.00     0.292 C 
HETATM   49  C   UNL     1     -14.344 -15.337   1.471  1.00  0.00     0.204 C 
HETATM   50  C   UNL     1     -13.670 -14.071   0.963  1.00  0.00     0.183 C 
HETATM   51  C   UNL     1     -12.678 -14.370  -0.157  1.00  0.00     0.180 C 
HETATM   52  C   UNL     1     -13.096 -15.486  -1.139  1.00  0.00     0.179 C 
HETATM   53  O   UNL     1     -14.163 -16.375  -0.818  1.00  0.00    -0.348 OA
BRANCH  49  54
HETATM   54  O   UNL     1     -15.239 -14.991   2.531  1.00  0.00    -0.388 OA
HETATM   55  H   UNL     1     -15.747 -14.230   2.174  1.00  0.00     0.210 HD
ENDBRANCH  49  54
BRANCH  50  56
HETATM   56  O   UNL     1     -14.680 -13.131   0.592  1.00  0.00    -0.390 OA
HETATM   57  H   UNL     1     -14.853 -13.225  -0.364  1.00  0.00     0.210 HD
ENDBRANCH  50  56
BRANCH  51  58
HETATM   58  O   UNL     1     -11.385 -14.707   0.391  1.00  0.00    -0.390 OA
HETATM   59  H   UNL     1     -11.465 -15.391   1.077  1.00  0.00     0.210 HD
ENDBRANCH  51  58
BRANCH  52  60
HETATM   60  C   UNL     1     -13.475 -14.920  -2.509  1.00  0.00     0.198 C 
BRANCH  60  61
HETATM   61  O   UNL     1     -12.648 -13.801  -2.814  1.00  0.00    -0.398 OA
HETATM   62  H   UNL     1     -11.787 -13.981  -2.383  1.00  0.00     0.209 HD
ENDBRANCH  60  61
ENDBRANCH  52  60
ENDBRANCH  47  48
ENDBRANCH  37  47
BRANCH  38  63
HETATM   63  C   UNL     1     -16.240 -13.235  -2.165  1.00  0.00     0.198 C 
BRANCH  63  64
HETATM   64  O   UNL     1     -16.747 -12.019  -1.624  1.00  0.00    -0.398 OA
HETATM   65  H   UNL     1     -17.711 -12.116  -1.542  1.00  0.00     0.209 HD
ENDBRANCH  63  64
ENDBRANCH  38  63
ENDBRANCH   1  34
TORSDOF 22
BEGIN_RES ARG D 557
REMARK  4 active torsions:
REMARK  status: ('A' for Active; 'I' for Inactive)
REMARK    1  A    between atoms: CA   and  CB  
REMARK    2  A    between atoms: CB   and  CG  
REMARK    3  A    between atoms: CG   and  CD  
REMARK    4  A    between atoms: CD   and  NE  
REMARK       I    between atoms: NE   and  CZ  
REMARK       I    between atoms: CZ   and  NH1 
REMARK       I    between atoms: CZ   and  NH2 
ROOT
ATOM      1  CA  ARG D 557     -26.217   2.705 -17.014  1.00 35.49     0.159 C 
ENDROOT
BRANCH   1   2
ATOM      2  CB  ARG D 557     -26.789   1.319 -17.183  1.00 35.49     0.034 C 
BRANCH   2   3
ATOM      3  CG  ARG D 557     -25.867   0.195 -16.981  1.00 35.49     0.027 C 
BRANCH   3   4
ATOM      4  CD  ARG D 557     -26.284  -0.684 -15.864  1.00 35.49     0.116 C 
BRANCH   4   5
ATOM      5  NE  ARG D 557     -25.221  -0.902 -14.919  1.00 35.49    -0.212 N 
ATOM      6  CZ  ARG D 557     -24.914  -2.051 -14.360  1.00 35.49     0.666 C 
ATOM      7  NH1 ARG D 557     -25.584  -3.161 -14.607  1.00 35.49    -0.235 N 
ATOM      8  NH2 ARG D 557     -23.902  -2.069 -13.541  1.00 35.49    -0.235 N 
ATOM      9  HH  ARG D 557     -26.252  -3.173 -15.145  1.00 35.49     0.174 HD
ATOM     10  HH  ARG D 557     -25.336  -3.882 -14.216  1.00 35.49     0.174 HD
ATOM     11  HH  ARG D 557     -23.483  -1.338 -13.407  1.00 35.49     0.174 HD
ATOM     12  HH  ARG D 557     -23.672  -2.793 -13.165  1.00 35.49     0.174 HD
ATOM     13  HE  ARG D 557     -24.783  -0.225 -14.648  1.00 35.49     0.178 HD
ENDBRANCH   4   5
ENDBRANCH   3   4
ENDBRANCH   2   3
ENDBRANCH   1   2
END_RES ARG D 557
BEGIN_RES GLU D 570
REMARK  3 active torsions:
REMARK  status: ('A' for Active; 'I' for Inactive)
REMARK    5  A    between atoms: CA   and  CB  
REMARK    6  A    between atoms: CB   and  CG  
REMARK    7  A    between atoms: CG   and  CD  
ROOT
ATOM     14  CA  GLU D 570     -18.033  -6.348 -13.375  1.00 32.92     0.160 C 
ENDROOT
BRANCH  14  15
ATOM     15  CB  GLU D 570     -19.500  -6.345 -13.794  1.00 32.92     0.043 C 
BRANCH  15  16
ATOM     16  CG  GLU D 570     -20.447  -5.557 -12.964  1.00 32.92     0.100 C 
BRANCH  16  17
ATOM     17  CD  GLU D 570     -21.696  -5.156 -13.715  1.00 32.92     0.185 C 
ATOM     18  OE1 GLU D 570     -21.672  -5.132 -14.960  1.00 32.92    -0.647 OA
ATOM     19  OE2 GLU D 570     -22.704  -4.847 -13.049  1.00 32.92    -0.647 OA
ENDBRANCH  16  17
ENDBRANCH  15  16
ENDBRANCH  14  15
END_RES GLU D 570
ENDMDL
MODEL 4
REMARK VINA RESULT:      -5.8      1.844      3.363
REMARK  22 active torsions:
REMARK  status: ('A' for Active; 'I' for Inactive)
REMARK       I    between atoms: C_2  and  N_4 
REMARK    1  A    between atoms: N_4  and  C_5 
REMARK    2  A    between atoms: C_6  and  O_51 
REMARK    3  A    between atoms: C_7  and  O_25 
REMARK    4  A    between atoms: C_8  and  C_23 
REMARK    5  A    between atoms: C_10  and  N_11 
REMARK       I    between atoms: N_11  and  C_12 
REMARK    6  A    between atoms: C_12  and  C_14 
REMARK    7  A    between atoms: C_14  and  C_15 
REMARK    8  A    between atoms: C_15  and  C_16 
REMARK    9  A    between atoms: C_15  and  N_19 
REMARK       I    between atoms: C_16  and  N_18 
REMARK       I    between atoms: N_19  and  C_20 
REMARK   10  A    between atoms: C_23  and  O_24 
REMARK   11  A    between atoms: O_25  and  C_26 
REMARK   12  A    between atoms: C_27  and  N_47 
REMARK   13  A    between atoms: C_28  and  O_46 
REMARK   14  A    between atoms: C_29  and  O_34 
REMARK   15  A    between atoms: C_30  and  C_32 
REMARK   16  A    between atoms: C_32  and  O_33 
REMARK   17  A    between atoms: O_34  and  C_35 
REMARK   18  A    between atoms: C_36  and  O_45 
REMARK   19  A    between atoms: C_37  and  O_44 
REMARK   20  A    between atoms: C_38  and  O_43 
REMARK   21  A    between atoms: C_39  and  C_41 
REMARK   22  A    between atoms: C_41  and  O_42 
REMARK       I    between atoms: N_47  and  C_48 
ROOT
HETATM    1  O   UNL     1     -18.218 -13.056  -3.499  1.00  0.00    -0.348 OA
ENDROOT
BRANCH   1   2
HETATM    2  C   UNL     1     -16.918 -13.657  -3.301  1.00  0.00     0.186 C 
HETATM    3  C   UNL     1     -16.944 -14.466  -2.029  1.00  0.00     0.176 C 
HETATM    4  C   UNL     1     -16.827 -13.630  -0.741  1.00  0.00     0.164 C 
HETATM    5  C   UNL     1     -15.490 -12.850  -0.747  1.00  0.00     0.249 C 
HETATM    6  O   UNL     1     -15.374 -12.085  -1.956  1.00  0.00    -0.354 OA
HETATM    7  C   UNL     1     -15.674 -12.700  -3.234  1.00  0.00     0.179 C 
BRANCH   3   8
HETATM    8  O   UNL     1     -15.951 -15.500  -2.088  1.00  0.00    -0.391 OA
HETATM    9  H   UNL     1     -15.163 -15.116  -2.518  1.00  0.00     0.210 HD
ENDBRANCH   3   8
BRANCH   4  10
HETATM   10  N   UNL     1     -17.002 -14.587   0.355  1.00  0.00    -0.350 N 
HETATM   11  C   UNL     1     -18.189 -14.901   0.952  1.00  0.00     0.214 C 
HETATM   12  C   UNL     1     -18.025 -15.977   2.007  1.00  0.00     0.117 C 
HETATM   13  O   UNL     1     -19.260 -14.390   0.669  1.00  0.00    -0.274 OA
HETATM   14  H   UNL     1     -16.218 -15.197   0.568  1.00  0.00     0.163 HD
ENDBRANCH   4  10
BRANCH   5  15
HETATM   15  N   UNL     1     -14.304 -13.695  -0.597  1.00  0.00    -0.333 N 
HETATM   16  C   UNL     1     -13.836 -14.108   0.638  1.00  0.00     0.222 C 
HETATM   17  O   UNL     1     -14.247 -13.674   1.706  1.00  0.00    -0.273 OA
HETATM   18  H   UNL     1     -13.619 -13.646  -1.335  1.00  0.00     0.165 HD
BRANCH  16  19
HETATM   19  C   UNL     1     -12.754 -15.182   0.557  1.00  0.00     0.137 C 
BRANCH  19  20
HETATM   20  C   UNL     1     -11.849 -15.142   1.798  1.00  0.00     0.185 C 
BRANCH  20  21
HETATM   21  C   UNL     1     -12.230 -16.266   2.815  1.00  0.00     0.238 C 
HETATM   22  O   UNL     1     -11.482 -17.183   3.110  1.00  0.00    -0.271 OA
HETATM   23  N   UNL     1     -13.455 -16.133   3.374  1.00  0.00    -0.368 N 
HETATM   24  H   UNL     1     -14.116 -15.416   3.076  1.00  0.00     0.159 HD
HETATM   25  H   UNL     1     -13.803 -16.870   3.990  1.00  0.00     0.159 HD
ENDBRANCH  20  21
BRANCH  20  26
HETATM   26  N   UNL     1     -10.432 -15.384   1.454  1.00  0.00    -0.348 N 
HETATM   27  C   UNL     1      -9.494 -14.386   1.639  1.00  0.00     0.214 C 
HETATM   28  O   UNL     1      -9.793 -13.249   2.011  1.00  0.00    -0.274 OA
HETATM   29  C   UNL     1      -8.076 -14.809   1.436  1.00  0.00     0.117 C 
HETATM   30  H   UNL     1     -10.099 -16.326   1.574  1.00  0.00     0.163 HD
ENDBRANCH  20  26
ENDBRANCH  19  20
ENDBRANCH  16  19
ENDBRANCH   5  15
BRANCH   7  31
HETATM   31  C   UNL     1     -14.401 -13.438  -3.725  1.00  0.00     0.198 C 
BRANCH  31  32
HETATM   32  O   UNL     1     -13.205 -12.735  -3.412  1.00  0.00    -0.398 OA
HETATM   33  H   UNL     1     -12.738 -13.242  -2.725  1.00  0.00     0.209 HD
ENDBRANCH  31  32
ENDBRANCH   7  31
ENDBRANCH   1   2
BRANCH   1  34
HETATM   34  C   UNL     1     -18.213 -11.586  -3.522  1.00  0.00     0.286 C 
HETATM   35  C   UNL     1     -19.531 -10.969  -3.003  1.00  0.00     0.170 C 
HETATM   36  C   UNL     1     -20.606 -11.206  -4.056  1.00  0.00     0.177 C 
HETATM   37  C   UNL     1     -20.348 -10.537  -5.397  1.00  0.00     0.186 C 
HETATM   38  C   UNL     1     -18.850 -10.720  -5.813  1.00  0.00     0.180 C 
HETATM   39  O   UNL     1     -17.864 -10.941  -4.765  1.00  0.00    -0.349 OA
BRANCH  35  40
HETATM   40  N   UNL     1     -19.892 -11.390  -1.631  1.00  0.00    -0.349 N 
HETATM   41  C   UNL     1     -20.535 -10.602  -0.684  1.00  0.00     0.214 C 
HETATM   42  O   UNL     1     -20.855  -9.430  -0.810  1.00  0.00    -0.274 OA
HETATM   43  C   UNL     1     -20.844 -11.309   0.601  1.00  0.00     0.117 C 
HETATM   44  H   UNL     1     -19.551 -12.293  -1.328  1.00  0.00     0.163 HD
ENDBRANCH  35  40
BRANCH  36  45
HETATM   45  O   UNL     1     -20.770 -12.603  -4.329  1.00  0.00    -0.391 OA
HETATM   46  H   UNL     1     -21.660 -12.847  -4.015  1.00  0.00     0.210 HD
ENDBRANCH  36  45
BRANCH  37  47
HETATM   47  O   UNL     1     -21.028  -9.260  -5.602  1.00  0.00    -0.348 OA
BRANCH  47  48
HETATM   48  C   UNL     1     -20.257  -8.089  -5.145  1.00  0.00     0.292 C 
HETATM   49  C   UNL     1     -20.754  -7.228  -3.949  1.00  0.00     0.204 C 
HETATM   50  C   UNL     1     -21.505  -5.965  -4.341  1.00  0.00     0.183 C 
HETATM   51  C   UNL     1     -20.735  -5.150  -5.376  1.00  0.00     0.180 C 
HETATM   52  C   UNL     1     -19.968  -5.969  -6.437  1.00  0.00     0.179 C 
HETATM   53  O   UNL     1     -19.739  -7.364  -6.251  1.00  0.00    -0.348 OA
BRANCH  49  54
HETATM   54  O   UNL     1     -21.515  -7.930  -2.962  1.00  0.00    -0.388 OA
HETATM   55  H   UNL     1     -21.770  -8.766  -3.410  1.00  0.00     0.210 HD
ENDBRANCH  49  54
BRANCH  50  56
HETATM   56  O   UNL     1     -22.821  -6.326  -4.766  1.00  0.00    -0.390 OA
HETATM   57  H   UNL     1     -22.800  -7.248  -5.087  1.00  0.00     0.210 HD
ENDBRANCH  50  56
BRANCH  51  58
HETATM   58  O   UNL     1     -19.801  -4.261  -4.726  1.00  0.00    -0.390 OA
HETATM   59  H   UNL     1     -19.281  -3.764  -5.379  1.00  0.00     0.210 HD
ENDBRANCH  51  58
BRANCH  52  60
HETATM   60  C   UNL     1     -20.632  -5.876  -7.812  1.00  0.00     0.198 C 
BRANCH  60  61
HETATM   61  O   UNL     1     -21.421  -4.692  -7.887  1.00  0.00    -0.398 OA
HETATM   62  H   UNL     1     -22.231  -4.944  -8.376  1.00  0.00     0.209 HD
ENDBRANCH  60  61
ENDBRANCH  52  60
ENDBRANCH  47  48
ENDBRANCH  37  47
BRANCH  38  63
HETATM   63  C   UNL     1     -18.779 -11.904  -6.821  1.00  0.00     0.198 C 
BRANCH  63  64
HETATM   64  O   UNL     1     -20.064 -12.335  -7.259  1.00  0.00    -0.398 OA
HETATM   65  H   UNL     1     -20.188 -13.247  -6.945  1.00  0.00     0.209 HD
ENDBRANCH  63  64
ENDBRANCH  38  63
ENDBRANCH   1  34
TORSDOF 22
BEGIN_RES ARG D 557
REMARK  4 active torsions:
REMARK  status: ('A' for Active; 'I' for Inactive)
REMARK    1  A    between atoms: CA   and  CB  
REMARK    2  A    between atoms: CB   and  CG  
REMARK    3  A    between atoms: CG   and  CD  
REMARK    4  A    between atoms: CD   and  NE  
REMARK       I    between atoms: NE   and  CZ  
REMARK       I    between atoms: CZ   and  NH1 
REMARK       I    between atoms: CZ   and  NH2 
ROOT
ATOM      1  CA  ARG D 557     -26.217   2.705 -17.014  1.00 35.49     0.159 C 
ENDROOT
BRANCH   1   2
ATOM      2  CB  ARG D 557     -26.789   1.319 -17.183  1.00 35.49     0.034 C 
BRANCH   2   3
ATOM      3  CG  ARG D 557     -25.842   0.200 -17.106  1.00 35.49     0.027 C 
BRANCH   3   4
ATOM      4  CD  ARG D 557     -24.797   0.415 -16.080  1.00 35.49     0.116 C 
BRANCH   4   5
ATOM      5  NE  ARG D 557     -24.935  -0.488 -14.967  1.00 35.49    -0.212 N 
ATOM      6  CZ  ARG D 557     -24.112  -1.468 -14.666  1.00 35.49     0.666 C 
ATOM      7  NH1 ARG D 557     -23.043  -1.743 -15.390  1.00 35.49    -0.235 N 
ATOM      8  NH2 ARG D 557     -24.382  -2.173 -13.607  1.00 35.49    -0.235 N 
ATOM      9  HH  ARG D 557     -22.845  -1.291 -16.090  1.00 35.49     0.174 HD
ATOM     10  HH  ARG D 557     -22.541  -2.393 -15.143  1.00 35.49     0.174 HD
ATOM     11  HH  ARG D 557     -25.075  -1.968 -13.154  1.00 35.49     0.174 HD
ATOM     12  HH  ARG D 557     -23.872  -2.812 -13.378  1.00 35.49     0.174 HD
ATOM     13  HE  ARG D 557     -25.636  -0.428 -14.489  1.00 35.49     0.178 HD
ENDBRANCH   4   5
ENDBRANCH   3   4
ENDBRANCH   2   3
ENDBRANCH   1   2
END_RES ARG D 557
BEGIN_RES GLU D 570
REMARK  3 active torsions:
REMARK  status: ('A' for Active; 'I' for Inactive)
REMARK    5  A    between atoms: CA   and  CB  
REMARK    6  A    between atoms: CB   and  CG  
REMARK    7  A    between atoms: CG   and  CD  
ROOT
ATOM     14  CA  GLU D 570     -18.033  -6.348 -13.375  1.00 32.92     0.160 C 
ENDROOT
BRANCH  14  15
ATOM     15  CB  GLU D 570     -19.500  -6.345 -13.794  1.00 32.92     0.043 C 
BRANCH  15  16
ATOM     16  CG  GLU D 570     -20.422  -5.446 -13.053  1.00 32.92     0.100 C 
BRANCH  16  17
ATOM     17  CD  GLU D 570     -21.765  -5.293 -13.728  1.00 32.92     0.185 C 
ATOM     18  OE1 GLU D 570     -22.687  -4.717 -13.118  1.00 32.92    -0.647 OA
ATOM     19  OE2 GLU D 570     -21.902  -5.768 -14.872  1.00 32.92    -0.647 OA
ENDBRANCH  16  17
ENDBRANCH  15  16
ENDBRANCH  14  15
END_RES GLU D 570
ENDMDL
MODEL 5
REMARK VINA RESULT:      -5.8      1.517      2.247
REMARK  22 active torsions:
REMARK  status: ('A' for Active; 'I' for Inactive)
REMARK       I    between atoms: C_2  and  N_4 
REMARK    1  A    between atoms: N_4  and  C_5 
REMARK    2  A    between atoms: C_6  and  O_51 
REMARK    3  A    between atoms: C_7  and  O_25 
REMARK    4  A    between atoms: C_8  and  C_23 
REMARK    5  A    between atoms: C_10  and  N_11 
REMARK       I    between atoms: N_11  and  C_12 
REMARK    6  A    between atoms: C_12  and  C_14 
REMARK    7  A    between atoms: C_14  and  C_15 
REMARK    8  A    between atoms: C_15  and  C_16 
REMARK    9  A    between atoms: C_15  and  N_19 
REMARK       I    between atoms: C_16  and  N_18 
REMARK       I    between atoms: N_19  and  C_20 
REMARK   10  A    between atoms: C_23  and  O_24 
REMARK   11  A    between atoms: O_25  and  C_26 
REMARK   12  A    between atoms: C_27  and  N_47 
REMARK   13  A    between atoms: C_28  and  O_46 
REMARK   14  A    between atoms: C_29  and  O_34 
REMARK   15  A    between atoms: C_30  and  C_32 
REMARK   16  A    between atoms: C_32  and  O_33 
REMARK   17  A    between atoms: O_34  and  C_35 
REMARK   18  A    between atoms: C_36  and  O_45 
REMARK   19  A    between atoms: C_37  and  O_44 
REMARK   20  A    between atoms: C_38  and  O_43 
REMARK   21  A    between atoms: C_39  and  C_41 
REMARK   22  A    between atoms: C_41  and  O_42 
REMARK       I    between atoms: N_47  and  C_48 
ROOT
HETATM    1  O   UNL     1     -19.388 -10.773  -2.202  1.00  0.00    -0.348 OA
ENDROOT
BRANCH   1   2
HETATM    2  C   UNL     1     -18.096 -11.320  -1.851  1.00  0.00     0.186 C 
HETATM    3  C   UNL     1     -17.745 -12.408  -2.834  1.00  0.00     0.176 C 
HETATM    4  C   UNL     1     -18.457 -13.749  -2.580  1.00  0.00     0.164 C 
HETATM    5  C   UNL     1     -18.081 -14.279  -1.174  1.00  0.00     0.249 C 
HETATM    6  O   UNL     1     -18.349 -13.275  -0.184  1.00  0.00    -0.354 OA
HETATM    7  C   UNL     1     -17.922 -11.908  -0.405  1.00  0.00     0.179 C 
BRANCH   3   8
HETATM    8  O   UNL     1     -16.320 -12.563  -2.902  1.00  0.00    -0.391 OA
HETATM    9  H   UNL     1     -15.962 -12.296  -2.034  1.00  0.00     0.210 HD
ENDBRANCH   3   8
BRANCH   4  10
HETATM   10  N   UNL     1     -18.076 -14.606  -3.706  1.00  0.00    -0.350 N 
HETATM   11  C   UNL     1     -18.736 -14.689  -4.898  1.00  0.00     0.214 C 
HETATM   12  C   UNL     1     -18.039 -15.621  -5.868  1.00  0.00     0.117 C 
HETATM   13  O   UNL     1     -19.760 -14.082  -5.163  1.00  0.00    -0.274 OA
HETATM   14  H   UNL     1     -17.154 -15.034  -3.673  1.00  0.00     0.163 HD
ENDBRANCH   4  10
BRANCH   5  15
HETATM   15  N   UNL     1     -16.689 -14.715  -1.051  1.00  0.00    -0.333 N 
HETATM   16  C   UNL     1     -16.301 -15.731  -0.196  1.00  0.00     0.222 C 
HETATM   17  O   UNL     1     -17.030 -16.231   0.650  1.00  0.00    -0.273 OA
HETATM   18  H   UNL     1     -15.982 -14.034  -1.278  1.00  0.00     0.165 HD
BRANCH  16  19
HETATM   19  C   UNL     1     -14.863 -16.198  -0.410  1.00  0.00     0.137 C 
BRANCH  19  20
HETATM   20  C   UNL     1     -14.012 -15.081  -1.034  1.00  0.00     0.185 C 
BRANCH  20  21
HETATM   21  C   UNL     1     -12.917 -14.579  -0.039  1.00  0.00     0.238 C 
HETATM   22  O   UNL     1     -13.164 -14.209   1.097  1.00  0.00    -0.271 OA
HETATM   23  N   UNL     1     -11.653 -14.612  -0.522  1.00  0.00    -0.368 N 
HETATM   24  H   UNL     1     -11.448 -14.845  -1.493  1.00  0.00     0.159 HD
HETATM   25  H   UNL     1     -10.895 -14.228   0.044  1.00  0.00     0.159 HD
ENDBRANCH  20  21
BRANCH  20  26
HETATM   26  N   UNL     1     -13.277 -15.551  -2.228  1.00  0.00    -0.348 N 
HETATM   27  C   UNL     1     -13.861 -15.471  -3.477  1.00  0.00     0.214 C 
HETATM   28  O   UNL     1     -15.022 -15.094  -3.649  1.00  0.00    -0.274 OA
HETATM   29  C   UNL     1     -12.954 -15.796  -4.619  1.00  0.00     0.117 C 
HETATM   30  H   UNL     1     -12.276 -15.444  -2.204  1.00  0.00     0.163 HD
ENDBRANCH  20  26
ENDBRANCH  19  20
ENDBRANCH  16  19
ENDBRANCH   5  15
BRANCH   7  31
HETATM   31  C   UNL     1     -16.443 -11.785   0.050  1.00  0.00     0.198 C 
BRANCH  31  32
HETATM   32  O   UNL     1     -16.306 -11.752   1.465  1.00  0.00    -0.398 OA
HETATM   33  H   UNL     1     -15.680 -12.454   1.715  1.00  0.00     0.209 HD
ENDBRANCH  31  32
ENDBRANCH   7  31
ENDBRANCH   1   2
BRANCH   1  34
HETATM   34  C   UNL     1     -19.352  -9.384  -2.681  1.00  0.00     0.286 C 
HETATM   35  C   UNL     1     -20.756  -8.753  -2.812  1.00  0.00     0.170 C 
HETATM   36  C   UNL     1     -21.445  -9.387  -4.014  1.00  0.00     0.177 C 
HETATM   37  C   UNL     1     -20.764  -9.134  -5.350  1.00  0.00     0.186 C 
HETATM   38  C   UNL     1     -19.214  -9.307  -5.207  1.00  0.00     0.180 C 
HETATM   39  O   UNL     1     -18.616  -9.117  -3.894  1.00  0.00    -0.349 OA
BRANCH  35  40
HETATM   40  N   UNL     1     -21.541  -8.769  -1.557  1.00  0.00    -0.349 N 
HETATM   41  C   UNL     1     -22.191  -7.677  -0.993  1.00  0.00     0.214 C 
HETATM   42  O   UNL     1     -22.175  -6.529  -1.408  1.00  0.00    -0.274 OA
HETATM   43  C   UNL     1     -22.974  -7.996   0.244  1.00  0.00     0.117 C 
HETATM   44  H   UNL     1     -21.516  -9.624  -1.016  1.00  0.00     0.163 HD
ENDBRANCH  35  40
BRANCH  36  45
HETATM   45  O   UNL     1     -21.537 -10.809  -3.872  1.00  0.00    -0.391 OA
HETATM   46  H   UNL     1     -22.443 -11.059  -4.132  1.00  0.00     0.210 HD
ENDBRANCH  36  45
BRANCH  37  47
HETATM   47  O   UNL     1     -21.322  -8.042  -6.142  1.00  0.00    -0.348 OA
BRANCH  47  48
HETATM   48  C   UNL     1     -20.584  -6.771  -6.018  1.00  0.00     0.292 C 
HETATM   49  C   UNL     1     -21.193  -5.570  -5.239  1.00  0.00     0.204 C 
HETATM   50  C   UNL     1     -21.870  -4.524  -6.110  1.00  0.00     0.183 C 
HETATM   51  C   UNL     1     -20.975  -4.086  -7.265  1.00  0.00     0.180 C 
HETATM   52  C   UNL     1     -20.112  -5.197  -7.901  1.00  0.00     0.179 C 
HETATM   53  O   UNL     1     -19.933  -6.446  -7.237  1.00  0.00    -0.348 OA
BRANCH  49  54
HETATM   54  O   UNL     1     -22.072  -5.918  -4.166  1.00  0.00    -0.388 OA
HETATM   55  H   UNL     1     -21.869  -5.258  -3.468  1.00  0.00     0.210 HD
ENDBRANCH  49  54
BRANCH  50  56
HETATM   56  O   UNL     1     -23.138  -5.029  -6.533  1.00  0.00    -0.390 OA
HETATM   57  H   UNL     1     -22.985  -5.736  -7.190  1.00  0.00     0.210 HD
ENDBRANCH  50  56
BRANCH  51  58
HETATM   58  O   UNL     1     -20.101  -3.014  -6.849  1.00  0.00    -0.390 OA
HETATM   59  H   UNL     1     -20.206  -2.236  -7.422  1.00  0.00     0.210 HD
ENDBRANCH  51  58
BRANCH  52  60
HETATM   60  C   UNL     1     -20.618  -5.579  -9.293  1.00  0.00     0.198 C 
BRANCH  60  61
HETATM   61  O   UNL     1     -21.839  -4.897  -9.566  1.00  0.00    -0.398 OA
HETATM   62  H   UNL     1     -22.551  -5.535  -9.359  1.00  0.00     0.209 HD
ENDBRANCH  60  61
ENDBRANCH  52  60
ENDBRANCH  47  48
ENDBRANCH  37  47
BRANCH  38  63
HETATM   63  C   UNL     1     -18.847 -10.730  -5.721  1.00  0.00     0.198 C 
BRANCH  63  64
HETATM   64  O   UNL     1     -19.889 -11.328  -6.487  1.00  0.00    -0.398 OA
HETATM   65  H   UNL     1     -20.729 -10.943  -6.185  1.00  0.00     0.209 HD
ENDBRANCH  63  64
ENDBRANCH  38  63
ENDBRANCH   1  34
TORSDOF 22
BEGIN_RES ARG D 557
REMARK  4 active torsions:
REMARK  status: ('A' for Active; 'I' for Inactive)
REMARK    1  A    between atoms: CA   and  CB  
REMARK    2  A    between atoms: CB   and  CG  
REMARK    3  A    between atoms: CG   and  CD  
REMARK    4  A    between atoms: CD   and  NE  
REMARK       I    between atoms: NE   and  CZ  
REMARK       I    between atoms: CZ   and  NH1 
REMARK       I    between atoms: CZ   and  NH2 
ROOT
ATOM      1  CA  ARG D 557     -26.217   2.705 -17.014  1.00 35.49     0.159 C 
ENDROOT
BRANCH   1   2
ATOM      2  CB  ARG D 557     -26.789   1.319 -17.183  1.00 35.49     0.034 C 
BRANCH   2   3
ATOM      3  CG  ARG D 557     -25.835   0.203 -17.159  1.00 35.49     0.027 C 
BRANCH   3   4
ATOM      4  CD  ARG D 557     -24.755   0.405 -16.167  1.00 35.49     0.116 C 
BRANCH   4   5
ATOM      5  NE  ARG D 557     -24.914  -0.440 -15.013  1.00 35.49    -0.212 N 
ATOM      6  CZ  ARG D 557     -24.111  -1.420 -14.662  1.00 35.49     0.666 C 
ATOM      7  NH1 ARG D 557     -23.044  -1.749 -15.367  1.00 35.49    -0.235 N 
ATOM      8  NH2 ARG D 557     -24.397  -2.069 -13.572  1.00 35.49    -0.235 N 
ATOM      9  HH  ARG D 557     -22.835  -1.334 -16.087  1.00 35.49     0.174 HD
ATOM     10  HH  ARG D 557     -22.555  -2.395 -15.088  1.00 35.49     0.174 HD
ATOM     11  HH  ARG D 557     -25.088  -1.830 -13.133  1.00 35.49     0.174 HD
ATOM     12  HH  ARG D 557     -23.900  -2.705 -13.311  1.00 35.49     0.174 HD
ATOM     13  HE  ARG D 557     -25.615  -0.345 -14.542  1.00 35.49     0.178 HD
ENDBRANCH   4   5
ENDBRANCH   3   4
ENDBRANCH   2   3
ENDBRANCH   1   2
END_RES ARG D 557
BEGIN_RES GLU D 570
REMARK  3 active torsions:
REMARK  status: ('A' for Active; 'I' for Inactive)
REMARK    5  A    between atoms: CA   and  CB  
REMARK    6  A    between atoms: CB   and  CG  
REMARK    7  A    between atoms: CG   and  CD  
ROOT
ATOM     14  CA  GLU D 570     -18.033  -6.348 -13.375  1.00 32.92     0.160 C 
ENDROOT
BRANCH  14  15
ATOM     15  CB  GLU D 570     -19.500  -6.345 -13.794  1.00 32.92     0.043 C 
BRANCH  15  16
ATOM     16  CG  GLU D 570     -20.441  -5.526 -12.987  1.00 32.92     0.100 C 
BRANCH  16  17
ATOM     17  CD  GLU D 570     -21.724  -5.209 -13.719  1.00 32.92     0.185 C 
ATOM     18  OE1 GLU D 570     -22.350  -4.174 -13.422  1.00 32.92    -0.647 OA
ATOM     19  OE2 GLU D 570     -22.116  -6.014 -14.587  1.00 32.92    -0.647 OA
ENDBRANCH  16  17
ENDBRANCH  15  16
ENDBRANCH  14  15
END_RES GLU D 570
ENDMDL
MODEL 6
REMARK VINA RESULT:      -5.5      1.631      2.081
REMARK  22 active torsions:
REMARK  status: ('A' for Active; 'I' for Inactive)
REMARK       I    between atoms: C_2  and  N_4 
REMARK    1  A    between atoms: N_4  and  C_5 
REMARK    2  A    between atoms: C_6  and  O_51 
REMARK    3  A    between atoms: C_7  and  O_25 
REMARK    4  A    between atoms: C_8  and  C_23 
REMARK    5  A    between atoms: C_10  and  N_11 
REMARK       I    between atoms: N_11  and  C_12 
REMARK    6  A    between atoms: C_12  and  C_14 
REMARK    7  A    between atoms: C_14  and  C_15 
REMARK    8  A    between atoms: C_15  and  C_16 
REMARK    9  A    between atoms: C_15  and  N_19 
REMARK       I    between atoms: C_16  and  N_18 
REMARK       I    between atoms: N_19  and  C_20 
REMARK   10  A    between atoms: C_23  and  O_24 
REMARK   11  A    between atoms: O_25  and  C_26 
REMARK   12  A    between atoms: C_27  and  N_47 
REMARK   13  A    between atoms: C_28  and  O_46 
REMARK   14  A    between atoms: C_29  and  O_34 
REMARK   15  A    between atoms: C_30  and  C_32 
REMARK   16  A    between atoms: C_32  and  O_33 
REMARK   17  A    between atoms: O_34  and  C_35 
REMARK   18  A    between atoms: C_36  and  O_45 
REMARK   19  A    between atoms: C_37  and  O_44 
REMARK   20  A    between atoms: C_38  and  O_43 
REMARK   21  A    between atoms: C_39  and  C_41 
REMARK   22  A    between atoms: C_41  and  O_42 
REMARK       I    between atoms: N_47  and  C_48 
ROOT
HETATM    1  O   UNL     1     -19.096 -10.633  -2.364  1.00  0.00    -0.348 OA
ENDROOT
BRANCH   1   2
HETATM    2  C   UNL     1     -17.817 -10.961  -1.771  1.00  0.00     0.186 C 
HETATM    3  C   UNL     1     -16.771 -10.991  -2.855  1.00  0.00     0.176 C 
HETATM    4  C   UNL     1     -16.779 -12.270  -3.712  1.00  0.00     0.164 C 
HETATM    5  C   UNL     1     -16.521 -13.502  -2.809  1.00  0.00     0.249 C 
HETATM    6  O   UNL     1     -17.458 -13.517  -1.722  1.00  0.00    -0.354 OA
HETATM    7  C   UNL     1     -17.711 -12.307  -0.967  1.00  0.00     0.179 C 
BRANCH   3   8
HETATM    8  O   UNL     1     -15.477 -10.731  -2.293  1.00  0.00    -0.391 OA
HETATM    9  H   UNL     1     -15.404  -9.764  -2.178  1.00  0.00     0.210 HD
ENDBRANCH   3   8
BRANCH   4  10
HETATM   10  N   UNL     1     -15.786 -12.034  -4.764  1.00  0.00    -0.350 N 
HETATM   11  C   UNL     1     -15.587 -12.826  -5.858  1.00  0.00     0.214 C 
HETATM   12  C   UNL     1     -14.528 -12.259  -6.782  1.00  0.00     0.117 C 
HETATM   13  O   UNL     1     -16.191 -13.862  -6.079  1.00  0.00    -0.274 OA
HETATM   14  H   UNL     1     -15.337 -11.123  -4.783  1.00  0.00     0.163 HD
ENDBRANCH   4  10
BRANCH   5  15
HETATM   15  N   UNL     1     -15.161 -13.576  -2.272  1.00  0.00    -0.333 N 
HETATM   16  C   UNL     1     -14.212 -14.453  -2.768  1.00  0.00     0.222 C 
HETATM   17  O   UNL     1     -14.458 -15.352  -3.561  1.00  0.00    -0.273 OA
HETATM   18  H   UNL     1     -15.039 -13.289  -1.314  1.00  0.00     0.165 HD
BRANCH  16  19
HETATM   19  C   UNL     1     -12.801 -14.189  -2.248  1.00  0.00     0.137 C 
BRANCH  19  20
HETATM   20  C   UNL     1     -12.691 -14.552  -0.759  1.00  0.00     0.185 C 
BRANCH  20  21
HETATM   21  C   UNL     1     -13.285 -15.969  -0.474  1.00  0.00     0.238 C 
HETATM   22  O   UNL     1     -12.874 -16.986  -1.007  1.00  0.00    -0.271 OA
HETATM   23  N   UNL     1     -14.283 -15.992   0.439  1.00  0.00    -0.368 N 
HETATM   24  H   UNL     1     -14.685 -15.140   0.829  1.00  0.00     0.159 HD
HETATM   25  H   UNL     1     -14.771 -16.871   0.620  1.00  0.00     0.159 HD
ENDBRANCH  20  21
BRANCH  20  26
HETATM   26  N   UNL     1     -11.283 -14.616  -0.311  1.00  0.00    -0.348 N 
HETATM   27  C   UNL     1     -10.988 -14.700   1.036  1.00  0.00     0.214 C 
HETATM   28  O   UNL     1     -11.852 -14.643   1.914  1.00  0.00    -0.274 OA
HETATM   29  C   UNL     1      -9.549 -14.949   1.351  1.00  0.00     0.117 C 
HETATM   30  H   UNL     1     -10.639 -15.080  -0.931  1.00  0.00     0.163 HD
ENDBRANCH  20  26
ENDBRANCH  19  20
ENDBRANCH  16  19
ENDBRANCH   5  15
BRANCH   7  31
HETATM   31  C   UNL     1     -16.625 -12.189   0.135  1.00  0.00     0.198 C 
BRANCH  31  32
HETATM   32  O   UNL     1     -17.176 -11.976   1.428  1.00  0.00    -0.398 OA
HETATM   33  H   UNL     1     -16.771 -12.625   2.030  1.00  0.00     0.209 HD
ENDBRANCH  31  32
ENDBRANCH   7  31
ENDBRANCH   1   2
BRANCH   1  34
HETATM   34  C   UNL     1     -19.198  -9.255  -2.866  1.00  0.00     0.286 C 
HETATM   35  C   UNL     1     -20.646  -8.716  -2.861  1.00  0.00     0.170 C 
HETATM   36  C   UNL     1     -21.412  -9.420  -3.974  1.00  0.00     0.177 C 
HETATM   37  C   UNL     1     -20.889  -9.155  -5.377  1.00  0.00     0.186 C 
HETATM   38  C   UNL     1     -19.326  -9.228  -5.394  1.00  0.00     0.180 C 
HETATM   39  O   UNL     1     -18.609  -8.971  -4.153  1.00  0.00    -0.349 OA
BRANCH  35  40
HETATM   40  N   UNL     1     -21.295  -8.752  -1.531  1.00  0.00    -0.349 N 
HETATM   41  C   UNL     1     -22.021  -7.717  -0.955  1.00  0.00     0.214 C 
HETATM   42  O   UNL     1     -22.194  -6.602  -1.423  1.00  0.00    -0.274 OA
HETATM   43  C   UNL     1     -22.632  -8.054   0.372  1.00  0.00     0.117 C 
HETATM   44  H   UNL     1     -21.108  -9.564  -0.956  1.00  0.00     0.163 HD
ENDBRANCH  35  40
BRANCH  36  45
HETATM   45  O   UNL     1     -21.397 -10.841  -3.800  1.00  0.00    -0.391 OA
HETATM   46  H   UNL     1     -21.018 -11.219  -4.615  1.00  0.00     0.210 HD
ENDBRANCH  36  45
BRANCH  37  47
HETATM   47  O   UNL     1     -21.596  -8.118  -6.126  1.00  0.00    -0.348 OA
BRANCH  47  48
HETATM   48  C   UNL     1     -20.971  -6.784  -6.039  1.00  0.00     0.292 C 
HETATM   49  C   UNL     1     -21.638  -5.647  -5.213  1.00  0.00     0.204 C 
HETATM   50  C   UNL     1     -22.464  -4.666  -6.031  1.00  0.00     0.183 C 
HETATM   51  C   UNL     1     -21.688  -4.144  -7.237  1.00  0.00     0.180 C 
HETATM   52  C   UNL     1     -20.769  -5.170  -7.935  1.00  0.00     0.179 C 
HETATM   53  O   UNL     1     -20.432  -6.398  -7.294  1.00  0.00    -0.348 OA
BRANCH  49  54
HETATM   54  O   UNL     1     -22.411  -6.077  -4.089  1.00  0.00    -0.388 OA
HETATM   55  H   UNL     1     -23.099  -6.656  -4.482  1.00  0.00     0.210 HD
ENDBRANCH  49  54
BRANCH  50  56
HETATM   56  O   UNL     1     -23.704  -5.286  -6.377  1.00  0.00    -0.390 OA
HETATM   57  H   UNL     1     -23.691  -6.206  -6.048  1.00  0.00     0.210 HD
ENDBRANCH  50  56
BRANCH  51  58
HETATM   58  O   UNL     1     -20.893  -2.997  -6.868  1.00  0.00    -0.390 OA
HETATM   59  H   UNL     1     -19.945  -3.178  -6.987  1.00  0.00     0.210 HD
ENDBRANCH  51  58
BRANCH  52  60
HETATM   60  C   UNL     1     -21.325  -5.594  -9.295  1.00  0.00     0.198 C 
BRANCH  60  61
HETATM   61  O   UNL     1     -21.985  -4.492  -9.911  1.00  0.00    -0.398 OA
HETATM   62  H   UNL     1     -22.846  -4.839 -10.223  1.00  0.00     0.209 HD
ENDBRANCH  60  61
ENDBRANCH  52  60
ENDBRANCH  47  48
ENDBRANCH  37  47
BRANCH  38  63
HETATM   63  C   UNL     1     -18.922 -10.636  -5.920  1.00  0.00     0.198 C 
BRANCH  63  64
HETATM   64  O   UNL     1     -17.825 -10.594  -6.827  1.00  0.00    -0.398 OA
HETATM   65  H   UNL     1     -18.148 -10.911  -7.688  1.00  0.00     0.209 HD
ENDBRANCH  63  64
ENDBRANCH  38  63
ENDBRANCH   1  34
TORSDOF 22
BEGIN_RES ARG D 557
REMARK  4 active torsions:
REMARK  status: ('A' for Active; 'I' for Inactive)
REMARK    1  A    between atoms: CA   and  CB  
REMARK    2  A    between atoms: CB   and  CG  
REMARK    3  A    between atoms: CG   and  CD  
REMARK    4  A    between atoms: CD   and  NE  
REMARK       I    between atoms: NE   and  CZ  
REMARK       I    between atoms: CZ   and  NH1 
REMARK       I    between atoms: CZ   and  NH2 
ROOT
ATOM      1  CA  ARG D 557     -26.217   2.705 -17.014  1.00 35.49     0.159 C 
ENDROOT
BRANCH   1   2
ATOM      2  CB  ARG D 557     -26.789   1.319 -17.183  1.00 35.49     0.034 C 
BRANCH   2   3
ATOM      3  CG  ARG D 557     -28.235   1.225 -17.417  1.00 35.49     0.027 C 
BRANCH   3   4
ATOM      4  CD  ARG D 557     -28.899   0.291 -16.479  1.00 35.49     0.116 C 
BRANCH   4   5
ATOM      5  NE  ARG D 557     -29.285  -0.938 -17.120  1.00 35.49    -0.212 N 
ATOM      6  CZ  ARG D 557     -28.651  -2.086 -17.025  1.00 35.49     0.666 C 
ATOM      7  NH1 ARG D 557     -27.546  -2.229 -16.317  1.00 35.49    -0.235 N 
ATOM      8  NH2 ARG D 557     -29.156  -3.105 -17.659  1.00 35.49    -0.235 N 
ATOM      9  HH  ARG D 557     -27.197  -1.573 -15.891  1.00 35.49     0.174 HD
ATOM     10  HH  ARG D 557     -27.177  -3.002 -16.290  1.00 35.49     0.174 HD
ATOM     11  HH  ARG D 557     -29.874  -2.984 -18.102  1.00 35.49     0.174 HD
ATOM     12  HH  ARG D 557     -28.777  -3.862 -17.618  1.00 35.49     0.174 HD
ATOM     13  HE  ARG D 557     -29.945  -0.920 -17.655  1.00 35.49     0.178 HD
ENDBRANCH   4   5
ENDBRANCH   3   4
ENDBRANCH   2   3
ENDBRANCH   1   2
END_RES ARG D 557
BEGIN_RES GLU D 570
REMARK  3 active torsions:
REMARK  status: ('A' for Active; 'I' for Inactive)
REMARK    5  A    between atoms: CA   and  CB  
REMARK    6  A    between atoms: CB   and  CG  
REMARK    7  A    between atoms: CG   and  CD  
ROOT
ATOM     14  CA  GLU D 570     -18.033  -6.348 -13.375  1.00 32.92     0.160 C 
ENDROOT
BRANCH  14  15
ATOM     15  CB  GLU D 570     -19.500  -6.345 -13.794  1.00 32.92     0.043 C 
BRANCH  15  16
ATOM     16  CG  GLU D 570     -20.454  -5.592 -12.940  1.00 32.92     0.100 C 
BRANCH  16  17
ATOM     17  CD  GLU D 570     -21.730  -5.226 -13.662  1.00 32.92     0.185 C 
ATOM     18  OE1 GLU D 570     -21.724  -5.163 -14.907  1.00 32.92    -0.647 OA
ATOM     19  OE2 GLU D 570     -22.742  -4.984 -12.975  1.00 32.92    -0.647 OA
ENDBRANCH  16  17
ENDBRANCH  15  16
ENDBRANCH  14  15
END_RES GLU D 570
ENDMDL
MODEL 7
REMARK VINA RESULT:      -5.4      2.755     10.824
REMARK  22 active torsions:
REMARK  status: ('A' for Active; 'I' for Inactive)
REMARK       I    between atoms: C_2  and  N_4 
REMARK    1  A    between atoms: N_4  and  C_5 
REMARK    2  A    between atoms: C_6  and  O_51 
REMARK    3  A    between atoms: C_7  and  O_25 
REMARK    4  A    between atoms: C_8  and  C_23 
REMARK    5  A    between atoms: C_10  and  N_11 
REMARK       I    between atoms: N_11  and  C_12 
REMARK    6  A    between atoms: C_12  and  C_14 
REMARK    7  A    between atoms: C_14  and  C_15 
REMARK    8  A    between atoms: C_15  and  C_16 
REMARK    9  A    between atoms: C_15  and  N_19 
REMARK       I    between atoms: C_16  and  N_18 
REMARK       I    between atoms: N_19  and  C_20 
REMARK   10  A    between atoms: C_23  and  O_24 
REMARK   11  A    between atoms: O_25  and  C_26 
REMARK   12  A    between atoms: C_27  and  N_47 
REMARK   13  A    between atoms: C_28  and  O_46 
REMARK   14  A    between atoms: C_29  and  O_34 
REMARK   15  A    between atoms: C_30  and  C_32 
REMARK   16  A    between atoms: C_32  and  O_33 
REMARK   17  A    between atoms: O_34  and  C_35 
REMARK   18  A    between atoms: C_36  and  O_45 
REMARK   19  A    between atoms: C_37  and  O_44 
REMARK   20  A    between atoms: C_38  and  O_43 
REMARK   21  A    between atoms: C_39  and  C_41 
REMARK   22  A    between atoms: C_41  and  O_42 
REMARK       I    between atoms: N_47  and  C_48 
ROOT
HETATM    1  O   UNL     1     -19.345 -11.808  -2.195  1.00  0.00    -0.348 OA
ENDROOT
BRANCH   1   2
HETATM    2  C   UNL     1     -18.990 -10.908  -3.271  1.00  0.00     0.186 C 
HETATM    3  C   UNL     1     -19.513  -9.532  -2.949  1.00  0.00     0.176 C 
HETATM    4  C   UNL     1     -21.020  -9.349  -3.203  1.00  0.00     0.164 C 
HETATM    5  C   UNL     1     -21.330  -9.605  -4.699  1.00  0.00     0.249 C 
HETATM    6  O   UNL     1     -20.819 -10.888  -5.092  1.00  0.00    -0.354 OA
HETATM    7  C   UNL     1     -19.474 -11.277  -4.719  1.00  0.00     0.179 C 
BRANCH   3   8
HETATM    8  O   UNL     1     -18.731  -8.541  -3.629  1.00  0.00    -0.391 OA
HETATM    9  H   UNL     1     -18.514  -8.902  -4.510  1.00  0.00     0.210 HD
ENDBRANCH   3   8
BRANCH   4  10
HETATM   10  N   UNL     1     -21.333  -8.004  -2.710  1.00  0.00    -0.350 N 
HETATM   11  C   UNL     1     -21.975  -7.719  -1.539  1.00  0.00     0.214 C 
HETATM   12  C   UNL     1     -22.079  -6.227  -1.299  1.00  0.00     0.117 C 
HETATM   13  O   UNL     1     -22.408  -8.559  -0.767  1.00  0.00    -0.274 OA
HETATM   14  H   UNL     1     -20.882  -7.222  -3.176  1.00  0.00     0.163 HD
ENDBRANCH   4  10
BRANCH   5  15
HETATM   15  N   UNL     1     -20.803  -8.581  -5.603  1.00  0.00    -0.333 N 
HETATM   16  C   UNL     1     -21.363  -7.319  -5.703  1.00  0.00     0.222 C 
HETATM   17  O   UNL     1     -22.431  -7.000  -5.197  1.00  0.00    -0.273 OA
HETATM   18  H   UNL     1     -20.305  -8.909  -6.414  1.00  0.00     0.165 HD
BRANCH  16  19
HETATM   19  C   UNL     1     -20.514  -6.332  -6.502  1.00  0.00     0.137 C 
BRANCH  19  20
HETATM   20  C   UNL     1     -21.357  -5.630  -7.577  1.00  0.00     0.185 C 
BRANCH  20  21
HETATM   21  C   UNL     1     -22.054  -4.353  -7.007  1.00  0.00     0.238 C 
HETATM   22  O   UNL     1     -21.448  -3.338  -6.706  1.00  0.00    -0.271 OA
HETATM   23  N   UNL     1     -23.400  -4.442  -6.896  1.00  0.00    -0.368 N 
HETATM   24  H   UNL     1     -23.904  -5.311  -7.071  1.00  0.00     0.159 HD
HETATM   25  H   UNL     1     -23.914  -3.675  -6.461  1.00  0.00     0.159 HD
ENDBRANCH  20  21
BRANCH  20  26
HETATM   26  N   UNL     1     -20.527  -5.158  -8.706  1.00  0.00    -0.348 N 
HETATM   27  C   UNL     1     -21.127  -4.697  -9.862  1.00  0.00     0.214 C 
HETATM   28  O   UNL     1     -22.346  -4.731 -10.041  1.00  0.00    -0.274 OA
HETATM   29  C   UNL     1     -20.195  -4.073 -10.849  1.00  0.00     0.117 C 
HETATM   30  H   UNL     1     -19.651  -4.724  -8.463  1.00  0.00     0.163 HD
ENDBRANCH  20  26
ENDBRANCH  19  20
ENDBRANCH  16  19
ENDBRANCH   5  15
BRANCH   7  31
HETATM   31  C   UNL     1     -18.495 -10.701  -5.776  1.00  0.00     0.198 C 
BRANCH  31  32
HETATM   32  O   UNL     1     -17.171 -10.562  -5.277  1.00  0.00    -0.398 OA
HETATM   33  H   UNL     1     -17.012  -9.614  -5.127  1.00  0.00     0.209 HD
ENDBRANCH  31  32
ENDBRANCH   7  31
ENDBRANCH   1   2
BRANCH   1  34
HETATM   34  C   UNL     1     -18.803 -13.167  -2.332  1.00  0.00     0.286 C 
HETATM   35  C   UNL     1     -18.879 -13.983  -1.023  1.00  0.00     0.170 C 
HETATM   36  C   UNL     1     -17.840 -13.422  -0.060  1.00  0.00     0.177 C 
HETATM   37  C   UNL     1     -16.399 -13.548  -0.529  1.00  0.00     0.186 C 
HETATM   38  C   UNL     1     -16.289 -13.165  -2.043  1.00  0.00     0.180 C 
HETATM   39  O   UNL     1     -17.473 -13.301  -2.878  1.00  0.00    -0.349 OA
BRANCH  35  40
HETATM   40  N   UNL     1     -20.247 -14.105  -0.470  1.00  0.00    -0.349 N 
HETATM   41  C   UNL     1     -20.633 -14.955   0.560  1.00  0.00     0.214 C 
HETATM   42  O   UNL     1     -19.925 -15.769   1.133  1.00  0.00    -0.274 OA
HETATM   43  C   UNL     1     -22.068 -14.818   0.969  1.00  0.00     0.117 C 
HETATM   44  H   UNL     1     -20.979 -13.598  -0.952  1.00  0.00     0.163 HD
ENDBRANCH  35  40
BRANCH  36  45
HETATM   45  O   UNL     1     -18.061 -12.030   0.194  1.00  0.00    -0.391 OA
HETATM   46  H   UNL     1     -17.637 -11.542  -0.536  1.00  0.00     0.210 HD
ENDBRANCH  36  45
BRANCH  37  47
HETATM   47  O   UNL     1     -15.661 -14.689   0.007  1.00  0.00    -0.348 OA
BRANCH  47  48
HETATM   48  C   UNL     1     -14.442 -14.319   0.751  1.00  0.00     0.292 C 
HETATM   49  C   UNL     1     -13.040 -14.429   0.086  1.00  0.00     0.204 C 
HETATM   50  C   UNL     1     -12.272 -15.697   0.425  1.00  0.00     0.183 C 
HETATM   51  C   UNL     1     -12.233 -15.947   1.930  1.00  0.00     0.180 C 
HETATM   52  C   UNL     1     -13.517 -15.577   2.703  1.00  0.00     0.179 C 
HETATM   53  O   UNL     1     -14.520 -14.764   2.097  1.00  0.00    -0.348 OA
BRANCH  49  54
HETATM   54  O   UNL     1     -13.019 -14.241  -1.332  1.00  0.00    -0.388 OA
HETATM   55  H   UNL     1     -13.614 -14.943  -1.674  1.00  0.00     0.210 HD
ENDBRANCH  49  54
BRANCH  50  56
HETATM   56  O   UNL     1     -12.828 -16.784  -0.318  1.00  0.00    -0.390 OA
HETATM   57  H   UNL     1     -12.266 -16.942  -1.101  1.00  0.00     0.210 HD
ENDBRANCH  50  56
BRANCH  51  58
HETATM   58  O   UNL     1     -11.123 -15.245   2.530  1.00  0.00    -0.390 OA
HETATM   59  H   UNL     1     -11.427 -14.653   3.238  1.00  0.00     0.210 HD
ENDBRANCH  51  58
BRANCH  52  60
HETATM   60  C   UNL     1     -14.273 -16.821   3.172  1.00  0.00     0.198 C 
BRANCH  60  61
HETATM   61  O   UNL     1     -15.660 -16.522   3.302  1.00  0.00    -0.398 OA
HETATM   62  H   UNL     1     -15.875 -16.662   4.247  1.00  0.00     0.209 HD
ENDBRANCH  60  61
ENDBRANCH  52  60
ENDBRANCH  47  48
ENDBRANCH  37  47
BRANCH  38  63
HETATM   63  C   UNL     1     -15.787 -11.694  -2.125  1.00  0.00     0.198 C 
BRANCH  63  64
HETATM   64  O   UNL     1     -15.188 -11.383  -3.379  1.00  0.00    -0.398 OA
HETATM   65  H   UNL     1     -14.239 -11.236  -3.220  1.00  0.00     0.209 HD
ENDBRANCH  63  64
ENDBRANCH  38  63
ENDBRANCH   1  34
TORSDOF 22
BEGIN_RES ARG D 557
REMARK  4 active torsions:
REMARK  status: ('A' for Active; 'I' for Inactive)
REMARK    1  A    between atoms: CA   and  CB  
REMARK    2  A    between atoms: CB   and  CG  
REMARK    3  A    between atoms: CG   and  CD  
REMARK    4  A    between atoms: CD   and  NE  
REMARK       I    between atoms: NE   and  CZ  
REMARK       I    between atoms: CZ   and  NH1 
REMARK       I    between atoms: CZ   and  NH2 
ROOT
ATOM      1  CA  ARG D 557     -26.217   2.705 -17.014  1.00 35.49     0.159 C 
ENDROOT
BRANCH   1   2
ATOM      2  CB  ARG D 557     -26.789   1.319 -17.183  1.00 35.49     0.034 C 
BRANCH   2   3
ATOM      3  CG  ARG D 557     -28.186   1.126 -16.775  1.00 35.49     0.027 C 
BRANCH   3   4
ATOM      4  CD  ARG D 557     -28.717  -0.193 -17.187  1.00 35.49     0.116 C 
BRANCH   4   5
ATOM      5  NE  ARG D 557     -27.993  -1.281 -16.585  1.00 35.49    -0.212 N 
ATOM      6  CZ  ARG D 557     -28.230  -2.560 -16.775  1.00 35.49     0.666 C 
ATOM      7  NH1 ARG D 557     -29.203  -2.992 -17.556  1.00 35.49    -0.235 N 
ATOM      8  NH2 ARG D 557     -27.458  -3.411 -16.164  1.00 35.49    -0.235 N 
ATOM      9  HH  ARG D 557     -29.722  -2.450 -17.969  1.00 35.49     0.174 HD
ATOM     10  HH  ARG D 557     -29.309  -3.838 -17.644  1.00 35.49     0.174 HD
ATOM     11  HH  ARG D 557     -26.833  -3.103 -15.672  1.00 35.49     0.174 HD
ATOM     12  HH  ARG D 557     -27.578  -4.244 -16.265  1.00 35.49     0.174 HD
ATOM     13  HE  ARG D 557     -27.395  -1.094 -16.010  1.00 35.49     0.178 HD
ENDBRANCH   4   5
ENDBRANCH   3   4
ENDBRANCH   2   3
ENDBRANCH   1   2
END_RES ARG D 557
BEGIN_RES GLU D 570
REMARK  3 active torsions:
REMARK  status: ('A' for Active; 'I' for Inactive)
REMARK    5  A    between atoms: CA   and  CB  
REMARK    6  A    between atoms: CB   and  CG  
REMARK    7  A    between atoms: CG   and  CD  
ROOT
ATOM     14  CA  GLU D 570     -18.033  -6.348 -13.375  1.00 32.92     0.160 C 
ENDROOT
BRANCH  14  15
ATOM     15  CB  GLU D 570     -19.500  -6.345 -13.794  1.00 32.92     0.043 C 
BRANCH  15  16
ATOM     16  CG  GLU D 570     -19.817  -6.775 -15.180  1.00 32.92     0.100 C 
BRANCH  16  17
ATOM     17  CD  GLU D 570     -20.647  -5.764 -15.936  1.00 32.92     0.185 C 
ATOM     18  OE1 GLU D 570     -21.443  -5.042 -15.305  1.00 32.92    -0.647 OA
ATOM     19  OE2 GLU D 570     -20.513  -5.705 -17.174  1.00 32.92    -0.647 OA
ENDBRANCH  16  17
ENDBRANCH  15  16
ENDBRANCH  14  15
END_RES GLU D 570
ENDMDL
MODEL 8
REMARK VINA RESULT:      -5.4      2.613      4.251
REMARK  22 active torsions:
REMARK  status: ('A' for Active; 'I' for Inactive)
REMARK       I    between atoms: C_2  and  N_4 
REMARK    1  A    between atoms: N_4  and  C_5 
REMARK    2  A    between atoms: C_6  and  O_51 
REMARK    3  A    between atoms: C_7  and  O_25 
REMARK    4  A    between atoms: C_8  and  C_23 
REMARK    5  A    between atoms: C_10  and  N_11 
REMARK       I    between atoms: N_11  and  C_12 
REMARK    6  A    between atoms: C_12  and  C_14 
REMARK    7  A    between atoms: C_14  and  C_15 
REMARK    8  A    between atoms: C_15  and  C_16 
REMARK    9  A    between atoms: C_15  and  N_19 
REMARK       I    between atoms: C_16  and  N_18 
REMARK       I    between atoms: N_19  and  C_20 
REMARK   10  A    between atoms: C_23  and  O_24 
REMARK   11  A    between atoms: O_25  and  C_26 
REMARK   12  A    between atoms: C_27  and  N_47 
REMARK   13  A    between atoms: C_28  and  O_46 
REMARK   14  A    between atoms: C_29  and  O_34 
REMARK   15  A    between atoms: C_30  and  C_32 
REMARK   16  A    between atoms: C_32  and  O_33 
REMARK   17  A    between atoms: O_34  and  C_35 
REMARK   18  A    between atoms: C_36  and  O_45 
REMARK   19  A    between atoms: C_37  and  O_44 
REMARK   20  A    between atoms: C_38  and  O_43 
REMARK   21  A    between atoms: C_39  and  C_41 
REMARK   22  A    between atoms: C_41  and  O_42 
REMARK       I    between atoms: N_47  and  C_48 
ROOT
HETATM    1  O   UNL     1     -20.149  -9.523  -2.832  1.00  0.00    -0.348 OA
ENDROOT
BRANCH   1   2
HETATM    2  C   UNL     1     -20.183 -10.562  -1.826  1.00  0.00     0.186 C 
HETATM    3  C   UNL     1     -18.794 -11.122  -1.659  1.00  0.00     0.176 C 
HETATM    4  C   UNL     1     -18.369 -12.110  -2.761  1.00  0.00     0.164 C 
HETATM    5  C   UNL     1     -19.338 -13.318  -2.779  1.00  0.00     0.249 C 
HETATM    6  O   UNL     1     -20.693 -12.857  -2.893  1.00  0.00    -0.354 OA
HETATM    7  C   UNL     1     -21.161 -11.769  -2.057  1.00  0.00     0.179 C 
BRANCH   3   8
HETATM    8  O   UNL     1     -18.650 -11.688  -0.349  1.00  0.00    -0.391 OA
HETATM    9  H   UNL     1     -19.446 -12.229  -0.182  1.00  0.00     0.210 HD
ENDBRANCH   3   8
BRANCH   4  10
HETATM   10  N   UNL     1     -16.966 -12.424  -2.476  1.00  0.00    -0.350 N 
HETATM   11  C   UNL     1     -16.000 -12.660  -3.411  1.00  0.00     0.214 C 
HETATM   12  C   UNL     1     -14.642 -12.889  -2.779  1.00  0.00     0.117 C 
HETATM   13  O   UNL     1     -16.195 -12.676  -4.615  1.00  0.00    -0.274 OA
HETATM   14  H   UNL     1     -16.641 -12.278  -1.524  1.00  0.00     0.163 HD
ENDBRANCH   4  10
BRANCH   5  15
HETATM   15  N   UNL     1     -19.225 -14.193  -1.610  1.00  0.00    -0.333 N 
HETATM   16  C   UNL     1     -18.803 -15.507  -1.704  1.00  0.00     0.222 C 
HETATM   17  O   UNL     1     -18.657 -16.107  -2.760  1.00  0.00    -0.273 OA
HETATM   18  H   UNL     1     -19.817 -13.974  -0.825  1.00  0.00     0.165 HD
BRANCH  16  19
HETATM   19  C   UNL     1     -18.511 -16.156  -0.352  1.00  0.00     0.137 C 
BRANCH  19  20
HETATM   20  C   UNL     1     -18.789 -15.175   0.797  1.00  0.00     0.185 C 
BRANCH  20  21
HETATM   21  C   UNL     1     -19.928 -15.700   1.729  1.00  0.00     0.238 C 
HETATM   22  O   UNL     1     -21.110 -15.463   1.540  1.00  0.00    -0.271 OA
HETATM   23  N   UNL     1     -19.508 -16.473   2.757  1.00  0.00    -0.368 N 
HETATM   24  H   UNL     1     -18.520 -16.611   2.966  1.00  0.00     0.159 HD
HETATM   25  H   UNL     1     -20.188 -16.789   3.450  1.00  0.00     0.159 HD
ENDBRANCH  20  21
BRANCH  20  26
HETATM   26  N   UNL     1     -17.610 -15.003   1.672  1.00  0.00    -0.348 N 
HETATM   27  C   UNL     1     -16.635 -14.079   1.347  1.00  0.00     0.214 C 
HETATM   28  O   UNL     1     -16.654 -13.428   0.300  1.00  0.00    -0.274 OA
HETATM   29  C   UNL     1     -15.596 -13.863   2.399  1.00  0.00     0.117 C 
HETATM   30  H   UNL     1     -17.759 -15.155   2.656  1.00  0.00     0.163 HD
ENDBRANCH  20  26
ENDBRANCH  19  20
ENDBRANCH  16  19
ENDBRANCH   5  15
BRANCH   7  31
HETATM   31  C   UNL     1     -21.609 -12.365  -0.697  1.00  0.00     0.198 C 
BRANCH  31  32
HETATM   32  O   UNL     1     -21.583 -11.409   0.356  1.00  0.00    -0.398 OA
HETATM   33  H   UNL     1     -22.398 -11.523   0.875  1.00  0.00     0.209 HD
ENDBRANCH  31  32
ENDBRANCH   7  31
ENDBRANCH   1   2
BRANCH   1  34
HETATM   34  C   UNL     1     -21.377  -9.410  -3.633  1.00  0.00     0.286 C 
HETATM   35  C   UNL     1     -21.101  -9.265  -5.146  1.00  0.00     0.170 C 
HETATM   36  C   UNL     1     -20.543  -7.868  -5.389  1.00  0.00     0.177 C 
HETATM   37  C   UNL     1     -21.492  -6.731  -5.043  1.00  0.00     0.186 C 
HETATM   38  C   UNL     1     -22.203  -7.018  -3.678  1.00  0.00     0.180 C 
HETATM   39  O   UNL     1     -22.334  -8.401  -3.244  1.00  0.00    -0.349 OA
BRANCH  35  40
HETATM   40  N   UNL     1     -20.299 -10.370  -5.718  1.00  0.00    -0.349 N 
HETATM   41  C   UNL     1     -20.792 -11.604  -6.125  1.00  0.00     0.214 C 
HETATM   42  O   UNL     1     -21.946 -11.992  -6.029  1.00  0.00    -0.274 OA
HETATM   43  C   UNL     1     -19.766 -12.508  -6.738  1.00  0.00     0.117 C 
HETATM   44  H   UNL     1     -19.294 -10.250  -5.718  1.00  0.00     0.163 HD
ENDBRANCH  35  40
BRANCH  36  45
HETATM   45  O   UNL     1     -19.350  -7.642  -4.630  1.00  0.00    -0.391 OA
HETATM   46  H   UNL     1     -19.005  -6.772  -4.902  1.00  0.00     0.210 HD
ENDBRANCH  36  45
BRANCH  37  47
HETATM   47  O   UNL     1     -22.236  -6.169  -6.168  1.00  0.00    -0.348 OA
BRANCH  47  48
HETATM   48  C   UNL     1     -21.408  -5.888  -7.355  1.00  0.00     0.292 C 
HETATM   49  C   UNL     1     -20.275  -4.824  -7.300  1.00  0.00     0.204 C 
HETATM   50  C   UNL     1     -20.656  -3.458  -7.849  1.00  0.00     0.183 C 
HETATM   51  C   UNL     1     -21.300  -3.565  -9.229  1.00  0.00     0.180 C 
HETATM   52  C   UNL     1     -22.224  -4.784  -9.443  1.00  0.00     0.179 C 
HETATM   53  O   UNL     1     -22.202  -5.880  -8.532  1.00  0.00    -0.348 OA
BRANCH  49  54
HETATM   54  O   UNL     1     -19.657  -4.652  -6.021  1.00  0.00    -0.388 OA
HETATM   55  H   UNL     1     -19.684  -3.682  -5.873  1.00  0.00     0.210 HD
ENDBRANCH  49  54
BRANCH  50  56
HETATM   56  O   UNL     1     -21.476  -2.789  -6.889  1.00  0.00    -0.390 OA
HETATM   57  H   UNL     1     -21.591  -3.377  -6.118  1.00  0.00     0.210 HD
ENDBRANCH  50  56
BRANCH  51  58
HETATM   58  O   UNL     1     -20.288  -3.575 -10.259  1.00  0.00    -0.390 OA
HETATM   59  H   UNL     1     -20.615  -3.158 -11.073  1.00  0.00     0.210 HD
ENDBRANCH  51  58
BRANCH  52  60
HETATM   60  C   UNL     1     -23.696  -4.373  -9.504  1.00  0.00     0.198 C 
BRANCH  60  61
HETATM   61  O   UNL     1     -24.080  -3.771  -8.271  1.00  0.00    -0.398 OA
HETATM   62  H   UNL     1     -24.723  -4.387  -7.864  1.00  0.00     0.209 HD
ENDBRANCH  60  61
ENDBRANCH  52  60
ENDBRANCH  47  48
ENDBRANCH  37  47
BRANCH  38  63
HETATM   63  C   UNL     1     -21.450  -6.219  -2.574  1.00  0.00     0.198 C 
BRANCH  63  64
HETATM   64  O   UNL     1     -22.328  -5.646  -1.610  1.00  0.00    -0.398 OA
HETATM   65  H   UNL     1     -21.937  -4.802  -1.326  1.00  0.00     0.209 HD
ENDBRANCH  63  64
ENDBRANCH  38  63
ENDBRANCH   1  34
TORSDOF 22
BEGIN_RES ARG D 557
REMARK  4 active torsions:
REMARK  status: ('A' for Active; 'I' for Inactive)
REMARK    1  A    between atoms: CA   and  CB  
REMARK    2  A    between atoms: CB   and  CG  
REMARK    3  A    between atoms: CG   and  CD  
REMARK    4  A    between atoms: CD   and  NE  
REMARK       I    between atoms: NE   and  CZ  
REMARK       I    between atoms: CZ   and  NH1 
REMARK       I    between atoms: CZ   and  NH2 
ROOT
ATOM      1  CA  ARG D 557     -26.217   2.705 -17.014  1.00 35.49     0.159 C 
ENDROOT
BRANCH   1   2
ATOM      2  CB  ARG D 557     -26.789   1.319 -17.183  1.00 35.49     0.034 C 
BRANCH   2   3
ATOM      3  CG  ARG D 557     -28.238   1.175 -16.996  1.00 35.49     0.027 C 
BRANCH   3   4
ATOM      4  CD  ARG D 557     -28.631  -0.219 -16.690  1.00 35.49     0.116 C 
BRANCH   4   5
ATOM      5  NE  ARG D 557     -27.588  -0.941 -16.010  1.00 35.49    -0.212 N 
ATOM      6  CZ  ARG D 557     -27.386  -2.238 -16.071  1.00 35.49     0.666 C 
ATOM      7  NH1 ARG D 557     -28.157  -3.044 -16.778  1.00 35.49    -0.235 N 
ATOM      8  NH2 ARG D 557     -26.376  -2.720 -15.406  1.00 35.49    -0.235 N 
ATOM      9  HH  ARG D 557     -28.825  -2.748 -17.225  1.00 35.49     0.174 HD
ATOM     10  HH  ARG D 557     -27.975  -3.881 -16.782  1.00 35.49     0.174 HD
ATOM     11  HH  ARG D 557     -25.891  -2.175 -14.964  1.00 35.49     0.174 HD
ATOM     12  HH  ARG D 557     -26.212  -3.551 -15.424  1.00 35.49     0.174 HD
ATOM     13  HE  ARG D 557     -27.088  -0.509 -15.474  1.00 35.49     0.178 HD
ENDBRANCH   4   5
ENDBRANCH   3   4
ENDBRANCH   2   3
ENDBRANCH   1   2
END_RES ARG D 557
BEGIN_RES GLU D 570
REMARK  3 active torsions:
REMARK  status: ('A' for Active; 'I' for Inactive)
REMARK    5  A    between atoms: CA   and  CB  
REMARK    6  A    between atoms: CB   and  CG  
REMARK    7  A    between atoms: CG   and  CD  
ROOT
ATOM     14  CA  GLU D 570     -18.033  -6.348 -13.375  1.00 32.92     0.160 C 
ENDROOT
BRANCH  14  15
ATOM     15  CB  GLU D 570     -19.500  -6.345 -13.794  1.00 32.92     0.043 C 
BRANCH  15  16
ATOM     16  CG  GLU D 570     -20.451  -5.574 -12.952  1.00 32.92     0.100 C 
BRANCH  16  17
ATOM     17  CD  GLU D 570     -21.703  -5.170 -13.695  1.00 32.92     0.185 C 
ATOM     18  OE1 GLU D 570     -21.643  -4.987 -14.926  1.00 32.92    -0.647 OA
ATOM     19  OE2 GLU D 570     -22.751  -5.020 -13.037  1.00 32.92    -0.647 OA
ENDBRANCH  16  17
ENDBRANCH  15  16
ENDBRANCH  14  15
END_RES GLU D 570
ENDMDL
MODEL 9
REMARK VINA RESULT:      -5.2      2.102      2.754
REMARK  22 active torsions:
REMARK  status: ('A' for Active; 'I' for Inactive)
REMARK       I    between atoms: C_2  and  N_4 
REMARK    1  A    between atoms: N_4  and  C_5 
REMARK    2  A    between atoms: C_6  and  O_51 
REMARK    3  A    between atoms: C_7  and  O_25 
REMARK    4  A    between atoms: C_8  and  C_23 
REMARK    5  A    between atoms: C_10  and  N_11 
REMARK       I    between atoms: N_11  and  C_12 
REMARK    6  A    between atoms: C_12  and  C_14 
REMARK    7  A    between atoms: C_14  and  C_15 
REMARK    8  A    between atoms: C_15  and  C_16 
REMARK    9  A    between atoms: C_15  and  N_19 
REMARK       I    between atoms: C_16  and  N_18 
REMARK       I    between atoms: N_19  and  C_20 
REMARK   10  A    between atoms: C_23  and  O_24 
REMARK   11  A    between atoms: O_25  and  C_26 
REMARK   12  A    between atoms: C_27  and  N_47 
REMARK   13  A    between atoms: C_28  and  O_46 
REMARK   14  A    between atoms: C_29  and  O_34 
REMARK   15  A    between atoms: C_30  and  C_32 
REMARK   16  A    between atoms: C_32  and  O_33 
REMARK   17  A    between atoms: O_34  and  C_35 
REMARK   18  A    between atoms: C_36  and  O_45 
REMARK   19  A    between atoms: C_37  and  O_44 
REMARK   20  A    between atoms: C_38  and  O_43 
REMARK   21  A    between atoms: C_39  and  C_41 
REMARK   22  A    between atoms: C_41  and  O_42 
REMARK       I    between atoms: N_47  and  C_48 
ROOT
HETATM    1  O   UNL     1     -19.574 -12.968  -2.473  1.00  0.00    -0.348 OA
ENDROOT
BRANCH   1   2
HETATM    2  C   UNL     1     -18.903 -13.543  -1.328  1.00  0.00     0.186 C 
HETATM    3  C   UNL     1     -17.416 -13.372  -1.498  1.00  0.00     0.176 C 
HETATM    4  C   UNL     1     -16.766 -14.377  -2.467  1.00  0.00     0.164 C 
HETATM    5  C   UNL     1     -16.994 -15.819  -1.950  1.00  0.00     0.249 C 
HETATM    6  O   UNL     1     -18.394 -16.042  -1.722  1.00  0.00    -0.354 OA
HETATM    7  C   UNL     1     -19.177 -15.056  -1.007  1.00  0.00     0.179 C 
BRANCH   3   8
HETATM    8  O   UNL     1     -16.774 -13.374  -0.215  1.00  0.00    -0.391 OA
HETATM    9  H   UNL     1     -16.282 -14.215  -0.143  1.00  0.00     0.210 HD
ENDBRANCH   3   8
BRANCH   4  10
HETATM   10  N   UNL     1     -15.367 -13.954  -2.579  1.00  0.00    -0.350 N 
HETATM   11  C   UNL     1     -14.785 -13.430  -3.697  1.00  0.00     0.214 C 
HETATM   12  C   UNL     1     -13.342 -13.037  -3.452  1.00  0.00     0.117 C 
HETATM   13  O   UNL     1     -15.353 -13.282  -4.766  1.00  0.00    -0.274 OA
HETATM   14  H   UNL     1     -14.837 -13.871  -1.716  1.00  0.00     0.163 HD
ENDBRANCH   4  10
BRANCH   5  15
HETATM   15  N   UNL     1     -16.251 -16.141  -0.731  1.00  0.00    -0.333 N 
HETATM   16  C   UNL     1     -14.919 -16.516  -0.749  1.00  0.00     0.222 C 
HETATM   17  O   UNL     1     -14.295 -16.782  -1.767  1.00  0.00    -0.273 OA
HETATM   18  H   UNL     1     -16.792 -16.471   0.053  1.00  0.00     0.165 HD
BRANCH  16  19
HETATM   19  C   UNL     1     -14.273 -16.555   0.635  1.00  0.00     0.137 C 
BRANCH  19  20
HETATM   20  C   UNL     1     -14.015 -15.134   1.158  1.00  0.00     0.185 C 
BRANCH  20  21
HETATM   21  C   UNL     1     -14.790 -14.870   2.489  1.00  0.00     0.238 C 
HETATM   22  O   UNL     1     -14.470 -15.362   3.559  1.00  0.00    -0.271 OA
HETATM   23  N   UNL     1     -15.839 -14.023   2.377  1.00  0.00    -0.368 N 
HETATM   24  H   UNL     1     -16.160 -13.670   1.475  1.00  0.00     0.159 HD
HETATM   25  H   UNL     1     -16.438 -13.862   3.188  1.00  0.00     0.159 HD
ENDBRANCH  20  21
BRANCH  20  26
HETATM   26  N   UNL     1     -12.589 -14.916   1.481  1.00  0.00    -0.348 N 
HETATM   27  C   UNL     1     -11.720 -14.464   0.507  1.00  0.00     0.214 C 
HETATM   28  O   UNL     1     -12.058 -14.301  -0.667  1.00  0.00    -0.274 OA
HETATM   29  C   UNL     1     -10.355 -14.103   0.999  1.00  0.00     0.117 C 
HETATM   30  H   UNL     1     -12.385 -14.622   2.422  1.00  0.00     0.163 HD
ENDBRANCH  20  26
ENDBRANCH  19  20
ENDBRANCH  16  19
ENDBRANCH   5  15
BRANCH   7  31
HETATM   31  C   UNL     1     -19.014 -15.320   0.513  1.00  0.00     0.198 C 
BRANCH  31  32
HETATM   32  O   UNL     1     -20.179 -14.983   1.256  1.00  0.00    -0.398 OA
HETATM   33  H   UNL     1     -20.951 -15.227   0.716  1.00  0.00     0.209 HD
ENDBRANCH  31  32
ENDBRANCH   7  31
ENDBRANCH   1   2
BRANCH   1  34
HETATM   34  C   UNL     1     -19.614 -11.499  -2.482  1.00  0.00     0.286 C 
HETATM   35  C   UNL     1     -21.029 -10.933  -2.734  1.00  0.00     0.170 C 
HETATM   36  C   UNL     1     -21.378 -11.177  -4.197  1.00  0.00     0.177 C 
HETATM   37  C   UNL     1     -20.478 -10.467  -5.196  1.00  0.00     0.186 C 
HETATM   38  C   UNL     1     -18.980 -10.595  -4.760  1.00  0.00     0.180 C 
HETATM   39  O   UNL     1     -18.686 -10.813  -3.351  1.00  0.00    -0.349 OA
BRANCH  35  40
HETATM   40  N   UNL     1     -22.043 -11.399  -1.761  1.00  0.00    -0.349 N 
HETATM   41  C   UNL     1     -22.805 -10.584  -0.932  1.00  0.00     0.214 C 
HETATM   42  O   UNL     1     -22.725  -9.369  -0.835  1.00  0.00    -0.274 OA
HETATM   43  C   UNL     1     -23.810 -11.319  -0.098  1.00  0.00     0.117 C 
HETATM   44  H   UNL     1     -22.112 -12.398  -1.619  1.00  0.00     0.163 HD
ENDBRANCH  35  40
BRANCH  36  45
HETATM   45  O   UNL     1     -21.320 -12.570  -4.523  1.00  0.00    -0.391 OA
HETATM   46  H   UNL     1     -20.837 -12.641  -5.367  1.00  0.00     0.210 HD
ENDBRANCH  36  45
BRANCH  37  47
HETATM   47  O   UNL     1     -20.995  -9.206  -5.723  1.00  0.00    -0.348 OA
BRANCH  47  48
HETATM   48  C   UNL     1     -20.256  -8.015  -5.264  1.00  0.00     0.292 C 
HETATM   49  C   UNL     1     -20.792  -7.151  -4.087  1.00  0.00     0.204 C 
HETATM   50  C   UNL     1     -21.559  -5.907  -4.508  1.00  0.00     0.183 C 
HETATM   51  C   UNL     1     -20.786  -5.089  -5.538  1.00  0.00     0.180 C 
HETATM   52  C   UNL     1     -19.984  -5.905  -6.574  1.00  0.00     0.179 C 
HETATM   53  O   UNL     1     -19.731  -7.293  -6.368  1.00  0.00    -0.348 OA
BRANCH  49  54
HETATM   54  O   UNL     1     -21.558  -7.857  -3.107  1.00  0.00    -0.388 OA
HETATM   55  H   UNL     1     -22.154  -7.173  -2.733  1.00  0.00     0.210 HD
ENDBRANCH  49  54
BRANCH  50  56
HETATM   56  O   UNL     1     -22.860  -6.298  -4.953  1.00  0.00    -0.390 OA
HETATM   57  H   UNL     1     -22.785  -6.635  -5.867  1.00  0.00     0.210 HD
ENDBRANCH  50  56
BRANCH  51  58
HETATM   58  O   UNL     1     -19.882  -4.175  -4.880  1.00  0.00    -0.390 OA
HETATM   59  H   UNL     1     -20.350  -3.379  -4.577  1.00  0.00     0.210 HD
ENDBRANCH  51  58
BRANCH  52  60
HETATM   60  C   UNL     1     -20.623  -5.840  -7.962  1.00  0.00     0.198 C 
BRANCH  60  61
HETATM   61  O   UNL     1     -19.977  -4.838  -8.744  1.00  0.00    -0.398 OA
HETATM   62  H   UNL     1     -20.130  -3.994  -8.271  1.00  0.00     0.209 HD
ENDBRANCH  60  61
ENDBRANCH  52  60
ENDBRANCH  47  48
ENDBRANCH  37  47
BRANCH  38  63
HETATM   63  C   UNL     1     -18.343 -11.751  -5.585  1.00  0.00     0.198 C 
BRANCH  63  64
HETATM   64  O   UNL     1     -18.443 -13.015  -4.935  1.00  0.00    -0.398 OA
HETATM   65  H   UNL     1     -19.112 -13.535  -5.412  1.00  0.00     0.209 HD
ENDBRANCH  63  64
ENDBRANCH  38  63
ENDBRANCH   1  34
TORSDOF 22
BEGIN_RES ARG D 557
REMARK  4 active torsions:
REMARK  status: ('A' for Active; 'I' for Inactive)
REMARK    1  A    between atoms: CA   and  CB  
REMARK    2  A    between atoms: CB   and  CG  
REMARK    3  A    between atoms: CG   and  CD  
REMARK    4  A    between atoms: CD   and  NE  
REMARK       I    between atoms: NE   and  CZ  
REMARK       I    between atoms: CZ   and  NH1 
REMARK       I    between atoms: CZ   and  NH2 
ROOT
ATOM      1  CA  ARG D 557     -26.217   2.705 -17.014  1.00 35.49     0.159 C 
ENDROOT
BRANCH   1   2
ATOM      2  CB  ARG D 557     -26.789   1.319 -17.183  1.00 35.49     0.034 C 
BRANCH   2   3
ATOM      3  CG  ARG D 557     -28.218   1.154 -16.890  1.00 35.49     0.027 C 
BRANCH   3   4
ATOM      4  CD  ARG D 557     -28.612  -0.270 -16.788  1.00 35.49     0.116 C 
BRANCH   4   5
ATOM      5  NE  ARG D 557     -27.631  -1.055 -16.086  1.00 35.49    -0.212 N 
ATOM      6  CZ  ARG D 557     -27.501  -2.361 -16.155  1.00 35.49     0.666 C 
ATOM      7  NH1 ARG D 557     -28.295  -3.116 -16.891  1.00 35.49    -0.235 N 
ATOM      8  NH2 ARG D 557     -26.540  -2.905 -15.466  1.00 35.49    -0.235 N 
ATOM      9  HH  ARG D 557     -28.933  -2.778 -17.354  1.00 35.49     0.174 HD
ATOM     10  HH  ARG D 557     -28.161  -3.962 -16.899  1.00 35.49     0.174 HD
ATOM     11  HH  ARG D 557     -26.038  -2.393 -15.005  1.00 35.49     0.174 HD
ATOM     12  HH  ARG D 557     -26.422  -3.745 -15.488  1.00 35.49     0.174 HD
ATOM     13  HE  ARG D 557     -27.124  -0.657 -15.532  1.00 35.49     0.178 HD
ENDBRANCH   4   5
ENDBRANCH   3   4
ENDBRANCH   2   3
ENDBRANCH   1   2
END_RES ARG D 557
BEGIN_RES GLU D 570
REMARK  3 active torsions:
REMARK  status: ('A' for Active; 'I' for Inactive)
REMARK    5  A    between atoms: CA   and  CB  
REMARK    6  A    between atoms: CB   and  CG  
REMARK    7  A    between atoms: CG   and  CD  
ROOT
ATOM     14  CA  GLU D 570     -18.033  -6.348 -13.375  1.00 32.92     0.160 C 
ENDROOT
BRANCH  14  15
ATOM     15  CB  GLU D 570     -19.500  -6.345 -13.794  1.00 32.92     0.043 C 
BRANCH  15  16
ATOM     16  CG  GLU D 570     -20.447  -5.553 -12.967  1.00 32.92     0.100 C 
BRANCH  16  17
ATOM     17  CD  GLU D 570     -21.704  -5.171 -13.712  1.00 32.92     0.185 C 
ATOM     18  OE1 GLU D 570     -22.770  -5.050 -13.079  1.00 32.92    -0.647 OA
ATOM     19  OE2 GLU D 570     -21.625  -5.008 -14.946  1.00 32.92    -0.647 OA
ENDBRANCH  16  17
ENDBRANCH  15  16
ENDBRANCH  14  15
END_RES GLU D 570
ENDMDL
