MODEL 1
REMARK VINA RESULT:      -1.3      0.000      0.000
REMARK WARNING: 32 MAX_TORS EXCEEDED!!!
REMARK  98 active torsions:
REMARK  status: ('A' for Active; 'I' for Inactive)
REMARK    1  A    between atoms: C_2  and  C_3 
REMARK    2  A    between atoms: C_3  and  C_4 
REMARK    3  A    between atoms: C_4  and  C_5 
REMARK    4  A    between atoms: C_5  and  C_6 
REMARK    5  A    between atoms: C_6  and  C_7 
REMARK    6  A    between atoms: C_7  and  C_8 
REMARK    7  A    between atoms: C_8  and  C_9 
REMARK    8  A    between atoms: C_9  and  C_10 
REMARK    9  A    between atoms: C_10  and  C_11 
REMARK   10  A    between atoms: C_11  and  C_12 
REMARK   11  A    between atoms: C_12  and  C_13 
REMARK   12  A    between atoms: C_13  and  C_14 
REMARK   13  A    between atoms: C_14  and  C_15 
REMARK   14  A    between atoms: C_15  and  C_16 
REMARK   15  A    between atoms: C_16  and  C_17 
REMARK   16  A    between atoms: C_17  and  C_18 
REMARK   17  A    between atoms: C_22  and  C_23 
REMARK   18  A    between atoms: C_23  and  C_24 
REMARK   19  A    between atoms: C_24  and  C_25 
REMARK   20  A    between atoms: C_25  and  C_26 
REMARK   21  A    between atoms: C_26  and  C_27 
REMARK   22  A    between atoms: C_27  and  C_28 
REMARK   23  A    between atoms: C_28  and  C_29 
REMARK   24  A    between atoms: C_29  and  C_30 
REMARK   25  A    between atoms: C_30  and  C_31 
REMARK   26  A    between atoms: C_31  and  C_32 
REMARK   27  A    between atoms: C_32  and  C_33 
REMARK   28  A    between atoms: C_33  and  C_34 
REMARK   29  A    between atoms: C_34  and  C_35 
REMARK   30  A    between atoms: C_35  and  C_36 
REMARK   31  A    between atoms: C_36  and  C_37 
REMARK   32  A    between atoms: C_37  and  C_38 
REMARK   33  A    between atoms: C_42  and  C_43 
REMARK   34  A    between atoms: C_43  and  C_44 
REMARK   35  A    between atoms: C_44  and  C_45 
REMARK   36  A    between atoms: C_45  and  C_46 
REMARK   37  A    between atoms: C_46  and  C_47 
REMARK   38  A    between atoms: C_47  and  C_48 
REMARK   39  A    between atoms: C_48  and  C_49 
REMARK   40  A    between atoms: C_49  and  C_50 
REMARK   41  A    between atoms: C_50  and  C_51 
REMARK   42  A    between atoms: C_51  and  C_52 
REMARK   43  A    between atoms: C_52  and  C_53 
REMARK   44  A    between atoms: C_53  and  C_54 
REMARK   45  A    between atoms: C_54  and  C_55 
REMARK   46  A    between atoms: C_55  and  C_56 
REMARK   47  A    between atoms: C_56  and  C_57 
REMARK   48  A    between atoms: C_57  and  C_58 
REMARK   49  A    between atoms: C_58  and  O_60 
REMARK   50  A    between atoms: O_60  and  C_61 
REMARK   51  A    between atoms: C_61  and  C_62 
REMARK   52  A    between atoms: C_62  and  C_63 
REMARK   53  A    between atoms: C_62  and  O_65 
REMARK   54  A    between atoms: C_63  and  O_64 
REMARK   55  A    between atoms: C_69  and  C_70 
REMARK   56  A    between atoms: C_70  and  C_71 
REMARK   57  A    between atoms: C_71  and  C_72 
REMARK   58  A    between atoms: C_72  and  C_73 
REMARK   59  A    between atoms: C_73  and  C_74 
REMARK   60  A    between atoms: C_74  and  C_75 
REMARK   61  A    between atoms: C_75  and  C_76 
REMARK   62  A    between atoms: C_76  and  C_77 
REMARK   63  A    between atoms: C_77  and  C_78 
REMARK   64  A    between atoms: C_78  and  C_79 
REMARK   65  A    between atoms: C_79  and  C_80 
REMARK   66  A    between atoms: C_80  and  C_81 
REMARK   67  A    between atoms: C_81  and  C_82 
REMARK   68  A    between atoms: C_82  and  C_83 
REMARK   69  A    between atoms: C_83  and  C_84 
REMARK   70  A    between atoms: C_84  and  C_85 
REMARK   71  A    between atoms: C_85  and  O_87 
REMARK   72  A    between atoms: O_87  and  C_88 
REMARK   73  A    between atoms: C_88  and  C_89 
REMARK   74  A    between atoms: C_89  and  C_90 
REMARK   75  A    between atoms: C_89  and  O_92 
REMARK   76  A    between atoms: C_90  and  O_91 
REMARK   77  A    between atoms: C_96  and  C_97 
REMARK   78  A    between atoms: C_97  and  C_98 
REMARK   79  A    between atoms: C_98  and  C_99 
REMARK   80  A    between atoms: C_99  and  C_100 
REMARK   81  A    between atoms: C_100  and  C_101 
REMARK   82  A    between atoms: C_101  and  C_102 
REMARK   83  A    between atoms: C_102  and  C_103 
REMARK   84  A    between atoms: C_103  and  C_104 
REMARK   85  A    between atoms: C_104  and  C_105 
REMARK   86  A    between atoms: C_105  and  C_106 
REMARK   87  A    between atoms: C_106  and  C_107 
REMARK   88  A    between atoms: C_107  and  C_108 
REMARK   89  A    between atoms: C_108  and  C_109 
REMARK   90  A    between atoms: C_109  and  C_110 
REMARK   91  A    between atoms: C_110  and  C_111 
REMARK   92  A    between atoms: C_111  and  C_112 
REMARK   93  A    between atoms: C_112  and  O_114 
REMARK   94  A    between atoms: O_114  and  C_115 
REMARK   95  A    between atoms: C_115  and  C_116 
REMARK   96  A    between atoms: C_115  and  C_118 
REMARK   97  A    between atoms: C_116  and  O_117 
REMARK   98  A    between atoms: C_118  and  O_119 
ROOT
HETATM    1 NA   UNL     6     -32.379  -8.526   4.532  1.00  0.00     0.000 Na
ENDROOT
TORSDOF 98
BEGIN_RES ARG D 557
REMARK  4 active torsions:
REMARK  status: ('A' for Active; 'I' for Inactive)
REMARK    1  A    between atoms: CA   and  CB  
REMARK    2  A    between atoms: CB   and  CG  
REMARK    3  A    between atoms: CG   and  CD  
REMARK    4  A    between atoms: CD   and  NE  
REMARK       I    between atoms: NE   and  CZ  
REMARK       I    between atoms: CZ   and  NH1 
REMARK       I    between atoms: CZ   and  NH2 
ROOT
ATOM      1  CA  ARG D 557     -26.217   2.705 -17.014  1.00 35.49     0.159 C 
ENDROOT
BRANCH   1   2
ATOM      2  CB  ARG D 557     -26.789   1.319 -17.183  1.00 35.49     0.034 C 
BRANCH   2   3
ATOM      3  CG  ARG D 557     -25.837   0.203 -17.149  1.00 35.49     0.027 C 
BRANCH   3   4
ATOM      4  CD  ARG D 557     -24.755   0.413 -16.159  1.00 35.49     0.116 C 
BRANCH   4   5
ATOM      5  NE  ARG D 557     -24.901  -0.438 -15.008  1.00 35.49    -0.212 N 
ATOM      6  CZ  ARG D 557     -24.087  -1.411 -14.664  1.00 35.49     0.666 C 
ATOM      7  NH1 ARG D 557     -23.021  -1.728 -15.374  1.00 35.49    -0.235 N 
ATOM      8  NH2 ARG D 557     -24.363  -2.066 -13.574  1.00 35.49    -0.235 N 
ATOM      9  HH  ARG D 557     -22.819  -1.308 -16.093  1.00 35.49     0.174 HD
ATOM     10  HH  ARG D 557     -22.525  -2.370 -15.099  1.00 35.49     0.174 HD
ATOM     11  HH  ARG D 557     -25.054  -1.835 -13.131  1.00 35.49     0.174 HD
ATOM     12  HH  ARG D 557     -23.859  -2.698 -13.317  1.00 35.49     0.174 HD
ATOM     13  HE  ARG D 557     -25.601  -0.351 -14.533  1.00 35.49     0.178 HD
ENDBRANCH   4   5
ENDBRANCH   3   4
ENDBRANCH   2   3
ENDBRANCH   1   2
END_RES ARG D 557
BEGIN_RES GLU D 570
REMARK  3 active torsions:
REMARK  status: ('A' for Active; 'I' for Inactive)
REMARK    5  A    between atoms: CA   and  CB  
REMARK    6  A    between atoms: CB   and  CG  
REMARK    7  A    between atoms: CG   and  CD  
ROOT
ATOM     14  CA  GLU D 570     -18.033  -6.348 -13.375  1.00 32.92     0.160 C 
ENDROOT
BRANCH  14  15
ATOM     15  CB  GLU D 570     -19.500  -6.345 -13.794  1.00 32.92     0.043 C 
BRANCH  15  16
ATOM     16  CG  GLU D 570     -20.443  -5.536 -12.979  1.00 32.92     0.100 C 
BRANCH  16  17
ATOM     17  CD  GLU D 570     -21.743  -5.250 -13.694  1.00 32.92     0.185 C 
ATOM     18  OE1 GLU D 570     -22.230  -6.122 -14.437  1.00 32.92    -0.647 OA
ATOM     19  OE2 GLU D 570     -22.272  -4.134 -13.520  1.00 32.92    -0.647 OA
ENDBRANCH  16  17
ENDBRANCH  15  16
ENDBRANCH  14  15
END_RES GLU D 570
ENDMDL
MODEL 2
REMARK VINA RESULT:      -1.1      3.708      3.824
REMARK WARNING: 32 MAX_TORS EXCEEDED!!!
REMARK  98 active torsions:
REMARK  status: ('A' for Active; 'I' for Inactive)
REMARK    1  A    between atoms: C_2  and  C_3 
REMARK    2  A    between atoms: C_3  and  C_4 
REMARK    3  A    between atoms: C_4  and  C_5 
REMARK    4  A    between atoms: C_5  and  C_6 
REMARK    5  A    between atoms: C_6  and  C_7 
REMARK    6  A    between atoms: C_7  and  C_8 
REMARK    7  A    between atoms: C_8  and  C_9 
REMARK    8  A    between atoms: C_9  and  C_10 
REMARK    9  A    between atoms: C_10  and  C_11 
REMARK   10  A    between atoms: C_11  and  C_12 
REMARK   11  A    between atoms: C_12  and  C_13 
REMARK   12  A    between atoms: C_13  and  C_14 
REMARK   13  A    between atoms: C_14  and  C_15 
REMARK   14  A    between atoms: C_15  and  C_16 
REMARK   15  A    between atoms: C_16  and  C_17 
REMARK   16  A    between atoms: C_17  and  C_18 
REMARK   17  A    between atoms: C_22  and  C_23 
REMARK   18  A    between atoms: C_23  and  C_24 
REMARK   19  A    between atoms: C_24  and  C_25 
REMARK   20  A    between atoms: C_25  and  C_26 
REMARK   21  A    between atoms: C_26  and  C_27 
REMARK   22  A    between atoms: C_27  and  C_28 
REMARK   23  A    between atoms: C_28  and  C_29 
REMARK   24  A    between atoms: C_29  and  C_30 
REMARK   25  A    between atoms: C_30  and  C_31 
REMARK   26  A    between atoms: C_31  and  C_32 
REMARK   27  A    between atoms: C_32  and  C_33 
REMARK   28  A    between atoms: C_33  and  C_34 
REMARK   29  A    between atoms: C_34  and  C_35 
REMARK   30  A    between atoms: C_35  and  C_36 
REMARK   31  A    between atoms: C_36  and  C_37 
REMARK   32  A    between atoms: C_37  and  C_38 
REMARK   33  A    between atoms: C_42  and  C_43 
REMARK   34  A    between atoms: C_43  and  C_44 
REMARK   35  A    between atoms: C_44  and  C_45 
REMARK   36  A    between atoms: C_45  and  C_46 
REMARK   37  A    between atoms: C_46  and  C_47 
REMARK   38  A    between atoms: C_47  and  C_48 
REMARK   39  A    between atoms: C_48  and  C_49 
REMARK   40  A    between atoms: C_49  and  C_50 
REMARK   41  A    between atoms: C_50  and  C_51 
REMARK   42  A    between atoms: C_51  and  C_52 
REMARK   43  A    between atoms: C_52  and  C_53 
REMARK   44  A    between atoms: C_53  and  C_54 
REMARK   45  A    between atoms: C_54  and  C_55 
REMARK   46  A    between atoms: C_55  and  C_56 
REMARK   47  A    between atoms: C_56  and  C_57 
REMARK   48  A    between atoms: C_57  and  C_58 
REMARK   49  A    between atoms: C_58  and  O_60 
REMARK   50  A    between atoms: O_60  and  C_61 
REMARK   51  A    between atoms: C_61  and  C_62 
REMARK   52  A    between atoms: C_62  and  C_63 
REMARK   53  A    between atoms: C_62  and  O_65 
REMARK   54  A    between atoms: C_63  and  O_64 
REMARK   55  A    between atoms: C_69  and  C_70 
REMARK   56  A    between atoms: C_70  and  C_71 
REMARK   57  A    between atoms: C_71  and  C_72 
REMARK   58  A    between atoms: C_72  and  C_73 
REMARK   59  A    between atoms: C_73  and  C_74 
REMARK   60  A    between atoms: C_74  and  C_75 
REMARK   61  A    between atoms: C_75  and  C_76 
REMARK   62  A    between atoms: C_76  and  C_77 
REMARK   63  A    between atoms: C_77  and  C_78 
REMARK   64  A    between atoms: C_78  and  C_79 
REMARK   65  A    between atoms: C_79  and  C_80 
REMARK   66  A    between atoms: C_80  and  C_81 
REMARK   67  A    between atoms: C_81  and  C_82 
REMARK   68  A    between atoms: C_82  and  C_83 
REMARK   69  A    between atoms: C_83  and  C_84 
REMARK   70  A    between atoms: C_84  and  C_85 
REMARK   71  A    between atoms: C_85  and  O_87 
REMARK   72  A    between atoms: O_87  and  C_88 
REMARK   73  A    between atoms: C_88  and  C_89 
REMARK   74  A    between atoms: C_89  and  C_90 
REMARK   75  A    between atoms: C_89  and  O_92 
REMARK   76  A    between atoms: C_90  and  O_91 
REMARK   77  A    between atoms: C_96  and  C_97 
REMARK   78  A    between atoms: C_97  and  C_98 
REMARK   79  A    between atoms: C_98  and  C_99 
REMARK   80  A    between atoms: C_99  and  C_100 
REMARK   81  A    between atoms: C_100  and  C_101 
REMARK   82  A    between atoms: C_101  and  C_102 
REMARK   83  A    between atoms: C_102  and  C_103 
REMARK   84  A    between atoms: C_103  and  C_104 
REMARK   85  A    between atoms: C_104  and  C_105 
REMARK   86  A    between atoms: C_105  and  C_106 
REMARK   87  A    between atoms: C_106  and  C_107 
REMARK   88  A    between atoms: C_107  and  C_108 
REMARK   89  A    between atoms: C_108  and  C_109 
REMARK   90  A    between atoms: C_109  and  C_110 
REMARK   91  A    between atoms: C_110  and  C_111 
REMARK   92  A    between atoms: C_111  and  C_112 
REMARK   93  A    between atoms: C_112  and  O_114 
REMARK   94  A    between atoms: O_114  and  C_115 
REMARK   95  A    between atoms: C_115  and  C_116 
REMARK   96  A    between atoms: C_115  and  C_118 
REMARK   97  A    between atoms: C_116  and  O_117 
REMARK   98  A    between atoms: C_118  and  O_119 
ROOT
HETATM    1 NA   UNL     6     -25.260  -5.218  -4.937  1.00  0.00     0.000 Na
ENDROOT
TORSDOF 98
BEGIN_RES ARG D 557
REMARK  4 active torsions:
REMARK  status: ('A' for Active; 'I' for Inactive)
REMARK    1  A    between atoms: CA   and  CB  
REMARK    2  A    between atoms: CB   and  CG  
REMARK    3  A    between atoms: CG   and  CD  
REMARK    4  A    between atoms: CD   and  NE  
REMARK       I    between atoms: NE   and  CZ  
REMARK       I    between atoms: CZ   and  NH1 
REMARK       I    between atoms: CZ   and  NH2 
ROOT
ATOM      1  CA  ARG D 557     -26.217   2.705 -17.014  1.00 35.49     0.159 C 
ENDROOT
BRANCH   1   2
ATOM      2  CB  ARG D 557     -26.789   1.319 -17.183  1.00 35.49     0.034 C 
BRANCH   2   3
ATOM      3  CG  ARG D 557     -25.836   0.203 -17.154  1.00 35.49     0.027 C 
BRANCH   3   4
ATOM      4  CD  ARG D 557     -24.755   0.410 -16.163  1.00 35.49     0.116 C 
BRANCH   4   5
ATOM      5  NE  ARG D 557     -24.900  -0.446 -15.015  1.00 35.49    -0.212 N 
ATOM      6  CZ  ARG D 557     -24.079  -1.413 -14.670  1.00 35.49     0.666 C 
ATOM      7  NH1 ARG D 557     -23.006  -1.719 -15.375  1.00 35.49    -0.235 N 
ATOM      8  NH2 ARG D 557     -24.355  -2.074 -13.584  1.00 35.49    -0.235 N 
ATOM      9  HH  ARG D 557     -22.804  -1.295 -16.092  1.00 35.49     0.174 HD
ATOM     10  HH  ARG D 557     -22.507  -2.358 -15.100  1.00 35.49     0.174 HD
ATOM     11  HH  ARG D 557     -25.051  -1.850 -13.144  1.00 35.49     0.174 HD
ATOM     12  HH  ARG D 557     -23.847  -2.703 -13.327  1.00 35.49     0.174 HD
ATOM     13  HE  ARG D 557     -25.603  -0.366 -14.544  1.00 35.49     0.178 HD
ENDBRANCH   4   5
ENDBRANCH   3   4
ENDBRANCH   2   3
ENDBRANCH   1   2
END_RES ARG D 557
BEGIN_RES GLU D 570
REMARK  3 active torsions:
REMARK  status: ('A' for Active; 'I' for Inactive)
REMARK    5  A    between atoms: CA   and  CB  
REMARK    6  A    between atoms: CB   and  CG  
REMARK    7  A    between atoms: CG   and  CD  
ROOT
ATOM     14  CA  GLU D 570     -18.033  -6.348 -13.375  1.00 32.92     0.160 C 
ENDROOT
BRANCH  14  15
ATOM     15  CB  GLU D 570     -19.500  -6.345 -13.794  1.00 32.92     0.043 C 
BRANCH  15  16
ATOM     16  CG  GLU D 570     -20.443  -5.536 -12.979  1.00 32.92     0.100 C 
BRANCH  16  17
ATOM     17  CD  GLU D 570     -21.738  -5.239 -13.698  1.00 32.92     0.185 C 
ATOM     18  OE1 GLU D 570     -22.271  -4.122 -13.549  1.00 32.92    -0.647 OA
ATOM     19  OE2 GLU D 570     -22.234  -6.138 -14.406  1.00 32.92    -0.647 OA
ENDBRANCH  16  17
ENDBRANCH  15  16
ENDBRANCH  14  15
END_RES GLU D 570
ENDMDL
MODEL 3
REMARK VINA RESULT:      -1.1      2.873      2.873
REMARK WARNING: 32 MAX_TORS EXCEEDED!!!
REMARK  98 active torsions:
REMARK  status: ('A' for Active; 'I' for Inactive)
REMARK    1  A    between atoms: C_2  and  C_3 
REMARK    2  A    between atoms: C_3  and  C_4 
REMARK    3  A    between atoms: C_4  and  C_5 
REMARK    4  A    between atoms: C_5  and  C_6 
REMARK    5  A    between atoms: C_6  and  C_7 
REMARK    6  A    between atoms: C_7  and  C_8 
REMARK    7  A    between atoms: C_8  and  C_9 
REMARK    8  A    between atoms: C_9  and  C_10 
REMARK    9  A    between atoms: C_10  and  C_11 
REMARK   10  A    between atoms: C_11  and  C_12 
REMARK   11  A    between atoms: C_12  and  C_13 
REMARK   12  A    between atoms: C_13  and  C_14 
REMARK   13  A    between atoms: C_14  and  C_15 
REMARK   14  A    between atoms: C_15  and  C_16 
REMARK   15  A    between atoms: C_16  and  C_17 
REMARK   16  A    between atoms: C_17  and  C_18 
REMARK   17  A    between atoms: C_22  and  C_23 
REMARK   18  A    between atoms: C_23  and  C_24 
REMARK   19  A    between atoms: C_24  and  C_25 
REMARK   20  A    between atoms: C_25  and  C_26 
REMARK   21  A    between atoms: C_26  and  C_27 
REMARK   22  A    between atoms: C_27  and  C_28 
REMARK   23  A    between atoms: C_28  and  C_29 
REMARK   24  A    between atoms: C_29  and  C_30 
REMARK   25  A    between atoms: C_30  and  C_31 
REMARK   26  A    between atoms: C_31  and  C_32 
REMARK   27  A    between atoms: C_32  and  C_33 
REMARK   28  A    between atoms: C_33  and  C_34 
REMARK   29  A    between atoms: C_34  and  C_35 
REMARK   30  A    between atoms: C_35  and  C_36 
REMARK   31  A    between atoms: C_36  and  C_37 
REMARK   32  A    between atoms: C_37  and  C_38 
REMARK   33  A    between atoms: C_42  and  C_43 
REMARK   34  A    between atoms: C_43  and  C_44 
REMARK   35  A    between atoms: C_44  and  C_45 
REMARK   36  A    between atoms: C_45  and  C_46 
REMARK   37  A    between atoms: C_46  and  C_47 
REMARK   38  A    between atoms: C_47  and  C_48 
REMARK   39  A    between atoms: C_48  and  C_49 
REMARK   40  A    between atoms: C_49  and  C_50 
REMARK   41  A    between atoms: C_50  and  C_51 
REMARK   42  A    between atoms: C_51  and  C_52 
REMARK   43  A    between atoms: C_52  and  C_53 
REMARK   44  A    between atoms: C_53  and  C_54 
REMARK   45  A    between atoms: C_54  and  C_55 
REMARK   46  A    between atoms: C_55  and  C_56 
REMARK   47  A    between atoms: C_56  and  C_57 
REMARK   48  A    between atoms: C_57  and  C_58 
REMARK   49  A    between atoms: C_58  and  O_60 
REMARK   50  A    between atoms: O_60  and  C_61 
REMARK   51  A    between atoms: C_61  and  C_62 
REMARK   52  A    between atoms: C_62  and  C_63 
REMARK   53  A    between atoms: C_62  and  O_65 
REMARK   54  A    between atoms: C_63  and  O_64 
REMARK   55  A    between atoms: C_69  and  C_70 
REMARK   56  A    between atoms: C_70  and  C_71 
REMARK   57  A    between atoms: C_71  and  C_72 
REMARK   58  A    between atoms: C_72  and  C_73 
REMARK   59  A    between atoms: C_73  and  C_74 
REMARK   60  A    between atoms: C_74  and  C_75 
REMARK   61  A    between atoms: C_75  and  C_76 
REMARK   62  A    between atoms: C_76  and  C_77 
REMARK   63  A    between atoms: C_77  and  C_78 
REMARK   64  A    between atoms: C_78  and  C_79 
REMARK   65  A    between atoms: C_79  and  C_80 
REMARK   66  A    between atoms: C_80  and  C_81 
REMARK   67  A    between atoms: C_81  and  C_82 
REMARK   68  A    between atoms: C_82  and  C_83 
REMARK   69  A    between atoms: C_83  and  C_84 
REMARK   70  A    between atoms: C_84  and  C_85 
REMARK   71  A    between atoms: C_85  and  O_87 
REMARK   72  A    between atoms: O_87  and  C_88 
REMARK   73  A    between atoms: C_88  and  C_89 
REMARK   74  A    between atoms: C_89  and  C_90 
REMARK   75  A    between atoms: C_89  and  O_92 
REMARK   76  A    between atoms: C_90  and  O_91 
REMARK   77  A    between atoms: C_96  and  C_97 
REMARK   78  A    between atoms: C_97  and  C_98 
REMARK   79  A    between atoms: C_98  and  C_99 
REMARK   80  A    between atoms: C_99  and  C_100 
REMARK   81  A    between atoms: C_100  and  C_101 
REMARK   82  A    between atoms: C_101  and  C_102 
REMARK   83  A    between atoms: C_102  and  C_103 
REMARK   84  A    between atoms: C_103  and  C_104 
REMARK   85  A    between atoms: C_104  and  C_105 
REMARK   86  A    between atoms: C_105  and  C_106 
REMARK   87  A    between atoms: C_106  and  C_107 
REMARK   88  A    between atoms: C_107  and  C_108 
REMARK   89  A    between atoms: C_108  and  C_109 
REMARK   90  A    between atoms: C_109  and  C_110 
REMARK   91  A    between atoms: C_110  and  C_111 
REMARK   92  A    between atoms: C_111  and  C_112 
REMARK   93  A    between atoms: C_112  and  O_114 
REMARK   94  A    between atoms: O_114  and  C_115 
REMARK   95  A    between atoms: C_115  and  C_116 
REMARK   96  A    between atoms: C_115  and  C_118 
REMARK   97  A    between atoms: C_116  and  O_117 
REMARK   98  A    between atoms: C_118  and  O_119 
ROOT
HETATM    1 NA   UNL     6     -30.926   0.742   2.868  1.00  0.00     0.000 Na
ENDROOT
TORSDOF 98
BEGIN_RES ARG D 557
REMARK  4 active torsions:
REMARK  status: ('A' for Active; 'I' for Inactive)
REMARK    1  A    between atoms: CA   and  CB  
REMARK    2  A    between atoms: CB   and  CG  
REMARK    3  A    between atoms: CG   and  CD  
REMARK    4  A    between atoms: CD   and  NE  
REMARK       I    between atoms: NE   and  CZ  
REMARK       I    between atoms: CZ   and  NH1 
REMARK       I    between atoms: CZ   and  NH2 
ROOT
ATOM      1  CA  ARG D 557     -26.217   2.705 -17.014  1.00 35.49     0.159 C 
ENDROOT
BRANCH   1   2
ATOM      2  CB  ARG D 557     -26.789   1.319 -17.183  1.00 35.49     0.034 C 
BRANCH   2   3
ATOM      3  CG  ARG D 557     -25.836   0.203 -17.153  1.00 35.49     0.027 C 
BRANCH   3   4
ATOM      4  CD  ARG D 557     -24.753   0.411 -16.165  1.00 35.49     0.116 C 
BRANCH   4   5
ATOM      5  NE  ARG D 557     -24.900  -0.439 -15.013  1.00 35.49    -0.212 N 
ATOM      6  CZ  ARG D 557     -24.085  -1.411 -14.667  1.00 35.49     0.666 C 
ATOM      7  NH1 ARG D 557     -23.016  -1.726 -15.375  1.00 35.49    -0.235 N 
ATOM      8  NH2 ARG D 557     -24.361  -2.066 -13.577  1.00 35.49    -0.235 N 
ATOM      9  HH  ARG D 557     -22.814  -1.307 -16.095  1.00 35.49     0.174 HD
ATOM     10  HH  ARG D 557     -22.520  -2.368 -15.099  1.00 35.49     0.174 HD
ATOM     11  HH  ARG D 557     -25.053  -1.836 -13.136  1.00 35.49     0.174 HD
ATOM     12  HH  ARG D 557     -23.856  -2.697 -13.320  1.00 35.49     0.174 HD
ATOM     13  HE  ARG D 557     -25.601  -0.353 -14.539  1.00 35.49     0.178 HD
ENDBRANCH   4   5
ENDBRANCH   3   4
ENDBRANCH   2   3
ENDBRANCH   1   2
END_RES ARG D 557
BEGIN_RES GLU D 570
REMARK  3 active torsions:
REMARK  status: ('A' for Active; 'I' for Inactive)
REMARK    5  A    between atoms: CA   and  CB  
REMARK    6  A    between atoms: CB   and  CG  
REMARK    7  A    between atoms: CG   and  CD  
ROOT
ATOM     14  CA  GLU D 570     -18.033  -6.348 -13.375  1.00 32.92     0.160 C 
ENDROOT
BRANCH  14  15
ATOM     15  CB  GLU D 570     -19.500  -6.345 -13.794  1.00 32.92     0.043 C 
BRANCH  15  16
ATOM     16  CG  GLU D 570     -20.443  -5.534 -12.981  1.00 32.92     0.100 C 
BRANCH  16  17
ATOM     17  CD  GLU D 570     -21.742  -5.248 -13.696  1.00 32.92     0.185 C 
ATOM     18  OE1 GLU D 570     -22.220  -6.114 -14.453  1.00 32.92    -0.647 OA
ATOM     19  OE2 GLU D 570     -22.280  -4.138 -13.510  1.00 32.92    -0.647 OA
ENDBRANCH  16  17
ENDBRANCH  15  16
ENDBRANCH  14  15
END_RES GLU D 570
ENDMDL
MODEL 4
REMARK VINA RESULT:      -0.9      3.032      3.651
REMARK WARNING: 32 MAX_TORS EXCEEDED!!!
REMARK  98 active torsions:
REMARK  status: ('A' for Active; 'I' for Inactive)
REMARK    1  A    between atoms: C_2  and  C_3 
REMARK    2  A    between atoms: C_3  and  C_4 
REMARK    3  A    between atoms: C_4  and  C_5 
REMARK    4  A    between atoms: C_5  and  C_6 
REMARK    5  A    between atoms: C_6  and  C_7 
REMARK    6  A    between atoms: C_7  and  C_8 
REMARK    7  A    between atoms: C_8  and  C_9 
REMARK    8  A    between atoms: C_9  and  C_10 
REMARK    9  A    between atoms: C_10  and  C_11 
REMARK   10  A    between atoms: C_11  and  C_12 
REMARK   11  A    between atoms: C_12  and  C_13 
REMARK   12  A    between atoms: C_13  and  C_14 
REMARK   13  A    between atoms: C_14  and  C_15 
REMARK   14  A    between atoms: C_15  and  C_16 
REMARK   15  A    between atoms: C_16  and  C_17 
REMARK   16  A    between atoms: C_17  and  C_18 
REMARK   17  A    between atoms: C_22  and  C_23 
REMARK   18  A    between atoms: C_23  and  C_24 
REMARK   19  A    between atoms: C_24  and  C_25 
REMARK   20  A    between atoms: C_25  and  C_26 
REMARK   21  A    between atoms: C_26  and  C_27 
REMARK   22  A    between atoms: C_27  and  C_28 
REMARK   23  A    between atoms: C_28  and  C_29 
REMARK   24  A    between atoms: C_29  and  C_30 
REMARK   25  A    between atoms: C_30  and  C_31 
REMARK   26  A    between atoms: C_31  and  C_32 
REMARK   27  A    between atoms: C_32  and  C_33 
REMARK   28  A    between atoms: C_33  and  C_34 
REMARK   29  A    between atoms: C_34  and  C_35 
REMARK   30  A    between atoms: C_35  and  C_36 
REMARK   31  A    between atoms: C_36  and  C_37 
REMARK   32  A    between atoms: C_37  and  C_38 
REMARK   33  A    between atoms: C_42  and  C_43 
REMARK   34  A    between atoms: C_43  and  C_44 
REMARK   35  A    between atoms: C_44  and  C_45 
REMARK   36  A    between atoms: C_45  and  C_46 
REMARK   37  A    between atoms: C_46  and  C_47 
REMARK   38  A    between atoms: C_47  and  C_48 
REMARK   39  A    between atoms: C_48  and  C_49 
REMARK   40  A    between atoms: C_49  and  C_50 
REMARK   41  A    between atoms: C_50  and  C_51 
REMARK   42  A    between atoms: C_51  and  C_52 
REMARK   43  A    between atoms: C_52  and  C_53 
REMARK   44  A    between atoms: C_53  and  C_54 
REMARK   45  A    between atoms: C_54  and  C_55 
REMARK   46  A    between atoms: C_55  and  C_56 
REMARK   47  A    between atoms: C_56  and  C_57 
REMARK   48  A    between atoms: C_57  and  C_58 
REMARK   49  A    between atoms: C_58  and  O_60 
REMARK   50  A    between atoms: O_60  and  C_61 
REMARK   51  A    between atoms: C_61  and  C_62 
REMARK   52  A    between atoms: C_62  and  C_63 
REMARK   53  A    between atoms: C_62  and  O_65 
REMARK   54  A    between atoms: C_63  and  O_64 
REMARK   55  A    between atoms: C_69  and  C_70 
REMARK   56  A    between atoms: C_70  and  C_71 
REMARK   57  A    between atoms: C_71  and  C_72 
REMARK   58  A    between atoms: C_72  and  C_73 
REMARK   59  A    between atoms: C_73  and  C_74 
REMARK   60  A    between atoms: C_74  and  C_75 
REMARK   61  A    between atoms: C_75  and  C_76 
REMARK   62  A    between atoms: C_76  and  C_77 
REMARK   63  A    between atoms: C_77  and  C_78 
REMARK   64  A    between atoms: C_78  and  C_79 
REMARK   65  A    between atoms: C_79  and  C_80 
REMARK   66  A    between atoms: C_80  and  C_81 
REMARK   67  A    between atoms: C_81  and  C_82 
REMARK   68  A    between atoms: C_82  and  C_83 
REMARK   69  A    between atoms: C_83  and  C_84 
REMARK   70  A    between atoms: C_84  and  C_85 
REMARK   71  A    between atoms: C_85  and  O_87 
REMARK   72  A    between atoms: O_87  and  C_88 
REMARK   73  A    between atoms: C_88  and  C_89 
REMARK   74  A    between atoms: C_89  and  C_90 
REMARK   75  A    between atoms: C_89  and  O_92 
REMARK   76  A    between atoms: C_90  and  O_91 
REMARK   77  A    between atoms: C_96  and  C_97 
REMARK   78  A    between atoms: C_97  and  C_98 
REMARK   79  A    between atoms: C_98  and  C_99 
REMARK   80  A    between atoms: C_99  and  C_100 
REMARK   81  A    between atoms: C_100  and  C_101 
REMARK   82  A    between atoms: C_101  and  C_102 
REMARK   83  A    between atoms: C_102  and  C_103 
REMARK   84  A    between atoms: C_103  and  C_104 
REMARK   85  A    between atoms: C_104  and  C_105 
REMARK   86  A    between atoms: C_105  and  C_106 
REMARK   87  A    between atoms: C_106  and  C_107 
REMARK   88  A    between atoms: C_107  and  C_108 
REMARK   89  A    between atoms: C_108  and  C_109 
REMARK   90  A    between atoms: C_109  and  C_110 
REMARK   91  A    between atoms: C_110  and  C_111 
REMARK   92  A    between atoms: C_111  and  C_112 
REMARK   93  A    between atoms: C_112  and  O_114 
REMARK   94  A    between atoms: O_114  and  C_115 
REMARK   95  A    between atoms: C_115  and  C_116 
REMARK   96  A    between atoms: C_115  and  C_118 
REMARK   97  A    between atoms: C_116  and  O_117 
REMARK   98  A    between atoms: C_118  and  O_119 
ROOT
HETATM    1 NA   UNL     6     -32.190  -8.657   4.515  1.00  0.00     0.000 Na
ENDROOT
TORSDOF 98
BEGIN_RES ARG D 557
REMARK  4 active torsions:
REMARK  status: ('A' for Active; 'I' for Inactive)
REMARK    1  A    between atoms: CA   and  CB  
REMARK    2  A    between atoms: CB   and  CG  
REMARK    3  A    between atoms: CG   and  CD  
REMARK    4  A    between atoms: CD   and  NE  
REMARK       I    between atoms: NE   and  CZ  
REMARK       I    between atoms: CZ   and  NH1 
REMARK       I    between atoms: CZ   and  NH2 
ROOT
ATOM      1  CA  ARG D 557     -26.217   2.705 -17.014  1.00 35.49     0.159 C 
ENDROOT
BRANCH   1   2
ATOM      2  CB  ARG D 557     -26.789   1.319 -17.183  1.00 35.49     0.034 C 
BRANCH   2   3
ATOM      3  CG  ARG D 557     -28.230   1.227 -17.445  1.00 35.49     0.027 C 
BRANCH   3   4
ATOM      4  CD  ARG D 557     -28.917   0.309 -16.507  1.00 35.49     0.116 C 
BRANCH   4   5
ATOM      5  NE  ARG D 557     -29.310  -0.921 -17.141  1.00 35.49    -0.212 N 
ATOM      6  CZ  ARG D 557     -28.688  -2.074 -17.034  1.00 35.49     0.666 C 
ATOM      7  NH1 ARG D 557     -27.589  -2.223 -16.318  1.00 35.49    -0.235 N 
ATOM      8  NH2 ARG D 557     -29.199  -3.092 -17.663  1.00 35.49    -0.235 N 
ATOM      9  HH  ARG D 557     -27.237  -1.567 -15.894  1.00 35.49     0.174 HD
ATOM     10  HH  ARG D 557     -27.229  -2.999 -16.283  1.00 35.49     0.174 HD
ATOM     11  HH  ARG D 557     -29.914  -2.968 -18.112  1.00 35.49     0.174 HD
ATOM     12  HH  ARG D 557     -28.828  -3.853 -17.615  1.00 35.49     0.174 HD
ATOM     13  HE  ARG D 557     -29.968  -0.900 -17.681  1.00 35.49     0.178 HD
ENDBRANCH   4   5
ENDBRANCH   3   4
ENDBRANCH   2   3
ENDBRANCH   1   2
END_RES ARG D 557
BEGIN_RES GLU D 570
REMARK  3 active torsions:
REMARK  status: ('A' for Active; 'I' for Inactive)
REMARK    5  A    between atoms: CA   and  CB  
REMARK    6  A    between atoms: CB   and  CG  
REMARK    7  A    between atoms: CG   and  CD  
ROOT
ATOM     14  CA  GLU D 570     -18.033  -6.348 -13.375  1.00 32.92     0.160 C 
ENDROOT
BRANCH  14  15
ATOM     15  CB  GLU D 570     -19.500  -6.345 -13.794  1.00 32.92     0.043 C 
BRANCH  15  16
ATOM     16  CG  GLU D 570     -20.451  -5.573 -12.953  1.00 32.92     0.100 C 
BRANCH  16  17
ATOM     17  CD  GLU D 570     -21.699  -5.162 -13.699  1.00 32.92     0.185 C 
ATOM     18  OE1 GLU D 570     -22.680  -4.746 -13.054  1.00 32.92    -0.647 OA
ATOM     19  OE2 GLU D 570     -21.701  -5.274 -14.941  1.00 32.92    -0.647 OA
ENDBRANCH  16  17
ENDBRANCH  15  16
ENDBRANCH  14  15
END_RES GLU D 570
ENDMDL
MODEL 5
REMARK VINA RESULT:      -0.9      3.273      3.365
REMARK WARNING: 32 MAX_TORS EXCEEDED!!!
REMARK  98 active torsions:
REMARK  status: ('A' for Active; 'I' for Inactive)
REMARK    1  A    between atoms: C_2  and  C_3 
REMARK    2  A    between atoms: C_3  and  C_4 
REMARK    3  A    between atoms: C_4  and  C_5 
REMARK    4  A    between atoms: C_5  and  C_6 
REMARK    5  A    between atoms: C_6  and  C_7 
REMARK    6  A    between atoms: C_7  and  C_8 
REMARK    7  A    between atoms: C_8  and  C_9 
REMARK    8  A    between atoms: C_9  and  C_10 
REMARK    9  A    between atoms: C_10  and  C_11 
REMARK   10  A    between atoms: C_11  and  C_12 
REMARK   11  A    between atoms: C_12  and  C_13 
REMARK   12  A    between atoms: C_13  and  C_14 
REMARK   13  A    between atoms: C_14  and  C_15 
REMARK   14  A    between atoms: C_15  and  C_16 
REMARK   15  A    between atoms: C_16  and  C_17 
REMARK   16  A    between atoms: C_17  and  C_18 
REMARK   17  A    between atoms: C_22  and  C_23 
REMARK   18  A    between atoms: C_23  and  C_24 
REMARK   19  A    between atoms: C_24  and  C_25 
REMARK   20  A    between atoms: C_25  and  C_26 
REMARK   21  A    between atoms: C_26  and  C_27 
REMARK   22  A    between atoms: C_27  and  C_28 
REMARK   23  A    between atoms: C_28  and  C_29 
REMARK   24  A    between atoms: C_29  and  C_30 
REMARK   25  A    between atoms: C_30  and  C_31 
REMARK   26  A    between atoms: C_31  and  C_32 
REMARK   27  A    between atoms: C_32  and  C_33 
REMARK   28  A    between atoms: C_33  and  C_34 
REMARK   29  A    between atoms: C_34  and  C_35 
REMARK   30  A    between atoms: C_35  and  C_36 
REMARK   31  A    between atoms: C_36  and  C_37 
REMARK   32  A    between atoms: C_37  and  C_38 
REMARK   33  A    between atoms: C_42  and  C_43 
REMARK   34  A    between atoms: C_43  and  C_44 
REMARK   35  A    between atoms: C_44  and  C_45 
REMARK   36  A    between atoms: C_45  and  C_46 
REMARK   37  A    between atoms: C_46  and  C_47 
REMARK   38  A    between atoms: C_47  and  C_48 
REMARK   39  A    between atoms: C_48  and  C_49 
REMARK   40  A    between atoms: C_49  and  C_50 
REMARK   41  A    between atoms: C_50  and  C_51 
REMARK   42  A    between atoms: C_51  and  C_52 
REMARK   43  A    between atoms: C_52  and  C_53 
REMARK   44  A    between atoms: C_53  and  C_54 
REMARK   45  A    between atoms: C_54  and  C_55 
REMARK   46  A    between atoms: C_55  and  C_56 
REMARK   47  A    between atoms: C_56  and  C_57 
REMARK   48  A    between atoms: C_57  and  C_58 
REMARK   49  A    between atoms: C_58  and  O_60 
REMARK   50  A    between atoms: O_60  and  C_61 
REMARK   51  A    between atoms: C_61  and  C_62 
REMARK   52  A    between atoms: C_62  and  C_63 
REMARK   53  A    between atoms: C_62  and  O_65 
REMARK   54  A    between atoms: C_63  and  O_64 
REMARK   55  A    between atoms: C_69  and  C_70 
REMARK   56  A    between atoms: C_70  and  C_71 
REMARK   57  A    between atoms: C_71  and  C_72 
REMARK   58  A    between atoms: C_72  and  C_73 
REMARK   59  A    between atoms: C_73  and  C_74 
REMARK   60  A    between atoms: C_74  and  C_75 
REMARK   61  A    between atoms: C_75  and  C_76 
REMARK   62  A    between atoms: C_76  and  C_77 
REMARK   63  A    between atoms: C_77  and  C_78 
REMARK   64  A    between atoms: C_78  and  C_79 
REMARK   65  A    between atoms: C_79  and  C_80 
REMARK   66  A    between atoms: C_80  and  C_81 
REMARK   67  A    between atoms: C_81  and  C_82 
REMARK   68  A    between atoms: C_82  and  C_83 
REMARK   69  A    between atoms: C_83  and  C_84 
REMARK   70  A    between atoms: C_84  and  C_85 
REMARK   71  A    between atoms: C_85  and  O_87 
REMARK   72  A    between atoms: O_87  and  C_88 
REMARK   73  A    between atoms: C_88  and  C_89 
REMARK   74  A    between atoms: C_89  and  C_90 
REMARK   75  A    between atoms: C_89  and  O_92 
REMARK   76  A    between atoms: C_90  and  O_91 
REMARK   77  A    between atoms: C_96  and  C_97 
REMARK   78  A    between atoms: C_97  and  C_98 
REMARK   79  A    between atoms: C_98  and  C_99 
REMARK   80  A    between atoms: C_99  and  C_100 
REMARK   81  A    between atoms: C_100  and  C_101 
REMARK   82  A    between atoms: C_101  and  C_102 
REMARK   83  A    between atoms: C_102  and  C_103 
REMARK   84  A    between atoms: C_103  and  C_104 
REMARK   85  A    between atoms: C_104  and  C_105 
REMARK   86  A    between atoms: C_105  and  C_106 
REMARK   87  A    between atoms: C_106  and  C_107 
REMARK   88  A    between atoms: C_107  and  C_108 
REMARK   89  A    between atoms: C_108  and  C_109 
REMARK   90  A    between atoms: C_109  and  C_110 
REMARK   91  A    between atoms: C_110  and  C_111 
REMARK   92  A    between atoms: C_111  and  C_112 
REMARK   93  A    between atoms: C_112  and  O_114 
REMARK   94  A    between atoms: O_114  and  C_115 
REMARK   95  A    between atoms: C_115  and  C_116 
REMARK   96  A    between atoms: C_115  and  C_118 
REMARK   97  A    between atoms: C_116  and  O_117 
REMARK   98  A    between atoms: C_118  and  O_119 
ROOT
HETATM    1 NA   UNL     6     -36.653   0.763   6.018  1.00  0.00     0.000 Na
ENDROOT
TORSDOF 98
BEGIN_RES ARG D 557
REMARK  4 active torsions:
REMARK  status: ('A' for Active; 'I' for Inactive)
REMARK    1  A    between atoms: CA   and  CB  
REMARK    2  A    between atoms: CB   and  CG  
REMARK    3  A    between atoms: CG   and  CD  
REMARK    4  A    between atoms: CD   and  NE  
REMARK       I    between atoms: NE   and  CZ  
REMARK       I    between atoms: CZ   and  NH1 
REMARK       I    between atoms: CZ   and  NH2 
ROOT
ATOM      1  CA  ARG D 557     -26.217   2.705 -17.014  1.00 35.49     0.159 C 
ENDROOT
BRANCH   1   2
ATOM      2  CB  ARG D 557     -26.789   1.319 -17.183  1.00 35.49     0.034 C 
BRANCH   2   3
ATOM      3  CG  ARG D 557     -25.864   0.195 -16.993  1.00 35.49     0.027 C 
BRANCH   3   4
ATOM      4  CD  ARG D 557     -26.284  -0.701 -15.892  1.00 35.49     0.116 C 
BRANCH   4   5
ATOM      5  NE  ARG D 557     -25.229  -0.918 -14.937  1.00 35.49    -0.212 N 
ATOM      6  CZ  ARG D 557     -24.939  -2.063 -14.360  1.00 35.49     0.666 C 
ATOM      7  NH1 ARG D 557     -25.621  -3.169 -14.595  1.00 35.49    -0.235 N 
ATOM      8  NH2 ARG D 557     -23.933  -2.081 -13.534  1.00 35.49    -0.235 N 
ATOM      9  HH  ARG D 557     -26.285  -3.180 -15.137  1.00 35.49     0.174 HD
ATOM     10  HH  ARG D 557     -25.384  -3.886 -14.192  1.00 35.49     0.174 HD
ATOM     11  HH  ARG D 557     -23.507  -1.353 -13.407  1.00 35.49     0.174 HD
ATOM     12  HH  ARG D 557     -23.713  -2.801 -13.145  1.00 35.49     0.174 HD
ATOM     13  HE  ARG D 557     -24.785  -0.243 -14.672  1.00 35.49     0.178 HD
ENDBRANCH   4   5
ENDBRANCH   3   4
ENDBRANCH   2   3
ENDBRANCH   1   2
END_RES ARG D 557
BEGIN_RES GLU D 570
REMARK  3 active torsions:
REMARK  status: ('A' for Active; 'I' for Inactive)
REMARK    5  A    between atoms: CA   and  CB  
REMARK    6  A    between atoms: CB   and  CG  
REMARK    7  A    between atoms: CG   and  CD  
ROOT
ATOM     14  CA  GLU D 570     -18.033  -6.348 -13.375  1.00 32.92     0.160 C 
ENDROOT
BRANCH  14  15
ATOM     15  CB  GLU D 570     -19.500  -6.345 -13.794  1.00 32.92     0.043 C 
BRANCH  15  16
ATOM     16  CG  GLU D 570     -20.448  -5.560 -12.962  1.00 32.92     0.100 C 
BRANCH  16  17
ATOM     17  CD  GLU D 570     -21.679  -5.125 -13.722  1.00 32.92     0.185 C 
ATOM     18  OE1 GLU D 570     -21.616  -5.010 -14.961  1.00 32.92    -0.647 OA
ATOM     19  OE2 GLU D 570     -22.713  -4.880 -13.070  1.00 32.92    -0.647 OA
ENDBRANCH  16  17
ENDBRANCH  15  16
ENDBRANCH  14  15
END_RES GLU D 570
ENDMDL
MODEL 6
REMARK VINA RESULT:      -0.9      7.945      8.000
REMARK WARNING: 32 MAX_TORS EXCEEDED!!!
REMARK  98 active torsions:
REMARK  status: ('A' for Active; 'I' for Inactive)
REMARK    1  A    between atoms: C_2  and  C_3 
REMARK    2  A    between atoms: C_3  and  C_4 
REMARK    3  A    between atoms: C_4  and  C_5 
REMARK    4  A    between atoms: C_5  and  C_6 
REMARK    5  A    between atoms: C_6  and  C_7 
REMARK    6  A    between atoms: C_7  and  C_8 
REMARK    7  A    between atoms: C_8  and  C_9 
REMARK    8  A    between atoms: C_9  and  C_10 
REMARK    9  A    between atoms: C_10  and  C_11 
REMARK   10  A    between atoms: C_11  and  C_12 
REMARK   11  A    between atoms: C_12  and  C_13 
REMARK   12  A    between atoms: C_13  and  C_14 
REMARK   13  A    between atoms: C_14  and  C_15 
REMARK   14  A    between atoms: C_15  and  C_16 
REMARK   15  A    between atoms: C_16  and  C_17 
REMARK   16  A    between atoms: C_17  and  C_18 
REMARK   17  A    between atoms: C_22  and  C_23 
REMARK   18  A    between atoms: C_23  and  C_24 
REMARK   19  A    between atoms: C_24  and  C_25 
REMARK   20  A    between atoms: C_25  and  C_26 
REMARK   21  A    between atoms: C_26  and  C_27 
REMARK   22  A    between atoms: C_27  and  C_28 
REMARK   23  A    between atoms: C_28  and  C_29 
REMARK   24  A    between atoms: C_29  and  C_30 
REMARK   25  A    between atoms: C_30  and  C_31 
REMARK   26  A    between atoms: C_31  and  C_32 
REMARK   27  A    between atoms: C_32  and  C_33 
REMARK   28  A    between atoms: C_33  and  C_34 
REMARK   29  A    between atoms: C_34  and  C_35 
REMARK   30  A    between atoms: C_35  and  C_36 
REMARK   31  A    between atoms: C_36  and  C_37 
REMARK   32  A    between atoms: C_37  and  C_38 
REMARK   33  A    between atoms: C_42  and  C_43 
REMARK   34  A    between atoms: C_43  and  C_44 
REMARK   35  A    between atoms: C_44  and  C_45 
REMARK   36  A    between atoms: C_45  and  C_46 
REMARK   37  A    between atoms: C_46  and  C_47 
REMARK   38  A    between atoms: C_47  and  C_48 
REMARK   39  A    between atoms: C_48  and  C_49 
REMARK   40  A    between atoms: C_49  and  C_50 
REMARK   41  A    between atoms: C_50  and  C_51 
REMARK   42  A    between atoms: C_51  and  C_52 
REMARK   43  A    between atoms: C_52  and  C_53 
REMARK   44  A    between atoms: C_53  and  C_54 
REMARK   45  A    between atoms: C_54  and  C_55 
REMARK   46  A    between atoms: C_55  and  C_56 
REMARK   47  A    between atoms: C_56  and  C_57 
REMARK   48  A    between atoms: C_57  and  C_58 
REMARK   49  A    between atoms: C_58  and  O_60 
REMARK   50  A    between atoms: O_60  and  C_61 
REMARK   51  A    between atoms: C_61  and  C_62 
REMARK   52  A    between atoms: C_62  and  C_63 
REMARK   53  A    between atoms: C_62  and  O_65 
REMARK   54  A    between atoms: C_63  and  O_64 
REMARK   55  A    between atoms: C_69  and  C_70 
REMARK   56  A    between atoms: C_70  and  C_71 
REMARK   57  A    between atoms: C_71  and  C_72 
REMARK   58  A    between atoms: C_72  and  C_73 
REMARK   59  A    between atoms: C_73  and  C_74 
REMARK   60  A    between atoms: C_74  and  C_75 
REMARK   61  A    between atoms: C_75  and  C_76 
REMARK   62  A    between atoms: C_76  and  C_77 
REMARK   63  A    between atoms: C_77  and  C_78 
REMARK   64  A    between atoms: C_78  and  C_79 
REMARK   65  A    between atoms: C_79  and  C_80 
REMARK   66  A    between atoms: C_80  and  C_81 
REMARK   67  A    between atoms: C_81  and  C_82 
REMARK   68  A    between atoms: C_82  and  C_83 
REMARK   69  A    between atoms: C_83  and  C_84 
REMARK   70  A    between atoms: C_84  and  C_85 
REMARK   71  A    between atoms: C_85  and  O_87 
REMARK   72  A    between atoms: O_87  and  C_88 
REMARK   73  A    between atoms: C_88  and  C_89 
REMARK   74  A    between atoms: C_89  and  C_90 
REMARK   75  A    between atoms: C_89  and  O_92 
REMARK   76  A    between atoms: C_90  and  O_91 
REMARK   77  A    between atoms: C_96  and  C_97 
REMARK   78  A    between atoms: C_97  and  C_98 
REMARK   79  A    between atoms: C_98  and  C_99 
REMARK   80  A    between atoms: C_99  and  C_100 
REMARK   81  A    between atoms: C_100  and  C_101 
REMARK   82  A    between atoms: C_101  and  C_102 
REMARK   83  A    between atoms: C_102  and  C_103 
REMARK   84  A    between atoms: C_103  and  C_104 
REMARK   85  A    between atoms: C_104  and  C_105 
REMARK   86  A    between atoms: C_105  and  C_106 
REMARK   87  A    between atoms: C_106  and  C_107 
REMARK   88  A    between atoms: C_107  and  C_108 
REMARK   89  A    between atoms: C_108  and  C_109 
REMARK   90  A    between atoms: C_109  and  C_110 
REMARK   91  A    between atoms: C_110  and  C_111 
REMARK   92  A    between atoms: C_111  and  C_112 
REMARK   93  A    between atoms: C_112  and  O_114 
REMARK   94  A    between atoms: O_114  and  C_115 
REMARK   95  A    between atoms: C_115  and  C_116 
REMARK   96  A    between atoms: C_115  and  C_118 
REMARK   97  A    between atoms: C_116  and  O_117 
REMARK   98  A    between atoms: C_118  and  O_119 
ROOT
HETATM    1 NA   UNL     6     -36.983   4.629 -17.833  1.00  0.00     0.000 Na
ENDROOT
TORSDOF 98
BEGIN_RES ARG D 557
REMARK  4 active torsions:
REMARK  status: ('A' for Active; 'I' for Inactive)
REMARK    1  A    between atoms: CA   and  CB  
REMARK    2  A    between atoms: CB   and  CG  
REMARK    3  A    between atoms: CG   and  CD  
REMARK    4  A    between atoms: CD   and  NE  
REMARK       I    between atoms: NE   and  CZ  
REMARK       I    between atoms: CZ   and  NH1 
REMARK       I    between atoms: CZ   and  NH2 
ROOT
ATOM      1  CA  ARG D 557     -26.217   2.705 -17.014  1.00 35.49     0.159 C 
ENDROOT
BRANCH   1   2
ATOM      2  CB  ARG D 557     -26.789   1.319 -17.183  1.00 35.49     0.034 C 
BRANCH   2   3
ATOM      3  CG  ARG D 557     -25.836   0.203 -17.155  1.00 35.49     0.027 C 
BRANCH   3   4
ATOM      4  CD  ARG D 557     -24.749   0.413 -16.171  1.00 35.49     0.116 C 
BRANCH   4   5
ATOM      5  NE  ARG D 557     -24.892  -0.433 -15.016  1.00 35.49    -0.212 N 
ATOM      6  CZ  ARG D 557     -24.077  -1.404 -14.670  1.00 35.49     0.666 C 
ATOM      7  NH1 ARG D 557     -23.012  -1.724 -15.381  1.00 35.49    -0.235 N 
ATOM      8  NH2 ARG D 557     -24.350  -2.056 -13.577  1.00 35.49    -0.235 N 
ATOM      9  HH  ARG D 557     -22.812  -1.307 -16.103  1.00 35.49     0.174 HD
ATOM     10  HH  ARG D 557     -22.516  -2.365 -15.105  1.00 35.49     0.174 HD
ATOM     11  HH  ARG D 557     -25.041  -1.823 -13.134  1.00 35.49     0.174 HD
ATOM     12  HH  ARG D 557     -23.846  -2.687 -13.319  1.00 35.49     0.174 HD
ATOM     13  HE  ARG D 557     -25.592  -0.344 -14.540  1.00 35.49     0.178 HD
ENDBRANCH   4   5
ENDBRANCH   3   4
ENDBRANCH   2   3
ENDBRANCH   1   2
END_RES ARG D 557
BEGIN_RES GLU D 570
REMARK  3 active torsions:
REMARK  status: ('A' for Active; 'I' for Inactive)
REMARK    5  A    between atoms: CA   and  CB  
REMARK    6  A    between atoms: CB   and  CG  
REMARK    7  A    between atoms: CG   and  CD  
ROOT
ATOM     14  CA  GLU D 570     -18.033  -6.348 -13.375  1.00 32.92     0.160 C 
ENDROOT
BRANCH  14  15
ATOM     15  CB  GLU D 570     -19.500  -6.345 -13.794  1.00 32.92     0.043 C 
BRANCH  15  16
ATOM     16  CG  GLU D 570     -20.440  -5.524 -12.988  1.00 32.92     0.100 C 
BRANCH  16  17
ATOM     17  CD  GLU D 570     -21.746  -5.255 -13.700  1.00 32.92     0.185 C 
ATOM     18  OE1 GLU D 570     -22.313  -4.158 -13.530  1.00 32.92    -0.647 OA
ATOM     19  OE2 GLU D 570     -22.216  -6.157 -14.421  1.00 32.92    -0.647 OA
ENDBRANCH  16  17
ENDBRANCH  15  16
ENDBRANCH  14  15
END_RES GLU D 570
ENDMDL
MODEL 7
REMARK VINA RESULT:      -0.9      7.366      7.632
REMARK WARNING: 32 MAX_TORS EXCEEDED!!!
REMARK  98 active torsions:
REMARK  status: ('A' for Active; 'I' for Inactive)
REMARK    1  A    between atoms: C_2  and  C_3 
REMARK    2  A    between atoms: C_3  and  C_4 
REMARK    3  A    between atoms: C_4  and  C_5 
REMARK    4  A    between atoms: C_5  and  C_6 
REMARK    5  A    between atoms: C_6  and  C_7 
REMARK    6  A    between atoms: C_7  and  C_8 
REMARK    7  A    between atoms: C_8  and  C_9 
REMARK    8  A    between atoms: C_9  and  C_10 
REMARK    9  A    between atoms: C_10  and  C_11 
REMARK   10  A    between atoms: C_11  and  C_12 
REMARK   11  A    between atoms: C_12  and  C_13 
REMARK   12  A    between atoms: C_13  and  C_14 
REMARK   13  A    between atoms: C_14  and  C_15 
REMARK   14  A    between atoms: C_15  and  C_16 
REMARK   15  A    between atoms: C_16  and  C_17 
REMARK   16  A    between atoms: C_17  and  C_18 
REMARK   17  A    between atoms: C_22  and  C_23 
REMARK   18  A    between atoms: C_23  and  C_24 
REMARK   19  A    between atoms: C_24  and  C_25 
REMARK   20  A    between atoms: C_25  and  C_26 
REMARK   21  A    between atoms: C_26  and  C_27 
REMARK   22  A    between atoms: C_27  and  C_28 
REMARK   23  A    between atoms: C_28  and  C_29 
REMARK   24  A    between atoms: C_29  and  C_30 
REMARK   25  A    between atoms: C_30  and  C_31 
REMARK   26  A    between atoms: C_31  and  C_32 
REMARK   27  A    between atoms: C_32  and  C_33 
REMARK   28  A    between atoms: C_33  and  C_34 
REMARK   29  A    between atoms: C_34  and  C_35 
REMARK   30  A    between atoms: C_35  and  C_36 
REMARK   31  A    between atoms: C_36  and  C_37 
REMARK   32  A    between atoms: C_37  and  C_38 
REMARK   33  A    between atoms: C_42  and  C_43 
REMARK   34  A    between atoms: C_43  and  C_44 
REMARK   35  A    between atoms: C_44  and  C_45 
REMARK   36  A    between atoms: C_45  and  C_46 
REMARK   37  A    between atoms: C_46  and  C_47 
REMARK   38  A    between atoms: C_47  and  C_48 
REMARK   39  A    between atoms: C_48  and  C_49 
REMARK   40  A    between atoms: C_49  and  C_50 
REMARK   41  A    between atoms: C_50  and  C_51 
REMARK   42  A    between atoms: C_51  and  C_52 
REMARK   43  A    between atoms: C_52  and  C_53 
REMARK   44  A    between atoms: C_53  and  C_54 
REMARK   45  A    between atoms: C_54  and  C_55 
REMARK   46  A    between atoms: C_55  and  C_56 
REMARK   47  A    between atoms: C_56  and  C_57 
REMARK   48  A    between atoms: C_57  and  C_58 
REMARK   49  A    between atoms: C_58  and  O_60 
REMARK   50  A    between atoms: O_60  and  C_61 
REMARK   51  A    between atoms: C_61  and  C_62 
REMARK   52  A    between atoms: C_62  and  C_63 
REMARK   53  A    between atoms: C_62  and  O_65 
REMARK   54  A    between atoms: C_63  and  O_64 
REMARK   55  A    between atoms: C_69  and  C_70 
REMARK   56  A    between atoms: C_70  and  C_71 
REMARK   57  A    between atoms: C_71  and  C_72 
REMARK   58  A    between atoms: C_72  and  C_73 
REMARK   59  A    between atoms: C_73  and  C_74 
REMARK   60  A    between atoms: C_74  and  C_75 
REMARK   61  A    between atoms: C_75  and  C_76 
REMARK   62  A    between atoms: C_76  and  C_77 
REMARK   63  A    between atoms: C_77  and  C_78 
REMARK   64  A    between atoms: C_78  and  C_79 
REMARK   65  A    between atoms: C_79  and  C_80 
REMARK   66  A    between atoms: C_80  and  C_81 
REMARK   67  A    between atoms: C_81  and  C_82 
REMARK   68  A    between atoms: C_82  and  C_83 
REMARK   69  A    between atoms: C_83  and  C_84 
REMARK   70  A    between atoms: C_84  and  C_85 
REMARK   71  A    between atoms: C_85  and  O_87 
REMARK   72  A    between atoms: O_87  and  C_88 
REMARK   73  A    between atoms: C_88  and  C_89 
REMARK   74  A    between atoms: C_89  and  C_90 
REMARK   75  A    between atoms: C_89  and  O_92 
REMARK   76  A    between atoms: C_90  and  O_91 
REMARK   77  A    between atoms: C_96  and  C_97 
REMARK   78  A    between atoms: C_97  and  C_98 
REMARK   79  A    between atoms: C_98  and  C_99 
REMARK   80  A    between atoms: C_99  and  C_100 
REMARK   81  A    between atoms: C_100  and  C_101 
REMARK   82  A    between atoms: C_101  and  C_102 
REMARK   83  A    between atoms: C_102  and  C_103 
REMARK   84  A    between atoms: C_103  and  C_104 
REMARK   85  A    between atoms: C_104  and  C_105 
REMARK   86  A    between atoms: C_105  and  C_106 
REMARK   87  A    between atoms: C_106  and  C_107 
REMARK   88  A    between atoms: C_107  and  C_108 
REMARK   89  A    between atoms: C_108  and  C_109 
REMARK   90  A    between atoms: C_109  and  C_110 
REMARK   91  A    between atoms: C_110  and  C_111 
REMARK   92  A    between atoms: C_111  and  C_112 
REMARK   93  A    between atoms: C_112  and  O_114 
REMARK   94  A    between atoms: O_114  and  C_115 
REMARK   95  A    between atoms: C_115  and  C_116 
REMARK   96  A    between atoms: C_115  and  C_118 
REMARK   97  A    between atoms: C_116  and  O_117 
REMARK   98  A    between atoms: C_118  and  O_119 
ROOT
HETATM    1 NA   UNL     6     -25.042   0.441 -14.454  1.00  0.00     0.000 Na
ENDROOT
TORSDOF 98
BEGIN_RES ARG D 557
REMARK  4 active torsions:
REMARK  status: ('A' for Active; 'I' for Inactive)
REMARK    1  A    between atoms: CA   and  CB  
REMARK    2  A    between atoms: CB   and  CG  
REMARK    3  A    between atoms: CG   and  CD  
REMARK    4  A    between atoms: CD   and  NE  
REMARK       I    between atoms: NE   and  CZ  
REMARK       I    between atoms: CZ   and  NH1 
REMARK       I    between atoms: CZ   and  NH2 
ROOT
ATOM      1  CA  ARG D 557     -26.217   2.705 -17.014  1.00 35.49     0.159 C 
ENDROOT
BRANCH   1   2
ATOM      2  CB  ARG D 557     -26.789   1.319 -17.183  1.00 35.49     0.034 C 
BRANCH   2   3
ATOM      3  CG  ARG D 557     -28.232   1.226 -17.439  1.00 35.49     0.027 C 
BRANCH   3   4
ATOM      4  CD  ARG D 557     -28.913   0.306 -16.500  1.00 35.49     0.116 C 
BRANCH   4   5
ATOM      5  NE  ARG D 557     -29.313  -0.921 -17.138  1.00 35.49    -0.212 N 
ATOM      6  CZ  ARG D 557     -28.696  -2.077 -17.035  1.00 35.49     0.666 C 
ATOM      7  NH1 ARG D 557     -27.597  -2.233 -16.321  1.00 35.49    -0.235 N 
ATOM      8  NH2 ARG D 557     -29.213  -3.091 -17.666  1.00 35.49    -0.235 N 
ATOM      9  HH  ARG D 557     -27.241  -1.579 -15.896  1.00 35.49     0.174 HD
ATOM     10  HH  ARG D 557     -27.239  -3.011 -16.289  1.00 35.49     0.174 HD
ATOM     11  HH  ARG D 557     -29.927  -2.962 -18.113  1.00 35.49     0.174 HD
ATOM     12  HH  ARG D 557     -28.845  -3.854 -17.621  1.00 35.49     0.174 HD
ATOM     13  HE  ARG D 557     -29.971  -0.895 -17.676  1.00 35.49     0.178 HD
ENDBRANCH   4   5
ENDBRANCH   3   4
ENDBRANCH   2   3
ENDBRANCH   1   2
END_RES ARG D 557
BEGIN_RES GLU D 570
REMARK  3 active torsions:
REMARK  status: ('A' for Active; 'I' for Inactive)
REMARK    5  A    between atoms: CA   and  CB  
REMARK    6  A    between atoms: CB   and  CG  
REMARK    7  A    between atoms: CG   and  CD  
ROOT
ATOM     14  CA  GLU D 570     -18.033  -6.348 -13.375  1.00 32.92     0.160 C 
ENDROOT
BRANCH  14  15
ATOM     15  CB  GLU D 570     -19.500  -6.345 -13.794  1.00 32.92     0.043 C 
BRANCH  15  16
ATOM     16  CG  GLU D 570     -20.449  -5.565 -12.958  1.00 32.92     0.100 C 
BRANCH  16  17
ATOM     17  CD  GLU D 570     -21.696  -5.156 -13.707  1.00 32.92     0.185 C 
ATOM     18  OE1 GLU D 570     -22.750  -4.967 -13.071  1.00 32.92    -0.647 OA
ATOM     19  OE2 GLU D 570     -21.622  -5.041 -14.947  1.00 32.92    -0.647 OA
ENDBRANCH  16  17
ENDBRANCH  15  16
ENDBRANCH  14  15
END_RES GLU D 570
ENDMDL
MODEL 8
REMARK VINA RESULT:      -0.9      9.705      9.705
REMARK WARNING: 32 MAX_TORS EXCEEDED!!!
REMARK  98 active torsions:
REMARK  status: ('A' for Active; 'I' for Inactive)
REMARK    1  A    between atoms: C_2  and  C_3 
REMARK    2  A    between atoms: C_3  and  C_4 
REMARK    3  A    between atoms: C_4  and  C_5 
REMARK    4  A    between atoms: C_5  and  C_6 
REMARK    5  A    between atoms: C_6  and  C_7 
REMARK    6  A    between atoms: C_7  and  C_8 
REMARK    7  A    between atoms: C_8  and  C_9 
REMARK    8  A    between atoms: C_9  and  C_10 
REMARK    9  A    between atoms: C_10  and  C_11 
REMARK   10  A    between atoms: C_11  and  C_12 
REMARK   11  A    between atoms: C_12  and  C_13 
REMARK   12  A    between atoms: C_13  and  C_14 
REMARK   13  A    between atoms: C_14  and  C_15 
REMARK   14  A    between atoms: C_15  and  C_16 
REMARK   15  A    between atoms: C_16  and  C_17 
REMARK   16  A    between atoms: C_17  and  C_18 
REMARK   17  A    between atoms: C_22  and  C_23 
REMARK   18  A    between atoms: C_23  and  C_24 
REMARK   19  A    between atoms: C_24  and  C_25 
REMARK   20  A    between atoms: C_25  and  C_26 
REMARK   21  A    between atoms: C_26  and  C_27 
REMARK   22  A    between atoms: C_27  and  C_28 
REMARK   23  A    between atoms: C_28  and  C_29 
REMARK   24  A    between atoms: C_29  and  C_30 
REMARK   25  A    between atoms: C_30  and  C_31 
REMARK   26  A    between atoms: C_31  and  C_32 
REMARK   27  A    between atoms: C_32  and  C_33 
REMARK   28  A    between atoms: C_33  and  C_34 
REMARK   29  A    between atoms: C_34  and  C_35 
REMARK   30  A    between atoms: C_35  and  C_36 
REMARK   31  A    between atoms: C_36  and  C_37 
REMARK   32  A    between atoms: C_37  and  C_38 
REMARK   33  A    between atoms: C_42  and  C_43 
REMARK   34  A    between atoms: C_43  and  C_44 
REMARK   35  A    between atoms: C_44  and  C_45 
REMARK   36  A    between atoms: C_45  and  C_46 
REMARK   37  A    between atoms: C_46  and  C_47 
REMARK   38  A    between atoms: C_47  and  C_48 
REMARK   39  A    between atoms: C_48  and  C_49 
REMARK   40  A    between atoms: C_49  and  C_50 
REMARK   41  A    between atoms: C_50  and  C_51 
REMARK   42  A    between atoms: C_51  and  C_52 
REMARK   43  A    between atoms: C_52  and  C_53 
REMARK   44  A    between atoms: C_53  and  C_54 
REMARK   45  A    between atoms: C_54  and  C_55 
REMARK   46  A    between atoms: C_55  and  C_56 
REMARK   47  A    between atoms: C_56  and  C_57 
REMARK   48  A    between atoms: C_57  and  C_58 
REMARK   49  A    between atoms: C_58  and  O_60 
REMARK   50  A    between atoms: O_60  and  C_61 
REMARK   51  A    between atoms: C_61  and  C_62 
REMARK   52  A    between atoms: C_62  and  C_63 
REMARK   53  A    between atoms: C_62  and  O_65 
REMARK   54  A    between atoms: C_63  and  O_64 
REMARK   55  A    between atoms: C_69  and  C_70 
REMARK   56  A    between atoms: C_70  and  C_71 
REMARK   57  A    between atoms: C_71  and  C_72 
REMARK   58  A    between atoms: C_72  and  C_73 
REMARK   59  A    between atoms: C_73  and  C_74 
REMARK   60  A    between atoms: C_74  and  C_75 
REMARK   61  A    between atoms: C_75  and  C_76 
REMARK   62  A    between atoms: C_76  and  C_77 
REMARK   63  A    between atoms: C_77  and  C_78 
REMARK   64  A    between atoms: C_78  and  C_79 
REMARK   65  A    between atoms: C_79  and  C_80 
REMARK   66  A    between atoms: C_80  and  C_81 
REMARK   67  A    between atoms: C_81  and  C_82 
REMARK   68  A    between atoms: C_82  and  C_83 
REMARK   69  A    between atoms: C_83  and  C_84 
REMARK   70  A    between atoms: C_84  and  C_85 
REMARK   71  A    between atoms: C_85  and  O_87 
REMARK   72  A    between atoms: O_87  and  C_88 
REMARK   73  A    between atoms: C_88  and  C_89 
REMARK   74  A    between atoms: C_89  and  C_90 
REMARK   75  A    between atoms: C_89  and  O_92 
REMARK   76  A    between atoms: C_90  and  O_91 
REMARK   77  A    between atoms: C_96  and  C_97 
REMARK   78  A    between atoms: C_97  and  C_98 
REMARK   79  A    between atoms: C_98  and  C_99 
REMARK   80  A    between atoms: C_99  and  C_100 
REMARK   81  A    between atoms: C_100  and  C_101 
REMARK   82  A    between atoms: C_101  and  C_102 
REMARK   83  A    between atoms: C_102  and  C_103 
REMARK   84  A    between atoms: C_103  and  C_104 
REMARK   85  A    between atoms: C_104  and  C_105 
REMARK   86  A    between atoms: C_105  and  C_106 
REMARK   87  A    between atoms: C_106  and  C_107 
REMARK   88  A    between atoms: C_107  and  C_108 
REMARK   89  A    between atoms: C_108  and  C_109 
REMARK   90  A    between atoms: C_109  and  C_110 
REMARK   91  A    between atoms: C_110  and  C_111 
REMARK   92  A    between atoms: C_111  and  C_112 
REMARK   93  A    between atoms: C_112  and  O_114 
REMARK   94  A    between atoms: O_114  and  C_115 
REMARK   95  A    between atoms: C_115  and  C_116 
REMARK   96  A    between atoms: C_115  and  C_118 
REMARK   97  A    between atoms: C_116  and  O_117 
REMARK   98  A    between atoms: C_118  and  O_119 
ROOT
HETATM    1 NA   UNL     6     -14.955  11.640 -13.517  1.00  0.00     0.000 Na
ENDROOT
TORSDOF 98
BEGIN_RES ARG D 557
REMARK  4 active torsions:
REMARK  status: ('A' for Active; 'I' for Inactive)
REMARK    1  A    between atoms: CA   and  CB  
REMARK    2  A    between atoms: CB   and  CG  
REMARK    3  A    between atoms: CG   and  CD  
REMARK    4  A    between atoms: CD   and  NE  
REMARK       I    between atoms: NE   and  CZ  
REMARK       I    between atoms: CZ   and  NH1 
REMARK       I    between atoms: CZ   and  NH2 
ROOT
ATOM      1  CA  ARG D 557     -26.217   2.705 -17.014  1.00 35.49     0.159 C 
ENDROOT
BRANCH   1   2
ATOM      2  CB  ARG D 557     -26.789   1.319 -17.183  1.00 35.49     0.034 C 
BRANCH   2   3
ATOM      3  CG  ARG D 557     -25.835   0.203 -17.158  1.00 35.49     0.027 C 
BRANCH   3   4
ATOM      4  CD  ARG D 557     -24.749   0.411 -16.175  1.00 35.49     0.116 C 
BRANCH   4   5
ATOM      5  NE  ARG D 557     -24.894  -0.433 -15.018  1.00 35.49    -0.212 N 
ATOM      6  CZ  ARG D 557     -24.079  -1.402 -14.668  1.00 35.49     0.666 C 
ATOM      7  NH1 ARG D 557     -23.010  -1.721 -15.374  1.00 35.49    -0.235 N 
ATOM      8  NH2 ARG D 557     -24.355  -2.053 -13.574  1.00 35.49    -0.235 N 
ATOM      9  HH  ARG D 557     -22.809  -1.305 -16.096  1.00 35.49     0.174 HD
ATOM     10  HH  ARG D 557     -22.514  -2.361 -15.095  1.00 35.49     0.174 HD
ATOM     11  HH  ARG D 557     -25.047  -1.820 -13.134  1.00 35.49     0.174 HD
ATOM     12  HH  ARG D 557     -23.850  -2.682 -13.314  1.00 35.49     0.174 HD
ATOM     13  HE  ARG D 557     -25.596  -0.345 -14.545  1.00 35.49     0.178 HD
ENDBRANCH   4   5
ENDBRANCH   3   4
ENDBRANCH   2   3
ENDBRANCH   1   2
END_RES ARG D 557
BEGIN_RES GLU D 570
REMARK  3 active torsions:
REMARK  status: ('A' for Active; 'I' for Inactive)
REMARK    5  A    between atoms: CA   and  CB  
REMARK    6  A    between atoms: CB   and  CG  
REMARK    7  A    between atoms: CG   and  CD  
ROOT
ATOM     14  CA  GLU D 570     -18.033  -6.348 -13.375  1.00 32.92     0.160 C 
ENDROOT
BRANCH  14  15
ATOM     15  CB  GLU D 570     -19.500  -6.345 -13.794  1.00 32.92     0.043 C 
BRANCH  15  16
ATOM     16  CG  GLU D 570     -20.440  -5.522 -12.990  1.00 32.92     0.100 C 
BRANCH  16  17
ATOM     17  CD  GLU D 570     -21.745  -5.253 -13.702  1.00 32.92     0.185 C 
ATOM     18  OE1 GLU D 570     -22.217  -6.129 -14.451  1.00 32.92    -0.647 OA
ATOM     19  OE2 GLU D 570     -22.293  -4.148 -13.520  1.00 32.92    -0.647 OA
ENDBRANCH  16  17
ENDBRANCH  15  16
ENDBRANCH  14  15
END_RES GLU D 570
ENDMDL
MODEL 9
REMARK VINA RESULT:      -0.8      7.537      7.613
REMARK WARNING: 32 MAX_TORS EXCEEDED!!!
REMARK  98 active torsions:
REMARK  status: ('A' for Active; 'I' for Inactive)
REMARK    1  A    between atoms: C_2  and  C_3 
REMARK    2  A    between atoms: C_3  and  C_4 
REMARK    3  A    between atoms: C_4  and  C_5 
REMARK    4  A    between atoms: C_5  and  C_6 
REMARK    5  A    between atoms: C_6  and  C_7 
REMARK    6  A    between atoms: C_7  and  C_8 
REMARK    7  A    between atoms: C_8  and  C_9 
REMARK    8  A    between atoms: C_9  and  C_10 
REMARK    9  A    between atoms: C_10  and  C_11 
REMARK   10  A    between atoms: C_11  and  C_12 
REMARK   11  A    between atoms: C_12  and  C_13 
REMARK   12  A    between atoms: C_13  and  C_14 
REMARK   13  A    between atoms: C_14  and  C_15 
REMARK   14  A    between atoms: C_15  and  C_16 
REMARK   15  A    between atoms: C_16  and  C_17 
REMARK   16  A    between atoms: C_17  and  C_18 
REMARK   17  A    between atoms: C_22  and  C_23 
REMARK   18  A    between atoms: C_23  and  C_24 
REMARK   19  A    between atoms: C_24  and  C_25 
REMARK   20  A    between atoms: C_25  and  C_26 
REMARK   21  A    between atoms: C_26  and  C_27 
REMARK   22  A    between atoms: C_27  and  C_28 
REMARK   23  A    between atoms: C_28  and  C_29 
REMARK   24  A    between atoms: C_29  and  C_30 
REMARK   25  A    between atoms: C_30  and  C_31 
REMARK   26  A    between atoms: C_31  and  C_32 
REMARK   27  A    between atoms: C_32  and  C_33 
REMARK   28  A    between atoms: C_33  and  C_34 
REMARK   29  A    between atoms: C_34  and  C_35 
REMARK   30  A    between atoms: C_35  and  C_36 
REMARK   31  A    between atoms: C_36  and  C_37 
REMARK   32  A    between atoms: C_37  and  C_38 
REMARK   33  A    between atoms: C_42  and  C_43 
REMARK   34  A    between atoms: C_43  and  C_44 
REMARK   35  A    between atoms: C_44  and  C_45 
REMARK   36  A    between atoms: C_45  and  C_46 
REMARK   37  A    between atoms: C_46  and  C_47 
REMARK   38  A    between atoms: C_47  and  C_48 
REMARK   39  A    between atoms: C_48  and  C_49 
REMARK   40  A    between atoms: C_49  and  C_50 
REMARK   41  A    between atoms: C_50  and  C_51 
REMARK   42  A    between atoms: C_51  and  C_52 
REMARK   43  A    between atoms: C_52  and  C_53 
REMARK   44  A    between atoms: C_53  and  C_54 
REMARK   45  A    between atoms: C_54  and  C_55 
REMARK   46  A    between atoms: C_55  and  C_56 
REMARK   47  A    between atoms: C_56  and  C_57 
REMARK   48  A    between atoms: C_57  and  C_58 
REMARK   49  A    between atoms: C_58  and  O_60 
REMARK   50  A    between atoms: O_60  and  C_61 
REMARK   51  A    between atoms: C_61  and  C_62 
REMARK   52  A    between atoms: C_62  and  C_63 
REMARK   53  A    between atoms: C_62  and  O_65 
REMARK   54  A    between atoms: C_63  and  O_64 
REMARK   55  A    between atoms: C_69  and  C_70 
REMARK   56  A    between atoms: C_70  and  C_71 
REMARK   57  A    between atoms: C_71  and  C_72 
REMARK   58  A    between atoms: C_72  and  C_73 
REMARK   59  A    between atoms: C_73  and  C_74 
REMARK   60  A    between atoms: C_74  and  C_75 
REMARK   61  A    between atoms: C_75  and  C_76 
REMARK   62  A    between atoms: C_76  and  C_77 
REMARK   63  A    between atoms: C_77  and  C_78 
REMARK   64  A    between atoms: C_78  and  C_79 
REMARK   65  A    between atoms: C_79  and  C_80 
REMARK   66  A    between atoms: C_80  and  C_81 
REMARK   67  A    between atoms: C_81  and  C_82 
REMARK   68  A    between atoms: C_82  and  C_83 
REMARK   69  A    between atoms: C_83  and  C_84 
REMARK   70  A    between atoms: C_84  and  C_85 
REMARK   71  A    between atoms: C_85  and  O_87 
REMARK   72  A    between atoms: O_87  and  C_88 
REMARK   73  A    between atoms: C_88  and  C_89 
REMARK   74  A    between atoms: C_89  and  C_90 
REMARK   75  A    between atoms: C_89  and  O_92 
REMARK   76  A    between atoms: C_90  and  O_91 
REMARK   77  A    between atoms: C_96  and  C_97 
REMARK   78  A    between atoms: C_97  and  C_98 
REMARK   79  A    between atoms: C_98  and  C_99 
REMARK   80  A    between atoms: C_99  and  C_100 
REMARK   81  A    between atoms: C_100  and  C_101 
REMARK   82  A    between atoms: C_101  and  C_102 
REMARK   83  A    between atoms: C_102  and  C_103 
REMARK   84  A    between atoms: C_103  and  C_104 
REMARK   85  A    between atoms: C_104  and  C_105 
REMARK   86  A    between atoms: C_105  and  C_106 
REMARK   87  A    between atoms: C_106  and  C_107 
REMARK   88  A    between atoms: C_107  and  C_108 
REMARK   89  A    between atoms: C_108  and  C_109 
REMARK   90  A    between atoms: C_109  and  C_110 
REMARK   91  A    between atoms: C_110  and  C_111 
REMARK   92  A    between atoms: C_111  and  C_112 
REMARK   93  A    between atoms: C_112  and  O_114 
REMARK   94  A    between atoms: O_114  and  C_115 
REMARK   95  A    between atoms: C_115  and  C_116 
REMARK   96  A    between atoms: C_115  and  C_118 
REMARK   97  A    between atoms: C_116  and  O_117 
REMARK   98  A    between atoms: C_118  and  O_119 
ROOT
HETATM    1 NA   UNL     6     -22.843  -0.326 -16.871  1.00  0.00     0.000 Na
ENDROOT
TORSDOF 98
BEGIN_RES ARG D 557
REMARK  4 active torsions:
REMARK  status: ('A' for Active; 'I' for Inactive)
REMARK    1  A    between atoms: CA   and  CB  
REMARK    2  A    between atoms: CB   and  CG  
REMARK    3  A    between atoms: CG   and  CD  
REMARK    4  A    between atoms: CD   and  NE  
REMARK       I    between atoms: NE   and  CZ  
REMARK       I    between atoms: CZ   and  NH1 
REMARK       I    between atoms: CZ   and  NH2 
ROOT
ATOM      1  CA  ARG D 557     -26.217   2.705 -17.014  1.00 35.49     0.159 C 
ENDROOT
BRANCH   1   2
ATOM      2  CB  ARG D 557     -26.789   1.319 -17.183  1.00 35.49     0.034 C 
BRANCH   2   3
ATOM      3  CG  ARG D 557     -25.857   0.196 -17.026  1.00 35.49     0.027 C 
BRANCH   3   4
ATOM      4  CD  ARG D 557     -26.220  -0.684 -15.892  1.00 35.49     0.116 C 
BRANCH   4   5
ATOM      5  NE  ARG D 557     -25.147  -0.817 -14.942  1.00 35.49    -0.212 N 
ATOM      6  CZ  ARG D 557     -24.760  -1.936 -14.372  1.00 35.49     0.666 C 
ATOM      7  NH1 ARG D 557     -25.348  -3.093 -14.609  1.00 35.49    -0.235 N 
ATOM      8  NH2 ARG D 557     -23.752  -1.873 -13.550  1.00 35.49    -0.235 N 
ATOM      9  HH  ARG D 557     -26.011  -3.158 -15.148  1.00 35.49     0.174 HD
ATOM     10  HH  ARG D 557     -25.050  -3.791 -14.210  1.00 35.49     0.174 HD
ATOM     11  HH  ARG D 557     -23.387  -1.113 -13.422  1.00 35.49     0.174 HD
ATOM     12  HH  ARG D 557     -23.471  -2.575 -13.166  1.00 35.49     0.174 HD
ATOM     13  HE  ARG D 557     -24.759  -0.108 -14.676  1.00 35.49     0.178 HD
ENDBRANCH   4   5
ENDBRANCH   3   4
ENDBRANCH   2   3
ENDBRANCH   1   2
END_RES ARG D 557
BEGIN_RES GLU D 570
REMARK  3 active torsions:
REMARK  status: ('A' for Active; 'I' for Inactive)
REMARK    5  A    between atoms: CA   and  CB  
REMARK    6  A    between atoms: CB   and  CG  
REMARK    7  A    between atoms: CG   and  CD  
ROOT
ATOM     14  CA  GLU D 570     -18.033  -6.348 -13.375  1.00 32.92     0.160 C 
ENDROOT
BRANCH  14  15
ATOM     15  CB  GLU D 570     -19.500  -6.345 -13.794  1.00 32.92     0.043 C 
BRANCH  15  16
ATOM     16  CG  GLU D 570     -20.438  -5.515 -12.995  1.00 32.92     0.100 C 
BRANCH  16  17
ATOM     17  CD  GLU D 570     -21.690  -5.142 -13.756  1.00 32.92     0.185 C 
ATOM     18  OE1 GLU D 570     -22.592  -4.518 -13.167  1.00 32.92    -0.647 OA
ATOM     19  OE2 GLU D 570     -21.775  -5.494 -14.949  1.00 32.92    -0.647 OA
ENDBRANCH  16  17
ENDBRANCH  15  16
ENDBRANCH  14  15
END_RES GLU D 570
ENDMDL
