MODEL 1
REMARK VINA RESULT:      -7.0      0.000      0.000
REMARK  13 active torsions:
REMARK  status: ('A' for Active; 'I' for Inactive)
REMARK       I    between atoms: C_2  and  N_4 
REMARK    1  A    between atoms: N_4  and  C_5 
REMARK    2  A    between atoms: C_6  and  O_18 
REMARK    3  A    between atoms: C_7  and  O_17 
REMARK    4  A    between atoms: C_8  and  O_12 
REMARK    5  A    between atoms: C_10  and  O_11 
REMARK    6  A    between atoms: O_12  and  S_13 
REMARK    7  A    between atoms: S_13  and  O_16 
REMARK    8  A    between atoms: O_18  and  C_19 
REMARK    9  A    between atoms: C_20  and  O_30 
REMARK   10  A    between atoms: C_21  and  O_29 
REMARK   11  A    between atoms: C_22  and  O_28 
REMARK   12  A    between atoms: C_23  and  C_25 
REMARK   13  A    between atoms: C_25  and  O_27 
ROOT
HETATM    1  C   UNL     1     -28.012  -5.272 -17.688  1.00  0.00     0.171 C 
HETATM    2  C   UNL     1     -27.137  -6.509 -17.334  1.00  0.00     0.185 C 
HETATM    3  C   UNL     1     -27.085  -6.620 -15.789  1.00  0.00     0.205 C 
HETATM    4  C   UNL     1     -26.578  -5.316 -15.143  1.00  0.00     0.315 C 
HETATM    5  O   UNL     1     -27.463  -4.248 -15.496  1.00  0.00    -0.326 OA
HETATM    6  C   UNL     1     -27.514  -4.025 -16.906  1.00  0.00     0.285 C 
ENDROOT
BRANCH   2   7
HETATM    7  O   UNL     1     -25.792  -6.481 -17.887  1.00  0.00    -0.348 OA
BRANCH   7   8
HETATM    8  C   UNL     1     -25.691  -6.104 -19.274  1.00  0.00     0.292 C 
HETATM    9  C   UNL     1     -26.827  -6.654 -20.181  1.00  0.00     0.204 C 
HETATM   10  C   UNL     1     -26.556  -8.119 -20.543  1.00  0.00     0.183 C 
HETATM   11  C   UNL     1     -25.172  -8.245 -21.181  1.00  0.00     0.189 C 
HETATM   12  C   UNL     1     -24.166  -7.801 -20.115  1.00  0.00     0.253 C 
HETATM   13  O   UNL     1     -24.360  -6.422 -19.764  1.00  0.00    -0.340 OA
BRANCH   9  14
HETATM   14  O   UNL     1     -26.936  -5.849 -21.374  1.00  0.00    -0.388 OA
HETATM   15  H   UNL     1     -27.496  -6.349 -22.008  1.00  0.00     0.210 HD
ENDBRANCH   9  14
BRANCH  10  16
HETATM   16  O   UNL     1     -27.557  -8.617 -21.432  1.00  0.00    -0.390 OA
HETATM   17  H   UNL     1     -27.101  -9.225 -22.048  1.00  0.00     0.210 HD
ENDBRANCH  10  16
BRANCH  11  18
HETATM   18  O   UNL     1     -25.114  -7.374 -22.335  1.00  0.00    -0.390 OA
HETATM   19  H   UNL     1     -25.879  -7.587 -22.907  1.00  0.00     0.210 HD
ENDBRANCH  11  18
BRANCH  12  20
HETATM   20  C   UNL     1     -22.751  -8.056 -20.658  1.00  0.00     0.172 C 
HETATM   21  O   UNL     1     -22.501  -8.330 -21.823  1.00  0.00    -0.648 OA
BRANCH  20  22
HETATM   22  O   UNL     1     -21.799  -7.934 -19.713  1.00  0.00    -0.774 OA
HETATM   23  H   UNL     1     -22.173  -7.528 -18.895  1.00  0.00     0.167 HD
ENDBRANCH  20  22
ENDBRANCH  12  20
ENDBRANCH   7   8
ENDBRANCH   2   7
BRANCH   1  24
HETATM   24  N   UNL     1     -29.447  -5.527 -17.470  1.00  0.00    -0.349 N 
HETATM   25  C   UNL     1     -30.029  -6.673 -17.973  1.00  0.00     0.214 C 
HETATM   26  C   UNL     1     -31.500  -6.815 -17.709  1.00  0.00     0.117 C 
HETATM   27  O   UNL     1     -29.385  -7.531 -18.565  1.00  0.00    -0.274 OA
HETATM   28  H   UNL     1     -30.021  -4.824 -17.014  1.00  0.00     0.163 HD
ENDBRANCH   1  24
BRANCH   3  29
HETATM   29  O   UNL     1     -26.328  -7.753 -15.372  1.00  0.00    -0.388 OA
HETATM   30  H   UNL     1     -25.893  -8.116 -16.170  1.00  0.00     0.210 HD
ENDBRANCH   3  29
BRANCH   6  31
HETATM   31  O   UNL     1     -28.360  -2.903 -17.129  1.00  0.00    -0.369 OA
HETATM   32  H   UNL     1     -27.964  -2.129 -16.695  1.00  0.00     0.212 HD
ENDBRANCH   6  31
BRANCH   4  33
HETATM   33  O   UNL     1     -25.249  -5.052 -15.538  1.00  0.00    -0.228 OA
BRANCH  33  34
HETATM   34  S   UNL     1     -24.039  -5.403 -14.515  1.00  0.00     0.243 S 
HETATM   35  O   UNL     1     -24.249  -4.653 -13.298  1.00  0.00    -0.579 OA
HETATM   36  O   UNL     1     -23.877  -6.835 -14.518  1.00  0.00    -0.579 OA
BRANCH  34  37
HETATM   37  O   UNL     1     -22.750  -4.758 -15.235  1.00  0.00    -0.273 OA
HETATM   38  H   UNL     1     -22.215  -5.463 -15.658  1.00  0.00     0.234 HD
ENDBRANCH  34  37
ENDBRANCH  33  34
ENDBRANCH   4  33
TORSDOF 13
BEGIN_RES ARG D 557
REMARK  4 active torsions:
REMARK  status: ('A' for Active; 'I' for Inactive)
REMARK    1  A    between atoms: CA   and  CB  
REMARK    2  A    between atoms: CB   and  CG  
REMARK    3  A    between atoms: CG   and  CD  
REMARK    4  A    between atoms: CD   and  NE  
REMARK       I    between atoms: NE   and  CZ  
REMARK       I    between atoms: CZ   and  NH1 
REMARK       I    between atoms: CZ   and  NH2 
ROOT
ATOM      1  CA  ARG D 557     -26.217   2.705 -17.014  1.00 35.49     0.159 C 
ENDROOT
BRANCH   1   2
ATOM      2  CB  ARG D 557     -26.789   1.319 -17.183  1.00 35.49     0.034 C 
BRANCH   2   3
ATOM      3  CG  ARG D 557     -25.835   0.204 -17.167  1.00 35.49     0.027 C 
BRANCH   3   4
ATOM      4  CD  ARG D 557     -24.684   0.459 -16.270  1.00 35.49     0.116 C 
BRANCH   4   5
ATOM      5  NE  ARG D 557     -24.759  -0.313 -15.058  1.00 35.49    -0.212 N 
ATOM      6  CZ  ARG D 557     -23.948  -1.290 -14.719  1.00 35.49     0.666 C 
ATOM      7  NH1 ARG D 557     -22.953  -1.687 -15.491  1.00 35.49    -0.235 N 
ATOM      8  NH2 ARG D 557     -24.152  -1.868 -13.570  1.00 35.49    -0.235 N 
ATOM      9  HH  ARG D 557     -22.800  -1.320 -16.250  1.00 35.49     0.174 HD
ATOM     10  HH  ARG D 557     -22.455  -2.328 -15.216  1.00 35.49     0.174 HD
ATOM     11  HH  ARG D 557     -24.797  -1.585 -13.089  1.00 35.49     0.174 HD
ATOM     12  HH  ARG D 557     -23.647  -2.499 -13.315  1.00 35.49     0.174 HD
ATOM     13  HE  ARG D 557     -25.415  -0.173 -14.535  1.00 35.49     0.178 HD
ENDBRANCH   4   5
ENDBRANCH   3   4
ENDBRANCH   2   3
ENDBRANCH   1   2
END_RES ARG D 557
BEGIN_RES GLU D 570
REMARK  3 active torsions:
REMARK  status: ('A' for Active; 'I' for Inactive)
REMARK    5  A    between atoms: CA   and  CB  
REMARK    6  A    between atoms: CB   and  CG  
REMARK    7  A    between atoms: CG   and  CD  
ROOT
ATOM     14  CA  GLU D 570     -18.033  -6.348 -13.375  1.00 32.92     0.160 C 
ENDROOT
BRANCH  14  15
ATOM     15  CB  GLU D 570     -19.500  -6.345 -13.794  1.00 32.92     0.043 C 
BRANCH  15  16
ATOM     16  CG  GLU D 570     -20.084  -7.632 -14.251  1.00 32.92     0.100 C 
BRANCH  16  17
ATOM     17  CD  GLU D 570     -20.665  -7.554 -15.644  1.00 32.92     0.185 C 
ATOM     18  OE1 GLU D 570     -20.604  -6.476 -16.266  1.00 32.92    -0.647 OA
ATOM     19  OE2 GLU D 570     -21.201  -8.578 -16.112  1.00 32.92    -0.647 OA
ENDBRANCH  16  17
ENDBRANCH  15  16
ENDBRANCH  14  15
END_RES GLU D 570
ENDMDL
MODEL 2
REMARK VINA RESULT:      -6.9     11.036     15.505
REMARK  13 active torsions:
REMARK  status: ('A' for Active; 'I' for Inactive)
REMARK       I    between atoms: C_2  and  N_4 
REMARK    1  A    between atoms: N_4  and  C_5 
REMARK    2  A    between atoms: C_6  and  O_18 
REMARK    3  A    between atoms: C_7  and  O_17 
REMARK    4  A    between atoms: C_8  and  O_12 
REMARK    5  A    between atoms: C_10  and  O_11 
REMARK    6  A    between atoms: O_12  and  S_13 
REMARK    7  A    between atoms: S_13  and  O_16 
REMARK    8  A    between atoms: O_18  and  C_19 
REMARK    9  A    between atoms: C_20  and  O_30 
REMARK   10  A    between atoms: C_21  and  O_29 
REMARK   11  A    between atoms: C_22  and  O_28 
REMARK   12  A    between atoms: C_23  and  C_25 
REMARK   13  A    between atoms: C_25  and  O_27 
ROOT
HETATM    1  C   UNL     1     -19.996  -9.764  -4.808  1.00  0.00     0.171 C 
HETATM    2  C   UNL     1     -19.213  -9.584  -3.475  1.00  0.00     0.185 C 
HETATM    3  C   UNL     1     -17.701  -9.602  -3.813  1.00  0.00     0.205 C 
HETATM    4  C   UNL     1     -17.306 -10.881  -4.578  1.00  0.00     0.315 C 
HETATM    5  O   UNL     1     -18.049 -10.939  -5.800  1.00  0.00    -0.326 OA
HETATM    6  C   UNL     1     -19.459 -11.002  -5.579  1.00  0.00     0.285 C 
ENDROOT
BRANCH   2   7
HETATM    7  O   UNL     1     -19.518 -10.573  -2.453  1.00  0.00    -0.348 OA
BRANCH   7   8
HETATM    8  C   UNL     1     -19.775 -10.053  -1.134  1.00  0.00     0.292 C 
HETATM    9  C   UNL     1     -20.732 -10.919  -0.269  1.00  0.00     0.204 C 
HETATM   10  C   UNL     1     -22.190 -10.663  -0.671  1.00  0.00     0.183 C 
HETATM   11  C   UNL     1     -22.496  -9.168  -0.579  1.00  0.00     0.189 C 
HETATM   12  C   UNL     1     -21.572  -8.479  -1.588  1.00  0.00     0.253 C 
HETATM   13  O   UNL     1     -20.192  -8.664  -1.236  1.00  0.00    -0.340 OA
BRANCH   9  14
HETATM   14  O   UNL     1     -20.533 -10.624   1.129  1.00  0.00    -0.388 OA
HETATM   15  H   UNL     1     -19.694 -11.059   1.398  1.00  0.00     0.210 HD
ENDBRANCH   9  14
BRANCH  10  16
HETATM   16  O   UNL     1     -23.085 -11.402   0.162  1.00  0.00    -0.390 OA
HETATM   17  H   UNL     1     -23.942 -10.933   0.130  1.00  0.00     0.210 HD
ENDBRANCH  10  16
BRANCH  11  18
HETATM   18  O   UNL     1     -22.209  -8.719   0.767  1.00  0.00    -0.390 OA
HETATM   19  H   UNL     1     -21.965  -7.773   0.720  1.00  0.00     0.210 HD
ENDBRANCH  11  18
BRANCH  12  20
HETATM   20  C   UNL     1     -21.950  -6.990  -1.642  1.00  0.00     0.172 C 
HETATM   21  O   UNL     1     -22.778  -6.464  -0.912  1.00  0.00    -0.648 OA
BRANCH  20  22
HETATM   22  O   UNL     1     -21.261  -6.310  -2.578  1.00  0.00    -0.774 OA
HETATM   23  H   UNL     1     -21.735  -6.333  -3.443  1.00  0.00     0.167 HD
ENDBRANCH  20  22
ENDBRANCH  12  20
ENDBRANCH   7   8
ENDBRANCH   2   7
BRANCH   1  24
HETATM   24  N   UNL     1     -19.973  -8.543  -5.634  1.00  0.00    -0.349 N 
HETATM   25  C   UNL     1     -21.061  -7.694  -5.642  1.00  0.00     0.214 C 
HETATM   26  C   UNL     1     -20.934  -6.496  -6.537  1.00  0.00     0.117 C 
HETATM   27  O   UNL     1     -22.049  -7.887  -4.944  1.00  0.00    -0.274 OA
HETATM   28  H   UNL     1     -19.186  -8.367  -6.253  1.00  0.00     0.163 HD
ENDBRANCH   1  24
BRANCH   3  29
HETATM   29  O   UNL     1     -16.904  -9.408  -2.649  1.00  0.00    -0.388 OA
HETATM   30  H   UNL     1     -17.252  -8.616  -2.192  1.00  0.00     0.210 HD
ENDBRANCH   3  29
BRANCH   6  31
HETATM   31  O   UNL     1     -20.083 -11.131  -6.851  1.00  0.00    -0.369 OA
HETATM   32  H   UNL     1     -20.652 -11.918  -6.835  1.00  0.00     0.212 HD
ENDBRANCH   6  31
BRANCH   4  33
HETATM   33  O   UNL     1     -17.519 -12.023  -3.776  1.00  0.00    -0.228 OA
BRANCH  33  34
HETATM   34  S   UNL     1     -16.336 -12.518  -2.781  1.00  0.00     0.243 S 
HETATM   35  O   UNL     1     -16.376 -13.961  -2.722  1.00  0.00    -0.579 OA
HETATM   36  O   UNL     1     -15.142 -11.795  -3.141  1.00  0.00    -0.579 OA
BRANCH  34  37
HETATM   37  O   UNL     1     -16.821 -11.986  -1.340  1.00  0.00    -0.273 OA
HETATM   38  H   UNL     1     -17.381 -12.663  -0.904  1.00  0.00     0.234 HD
ENDBRANCH  34  37
ENDBRANCH  33  34
ENDBRANCH   4  33
TORSDOF 13
BEGIN_RES ARG D 557
REMARK  4 active torsions:
REMARK  status: ('A' for Active; 'I' for Inactive)
REMARK    1  A    between atoms: CA   and  CB  
REMARK    2  A    between atoms: CB   and  CG  
REMARK    3  A    between atoms: CG   and  CD  
REMARK    4  A    between atoms: CD   and  NE  
REMARK       I    between atoms: NE   and  CZ  
REMARK       I    between atoms: CZ   and  NH1 
REMARK       I    between atoms: CZ   and  NH2 
ROOT
ATOM      1  CA  ARG D 557     -26.217   2.705 -17.014  1.00 35.49     0.159 C 
ENDROOT
BRANCH   1   2
ATOM      2  CB  ARG D 557     -26.789   1.319 -17.183  1.00 35.49     0.034 C 
BRANCH   2   3
ATOM      3  CG  ARG D 557     -25.835   0.204 -17.163  1.00 35.49     0.027 C 
BRANCH   3   4
ATOM      4  CD  ARG D 557     -24.750   0.407 -16.176  1.00 35.49     0.116 C 
BRANCH   4   5
ATOM      5  NE  ARG D 557     -24.898  -0.442 -15.024  1.00 35.49    -0.212 N 
ATOM      6  CZ  ARG D 557     -24.082  -1.411 -14.673  1.00 35.49     0.666 C 
ATOM      7  NH1 ARG D 557     -23.010  -1.725 -15.377  1.00 35.49    -0.235 N 
ATOM      8  NH2 ARG D 557     -24.361  -2.065 -13.583  1.00 35.49    -0.235 N 
ATOM      9  HH  ARG D 557     -22.807  -1.306 -16.096  1.00 35.49     0.174 HD
ATOM     10  HH  ARG D 557     -22.513  -2.364 -15.098  1.00 35.49     0.174 HD
ATOM     11  HH  ARG D 557     -25.056  -1.835 -13.145  1.00 35.49     0.174 HD
ATOM     12  HH  ARG D 557     -23.856  -2.694 -13.323  1.00 35.49     0.174 HD
ATOM     13  HE  ARG D 557     -25.601  -0.357 -14.553  1.00 35.49     0.178 HD
ENDBRANCH   4   5
ENDBRANCH   3   4
ENDBRANCH   2   3
ENDBRANCH   1   2
END_RES ARG D 557
BEGIN_RES GLU D 570
REMARK  3 active torsions:
REMARK  status: ('A' for Active; 'I' for Inactive)
REMARK    5  A    between atoms: CA   and  CB  
REMARK    6  A    between atoms: CB   and  CG  
REMARK    7  A    between atoms: CG   and  CD  
ROOT
ATOM     14  CA  GLU D 570     -18.033  -6.348 -13.375  1.00 32.92     0.160 C 
ENDROOT
BRANCH  14  15
ATOM     15  CB  GLU D 570     -19.500  -6.345 -13.794  1.00 32.92     0.043 C 
BRANCH  15  16
ATOM     16  CG  GLU D 570     -20.441  -5.525 -12.988  1.00 32.92     0.100 C 
BRANCH  16  17
ATOM     17  CD  GLU D 570     -21.742  -5.246 -13.703  1.00 32.92     0.185 C 
ATOM     18  OE1 GLU D 570     -22.206  -6.108 -14.474  1.00 32.92    -0.647 OA
ATOM     19  OE2 GLU D 570     -22.295  -4.146 -13.504  1.00 32.92    -0.647 OA
ENDBRANCH  16  17
ENDBRANCH  15  16
ENDBRANCH  14  15
END_RES GLU D 570
ENDMDL
MODEL 3
REMARK VINA RESULT:      -6.7     11.005     15.827
REMARK  13 active torsions:
REMARK  status: ('A' for Active; 'I' for Inactive)
REMARK       I    between atoms: C_2  and  N_4 
REMARK    1  A    between atoms: N_4  and  C_5 
REMARK    2  A    between atoms: C_6  and  O_18 
REMARK    3  A    between atoms: C_7  and  O_17 
REMARK    4  A    between atoms: C_8  and  O_12 
REMARK    5  A    between atoms: C_10  and  O_11 
REMARK    6  A    between atoms: O_12  and  S_13 
REMARK    7  A    between atoms: S_13  and  O_16 
REMARK    8  A    between atoms: O_18  and  C_19 
REMARK    9  A    between atoms: C_20  and  O_30 
REMARK   10  A    between atoms: C_21  and  O_29 
REMARK   11  A    between atoms: C_22  and  O_28 
REMARK   12  A    between atoms: C_23  and  C_25 
REMARK   13  A    between atoms: C_25  and  O_27 
ROOT
HETATM    1  C   UNL     1     -17.713 -11.128  -3.129  1.00  0.00     0.171 C 
HETATM    2  C   UNL     1     -19.082 -11.309  -3.846  1.00  0.00     0.185 C 
HETATM    3  C   UNL     1     -18.927 -10.779  -5.294  1.00  0.00     0.205 C 
HETATM    4  C   UNL     1     -18.422  -9.323  -5.313  1.00  0.00     0.315 C 
HETATM    5  O   UNL     1     -17.147  -9.265  -4.666  1.00  0.00    -0.326 OA
HETATM    6  C   UNL     1     -17.212  -9.667  -3.296  1.00  0.00     0.285 C 
ENDROOT
BRANCH   2   7
HETATM    7  O   UNL     1     -20.205 -10.662  -3.185  1.00  0.00    -0.348 OA
BRANCH   7   8
HETATM    8  C   UNL     1     -19.988 -10.275  -1.814  1.00  0.00     0.292 C 
HETATM    9  C   UNL     1     -20.601 -11.241  -0.761  1.00  0.00     0.204 C 
HETATM   10  C   UNL     1     -22.105 -10.981  -0.613  1.00  0.00     0.183 C 
HETATM   11  C   UNL     1     -22.343  -9.508  -0.279  1.00  0.00     0.189 C 
HETATM   12  C   UNL     1     -21.814  -8.706  -1.471  1.00  0.00     0.253 C 
HETATM   13  O   UNL     1     -20.399  -8.893  -1.632  1.00  0.00    -0.340 OA
BRANCH   9  14
HETATM   14  O   UNL     1     -19.931 -11.075   0.506  1.00  0.00    -0.388 OA
HETATM   15  H   UNL     1     -19.816 -11.972   0.890  1.00  0.00     0.210 HD
ENDBRANCH   9  14
BRANCH  10  16
HETATM   16  O   UNL     1     -22.669 -11.814   0.400  1.00  0.00    -0.390 OA
HETATM   17  H   UNL     1     -21.916 -12.241   0.856  1.00  0.00     0.210 HD
ENDBRANCH  10  16
BRANCH  11  18
HETATM   18  O   UNL     1     -21.608  -9.182   0.925  1.00  0.00    -0.390 OA
HETATM   19  H   UNL     1     -20.659  -9.139   0.690  1.00  0.00     0.210 HD
ENDBRANCH  11  18
BRANCH  12  20
HETATM   20  C   UNL     1     -22.170  -7.227  -1.249  1.00  0.00     0.172 C 
HETATM   21  O   UNL     1     -21.794  -6.314  -1.970  1.00  0.00    -0.648 OA
BRANCH  20  22
HETATM   22  O   UNL     1     -22.956  -7.036  -0.173  1.00  0.00    -0.774 OA
HETATM   23  H   UNL     1     -23.864  -6.765  -0.451  1.00  0.00     0.167 HD
ENDBRANCH  20  22
ENDBRANCH  12  20
ENDBRANCH   7   8
ENDBRANCH   2   7
BRANCH   1  24
HETATM   24  N   UNL     1     -16.715 -12.113  -3.583  1.00  0.00    -0.349 N 
HETATM   25  C   UNL     1     -15.816 -12.650  -2.684  1.00  0.00     0.214 C 
HETATM   26  C   UNL     1     -14.832 -13.625  -3.264  1.00  0.00     0.117 C 
HETATM   27  O   UNL     1     -15.838 -12.376  -1.491  1.00  0.00    -0.274 OA
HETATM   28  H   UNL     1     -16.643 -12.340  -4.571  1.00  0.00     0.163 HD
ENDBRANCH   1  24
BRANCH   3  29
HETATM   29  O   UNL     1     -20.131 -10.938  -6.039  1.00  0.00    -0.388 OA
HETATM   30  H   UNL     1     -20.360 -10.060  -6.404  1.00  0.00     0.210 HD
ENDBRANCH   3  29
BRANCH   6  31
HETATM   31  O   UNL     1     -15.913  -9.498  -2.741  1.00  0.00    -0.369 OA
HETATM   32  H   UNL     1     -15.378  -8.979  -3.364  1.00  0.00     0.212 HD
ENDBRANCH   6  31
BRANCH   4  33
HETATM   33  O   UNL     1     -19.362  -8.465  -4.706  1.00  0.00    -0.228 OA
BRANCH  33  34
HETATM   34  S   UNL     1     -20.320  -7.553  -5.647  1.00  0.00     0.243 S 
HETATM   35  O   UNL     1     -19.493  -6.923  -6.651  1.00  0.00    -0.579 OA
HETATM   36  O   UNL     1     -21.471  -8.351  -5.988  1.00  0.00    -0.579 OA
BRANCH  34  37
HETATM   37  O   UNL     1     -20.806  -6.383  -4.652  1.00  0.00    -0.273 OA
HETATM   38  H   UNL     1     -20.042  -5.827  -4.391  1.00  0.00     0.234 HD
ENDBRANCH  34  37
ENDBRANCH  33  34
ENDBRANCH   4  33
TORSDOF 13
BEGIN_RES ARG D 557
REMARK  4 active torsions:
REMARK  status: ('A' for Active; 'I' for Inactive)
REMARK    1  A    between atoms: CA   and  CB  
REMARK    2  A    between atoms: CB   and  CG  
REMARK    3  A    between atoms: CG   and  CD  
REMARK    4  A    between atoms: CD   and  NE  
REMARK       I    between atoms: NE   and  CZ  
REMARK       I    between atoms: CZ   and  NH1 
REMARK       I    between atoms: CZ   and  NH2 
ROOT
ATOM      1  CA  ARG D 557     -26.217   2.705 -17.014  1.00 35.49     0.159 C 
ENDROOT
BRANCH   1   2
ATOM      2  CB  ARG D 557     -26.789   1.319 -17.183  1.00 35.49     0.034 C 
BRANCH   2   3
ATOM      3  CG  ARG D 557     -25.858   0.196 -17.022  1.00 35.49     0.027 C 
BRANCH   3   4
ATOM      4  CD  ARG D 557     -26.222  -0.681 -15.885  1.00 35.49     0.116 C 
BRANCH   4   5
ATOM      5  NE  ARG D 557     -25.145  -0.820 -14.941  1.00 35.49    -0.212 N 
ATOM      6  CZ  ARG D 557     -24.763  -1.941 -14.371  1.00 35.49     0.666 C 
ATOM      7  NH1 ARG D 557     -25.362  -3.095 -14.604  1.00 35.49    -0.235 N 
ATOM      8  NH2 ARG D 557     -23.751  -1.886 -13.555  1.00 35.49    -0.235 N 
ATOM      9  HH  ARG D 557     -26.028  -3.155 -15.139  1.00 35.49     0.174 HD
ATOM     10  HH  ARG D 557     -25.068  -3.794 -14.206  1.00 35.49     0.174 HD
ATOM     11  HH  ARG D 557     -23.380  -1.128 -13.429  1.00 35.49     0.174 HD
ATOM     12  HH  ARG D 557     -23.474  -2.589 -13.171  1.00 35.49     0.174 HD
ATOM     13  HE  ARG D 557     -24.750  -0.114 -14.678  1.00 35.49     0.178 HD
ENDBRANCH   4   5
ENDBRANCH   3   4
ENDBRANCH   2   3
ENDBRANCH   1   2
END_RES ARG D 557
BEGIN_RES GLU D 570
REMARK  3 active torsions:
REMARK  status: ('A' for Active; 'I' for Inactive)
REMARK    5  A    between atoms: CA   and  CB  
REMARK    6  A    between atoms: CB   and  CG  
REMARK    7  A    between atoms: CG   and  CD  
ROOT
ATOM     14  CA  GLU D 570     -18.033  -6.348 -13.375  1.00 32.92     0.160 C 
ENDROOT
BRANCH  14  15
ATOM     15  CB  GLU D 570     -19.500  -6.345 -13.794  1.00 32.92     0.043 C 
BRANCH  15  16
ATOM     16  CG  GLU D 570     -20.438  -5.515 -12.995  1.00 32.92     0.100 C 
BRANCH  16  17
ATOM     17  CD  GLU D 570     -21.650  -5.073 -13.782  1.00 32.92     0.185 C 
ATOM     18  OE1 GLU D 570     -21.630  -5.161 -15.025  1.00 32.92    -0.647 OA
ATOM     19  OE2 GLU D 570     -22.624  -4.618 -13.150  1.00 32.92    -0.647 OA
ENDBRANCH  16  17
ENDBRANCH  15  16
ENDBRANCH  14  15
END_RES GLU D 570
ENDMDL
MODEL 4
REMARK VINA RESULT:      -6.6      1.204      2.441
REMARK  13 active torsions:
REMARK  status: ('A' for Active; 'I' for Inactive)
REMARK       I    between atoms: C_2  and  N_4 
REMARK    1  A    between atoms: N_4  and  C_5 
REMARK    2  A    between atoms: C_6  and  O_18 
REMARK    3  A    between atoms: C_7  and  O_17 
REMARK    4  A    between atoms: C_8  and  O_12 
REMARK    5  A    between atoms: C_10  and  O_11 
REMARK    6  A    between atoms: O_12  and  S_13 
REMARK    7  A    between atoms: S_13  and  O_16 
REMARK    8  A    between atoms: O_18  and  C_19 
REMARK    9  A    between atoms: C_20  and  O_30 
REMARK   10  A    between atoms: C_21  and  O_29 
REMARK   11  A    between atoms: C_22  and  O_28 
REMARK   12  A    between atoms: C_23  and  C_25 
REMARK   13  A    between atoms: C_25  and  O_27 
ROOT
HETATM    1  C   UNL     1     -28.184  -4.642 -17.286  1.00  0.00     0.171 C 
HETATM    2  C   UNL     1     -27.278  -5.906 -17.337  1.00  0.00     0.185 C 
HETATM    3  C   UNL     1     -26.973  -6.323 -15.876  1.00  0.00     0.205 C 
HETATM    4  C   UNL     1     -26.350  -5.164 -15.074  1.00  0.00     0.315 C 
HETATM    5  O   UNL     1     -27.268  -4.066 -15.054  1.00  0.00    -0.326 OA
HETATM    6  C   UNL     1     -27.548  -3.566 -16.363  1.00  0.00     0.285 C 
ENDROOT
BRANCH   2   7
HETATM    7  O   UNL     1     -26.043  -5.739 -18.087  1.00  0.00    -0.348 OA
BRANCH   7   8
HETATM    8  C   UNL     1     -25.492  -6.939 -18.664  1.00  0.00     0.292 C 
HETATM    9  C   UNL     1     -24.472  -6.699 -19.812  1.00  0.00     0.204 C 
HETATM   10  C   UNL     1     -25.208  -6.387 -21.121  1.00  0.00     0.183 C 
HETATM   11  C   UNL     1     -26.201  -7.506 -21.434  1.00  0.00     0.189 C 
HETATM   12  C   UNL     1     -27.212  -7.516 -20.283  1.00  0.00     0.253 C 
HETATM   13  O   UNL     1     -26.574  -7.835 -19.037  1.00  0.00    -0.340 OA
BRANCH   9  14
HETATM   14  O   UNL     1     -23.628  -7.858 -19.969  1.00  0.00    -0.388 OA
HETATM   15  H   UNL     1     -24.057  -8.438 -20.635  1.00  0.00     0.210 HD
ENDBRANCH   9  14
BRANCH  10  16
HETATM   16  O   UNL     1     -24.284  -6.231 -22.199  1.00  0.00    -0.390 OA
HETATM   17  H   UNL     1     -24.463  -6.962 -22.823  1.00  0.00     0.210 HD
ENDBRANCH  10  16
BRANCH  11  18
HETATM   18  O   UNL     1     -25.480  -8.761 -21.492  1.00  0.00    -0.390 OA
HETATM   19  H   UNL     1     -25.390  -9.007 -22.435  1.00  0.00     0.210 HD
ENDBRANCH  11  18
BRANCH  12  20
HETATM   20  C   UNL     1     -28.320  -8.524 -20.629  1.00  0.00     0.172 C 
HETATM   21  O   UNL     1     -28.329  -9.216 -21.638  1.00  0.00    -0.648 OA
BRANCH  20  22
HETATM   22  O   UNL     1     -29.287  -8.579 -19.695  1.00  0.00    -0.774 OA
HETATM   23  H   UNL     1     -28.939  -8.290 -18.818  1.00  0.00     0.167 HD
ENDBRANCH  20  22
ENDBRANCH  12  20
ENDBRANCH   7   8
ENDBRANCH   2   7
BRANCH   1  24
HETATM   24  N   UNL     1     -29.567  -4.966 -16.891  1.00  0.00    -0.349 N 
HETATM   25  C   UNL     1     -30.616  -4.202 -17.360  1.00  0.00     0.214 C 
HETATM   26  C   UNL     1     -31.976  -4.611 -16.873  1.00  0.00     0.117 C 
HETATM   27  O   UNL     1     -30.454  -3.274 -18.143  1.00  0.00    -0.274 OA
HETATM   28  H   UNL     1     -29.738  -5.707 -16.217  1.00  0.00     0.163 HD
ENDBRANCH   1  24
BRANCH   3  29
HETATM   29  O   UNL     1     -26.172  -7.500 -15.825  1.00  0.00    -0.388 OA
HETATM   30  H   UNL     1     -26.182  -7.893 -16.721  1.00  0.00     0.210 HD
ENDBRANCH   3  29
BRANCH   6  31
HETATM   31  O   UNL     1     -28.405  -2.441 -16.214  1.00  0.00    -0.369 OA
HETATM   32  H   UNL     1     -27.977  -1.806 -15.616  1.00  0.00     0.212 HD
ENDBRANCH   6  31
BRANCH   4  33
HETATM   33  O   UNL     1     -25.101  -4.798 -15.621  1.00  0.00    -0.228 OA
BRANCH  33  34
HETATM   34  S   UNL     1     -23.761  -5.550 -15.098  1.00  0.00     0.243 S 
HETATM   35  O   UNL     1     -22.693  -4.578 -15.050  1.00  0.00    -0.579 OA
HETATM   36  O   UNL     1     -24.133  -6.341 -13.952  1.00  0.00    -0.579 OA
BRANCH  34  37
HETATM   37  O   UNL     1     -23.411  -6.558 -16.304  1.00  0.00    -0.273 OA
HETATM   38  H   UNL     1     -24.234  -6.962 -16.653  1.00  0.00     0.234 HD
ENDBRANCH  34  37
ENDBRANCH  33  34
ENDBRANCH   4  33
TORSDOF 13
BEGIN_RES ARG D 557
REMARK  4 active torsions:
REMARK  status: ('A' for Active; 'I' for Inactive)
REMARK    1  A    between atoms: CA   and  CB  
REMARK    2  A    between atoms: CB   and  CG  
REMARK    3  A    between atoms: CG   and  CD  
REMARK    4  A    between atoms: CD   and  NE  
REMARK       I    between atoms: NE   and  CZ  
REMARK       I    between atoms: CZ   and  NH1 
REMARK       I    between atoms: CZ   and  NH2 
ROOT
ATOM      1  CA  ARG D 557     -26.217   2.705 -17.014  1.00 35.49     0.159 C 
ENDROOT
BRANCH   1   2
ATOM      2  CB  ARG D 557     -26.789   1.319 -17.183  1.00 35.49     0.034 C 
BRANCH   2   3
ATOM      3  CG  ARG D 557     -25.838   0.202 -17.135  1.00 35.49     0.027 C 
BRANCH   3   4
ATOM      4  CD  ARG D 557     -24.808   0.382 -16.087  1.00 35.49     0.116 C 
BRANCH   4   5
ATOM      5  NE  ARG D 557     -24.970  -0.548 -15.001  1.00 35.49    -0.212 N 
ATOM      6  CZ  ARG D 557     -24.127  -1.502 -14.675  1.00 35.49     0.666 C 
ATOM      7  NH1 ARG D 557     -23.010  -1.722 -15.344  1.00 35.49    -0.235 N 
ATOM      8  NH2 ARG D 557     -24.425  -2.241 -13.645  1.00 35.49    -0.235 N 
ATOM      9  HH  ARG D 557     -22.793  -1.247 -16.024  1.00 35.49     0.174 HD
ATOM     10  HH  ARG D 557     -22.498  -2.357 -15.084  1.00 35.49     0.174 HD
ATOM     11  HH  ARG D 557     -25.149  -2.071 -13.228  1.00 35.49     0.174 HD
ATOM     12  HH  ARG D 557     -23.904  -2.863 -13.402  1.00 35.49     0.174 HD
ATOM     13  HE  ARG D 557     -25.697  -0.526 -14.561  1.00 35.49     0.178 HD
ENDBRANCH   4   5
ENDBRANCH   3   4
ENDBRANCH   2   3
ENDBRANCH   1   2
END_RES ARG D 557
BEGIN_RES GLU D 570
REMARK  3 active torsions:
REMARK  status: ('A' for Active; 'I' for Inactive)
REMARK    5  A    between atoms: CA   and  CB  
REMARK    6  A    between atoms: CB   and  CG  
REMARK    7  A    between atoms: CG   and  CD  
ROOT
ATOM     14  CA  GLU D 570     -18.033  -6.348 -13.375  1.00 32.92     0.160 C 
ENDROOT
BRANCH  14  15
ATOM     15  CB  GLU D 570     -19.500  -6.345 -13.794  1.00 32.92     0.043 C 
BRANCH  15  16
ATOM     16  CG  GLU D 570     -20.088  -7.636 -14.237  1.00 32.92     0.100 C 
BRANCH  16  17
ATOM     17  CD  GLU D 570     -20.585  -7.598 -15.663  1.00 32.92     0.185 C 
ATOM     18  OE1 GLU D 570     -20.404  -6.568 -16.340  1.00 32.92    -0.647 OA
ATOM     19  OE2 GLU D 570     -21.177  -8.604 -16.103  1.00 32.92    -0.647 OA
ENDBRANCH  16  17
ENDBRANCH  15  16
ENDBRANCH  14  15
END_RES GLU D 570
ENDMDL
MODEL 5
REMARK VINA RESULT:      -6.6     11.051     15.010
REMARK  13 active torsions:
REMARK  status: ('A' for Active; 'I' for Inactive)
REMARK       I    between atoms: C_2  and  N_4 
REMARK    1  A    between atoms: N_4  and  C_5 
REMARK    2  A    between atoms: C_6  and  O_18 
REMARK    3  A    between atoms: C_7  and  O_17 
REMARK    4  A    between atoms: C_8  and  O_12 
REMARK    5  A    between atoms: C_10  and  O_11 
REMARK    6  A    between atoms: O_12  and  S_13 
REMARK    7  A    between atoms: S_13  and  O_16 
REMARK    8  A    between atoms: O_18  and  C_19 
REMARK    9  A    between atoms: C_20  and  O_30 
REMARK   10  A    between atoms: C_21  and  O_29 
REMARK   11  A    between atoms: C_22  and  O_28 
REMARK   12  A    between atoms: C_23  and  C_25 
REMARK   13  A    between atoms: C_25  and  O_27 
ROOT
HETATM    1  C   UNL     1     -20.928  -7.263  -3.288  1.00  0.00     0.171 C 
HETATM    2  C   UNL     1     -20.481  -8.753  -3.292  1.00  0.00     0.185 C 
HETATM    3  C   UNL     1     -21.635  -9.591  -2.684  1.00  0.00     0.205 C 
HETATM    4  C   UNL     1     -22.030  -9.081  -1.285  1.00  0.00     0.315 C 
HETATM    5  O   UNL     1     -22.458  -7.719  -1.390  1.00  0.00    -0.326 OA
HETATM    6  C   UNL     1     -21.425  -6.859  -1.873  1.00  0.00     0.285 C 
ENDROOT
BRANCH   2   7
HETATM    7  O   UNL     1     -19.236  -9.016  -2.586  1.00  0.00    -0.348 OA
BRANCH   7   8
HETATM    8  C   UNL     1     -18.077  -9.229  -3.415  1.00  0.00     0.292 C 
HETATM    9  C   UNL     1     -18.361  -9.971  -4.751  1.00  0.00     0.204 C 
HETATM   10  C   UNL     1     -18.483 -11.481  -4.506  1.00  0.00     0.183 C 
HETATM   11  C   UNL     1     -17.227 -11.991  -3.798  1.00  0.00     0.189 C 
HETATM   12  C   UNL     1     -17.173 -11.269  -2.448  1.00  0.00     0.253 C 
HETATM   13  O   UNL     1     -17.027  -9.851  -2.625  1.00  0.00    -0.340 OA
BRANCH   9  14
HETATM   14  O   UNL     1     -17.309  -9.696  -5.699  1.00  0.00    -0.388 OA
HETATM   15  H   UNL     1     -16.946 -10.562  -5.985  1.00  0.00     0.210 HD
ENDBRANCH   9  14
BRANCH  10  16
HETATM   16  O   UNL     1     -18.676 -12.182  -5.734  1.00  0.00    -0.390 OA
HETATM   17  H   UNL     1     -18.175 -11.690  -6.415  1.00  0.00     0.210 HD
ENDBRANCH  10  16
BRANCH  11  18
HETATM   18  O   UNL     1     -16.073 -11.656  -4.604  1.00  0.00    -0.390 OA
HETATM   19  H   UNL     1     -15.325 -11.487  -3.997  1.00  0.00     0.210 HD
ENDBRANCH  11  18
BRANCH  12  20
HETATM   20  C   UNL     1     -16.011 -11.862  -1.635  1.00  0.00     0.172 C 
HETATM   21  O   UNL     1     -15.101 -12.522  -2.117  1.00  0.00    -0.648 OA
BRANCH  20  22
HETATM   22  O   UNL     1     -16.088 -11.570  -0.323  1.00  0.00    -0.774 OA
HETATM   23  H   UNL     1     -15.199 -11.635   0.100  1.00  0.00     0.167 HD
ENDBRANCH  20  22
ENDBRANCH  12  20
ENDBRANCH   7   8
ENDBRANCH   2   7
BRANCH   1  24
HETATM   24  N   UNL     1     -21.931  -6.982  -4.331  1.00  0.00    -0.349 N 
HETATM   25  C   UNL     1     -21.719  -5.963  -5.236  1.00  0.00     0.214 C 
HETATM   26  C   UNL     1     -22.819  -5.755  -6.238  1.00  0.00     0.117 C 
HETATM   27  O   UNL     1     -20.694  -5.294  -5.244  1.00  0.00    -0.274 OA
HETATM   28  H   UNL     1     -22.810  -7.493  -4.336  1.00  0.00     0.163 HD
ENDBRANCH   1  24
BRANCH   3  29
HETATM   29  O   UNL     1     -21.325 -10.981  -2.679  1.00  0.00    -0.388 OA
HETATM   30  H   UNL     1     -20.504 -11.094  -3.200  1.00  0.00     0.210 HD
ENDBRANCH   3  29
BRANCH   6  31
HETATM   31  O   UNL     1     -21.939  -5.532  -1.865  1.00  0.00    -0.369 OA
HETATM   32  H   UNL     1     -21.692  -5.112  -1.024  1.00  0.00     0.212 HD
ENDBRANCH   6  31
BRANCH   4  33
HETATM   33  O   UNL     1     -20.955  -9.228  -0.383  1.00  0.00    -0.228 OA
BRANCH  33  34
HETATM   34  S   UNL     1     -20.895 -10.545   0.564  1.00  0.00     0.243 S 
HETATM   35  O   UNL     1     -20.400 -10.142   1.861  1.00  0.00    -0.579 OA
HETATM   36  O   UNL     1     -22.142 -11.247   0.401  1.00  0.00    -0.579 OA
BRANCH  34  37
HETATM   37  O   UNL     1     -19.734 -11.432  -0.114  1.00  0.00    -0.273 OA
HETATM   38  H   UNL     1     -18.863 -11.003   0.020  1.00  0.00     0.234 HD
ENDBRANCH  34  37
ENDBRANCH  33  34
ENDBRANCH   4  33
TORSDOF 13
BEGIN_RES ARG D 557
REMARK  4 active torsions:
REMARK  status: ('A' for Active; 'I' for Inactive)
REMARK    1  A    between atoms: CA   and  CB  
REMARK    2  A    between atoms: CB   and  CG  
REMARK    3  A    between atoms: CG   and  CD  
REMARK    4  A    between atoms: CD   and  NE  
REMARK       I    between atoms: NE   and  CZ  
REMARK       I    between atoms: CZ   and  NH1 
REMARK       I    between atoms: CZ   and  NH2 
ROOT
ATOM      1  CA  ARG D 557     -26.217   2.705 -17.014  1.00 35.49     0.159 C 
ENDROOT
BRANCH   1   2
ATOM      2  CB  ARG D 557     -26.789   1.319 -17.183  1.00 35.49     0.034 C 
BRANCH   2   3
ATOM      3  CG  ARG D 557     -25.836   0.203 -17.156  1.00 35.49     0.027 C 
BRANCH   3   4
ATOM      4  CD  ARG D 557     -24.751   0.411 -16.169  1.00 35.49     0.116 C 
BRANCH   4   5
ATOM      5  NE  ARG D 557     -24.898  -0.436 -15.015  1.00 35.49    -0.212 N 
ATOM      6  CZ  ARG D 557     -24.085  -1.408 -14.667  1.00 35.49     0.666 C 
ATOM      7  NH1 ARG D 557     -23.018  -1.727 -15.375  1.00 35.49    -0.235 N 
ATOM      8  NH2 ARG D 557     -24.362  -2.060 -13.575  1.00 35.49    -0.235 N 
ATOM      9  HH  ARG D 557     -22.815  -1.310 -16.095  1.00 35.49     0.174 HD
ATOM     10  HH  ARG D 557     -22.522  -2.369 -15.097  1.00 35.49     0.174 HD
ATOM     11  HH  ARG D 557     -25.054  -1.827 -13.134  1.00 35.49     0.174 HD
ATOM     12  HH  ARG D 557     -23.858  -2.691 -13.316  1.00 35.49     0.174 HD
ATOM     13  HE  ARG D 557     -25.599  -0.348 -14.541  1.00 35.49     0.178 HD
ENDBRANCH   4   5
ENDBRANCH   3   4
ENDBRANCH   2   3
ENDBRANCH   1   2
END_RES ARG D 557
BEGIN_RES GLU D 570
REMARK  3 active torsions:
REMARK  status: ('A' for Active; 'I' for Inactive)
REMARK    5  A    between atoms: CA   and  CB  
REMARK    6  A    between atoms: CB   and  CG  
REMARK    7  A    between atoms: CG   and  CD  
ROOT
ATOM     14  CA  GLU D 570     -18.033  -6.348 -13.375  1.00 32.92     0.160 C 
ENDROOT
BRANCH  14  15
ATOM     15  CB  GLU D 570     -19.500  -6.345 -13.794  1.00 32.92     0.043 C 
BRANCH  15  16
ATOM     16  CG  GLU D 570     -20.442  -5.533 -12.982  1.00 32.92     0.100 C 
BRANCH  16  17
ATOM     17  CD  GLU D 570     -21.735  -5.233 -13.704  1.00 32.92     0.185 C 
ATOM     18  OE1 GLU D 570     -22.300  -4.140 -13.505  1.00 32.92    -0.647 OA
ATOM     19  OE2 GLU D 570     -22.197  -6.107 -14.463  1.00 32.92    -0.647 OA
ENDBRANCH  16  17
ENDBRANCH  15  16
ENDBRANCH  14  15
END_RES GLU D 570
ENDMDL
MODEL 6
REMARK VINA RESULT:      -6.6     10.844     15.283
REMARK  13 active torsions:
REMARK  status: ('A' for Active; 'I' for Inactive)
REMARK       I    between atoms: C_2  and  N_4 
REMARK    1  A    between atoms: N_4  and  C_5 
REMARK    2  A    between atoms: C_6  and  O_18 
REMARK    3  A    between atoms: C_7  and  O_17 
REMARK    4  A    between atoms: C_8  and  O_12 
REMARK    5  A    between atoms: C_10  and  O_11 
REMARK    6  A    between atoms: O_12  and  S_13 
REMARK    7  A    between atoms: S_13  and  O_16 
REMARK    8  A    between atoms: O_18  and  C_19 
REMARK    9  A    between atoms: C_20  and  O_30 
REMARK   10  A    between atoms: C_21  and  O_29 
REMARK   11  A    between atoms: C_22  and  O_28 
REMARK   12  A    between atoms: C_23  and  C_25 
REMARK   13  A    between atoms: C_25  and  O_27 
ROOT
HETATM    1  C   UNL     1     -20.296  -8.673  -4.786  1.00  0.00     0.171 C 
HETATM    2  C   UNL     1     -19.325  -8.585  -3.573  1.00  0.00     0.185 C 
HETATM    3  C   UNL     1     -18.038  -9.364  -3.946  1.00  0.00     0.205 C 
HETATM    4  C   UNL     1     -18.353 -10.813  -4.365  1.00  0.00     0.315 C 
HETATM    5  O   UNL     1     -19.219 -10.790  -5.504  1.00  0.00    -0.326 OA
HETATM    6  C   UNL     1     -20.468 -10.153  -5.226  1.00  0.00     0.285 C 
ENDROOT
BRANCH   2   7
HETATM    7  O   UNL     1     -19.873  -9.079  -2.320  1.00  0.00    -0.348 OA
BRANCH   7   8
HETATM    8  C   UNL     1     -21.225  -8.677  -2.024  1.00  0.00     0.292 C 
HETATM    9  C   UNL     1     -21.385  -7.843  -0.722  1.00  0.00     0.204 C 
HETATM   10  C   UNL     1     -21.373  -8.764   0.504  1.00  0.00     0.183 C 
HETATM   11  C   UNL     1     -22.450  -9.840   0.351  1.00  0.00     0.189 C 
HETATM   12  C   UNL     1     -22.068 -10.655  -0.888  1.00  0.00     0.253 C 
HETATM   13  O   UNL     1     -22.094  -9.840  -2.071  1.00  0.00    -0.340 OA
BRANCH   9  14
HETATM   14  O   UNL     1     -22.611  -7.083  -0.774  1.00  0.00    -0.388 OA
HETATM   15  H   UNL     1     -23.226  -7.570  -1.365  1.00  0.00     0.210 HD
ENDBRANCH   9  14
BRANCH  10  16
HETATM   16  O   UNL     1     -21.589  -8.018   1.703  1.00  0.00    -0.390 OA
HETATM   17  H   UNL     1     -21.743  -8.673   2.412  1.00  0.00     0.210 HD
ENDBRANCH  10  16
BRANCH  11  18
HETATM   18  O   UNL     1     -23.729  -9.190   0.162  1.00  0.00    -0.390 OA
HETATM   19  H   UNL     1     -23.996  -8.804   1.021  1.00  0.00     0.210 HD
ENDBRANCH  11  18
BRANCH  12  20
HETATM   20  C   UNL     1     -23.036 -11.844  -0.995  1.00  0.00     0.172 C 
HETATM   21  O   UNL     1     -23.825 -12.168  -0.119  1.00  0.00    -0.648 OA
BRANCH  20  22
HETATM   22  O   UNL     1     -22.936 -12.495  -2.169  1.00  0.00    -0.774 OA
HETATM   23  H   UNL     1     -22.229 -12.094  -2.729  1.00  0.00     0.167 HD
ENDBRANCH  20  22
ENDBRANCH  12  20
ENDBRANCH   7   8
ENDBRANCH   2   7
BRANCH   1  24
HETATM   24  N   UNL     1     -19.870  -7.808  -5.901  1.00  0.00    -0.349 N 
HETATM   25  C   UNL     1     -20.320  -6.506  -5.977  1.00  0.00     0.214 C 
HETATM   26  C   UNL     1     -19.839  -5.727  -7.167  1.00  0.00     0.117 C 
HETATM   27  O   UNL     1     -21.036  -6.009  -5.117  1.00  0.00    -0.274 OA
HETATM   28  H   UNL     1     -19.303  -8.195  -6.652  1.00  0.00     0.163 HD
ENDBRANCH   1  24
BRANCH   3  29
HETATM   29  O   UNL     1     -17.073  -9.308  -2.900  1.00  0.00    -0.388 OA
HETATM   30  H   UNL     1     -16.542  -8.499  -3.042  1.00  0.00     0.210 HD
ENDBRANCH   3  29
BRANCH   6  31
HETATM   31  O   UNL     1     -21.267 -10.255  -6.399  1.00  0.00    -0.369 OA
HETATM   32  H   UNL     1     -20.715 -10.032  -7.167  1.00  0.00     0.212 HD
ENDBRANCH   6  31
BRANCH   4  33
HETATM   33  O   UNL     1     -18.918 -11.529  -3.287  1.00  0.00    -0.228 OA
BRANCH  33  34
HETATM   34  S   UNL     1     -19.091 -13.138  -3.414  1.00  0.00     0.243 S 
HETATM   35  O   UNL     1     -18.246 -13.758  -2.419  1.00  0.00    -0.579 OA
HETATM   36  O   UNL     1     -20.503 -13.411  -3.503  1.00  0.00    -0.579 OA
BRANCH  34  37
HETATM   37  O   UNL     1     -18.431 -13.466  -4.846  1.00  0.00    -0.273 OA
HETATM   38  H   UNL     1     -17.459 -13.561  -4.753  1.00  0.00     0.234 HD
ENDBRANCH  34  37
ENDBRANCH  33  34
ENDBRANCH   4  33
TORSDOF 13
BEGIN_RES ARG D 557
REMARK  4 active torsions:
REMARK  status: ('A' for Active; 'I' for Inactive)
REMARK    1  A    between atoms: CA   and  CB  
REMARK    2  A    between atoms: CB   and  CG  
REMARK    3  A    between atoms: CG   and  CD  
REMARK    4  A    between atoms: CD   and  NE  
REMARK       I    between atoms: NE   and  CZ  
REMARK       I    between atoms: CZ   and  NH1 
REMARK       I    between atoms: CZ   and  NH2 
ROOT
ATOM      1  CA  ARG D 557     -26.217   2.705 -17.014  1.00 35.49     0.159 C 
ENDROOT
BRANCH   1   2
ATOM      2  CB  ARG D 557     -26.789   1.319 -17.183  1.00 35.49     0.034 C 
BRANCH   2   3
ATOM      3  CG  ARG D 557     -25.877   0.194 -16.944  1.00 35.49     0.027 C 
BRANCH   3   4
ATOM      4  CD  ARG D 557     -26.339  -0.683 -15.844  1.00 35.49     0.116 C 
BRANCH   4   5
ATOM      5  NE  ARG D 557     -25.296  -0.950 -14.889  1.00 35.49    -0.212 N 
ATOM      6  CZ  ARG D 557     -25.021  -2.121 -14.359  1.00 35.49     0.666 C 
ATOM      7  NH1 ARG D 557     -25.709  -3.210 -14.649  1.00 35.49    -0.235 N 
ATOM      8  NH2 ARG D 557     -24.024  -2.183 -13.524  1.00 35.49    -0.235 N 
ATOM      9  HH  ARG D 557     -26.367  -3.192 -15.197  1.00 35.49     0.174 HD
ATOM     10  HH  ARG D 557     -25.482  -3.946 -14.275  1.00 35.49     0.174 HD
ATOM     11  HH  ARG D 557     -23.594  -1.465 -13.361  1.00 35.49     0.174 HD
ATOM     12  HH  ARG D 557     -23.815  -2.922 -13.165  1.00 35.49     0.174 HD
ATOM     13  HE  ARG D 557     -24.849  -0.291 -14.590  1.00 35.49     0.178 HD
ENDBRANCH   4   5
ENDBRANCH   3   4
ENDBRANCH   2   3
ENDBRANCH   1   2
END_RES ARG D 557
BEGIN_RES GLU D 570
REMARK  3 active torsions:
REMARK  status: ('A' for Active; 'I' for Inactive)
REMARK    5  A    between atoms: CA   and  CB  
REMARK    6  A    between atoms: CB   and  CG  
REMARK    7  A    between atoms: CG   and  CD  
ROOT
ATOM     14  CA  GLU D 570     -18.033  -6.348 -13.375  1.00 32.92     0.160 C 
ENDROOT
BRANCH  14  15
ATOM     15  CB  GLU D 570     -19.500  -6.345 -13.794  1.00 32.92     0.043 C 
BRANCH  15  16
ATOM     16  CG  GLU D 570     -20.448  -5.558 -12.963  1.00 32.92     0.100 C 
BRANCH  16  17
ATOM     17  CD  GLU D 570     -21.707  -5.177 -13.706  1.00 32.92     0.185 C 
ATOM     18  OE1 GLU D 570     -21.677  -5.106 -14.950  1.00 32.92    -0.647 OA
ATOM     19  OE2 GLU D 570     -22.729  -4.930 -13.037  1.00 32.92    -0.647 OA
ENDBRANCH  16  17
ENDBRANCH  15  16
ENDBRANCH  14  15
END_RES GLU D 570
ENDMDL
MODEL 7
REMARK VINA RESULT:      -6.5     13.007     17.008
REMARK  13 active torsions:
REMARK  status: ('A' for Active; 'I' for Inactive)
REMARK       I    between atoms: C_2  and  N_4 
REMARK    1  A    between atoms: N_4  and  C_5 
REMARK    2  A    between atoms: C_6  and  O_18 
REMARK    3  A    between atoms: C_7  and  O_17 
REMARK    4  A    between atoms: C_8  and  O_12 
REMARK    5  A    between atoms: C_10  and  O_11 
REMARK    6  A    between atoms: O_12  and  S_13 
REMARK    7  A    between atoms: S_13  and  O_16 
REMARK    8  A    between atoms: O_18  and  C_19 
REMARK    9  A    between atoms: C_20  and  O_30 
REMARK   10  A    between atoms: C_21  and  O_29 
REMARK   11  A    between atoms: C_22  and  O_28 
REMARK   12  A    between atoms: C_23  and  C_25 
REMARK   13  A    between atoms: C_25  and  O_27 
ROOT
HETATM    1  C   UNL     1     -21.965 -12.474  -0.068  1.00  0.00     0.171 C 
HETATM    2  C   UNL     1     -20.983 -11.314   0.265  1.00  0.00     0.185 C 
HETATM    3  C   UNL     1     -21.831 -10.046   0.537  1.00  0.00     0.205 C 
HETATM    4  C   UNL     1     -22.767  -9.726  -0.645  1.00  0.00     0.315 C 
HETATM    5  O   UNL     1     -23.651 -10.832  -0.851  1.00  0.00    -0.326 OA
HETATM    6  C   UNL     1     -22.952 -12.033  -1.183  1.00  0.00     0.285 C 
ENDROOT
BRANCH   2   7
HETATM    7  O   UNL     1     -19.985 -11.049  -0.759  1.00  0.00    -0.348 OA
BRANCH   7   8
HETATM    8  C   UNL     1     -19.121 -12.153  -1.095  1.00  0.00     0.292 C 
HETATM    9  C   UNL     1     -18.390 -12.797   0.115  1.00  0.00     0.204 C 
HETATM   10  C   UNL     1     -17.176 -11.949   0.517  1.00  0.00     0.183 C 
HETATM   11  C   UNL     1     -16.263 -11.751  -0.693  1.00  0.00     0.189 C 
HETATM   12  C   UNL     1     -17.087 -10.983  -1.731  1.00  0.00     0.253 C 
HETATM   13  O   UNL     1     -18.221 -11.751  -2.163  1.00  0.00    -0.340 OA
BRANCH   9  14
HETATM   14  O   UNL     1     -17.981 -14.140  -0.217  1.00  0.00    -0.388 OA
HETATM   15  H   UNL     1     -17.012 -14.115  -0.376  1.00  0.00     0.210 HD
ENDBRANCH   9  14
BRANCH  10  16
HETATM   16  O   UNL     1     -16.455 -12.565   1.584  1.00  0.00    -0.390 OA
HETATM   17  H   UNL     1     -17.122 -12.995   2.156  1.00  0.00     0.210 HD
ENDBRANCH  10  16
BRANCH  11  18
HETATM   18  O   UNL     1     -15.881 -13.051  -1.202  1.00  0.00    -0.390 OA
HETATM   19  H   UNL     1     -14.923 -13.023  -1.401  1.00  0.00     0.210 HD
ENDBRANCH  11  18
BRANCH  12  20
HETATM   20  C   UNL     1     -16.162 -10.626  -2.906  1.00  0.00     0.172 C 
HETATM   21  O   UNL     1     -15.760 -11.431  -3.734  1.00  0.00    -0.648 OA
BRANCH  20  22
HETATM   22  O   UNL     1     -15.842  -9.318  -2.941  1.00  0.00    -0.774 OA
HETATM   23  H   UNL     1     -16.656  -8.765  -3.014  1.00  0.00     0.167 HD
ENDBRANCH  20  22
ENDBRANCH  12  20
ENDBRANCH   7   8
ENDBRANCH   2   7
BRANCH   1  24
HETATM   24  N   UNL     1     -22.665 -12.971   1.130  1.00  0.00    -0.349 N 
HETATM   25  C   UNL     1     -22.210 -14.101   1.778  1.00  0.00     0.214 C 
HETATM   26  C   UNL     1     -23.015 -14.525   2.972  1.00  0.00     0.117 C 
HETATM   27  O   UNL     1     -21.202 -14.699   1.423  1.00  0.00    -0.274 OA
HETATM   28  H   UNL     1     -23.524 -12.521   1.434  1.00  0.00     0.163 HD
ENDBRANCH   1  24
BRANCH   3  29
HETATM   29  O   UNL     1     -21.011  -8.935   0.886  1.00  0.00    -0.388 OA
HETATM   30  H   UNL     1     -21.423  -8.508   1.664  1.00  0.00     0.210 HD
ENDBRANCH   3  29
BRANCH   6  31
HETATM   31  O   UNL     1     -23.929 -13.037  -1.436  1.00  0.00    -0.369 OA
HETATM   32  H   UNL     1     -24.787 -12.602  -1.573  1.00  0.00     0.212 HD
ENDBRANCH   6  31
BRANCH   4  33
HETATM   33  O   UNL     1     -22.017  -9.427  -1.803  1.00  0.00    -0.228 OA
BRANCH  33  34
HETATM   34  S   UNL     1     -21.529  -7.899  -2.053  1.00  0.00     0.243 S 
HETATM   35  O   UNL     1     -21.558  -7.647  -3.476  1.00  0.00    -0.579 OA
HETATM   36  O   UNL     1     -22.230  -7.065  -1.109  1.00  0.00    -0.579 OA
BRANCH  34  37
HETATM   37  O   UNL     1     -19.977  -7.935  -1.624  1.00  0.00    -0.273 OA
HETATM   38  H   UNL     1     -19.776  -7.180  -1.031  1.00  0.00     0.234 HD
ENDBRANCH  34  37
ENDBRANCH  33  34
ENDBRANCH   4  33
TORSDOF 13
BEGIN_RES ARG D 557
REMARK  4 active torsions:
REMARK  status: ('A' for Active; 'I' for Inactive)
REMARK    1  A    between atoms: CA   and  CB  
REMARK    2  A    between atoms: CB   and  CG  
REMARK    3  A    between atoms: CG   and  CD  
REMARK    4  A    between atoms: CD   and  NE  
REMARK       I    between atoms: NE   and  CZ  
REMARK       I    between atoms: CZ   and  NH1 
REMARK       I    between atoms: CZ   and  NH2 
ROOT
ATOM      1  CA  ARG D 557     -26.217   2.705 -17.014  1.00 35.49     0.159 C 
ENDROOT
BRANCH   1   2
ATOM      2  CB  ARG D 557     -26.789   1.319 -17.183  1.00 35.49     0.034 C 
BRANCH   2   3
ATOM      3  CG  ARG D 557     -25.865   0.195 -16.990  1.00 35.49     0.027 C 
BRANCH   3   4
ATOM      4  CD  ARG D 557     -26.279  -0.692 -15.879  1.00 35.49     0.116 C 
BRANCH   4   5
ATOM      5  NE  ARG D 557     -25.219  -0.903 -14.929  1.00 35.49    -0.212 N 
ATOM      6  CZ  ARG D 557     -24.914  -2.048 -14.360  1.00 35.49     0.666 C 
ATOM      7  NH1 ARG D 557     -25.584  -3.160 -14.600  1.00 35.49    -0.235 N 
ATOM      8  NH2 ARG D 557     -23.905  -2.060 -13.538  1.00 35.49    -0.235 N 
ATOM      9  HH  ARG D 557     -26.250  -3.176 -15.140  1.00 35.49     0.174 HD
ATOM     10  HH  ARG D 557     -25.338  -3.878 -14.202  1.00 35.49     0.174 HD
ATOM     11  HH  ARG D 557     -23.486  -1.329 -13.408  1.00 35.49     0.174 HD
ATOM     12  HH  ARG D 557     -23.676  -2.781 -13.155  1.00 35.49     0.174 HD
ATOM     13  HE  ARG D 557     -24.781  -0.225 -14.662  1.00 35.49     0.178 HD
ENDBRANCH   4   5
ENDBRANCH   3   4
ENDBRANCH   2   3
ENDBRANCH   1   2
END_RES ARG D 557
BEGIN_RES GLU D 570
REMARK  3 active torsions:
REMARK  status: ('A' for Active; 'I' for Inactive)
REMARK    5  A    between atoms: CA   and  CB  
REMARK    6  A    between atoms: CB   and  CG  
REMARK    7  A    between atoms: CG   and  CD  
ROOT
ATOM     14  CA  GLU D 570     -18.033  -6.348 -13.375  1.00 32.92     0.160 C 
ENDROOT
BRANCH  14  15
ATOM     15  CB  GLU D 570     -19.500  -6.345 -13.794  1.00 32.92     0.043 C 
BRANCH  15  16
ATOM     16  CG  GLU D 570     -20.447  -5.556 -12.965  1.00 32.92     0.100 C 
BRANCH  16  17
ATOM     17  CD  GLU D 570     -21.690  -5.145 -13.719  1.00 32.92     0.185 C 
ATOM     18  OE1 GLU D 570     -21.660  -5.116 -14.964  1.00 32.92    -0.647 OA
ATOM     19  OE2 GLU D 570     -22.700  -4.834 -13.057  1.00 32.92    -0.647 OA
ENDBRANCH  16  17
ENDBRANCH  15  16
ENDBRANCH  14  15
END_RES GLU D 570
ENDMDL
MODEL 8
REMARK VINA RESULT:      -6.5     10.177     14.473
REMARK  13 active torsions:
REMARK  status: ('A' for Active; 'I' for Inactive)
REMARK       I    between atoms: C_2  and  N_4 
REMARK    1  A    between atoms: N_4  and  C_5 
REMARK    2  A    between atoms: C_6  and  O_18 
REMARK    3  A    between atoms: C_7  and  O_17 
REMARK    4  A    between atoms: C_8  and  O_12 
REMARK    5  A    between atoms: C_10  and  O_11 
REMARK    6  A    between atoms: O_12  and  S_13 
REMARK    7  A    between atoms: S_13  and  O_16 
REMARK    8  A    between atoms: O_18  and  C_19 
REMARK    9  A    between atoms: C_20  and  O_30 
REMARK   10  A    between atoms: C_21  and  O_29 
REMARK   11  A    between atoms: C_22  and  O_28 
REMARK   12  A    between atoms: C_23  and  C_25 
REMARK   13  A    between atoms: C_25  and  O_27 
ROOT
HETATM    1  C   UNL     1     -20.067  -7.565  -4.943  1.00  0.00     0.171 C 
HETATM    2  C   UNL     1     -19.571  -9.038  -5.001  1.00  0.00     0.185 C 
HETATM    3  C   UNL     1     -20.820  -9.950  -5.101  1.00  0.00     0.205 C 
HETATM    4  C   UNL     1     -21.806  -9.690  -3.945  1.00  0.00     0.315 C 
HETATM    5  O   UNL     1     -22.232  -8.324  -3.997  1.00  0.00    -0.326 OA
HETATM    6  C   UNL     1     -21.146  -7.409  -3.836  1.00  0.00     0.285 C 
ENDROOT
BRANCH   2   7
HETATM    7  O   UNL     1     -18.734  -9.442  -3.883  1.00  0.00    -0.348 OA
BRANCH   7   8
HETATM    8  C   UNL     1     -17.320  -9.517  -4.151  1.00  0.00     0.292 C 
HETATM    9  C   UNL     1     -16.947 -10.240  -5.475  1.00  0.00     0.204 C 
HETATM   10  C   UNL     1     -17.008 -11.761  -5.286  1.00  0.00     0.183 C 
HETATM   11  C   UNL     1     -16.116 -12.171  -4.113  1.00  0.00     0.189 C 
HETATM   12  C   UNL     1     -16.701 -11.491  -2.872  1.00  0.00     0.253 C 
HETATM   13  O   UNL     1     -16.637 -10.060  -2.989  1.00  0.00    -0.340 OA
BRANCH   9  14
HETATM   14  O   UNL     1     -15.630  -9.836  -5.902  1.00  0.00    -0.388 OA
HETATM   15  H   UNL     1     -15.443  -8.970  -5.476  1.00  0.00     0.210 HD
ENDBRANCH   9  14
BRANCH  10  16
HETATM   16  O   UNL     1     -16.602 -12.439  -6.476  1.00  0.00    -0.390 OA
HETATM   17  H   UNL     1     -16.874 -13.372  -6.368  1.00  0.00     0.210 HD
ENDBRANCH  10  16
BRANCH  11  18
HETATM   18  O   UNL     1     -14.771 -11.702  -4.370  1.00  0.00    -0.390 OA
HETATM   19  H   UNL     1     -14.610 -10.931  -3.789  1.00  0.00     0.210 HD
ENDBRANCH  11  18
BRANCH  12  20
HETATM   20  C   UNL     1     -15.928 -11.995  -1.642  1.00  0.00     0.172 C 
HETATM   21  O   UNL     1     -15.981 -11.475  -0.537  1.00  0.00    -0.648 OA
BRANCH  20  22
HETATM   22  O   UNL     1     -15.187 -13.088  -1.904  1.00  0.00    -0.774 OA
HETATM   23  H   UNL     1     -14.601 -13.301  -1.139  1.00  0.00     0.167 HD
ENDBRANCH  20  22
ENDBRANCH  12  20
ENDBRANCH   7   8
ENDBRANCH   2   7
BRANCH   1  24
HETATM   24  N   UNL     1     -20.544  -7.088  -6.254  1.00  0.00    -0.349 N 
HETATM   25  C   UNL     1     -20.335  -5.776  -6.629  1.00  0.00     0.214 C 
HETATM   26  C   UNL     1     -20.883  -5.398  -7.975  1.00  0.00     0.117 C 
HETATM   27  O   UNL     1     -19.718  -4.983  -5.929  1.00  0.00    -0.274 OA
HETATM   28  H   UNL     1     -21.089  -7.706  -6.848  1.00  0.00     0.163 HD
ENDBRANCH   1  24
BRANCH   3  29
HETATM   29  O   UNL     1     -20.456 -11.325  -5.194  1.00  0.00    -0.388 OA
HETATM   30  H   UNL     1     -21.282 -11.845  -5.121  1.00  0.00     0.210 HD
ENDBRANCH   3  29
BRANCH   6  31
HETATM   31  O   UNL     1     -21.695  -6.096  -3.829  1.00  0.00    -0.369 OA
HETATM   32  H   UNL     1     -21.443  -5.654  -4.656  1.00  0.00     0.212 HD
ENDBRANCH   6  31
BRANCH   4  33
HETATM   33  O   UNL     1     -21.213 -10.012  -2.706  1.00  0.00    -0.228 OA
BRANCH  33  34
HETATM   34  S   UNL     1     -22.162 -10.482  -1.476  1.00  0.00     0.243 S 
HETATM   35  O   UNL     1     -21.497 -11.562  -0.785  1.00  0.00    -0.579 OA
HETATM   36  O   UNL     1     -22.604  -9.290  -0.796  1.00  0.00    -0.579 OA
BRANCH  34  37
HETATM   37  O   UNL     1     -23.435 -11.128  -2.222  1.00  0.00    -0.273 OA
HETATM   38  H   UNL     1     -23.615 -12.023  -1.862  1.00  0.00     0.234 HD
ENDBRANCH  34  37
ENDBRANCH  33  34
ENDBRANCH   4  33
TORSDOF 13
BEGIN_RES ARG D 557
REMARK  4 active torsions:
REMARK  status: ('A' for Active; 'I' for Inactive)
REMARK    1  A    between atoms: CA   and  CB  
REMARK    2  A    between atoms: CB   and  CG  
REMARK    3  A    between atoms: CG   and  CD  
REMARK    4  A    between atoms: CD   and  NE  
REMARK       I    between atoms: NE   and  CZ  
REMARK       I    between atoms: CZ   and  NH1 
REMARK       I    between atoms: CZ   and  NH2 
ROOT
ATOM      1  CA  ARG D 557     -26.217   2.705 -17.014  1.00 35.49     0.159 C 
ENDROOT
BRANCH   1   2
ATOM      2  CB  ARG D 557     -26.789   1.319 -17.183  1.00 35.49     0.034 C 
BRANCH   2   3
ATOM      3  CG  ARG D 557     -25.834   0.204 -17.167  1.00 35.49     0.027 C 
BRANCH   3   4
ATOM      4  CD  ARG D 557     -24.744   0.408 -16.186  1.00 35.49     0.116 C 
BRANCH   4   5
ATOM      5  NE  ARG D 557     -24.894  -0.432 -15.027  1.00 35.49    -0.212 N 
ATOM      6  CZ  ARG D 557     -24.084  -1.404 -14.673  1.00 35.49     0.666 C 
ATOM      7  NH1 ARG D 557     -23.017  -1.730 -15.379  1.00 35.49    -0.235 N 
ATOM      8  NH2 ARG D 557     -24.362  -2.049 -13.577  1.00 35.49    -0.235 N 
ATOM      9  HH  ARG D 557     -22.813  -1.318 -16.102  1.00 35.49     0.174 HD
ATOM     10  HH  ARG D 557     -22.523  -2.372 -15.097  1.00 35.49     0.174 HD
ATOM     11  HH  ARG D 557     -25.054  -1.812 -13.138  1.00 35.49     0.174 HD
ATOM     12  HH  ARG D 557     -23.860  -2.680 -13.315  1.00 35.49     0.174 HD
ATOM     13  HE  ARG D 557     -25.595  -0.339 -14.554  1.00 35.49     0.178 HD
ENDBRANCH   4   5
ENDBRANCH   3   4
ENDBRANCH   2   3
ENDBRANCH   1   2
END_RES ARG D 557
BEGIN_RES GLU D 570
REMARK  3 active torsions:
REMARK  status: ('A' for Active; 'I' for Inactive)
REMARK    5  A    between atoms: CA   and  CB  
REMARK    6  A    between atoms: CB   and  CG  
REMARK    7  A    between atoms: CG   and  CD  
ROOT
ATOM     14  CA  GLU D 570     -18.033  -6.348 -13.375  1.00 32.92     0.160 C 
ENDROOT
BRANCH  14  15
ATOM     15  CB  GLU D 570     -19.500  -6.345 -13.794  1.00 32.92     0.043 C 
BRANCH  15  16
ATOM     16  CG  GLU D 570     -20.439  -5.520 -12.991  1.00 32.92     0.100 C 
BRANCH  16  17
ATOM     17  CD  GLU D 570     -21.744  -5.251 -13.704  1.00 32.92     0.185 C 
ATOM     18  OE1 GLU D 570     -22.208  -6.121 -14.467  1.00 32.92    -0.647 OA
ATOM     19  OE2 GLU D 570     -22.300  -4.152 -13.511  1.00 32.92    -0.647 OA
ENDBRANCH  16  17
ENDBRANCH  15  16
ENDBRANCH  14  15
END_RES GLU D 570
ENDMDL
MODEL 9
REMARK VINA RESULT:      -6.3     11.067     15.730
REMARK  13 active torsions:
REMARK  status: ('A' for Active; 'I' for Inactive)
REMARK       I    between atoms: C_2  and  N_4 
REMARK    1  A    between atoms: N_4  and  C_5 
REMARK    2  A    between atoms: C_6  and  O_18 
REMARK    3  A    between atoms: C_7  and  O_17 
REMARK    4  A    between atoms: C_8  and  O_12 
REMARK    5  A    between atoms: C_10  and  O_11 
REMARK    6  A    between atoms: O_12  and  S_13 
REMARK    7  A    between atoms: S_13  and  O_16 
REMARK    8  A    between atoms: O_18  and  C_19 
REMARK    9  A    between atoms: C_20  and  O_30 
REMARK   10  A    between atoms: C_21  and  O_29 
REMARK   11  A    between atoms: C_22  and  O_28 
REMARK   12  A    between atoms: C_23  and  C_25 
REMARK   13  A    between atoms: C_25  and  O_27 
ROOT
HETATM    1  C   UNL     1     -19.764 -10.385  -5.036  1.00  0.00     0.171 C 
HETATM    2  C   UNL     1     -18.313 -10.235  -4.493  1.00  0.00     0.185 C 
HETATM    3  C   UNL     1     -17.376 -10.030  -5.709  1.00  0.00     0.205 C 
HETATM    4  C   UNL     1     -17.522 -11.169  -6.737  1.00  0.00     0.315 C 
HETATM    5  O   UNL     1     -18.875 -11.203  -7.203  1.00  0.00    -0.326 OA
HETATM    6  C   UNL     1     -19.807 -11.465  -6.151  1.00  0.00     0.285 C 
ENDROOT
BRANCH   2   7
HETATM    7  O   UNL     1     -17.852 -11.348  -3.678  1.00  0.00    -0.348 OA
BRANCH   7   8
HETATM    8  C   UNL     1     -17.423 -11.013  -2.343  1.00  0.00     0.292 C 
HETATM    9  C   UNL     1     -16.668 -12.150  -1.599  1.00  0.00     0.204 C 
HETATM   10  C   UNL     1     -17.664 -13.173  -1.039  1.00  0.00     0.183 C 
HETATM   11  C   UNL     1     -18.690 -12.463  -0.155  1.00  0.00     0.189 C 
HETATM   12  C   UNL     1     -19.439 -11.486  -1.067  1.00  0.00     0.253 C 
HETATM   13  O   UNL     1     -18.551 -10.487  -1.593  1.00  0.00    -0.340 OA
BRANCH   9  14
HETATM   14  O   UNL     1     -15.864 -11.592  -0.538  1.00  0.00    -0.388 OA
HETATM   15  H   UNL     1     -16.485 -11.232   0.133  1.00  0.00     0.210 HD
ENDBRANCH   9  14
BRANCH  10  16
HETATM   16  O   UNL     1     -16.988 -14.187  -0.294  1.00  0.00    -0.390 OA
HETATM   17  H   UNL     1     -16.258 -14.505  -0.861  1.00  0.00     0.210 HD
ENDBRANCH  10  16
BRANCH  11  18
HETATM   18  O   UNL     1     -17.986 -11.752   0.890  1.00  0.00    -0.390 OA
HETATM   19  H   UNL     1     -17.534 -12.416   1.449  1.00  0.00     0.210 HD
ENDBRANCH  11  18
BRANCH  12  20
HETATM   20  C   UNL     1     -20.584 -10.859  -0.257  1.00  0.00     0.172 C 
HETATM   21  O   UNL     1     -20.619 -10.816   0.965  1.00  0.00    -0.648 OA
BRANCH  20  22
HETATM   22  O   UNL     1     -21.554 -10.345  -1.036  1.00  0.00    -0.774 OA
HETATM   23  H   UNL     1     -21.360 -10.514  -1.989  1.00  0.00     0.167 HD
ENDBRANCH  20  22
ENDBRANCH  12  20
ENDBRANCH   7   8
ENDBRANCH   2   7
BRANCH   1  24
HETATM   24  N   UNL     1     -20.323  -9.098  -5.487  1.00  0.00    -0.349 N 
HETATM   25  C   UNL     1     -21.221  -8.418  -4.691  1.00  0.00     0.214 C 
HETATM   26  C   UNL     1     -21.740  -7.130  -5.263  1.00  0.00     0.117 C 
HETATM   27  O   UNL     1     -21.549  -8.819  -3.581  1.00  0.00    -0.274 OA
HETATM   28  H   UNL     1     -20.101  -8.750  -6.416  1.00  0.00     0.163 HD
ENDBRANCH   1  24
BRANCH   3  29
HETATM   29  O   UNL     1     -16.023  -9.849  -5.301  1.00  0.00    -0.388 OA
HETATM   30  H   UNL     1     -16.008  -9.909  -4.325  1.00  0.00     0.210 HD
ENDBRANCH   3  29
BRANCH   6  31
HETATM   31  O   UNL     1     -21.099 -11.550  -6.740  1.00  0.00    -0.369 OA
HETATM   32  H   UNL     1     -21.055 -12.164  -7.491  1.00  0.00     0.212 HD
ENDBRANCH   6  31
BRANCH   4  33
HETATM   33  O   UNL     1     -17.127 -12.400  -6.172  1.00  0.00    -0.228 OA
BRANCH  33  34
HETATM   34  S   UNL     1     -15.563 -12.829  -6.233  1.00  0.00     0.243 S 
HETATM   35  O   UNL     1     -15.499 -14.262  -6.407  1.00  0.00    -0.579 OA
HETATM   36  O   UNL     1     -14.903 -11.915  -7.131  1.00  0.00    -0.579 OA
BRANCH  34  37
HETATM   37  O   UNL     1     -15.039 -12.523  -4.741  1.00  0.00    -0.273 OA
HETATM   38  H   UNL     1     -14.274 -11.910  -4.774  1.00  0.00     0.234 HD
ENDBRANCH  34  37
ENDBRANCH  33  34
ENDBRANCH   4  33
TORSDOF 13
BEGIN_RES ARG D 557
REMARK  4 active torsions:
REMARK  status: ('A' for Active; 'I' for Inactive)
REMARK    1  A    between atoms: CA   and  CB  
REMARK    2  A    between atoms: CB   and  CG  
REMARK    3  A    between atoms: CG   and  CD  
REMARK    4  A    between atoms: CD   and  NE  
REMARK       I    between atoms: NE   and  CZ  
REMARK       I    between atoms: CZ   and  NH1 
REMARK       I    between atoms: CZ   and  NH2 
ROOT
ATOM      1  CA  ARG D 557     -26.217   2.705 -17.014  1.00 35.49     0.159 C 
ENDROOT
BRANCH   1   2
ATOM      2  CB  ARG D 557     -26.789   1.319 -17.183  1.00 35.49     0.034 C 
BRANCH   2   3
ATOM      3  CG  ARG D 557     -25.864   0.195 -16.993  1.00 35.49     0.027 C 
BRANCH   3   4
ATOM      4  CD  ARG D 557     -26.290  -0.708 -15.900  1.00 35.49     0.116 C 
BRANCH   4   5
ATOM      5  NE  ARG D 557     -25.242  -0.925 -14.937  1.00 35.49    -0.212 N 
ATOM      6  CZ  ARG D 557     -24.958  -2.070 -14.356  1.00 35.49     0.666 C 
ATOM      7  NH1 ARG D 557     -25.640  -3.174 -14.595  1.00 35.49    -0.235 N 
ATOM      8  NH2 ARG D 557     -23.958  -2.088 -13.523  1.00 35.49    -0.235 N 
ATOM      9  HH  ARG D 557     -26.301  -3.186 -15.141  1.00 35.49     0.174 HD
ATOM     10  HH  ARG D 557     -25.408  -3.892 -14.188  1.00 35.49     0.174 HD
ATOM     11  HH  ARG D 557     -23.531  -1.361 -13.394  1.00 35.49     0.174 HD
ATOM     12  HH  ARG D 557     -23.743  -2.809 -13.132  1.00 35.49     0.174 HD
ATOM     13  HE  ARG D 557     -24.799  -0.251 -14.670  1.00 35.49     0.178 HD
ENDBRANCH   4   5
ENDBRANCH   3   4
ENDBRANCH   2   3
ENDBRANCH   1   2
END_RES ARG D 557
BEGIN_RES GLU D 570
REMARK  3 active torsions:
REMARK  status: ('A' for Active; 'I' for Inactive)
REMARK    5  A    between atoms: CA   and  CB  
REMARK    6  A    between atoms: CB   and  CG  
REMARK    7  A    between atoms: CG   and  CD  
ROOT
ATOM     14  CA  GLU D 570     -18.033  -6.348 -13.375  1.00 32.92     0.160 C 
ENDROOT
BRANCH  14  15
ATOM     15  CB  GLU D 570     -19.500  -6.345 -13.794  1.00 32.92     0.043 C 
BRANCH  15  16
ATOM     16  CG  GLU D 570     -20.450  -5.570 -12.955  1.00 32.92     0.100 C 
BRANCH  16  17
ATOM     17  CD  GLU D 570     -21.676  -5.121 -13.715  1.00 32.92     0.185 C 
ATOM     18  OE1 GLU D 570     -22.723  -4.876 -13.085  1.00 32.92    -0.647 OA
ATOM     19  OE2 GLU D 570     -21.594  -5.029 -14.956  1.00 32.92    -0.647 OA
ENDBRANCH  16  17
ENDBRANCH  15  16
ENDBRANCH  14  15
END_RES GLU D 570
ENDMDL
