MODEL 1
REMARK VINA RESULT:      -6.8      0.000      0.000
REMARK  16 active torsions:
REMARK  status: ('A' for Active; 'I' for Inactive)
REMARK    1  A    between atoms: C_2  and  C_3 
REMARK    2  A    between atoms: C_3  and  C_4 
REMARK    3  A    between atoms: C_4  and  C_5 
REMARK    4  A    between atoms: C_5  and  C_6 
REMARK    5  A    between atoms: C_6  and  C_7 
REMARK    6  A    between atoms: C_7  and  C_8 
REMARK    7  A    between atoms: C_8  and  C_9 
REMARK    8  A    between atoms: C_9  and  C_10 
REMARK    9  A    between atoms: C_10  and  C_11 
REMARK   10  A    between atoms: C_11  and  C_12 
REMARK   11  A    between atoms: C_12  and  C_13 
REMARK   12  A    between atoms: C_13  and  C_14 
REMARK   13  A    between atoms: C_14  and  O_15 
REMARK   14  A    between atoms: O_15  and  C_16 
REMARK   15  A    between atoms: C_16  and  C_18 
REMARK   16  A    between atoms: C_18  and  O_20 
ROOT
HETATM    1  C   UNL     1     -20.747  -4.029  -6.931  1.00  0.00     0.000 C 
ENDROOT
BRANCH   1   2
HETATM    2  C   UNL     1     -19.747  -4.884  -6.158  1.00  0.00     0.000 C 
BRANCH   2   3
HETATM    3  C   UNL     1     -19.862  -6.349  -6.548  1.00  0.00     0.000 C 
BRANCH   3   4
HETATM    4  C   UNL     1     -20.115  -7.215  -5.319  1.00  0.00     0.000 C 
BRANCH   4   5
HETATM    5  C   UNL     1     -21.582  -7.616  -5.240  1.00  0.00     0.000 C 
BRANCH   5   6
HETATM    6  C   UNL     1     -22.352  -6.673  -4.323  1.00  0.00     0.000 C 
BRANCH   6   7
HETATM    7  C   UNL     1     -21.463  -6.182  -3.186  1.00  0.00     0.000 C 
BRANCH   7   8
HETATM    8  C   UNL     1     -22.077  -6.522  -1.832  1.00  0.00     0.000 C 
BRANCH   8   9
HETATM    9  C   UNL     1     -21.364  -7.713  -1.198  1.00  0.00    -0.000 C 
BRANCH   9  10
HETATM   10  C   UNL     1     -22.365  -8.694  -0.594  1.00  0.00    -0.005 C 
HETATM   11  C   UNL     1     -23.149  -8.046   0.534  1.00  0.00     0.005 C 
ENDBRANCH   9  10
ENDBRANCH   8   9
ENDBRANCH   7   8
ENDBRANCH   6   7
ENDBRANCH   5   6
ENDBRANCH   4   5
ENDBRANCH   3   4
ENDBRANCH   2   3
ENDBRANCH   1   2
BRANCH   1  12
HETATM   12  C   UNL     1     -21.757  -4.897  -7.674  1.00  0.00     0.002 C 
BRANCH  12  13
HETATM   13  C   UNL     1     -23.160  -4.308  -7.601  1.00  0.00     0.027 C 
BRANCH  13  14
HETATM   14  C   UNL     1     -23.745  -4.115  -8.989  1.00  0.00     0.178 C 
BRANCH  14  15
HETATM   15  O   UNL     1     -22.998  -4.890  -9.936  1.00  0.00    -0.319 OA
BRANCH  15  16
HETATM   16  C   UNL     1     -23.019  -4.389 -11.199  1.00  0.00     0.287 C 
HETATM   17  O   UNL     1     -23.885  -4.627 -12.043  1.00  0.00    -0.262 OA
BRANCH  16  18
HETATM   18  C   UNL     1     -21.812  -3.497 -11.467  1.00  0.00     0.213 C 
HETATM   19  C   UNL     1     -20.528  -4.164 -11.009  1.00  0.00     0.050 C 
BRANCH  18  20
HETATM   20  O   UNL     1     -21.679  -3.193 -12.857  1.00  0.00    -0.386 OA
HETATM   21  H   UNL     1     -21.619  -2.220 -12.925  1.00  0.00     0.210 HD
ENDBRANCH  18  20
ENDBRANCH  16  18
ENDBRANCH  15  16
ENDBRANCH  14  15
ENDBRANCH  13  14
ENDBRANCH  12  13
ENDBRANCH   1  12
TORSDOF 16
BEGIN_RES ARG D 557
REMARK  4 active torsions:
REMARK  status: ('A' for Active; 'I' for Inactive)
REMARK    1  A    between atoms: CA   and  CB  
REMARK    2  A    between atoms: CB   and  CG  
REMARK    3  A    between atoms: CG   and  CD  
REMARK    4  A    between atoms: CD   and  NE  
REMARK       I    between atoms: NE   and  CZ  
REMARK       I    between atoms: CZ   and  NH1 
REMARK       I    between atoms: CZ   and  NH2 
ROOT
ATOM      1  CA  ARG D 557     -26.217   2.705 -17.014  1.00 35.49     0.159 C 
ENDROOT
BRANCH   1   2
ATOM      2  CB  ARG D 557     -26.789   1.319 -17.183  1.00 35.49     0.034 C 
BRANCH   2   3
ATOM      3  CG  ARG D 557     -25.834   0.204 -17.170  1.00 35.49     0.027 C 
BRANCH   3   4
ATOM      4  CD  ARG D 557     -24.759   0.393 -16.170  1.00 35.49     0.116 C 
BRANCH   4   5
ATOM      5  NE  ARG D 557     -24.929  -0.460 -15.023  1.00 35.49    -0.212 N 
ATOM      6  CZ  ARG D 557     -24.122  -1.433 -14.663  1.00 35.49     0.666 C 
ATOM      7  NH1 ARG D 557     -23.040  -1.747 -15.350  1.00 35.49    -0.235 N 
ATOM      8  NH2 ARG D 557     -24.421  -2.090 -13.580  1.00 35.49    -0.235 N 
ATOM      9  HH  ARG D 557     -22.823  -1.326 -16.064  1.00 35.49     0.174 HD
ATOM     10  HH  ARG D 557     -22.550  -2.390 -15.066  1.00 35.49     0.174 HD
ATOM     11  HH  ARG D 557     -25.122  -1.860 -13.153  1.00 35.49     0.174 HD
ATOM     12  HH  ARG D 557     -23.922  -2.722 -13.314  1.00 35.49     0.174 HD
ATOM     13  HE  ARG D 557     -25.640  -0.374 -14.564  1.00 35.49     0.178 HD
ENDBRANCH   4   5
ENDBRANCH   3   4
ENDBRANCH   2   3
ENDBRANCH   1   2
END_RES ARG D 557
BEGIN_RES GLU D 570
REMARK  3 active torsions:
REMARK  status: ('A' for Active; 'I' for Inactive)
REMARK    5  A    between atoms: CA   and  CB  
REMARK    6  A    between atoms: CB   and  CG  
REMARK    7  A    between atoms: CG   and  CD  
ROOT
ATOM     14  CA  GLU D 570     -18.033  -6.348 -13.375  1.00 32.92     0.160 C 
ENDROOT
BRANCH  14  15
ATOM     15  CB  GLU D 570     -19.500  -6.345 -13.794  1.00 32.92     0.043 C 
BRANCH  15  16
ATOM     16  CG  GLU D 570     -19.799  -6.173 -15.239  1.00 32.92     0.100 C 
BRANCH  16  17
ATOM     17  CD  GLU D 570     -21.148  -5.541 -15.491  1.00 32.92     0.185 C 
ATOM     18  OE1 GLU D 570     -21.391  -5.060 -16.614  1.00 32.92    -0.647 OA
ATOM     19  OE2 GLU D 570     -21.965  -5.513 -14.550  1.00 32.92    -0.647 OA
ENDBRANCH  16  17
ENDBRANCH  15  16
ENDBRANCH  14  15
END_RES GLU D 570
ENDMDL
MODEL 2
REMARK VINA RESULT:      -6.6      2.362      3.594
REMARK  16 active torsions:
REMARK  status: ('A' for Active; 'I' for Inactive)
REMARK    1  A    between atoms: C_2  and  C_3 
REMARK    2  A    between atoms: C_3  and  C_4 
REMARK    3  A    between atoms: C_4  and  C_5 
REMARK    4  A    between atoms: C_5  and  C_6 
REMARK    5  A    between atoms: C_6  and  C_7 
REMARK    6  A    between atoms: C_7  and  C_8 
REMARK    7  A    between atoms: C_8  and  C_9 
REMARK    8  A    between atoms: C_9  and  C_10 
REMARK    9  A    between atoms: C_10  and  C_11 
REMARK   10  A    between atoms: C_11  and  C_12 
REMARK   11  A    between atoms: C_12  and  C_13 
REMARK   12  A    between atoms: C_13  and  C_14 
REMARK   13  A    between atoms: C_14  and  O_15 
REMARK   14  A    between atoms: O_15  and  C_16 
REMARK   15  A    between atoms: C_16  and  C_18 
REMARK   16  A    between atoms: C_18  and  O_20 
ROOT
HETATM    1  C   UNL     1     -22.582  -4.783  -9.572  1.00  0.00     0.000 C 
ENDROOT
BRANCH   1   2
HETATM    2  C   UNL     1     -22.278  -3.529  -8.757  1.00  0.00     0.000 C 
BRANCH   2   3
HETATM    3  C   UNL     1     -21.224  -3.806  -7.697  1.00  0.00     0.000 C 
BRANCH   3   4
HETATM    4  C   UNL     1     -20.332  -4.968  -8.115  1.00  0.00     0.000 C 
BRANCH   4   5
HETATM    5  C   UNL     1     -19.874  -5.757  -6.895  1.00  0.00     0.000 C 
BRANCH   5   6
HETATM    6  C   UNL     1     -20.296  -5.057  -5.609  1.00  0.00     0.000 C 
BRANCH   6   7
HETATM    7  C   UNL     1     -21.319  -5.894  -4.850  1.00  0.00     0.000 C 
BRANCH   7   8
HETATM    8  C   UNL     1     -20.719  -7.230  -4.427  1.00  0.00     0.000 C 
BRANCH   8   9
HETATM    9  C   UNL     1     -21.094  -7.560  -2.985  1.00  0.00    -0.000 C 
BRANCH   9  10
HETATM   10  C   UNL     1     -21.949  -6.454  -2.374  1.00  0.00    -0.005 C 
HETATM   11  C   UNL     1     -22.269  -6.754  -0.919  1.00  0.00     0.005 C 
ENDBRANCH   9  10
ENDBRANCH   8   9
ENDBRANCH   7   8
ENDBRANCH   6   7
ENDBRANCH   5   6
ENDBRANCH   4   5
ENDBRANCH   3   4
ENDBRANCH   2   3
ENDBRANCH   1   2
BRANCH   1  12
HETATM   12  C   UNL     1     -24.002  -4.749 -10.128  1.00  0.00     0.002 C 
BRANCH  12  13
HETATM   13  C   UNL     1     -24.437  -3.328 -10.459  1.00  0.00     0.027 C 
BRANCH  13  14
HETATM   14  C   UNL     1     -24.072  -2.963 -11.887  1.00  0.00     0.178 C 
BRANCH  14  15
HETATM   15  O   UNL     1     -25.205  -3.173 -12.740  1.00  0.00    -0.319 OA
BRANCH  15  16
HETATM   16  C   UNL     1     -24.932  -3.032 -14.064  1.00  0.00     0.287 C 
HETATM   17  O   UNL     1     -25.023  -3.927 -14.907  1.00  0.00    -0.262 OA
BRANCH  16  18
HETATM   18  C   UNL     1     -24.470  -1.617 -14.393  1.00  0.00     0.213 C 
HETATM   19  C   UNL     1     -23.124  -1.631 -15.094  1.00  0.00     0.050 C 
BRANCH  18  20
HETATM   20  O   UNL     1     -25.401  -0.941 -15.242  1.00  0.00    -0.386 OA
HETATM   21  H   UNL     1     -24.972  -0.860 -16.117  1.00  0.00     0.210 HD
ENDBRANCH  18  20
ENDBRANCH  16  18
ENDBRANCH  15  16
ENDBRANCH  14  15
ENDBRANCH  13  14
ENDBRANCH  12  13
ENDBRANCH   1  12
TORSDOF 16
BEGIN_RES ARG D 557
REMARK  4 active torsions:
REMARK  status: ('A' for Active; 'I' for Inactive)
REMARK    1  A    between atoms: CA   and  CB  
REMARK    2  A    between atoms: CB   and  CG  
REMARK    3  A    between atoms: CG   and  CD  
REMARK    4  A    between atoms: CD   and  NE  
REMARK       I    between atoms: NE   and  CZ  
REMARK       I    between atoms: CZ   and  NH1 
REMARK       I    between atoms: CZ   and  NH2 
ROOT
ATOM      1  CA  ARG D 557     -26.217   2.705 -17.014  1.00 35.49     0.159 C 
ENDROOT
BRANCH   1   2
ATOM      2  CB  ARG D 557     -26.789   1.319 -17.183  1.00 35.49     0.034 C 
BRANCH   2   3
ATOM      3  CG  ARG D 557     -28.225   1.228 -17.474  1.00 35.49     0.027 C 
BRANCH   3   4
ATOM      4  CD  ARG D 557     -28.923   0.280 -16.575  1.00 35.49     0.116 C 
BRANCH   4   5
ATOM      5  NE  ARG D 557     -28.136  -0.894 -16.308  1.00 35.49    -0.212 N 
ATOM      6  CZ  ARG D 557     -28.395  -2.108 -16.739  1.00 35.49     0.666 C 
ATOM      7  NH1 ARG D 557     -29.453  -2.387 -17.478  1.00 35.49    -0.235 N 
ATOM      8  NH2 ARG D 557     -27.559  -3.052 -16.417  1.00 35.49    -0.235 N 
ATOM      9  HH  ARG D 557     -30.016  -1.781 -17.703  1.00 35.49     0.174 HD
ATOM     10  HH  ARG D 557     -29.570  -3.197 -17.732  1.00 35.49     0.174 HD
ATOM     11  HH  ARG D 557     -26.880  -2.841 -15.945  1.00 35.49     0.174 HD
ATOM     12  HH  ARG D 557     -27.691  -3.847 -16.680  1.00 35.49     0.174 HD
ATOM     13  HE  ARG D 557     -27.474  -0.819 -15.779  1.00 35.49     0.178 HD
ENDBRANCH   4   5
ENDBRANCH   3   4
ENDBRANCH   2   3
ENDBRANCH   1   2
END_RES ARG D 557
BEGIN_RES GLU D 570
REMARK  3 active torsions:
REMARK  status: ('A' for Active; 'I' for Inactive)
REMARK    5  A    between atoms: CA   and  CB  
REMARK    6  A    between atoms: CB   and  CG  
REMARK    7  A    between atoms: CG   and  CD  
ROOT
ATOM     14  CA  GLU D 570     -18.033  -6.348 -13.375  1.00 32.92     0.160 C 
ENDROOT
BRANCH  14  15
ATOM     15  CB  GLU D 570     -19.500  -6.345 -13.794  1.00 32.92     0.043 C 
BRANCH  15  16
ATOM     16  CG  GLU D 570     -20.431  -5.481 -13.022  1.00 32.92     0.100 C 
BRANCH  16  17
ATOM     17  CD  GLU D 570     -21.747  -5.255 -13.728  1.00 32.92     0.185 C 
ATOM     18  OE1 GLU D 570     -22.797  -5.664 -13.197  1.00 32.92    -0.647 OA
ATOM     19  OE2 GLU D 570     -21.726  -4.677 -14.833  1.00 32.92    -0.647 OA
ENDBRANCH  16  17
ENDBRANCH  15  16
ENDBRANCH  14  15
END_RES GLU D 570
ENDMDL
MODEL 3
REMARK VINA RESULT:      -6.5      1.454      2.976
REMARK  16 active torsions:
REMARK  status: ('A' for Active; 'I' for Inactive)
REMARK    1  A    between atoms: C_2  and  C_3 
REMARK    2  A    between atoms: C_3  and  C_4 
REMARK    3  A    between atoms: C_4  and  C_5 
REMARK    4  A    between atoms: C_5  and  C_6 
REMARK    5  A    between atoms: C_6  and  C_7 
REMARK    6  A    between atoms: C_7  and  C_8 
REMARK    7  A    between atoms: C_8  and  C_9 
REMARK    8  A    between atoms: C_9  and  C_10 
REMARK    9  A    between atoms: C_10  and  C_11 
REMARK   10  A    between atoms: C_11  and  C_12 
REMARK   11  A    between atoms: C_12  and  C_13 
REMARK   12  A    between atoms: C_13  and  C_14 
REMARK   13  A    between atoms: C_14  and  O_15 
REMARK   14  A    between atoms: O_15  and  C_16 
REMARK   15  A    between atoms: C_16  and  C_18 
REMARK   16  A    between atoms: C_18  and  O_20 
ROOT
HETATM    1  C   UNL     1     -21.858  -6.643  -5.275  1.00  0.00     0.000 C 
ENDROOT
BRANCH   1   2
HETATM    2  C   UNL     1     -21.628  -7.930  -4.487  1.00  0.00     0.000 C 
BRANCH   2   3
HETATM    3  C   UNL     1     -21.010  -7.637  -3.129  1.00  0.00     0.000 C 
BRANCH   3   4
HETATM    4  C   UNL     1     -21.454  -6.272  -2.619  1.00  0.00     0.000 C 
BRANCH   4   5
HETATM    5  C   UNL     1     -22.360  -6.423  -1.404  1.00  0.00     0.000 C 
BRANCH   5   6
HETATM    6  C   UNL     1     -21.875  -7.553  -0.504  1.00  0.00     0.000 C 
BRANCH   6   7
HETATM    7  C   UNL     1     -22.987  -8.013   0.431  1.00  0.00     0.000 C 
BRANCH   7   8
HETATM    8  C   UNL     1     -23.344  -9.473   0.172  1.00  0.00     0.000 C 
BRANCH   8   9
HETATM    9  C   UNL     1     -22.343 -10.113  -0.785  1.00  0.00    -0.000 C 
BRANCH   9  10
HETATM   10  C   UNL     1     -23.046 -11.030  -1.783  1.00  0.00    -0.005 C 
HETATM   11  C   UNL     1     -24.177 -11.794  -1.116  1.00  0.00     0.005 C 
ENDBRANCH   9  10
ENDBRANCH   8   9
ENDBRANCH   7   8
ENDBRANCH   6   7
ENDBRANCH   5   6
ENDBRANCH   4   5
ENDBRANCH   3   4
ENDBRANCH   2   3
ENDBRANCH   1   2
BRANCH   1  12
HETATM   12  C   UNL     1     -20.731  -6.400  -6.274  1.00  0.00     0.002 C 
BRANCH  12  13
HETATM   13  C   UNL     1     -20.224  -4.965  -6.204  1.00  0.00     0.027 C 
BRANCH  13  14
HETATM   14  C   UNL     1     -21.137  -4.024  -6.968  1.00  0.00     0.178 C 
BRANCH  14  15
HETATM   15  O   UNL     1     -21.852  -4.759  -7.971  1.00  0.00    -0.319 OA
BRANCH  15  16
HETATM   16  C   UNL     1     -21.901  -4.139  -9.180  1.00  0.00     0.287 C 
HETATM   17  O   UNL     1     -20.921  -3.832  -9.860  1.00  0.00    -0.262 OA
BRANCH  16  18
HETATM   18  C   UNL     1     -23.337  -3.840  -9.598  1.00  0.00     0.213 C 
HETATM   19  C   UNL     1     -23.874  -4.922 -10.518  1.00  0.00     0.050 C 
BRANCH  18  20
HETATM   20  O   UNL     1     -24.207  -3.750  -8.469  1.00  0.00    -0.386 OA
HETATM   21  H   UNL     1     -25.055  -4.158  -8.737  1.00  0.00     0.210 HD
ENDBRANCH  18  20
ENDBRANCH  16  18
ENDBRANCH  15  16
ENDBRANCH  14  15
ENDBRANCH  13  14
ENDBRANCH  12  13
ENDBRANCH   1  12
TORSDOF 16
BEGIN_RES ARG D 557
REMARK  4 active torsions:
REMARK  status: ('A' for Active; 'I' for Inactive)
REMARK    1  A    between atoms: CA   and  CB  
REMARK    2  A    between atoms: CB   and  CG  
REMARK    3  A    between atoms: CG   and  CD  
REMARK    4  A    between atoms: CD   and  NE  
REMARK       I    between atoms: NE   and  CZ  
REMARK       I    between atoms: CZ   and  NH1 
REMARK       I    between atoms: CZ   and  NH2 
ROOT
ATOM      1  CA  ARG D 557     -26.217   2.705 -17.014  1.00 35.49     0.159 C 
ENDROOT
BRANCH   1   2
ATOM      2  CB  ARG D 557     -26.789   1.319 -17.183  1.00 35.49     0.034 C 
BRANCH   2   3
ATOM      3  CG  ARG D 557     -25.837   0.202 -17.144  1.00 35.49     0.027 C 
BRANCH   3   4
ATOM      4  CD  ARG D 557     -24.765   0.409 -16.143  1.00 35.49     0.116 C 
BRANCH   4   5
ATOM      5  NE  ARG D 557     -24.916  -0.454 -15.001  1.00 35.49    -0.212 N 
ATOM      6  CZ  ARG D 557     -24.100  -1.427 -14.661  1.00 35.49     0.666 C 
ATOM      7  NH1 ARG D 557     -23.027  -1.732 -15.366  1.00 35.49    -0.235 N 
ATOM      8  NH2 ARG D 557     -24.381  -2.095 -13.579  1.00 35.49    -0.235 N 
ATOM      9  HH  ARG D 557     -22.822  -1.304 -16.080  1.00 35.49     0.174 HD
ATOM     10  HH  ARG D 557     -22.530  -2.375 -15.094  1.00 35.49     0.174 HD
ATOM     11  HH  ARG D 557     -25.076  -1.870 -13.140  1.00 35.49     0.174 HD
ATOM     12  HH  ARG D 557     -23.876  -2.727 -13.326  1.00 35.49     0.174 HD
ATOM     13  HE  ARG D 557     -25.620  -0.375 -14.531  1.00 35.49     0.178 HD
ENDBRANCH   4   5
ENDBRANCH   3   4
ENDBRANCH   2   3
ENDBRANCH   1   2
END_RES ARG D 557
BEGIN_RES GLU D 570
REMARK  3 active torsions:
REMARK  status: ('A' for Active; 'I' for Inactive)
REMARK    5  A    between atoms: CA   and  CB  
REMARK    6  A    between atoms: CB   and  CG  
REMARK    7  A    between atoms: CG   and  CD  
ROOT
ATOM     14  CA  GLU D 570     -18.033  -6.348 -13.375  1.00 32.92     0.160 C 
ENDROOT
BRANCH  14  15
ATOM     15  CB  GLU D 570     -19.500  -6.345 -13.794  1.00 32.92     0.043 C 
BRANCH  15  16
ATOM     16  CG  GLU D 570     -20.451  -5.573 -12.953  1.00 32.92     0.100 C 
BRANCH  16  17
ATOM     17  CD  GLU D 570     -21.731  -5.226 -13.677  1.00 32.92     0.185 C 
ATOM     18  OE1 GLU D 570     -22.208  -4.083 -13.548  1.00 32.92    -0.647 OA
ATOM     19  OE2 GLU D 570     -22.271  -6.114 -14.366  1.00 32.92    -0.647 OA
ENDBRANCH  16  17
ENDBRANCH  15  16
ENDBRANCH  14  15
END_RES GLU D 570
ENDMDL
MODEL 4
REMARK VINA RESULT:      -6.5      1.180      2.091
REMARK  16 active torsions:
REMARK  status: ('A' for Active; 'I' for Inactive)
REMARK    1  A    between atoms: C_2  and  C_3 
REMARK    2  A    between atoms: C_3  and  C_4 
REMARK    3  A    between atoms: C_4  and  C_5 
REMARK    4  A    between atoms: C_5  and  C_6 
REMARK    5  A    between atoms: C_6  and  C_7 
REMARK    6  A    between atoms: C_7  and  C_8 
REMARK    7  A    between atoms: C_8  and  C_9 
REMARK    8  A    between atoms: C_9  and  C_10 
REMARK    9  A    between atoms: C_10  and  C_11 
REMARK   10  A    between atoms: C_11  and  C_12 
REMARK   11  A    between atoms: C_12  and  C_13 
REMARK   12  A    between atoms: C_13  and  C_14 
REMARK   13  A    between atoms: C_14  and  O_15 
REMARK   14  A    between atoms: O_15  and  C_16 
REMARK   15  A    between atoms: C_16  and  C_18 
REMARK   16  A    between atoms: C_18  and  O_20 
ROOT
HETATM    1  C   UNL     1     -20.839  -5.376  -5.551  1.00  0.00     0.000 C 
ENDROOT
BRANCH   1   2
HETATM    2  C   UNL     1     -21.314  -6.814  -5.731  1.00  0.00     0.000 C 
BRANCH   2   3
HETATM    3  C   UNL     1     -21.617  -7.464  -4.391  1.00  0.00     0.000 C 
BRANCH   3   4
HETATM    4  C   UNL     1     -21.243  -6.533  -3.245  1.00  0.00     0.000 C 
BRANCH   4   5
HETATM    5  C   UNL     1     -21.245  -7.286  -1.921  1.00  0.00     0.000 C 
BRANCH   5   6
HETATM    6  C   UNL     1     -22.389  -6.813  -1.032  1.00  0.00     0.000 C 
BRANCH   6   7
HETATM    7  C   UNL     1     -22.701  -7.850   0.041  1.00  0.00     0.000 C 
BRANCH   7   8
HETATM    8  C   UNL     1     -21.571  -8.867   0.157  1.00  0.00     0.000 C 
BRANCH   8   9
HETATM    9  C   UNL     1     -22.115 -10.292   0.094  1.00  0.00    -0.000 C 
BRANCH   9  10
HETATM   10  C   UNL     1     -23.621 -10.293  -0.152  1.00  0.00    -0.005 C 
HETATM   11  C   UNL     1     -24.021 -11.438  -1.068  1.00  0.00     0.005 C 
ENDBRANCH   9  10
ENDBRANCH   8   9
ENDBRANCH   7   8
ENDBRANCH   6   7
ENDBRANCH   5   6
ENDBRANCH   4   5
ENDBRANCH   3   4
ENDBRANCH   2   3
ENDBRANCH   1   2
BRANCH   1  12
HETATM   12  C   UNL     1     -20.451  -4.752  -6.887  1.00  0.00     0.002 C 
BRANCH  12  13
HETATM   13  C   UNL     1     -21.381  -3.605  -7.259  1.00  0.00     0.027 C 
BRANCH  13  14
HETATM   14  C   UNL     1     -22.630  -4.117  -7.954  1.00  0.00     0.178 C 
BRANCH  14  15
HETATM   15  O   UNL     1     -22.279  -4.657  -9.235  1.00  0.00    -0.319 OA
BRANCH  15  16
HETATM   16  C   UNL     1     -22.575  -3.839 -10.279  1.00  0.00     0.287 C 
HETATM   17  O   UNL     1     -23.710  -3.486 -10.605  1.00  0.00    -0.262 OA
BRANCH  16  18
HETATM   18  C   UNL     1     -21.319  -3.416 -11.033  1.00  0.00     0.213 C 
HETATM   19  C   UNL     1     -20.213  -4.443 -10.872  1.00  0.00     0.050 C 
BRANCH  18  20
HETATM   20  O   UNL     1     -21.571  -3.256 -12.431  1.00  0.00    -0.386 OA
HETATM   21  H   UNL     1     -22.010  -2.389 -12.538  1.00  0.00     0.210 HD
ENDBRANCH  18  20
ENDBRANCH  16  18
ENDBRANCH  15  16
ENDBRANCH  14  15
ENDBRANCH  13  14
ENDBRANCH  12  13
ENDBRANCH   1  12
TORSDOF 16
BEGIN_RES ARG D 557
REMARK  4 active torsions:
REMARK  status: ('A' for Active; 'I' for Inactive)
REMARK    1  A    between atoms: CA   and  CB  
REMARK    2  A    between atoms: CB   and  CG  
REMARK    3  A    between atoms: CG   and  CD  
REMARK    4  A    between atoms: CD   and  NE  
REMARK       I    between atoms: NE   and  CZ  
REMARK       I    between atoms: CZ   and  NH1 
REMARK       I    between atoms: CZ   and  NH2 
ROOT
ATOM      1  CA  ARG D 557     -26.217   2.705 -17.014  1.00 35.49     0.159 C 
ENDROOT
BRANCH   1   2
ATOM      2  CB  ARG D 557     -26.789   1.319 -17.183  1.00 35.49     0.034 C 
BRANCH   2   3
ATOM      3  CG  ARG D 557     -25.865   0.195 -16.988  1.00 35.49     0.027 C 
BRANCH   3   4
ATOM      4  CD  ARG D 557     -26.334  -0.746 -15.944  1.00 35.49     0.116 C 
BRANCH   4   5
ATOM      5  NE  ARG D 557     -25.340  -0.966 -14.927  1.00 35.49    -0.212 N 
ATOM      6  CZ  ARG D 557     -25.105  -2.106 -14.317  1.00 35.49     0.666 C 
ATOM      7  NH1 ARG D 557     -25.791  -3.204 -14.576  1.00 35.49    -0.235 N 
ATOM      8  NH2 ARG D 557     -24.149  -2.128 -13.434  1.00 35.49    -0.235 N 
ATOM      9  HH  ARG D 557     -26.422  -3.212 -15.155  1.00 35.49     0.174 HD
ATOM     10  HH  ARG D 557     -25.590  -3.919 -14.149  1.00 35.49     0.174 HD
ATOM     11  HH  ARG D 557     -23.718  -1.406 -13.293  1.00 35.49     0.174 HD
ATOM     12  HH  ARG D 557     -23.965  -2.846 -13.023  1.00 35.49     0.174 HD
ATOM     13  HE  ARG D 557     -24.901  -0.294 -14.646  1.00 35.49     0.178 HD
ENDBRANCH   4   5
ENDBRANCH   3   4
ENDBRANCH   2   3
ENDBRANCH   1   2
END_RES ARG D 557
BEGIN_RES GLU D 570
REMARK  3 active torsions:
REMARK  status: ('A' for Active; 'I' for Inactive)
REMARK    5  A    between atoms: CA   and  CB  
REMARK    6  A    between atoms: CB   and  CG  
REMARK    7  A    between atoms: CG   and  CD  
ROOT
ATOM     14  CA  GLU D 570     -18.033  -6.348 -13.375  1.00 32.92     0.160 C 
ENDROOT
BRANCH  14  15
ATOM     15  CB  GLU D 570     -19.500  -6.345 -13.794  1.00 32.92     0.043 C 
BRANCH  15  16
ATOM     16  CG  GLU D 570     -19.806  -6.021 -15.211  1.00 32.92     0.100 C 
BRANCH  16  17
ATOM     17  CD  GLU D 570     -21.172  -5.400 -15.392  1.00 32.92     0.185 C 
ATOM     18  OE1 GLU D 570     -21.490  -4.954 -16.511  1.00 32.92    -0.647 OA
ATOM     19  OE2 GLU D 570     -21.924  -5.343 -14.400  1.00 32.92    -0.647 OA
ENDBRANCH  16  17
ENDBRANCH  15  16
ENDBRANCH  14  15
END_RES GLU D 570
ENDMDL
MODEL 5
REMARK VINA RESULT:      -6.5      1.896      2.860
REMARK  16 active torsions:
REMARK  status: ('A' for Active; 'I' for Inactive)
REMARK    1  A    between atoms: C_2  and  C_3 
REMARK    2  A    between atoms: C_3  and  C_4 
REMARK    3  A    between atoms: C_4  and  C_5 
REMARK    4  A    between atoms: C_5  and  C_6 
REMARK    5  A    between atoms: C_6  and  C_7 
REMARK    6  A    between atoms: C_7  and  C_8 
REMARK    7  A    between atoms: C_8  and  C_9 
REMARK    8  A    between atoms: C_9  and  C_10 
REMARK    9  A    between atoms: C_10  and  C_11 
REMARK   10  A    between atoms: C_11  and  C_12 
REMARK   11  A    between atoms: C_12  and  C_13 
REMARK   12  A    between atoms: C_13  and  C_14 
REMARK   13  A    between atoms: C_14  and  O_15 
REMARK   14  A    between atoms: O_15  and  C_16 
REMARK   15  A    between atoms: C_16  and  C_18 
REMARK   16  A    between atoms: C_18  and  O_20 
ROOT
HETATM    1  C   UNL     1     -21.981  -4.124  -8.812  1.00  0.00     0.000 C 
ENDROOT
BRANCH   1   2
HETATM    2  C   UNL     1     -21.777  -4.012  -7.304  1.00  0.00     0.000 C 
BRANCH   2   3
HETATM    3  C   UNL     1     -20.371  -4.436  -6.908  1.00  0.00     0.000 C 
BRANCH   3   4
HETATM    4  C   UNL     1     -20.416  -5.642  -5.978  1.00  0.00     0.000 C 
BRANCH   4   5
HETATM    5  C   UNL     1     -21.853  -5.970  -5.595  1.00  0.00     0.000 C 
BRANCH   5   6
HETATM    6  C   UNL     1     -21.896  -6.814  -4.327  1.00  0.00     0.000 C 
BRANCH   6   7
HETATM    7  C   UNL     1     -21.421  -6.005  -3.125  1.00  0.00     0.000 C 
BRANCH   7   8
HETATM    8  C   UNL     1     -21.999  -6.567  -1.831  1.00  0.00     0.000 C 
BRANCH   8   9
HETATM    9  C   UNL     1     -21.217  -7.796  -1.377  1.00  0.00    -0.000 C 
BRANCH   9  10
HETATM   10  C   UNL     1     -21.569  -8.172   0.060  1.00  0.00    -0.005 C 
HETATM   11  C   UNL     1     -23.048  -7.954   0.332  1.00  0.00     0.005 C 
ENDBRANCH   9  10
ENDBRANCH   8   9
ENDBRANCH   7   8
ENDBRANCH   6   7
ENDBRANCH   5   6
ENDBRANCH   4   5
ENDBRANCH   3   4
ENDBRANCH   2   3
ENDBRANCH   1   2
BRANCH   1  12
HETATM   12  C   UNL     1     -20.658  -4.364  -9.531  1.00  0.00     0.002 C 
BRANCH  12  13
HETATM   13  C   UNL     1     -20.782  -4.112 -11.028  1.00  0.00     0.027 C 
BRANCH  13  14
HETATM   14  C   UNL     1     -21.707  -2.941 -11.310  1.00  0.00     0.178 C 
BRANCH  14  15
HETATM   15  O   UNL     1     -22.279  -3.086 -12.617  1.00  0.00    -0.319 OA
BRANCH  15  16
HETATM   16  C   UNL     1     -23.626  -2.903 -12.653  1.00  0.00     0.287 C 
HETATM   17  O   UNL     1     -24.368  -2.892 -11.670  1.00  0.00    -0.262 OA
BRANCH  16  18
HETATM   18  C   UNL     1     -24.129  -2.731 -14.082  1.00  0.00     0.213 C 
HETATM   19  C   UNL     1     -23.043  -2.164 -14.979  1.00  0.00     0.050 C 
BRANCH  18  20
HETATM   20  O   UNL     1     -24.559  -3.972 -14.644  1.00  0.00    -0.386 OA
HETATM   21  H   UNL     1     -24.196  -4.677 -14.072  1.00  0.00     0.210 HD
ENDBRANCH  18  20
ENDBRANCH  16  18
ENDBRANCH  15  16
ENDBRANCH  14  15
ENDBRANCH  13  14
ENDBRANCH  12  13
ENDBRANCH   1  12
TORSDOF 16
BEGIN_RES ARG D 557
REMARK  4 active torsions:
REMARK  status: ('A' for Active; 'I' for Inactive)
REMARK    1  A    between atoms: CA   and  CB  
REMARK    2  A    between atoms: CB   and  CG  
REMARK    3  A    between atoms: CG   and  CD  
REMARK    4  A    between atoms: CD   and  NE  
REMARK       I    between atoms: NE   and  CZ  
REMARK       I    between atoms: CZ   and  NH1 
REMARK       I    between atoms: CZ   and  NH2 
ROOT
ATOM      1  CA  ARG D 557     -26.217   2.705 -17.014  1.00 35.49     0.159 C 
ENDROOT
BRANCH   1   2
ATOM      2  CB  ARG D 557     -26.789   1.319 -17.183  1.00 35.49     0.034 C 
BRANCH   2   3
ATOM      3  CG  ARG D 557     -28.229   1.227 -17.454  1.00 35.49     0.027 C 
BRANCH   3   4
ATOM      4  CD  ARG D 557     -28.901   0.222 -16.600  1.00 35.49     0.116 C 
BRANCH   4   5
ATOM      5  NE  ARG D 557     -28.001  -0.819 -16.176  1.00 35.49    -0.212 N 
ATOM      6  CZ  ARG D 557     -28.055  -2.079 -16.547  1.00 35.49     0.666 C 
ATOM      7  NH1 ARG D 557     -28.984  -2.538 -17.365  1.00 35.49    -0.235 N 
ATOM      8  NH2 ARG D 557     -27.143  -2.881 -16.080  1.00 35.49    -0.235 N 
ATOM      9  HH  ARG D 557     -29.592  -2.028 -17.686  1.00 35.49     0.174 HD
ATOM     10  HH  ARG D 557     -28.967  -3.369 -17.573  1.00 35.49     0.174 HD
ATOM     11  HH  ARG D 557     -26.551  -2.555 -15.559  1.00 35.49     0.174 HD
ATOM     12  HH  ARG D 557     -27.143  -3.700 -16.299  1.00 35.49     0.174 HD
ATOM     13  HE  ARG D 557     -27.415  -0.626 -15.591  1.00 35.49     0.178 HD
ENDBRANCH   4   5
ENDBRANCH   3   4
ENDBRANCH   2   3
ENDBRANCH   1   2
END_RES ARG D 557
BEGIN_RES GLU D 570
REMARK  3 active torsions:
REMARK  status: ('A' for Active; 'I' for Inactive)
REMARK    5  A    between atoms: CA   and  CB  
REMARK    6  A    between atoms: CB   and  CG  
REMARK    7  A    between atoms: CG   and  CD  
ROOT
ATOM     14  CA  GLU D 570     -18.033  -6.348 -13.375  1.00 32.92     0.160 C 
ENDROOT
BRANCH  14  15
ATOM     15  CB  GLU D 570     -19.500  -6.345 -13.794  1.00 32.92     0.043 C 
BRANCH  15  16
ATOM     16  CG  GLU D 570     -19.851  -5.639 -15.053  1.00 32.92     0.100 C 
BRANCH  16  17
ATOM     17  CD  GLU D 570     -21.342  -5.538 -15.277  1.00 32.92     0.185 C 
ATOM     18  OE1 GLU D 570     -22.114  -5.815 -14.339  1.00 32.92    -0.647 OA
ATOM     19  OE2 GLU D 570     -21.742  -5.194 -16.406  1.00 32.92    -0.647 OA
ENDBRANCH  16  17
ENDBRANCH  15  16
ENDBRANCH  14  15
END_RES GLU D 570
ENDMDL
MODEL 6
REMARK VINA RESULT:      -6.1      1.679      2.424
REMARK  16 active torsions:
REMARK  status: ('A' for Active; 'I' for Inactive)
REMARK    1  A    between atoms: C_2  and  C_3 
REMARK    2  A    between atoms: C_3  and  C_4 
REMARK    3  A    between atoms: C_4  and  C_5 
REMARK    4  A    between atoms: C_5  and  C_6 
REMARK    5  A    between atoms: C_6  and  C_7 
REMARK    6  A    between atoms: C_7  and  C_8 
REMARK    7  A    between atoms: C_8  and  C_9 
REMARK    8  A    between atoms: C_9  and  C_10 
REMARK    9  A    between atoms: C_10  and  C_11 
REMARK   10  A    between atoms: C_11  and  C_12 
REMARK   11  A    between atoms: C_12  and  C_13 
REMARK   12  A    between atoms: C_13  and  C_14 
REMARK   13  A    between atoms: C_14  and  O_15 
REMARK   14  A    between atoms: O_15  and  C_16 
REMARK   15  A    between atoms: C_16  and  C_18 
REMARK   16  A    between atoms: C_18  and  O_20 
ROOT
HETATM    1  C   UNL     1     -20.081  -4.400  -6.983  1.00  0.00     0.000 C 
ENDROOT
BRANCH   1   2
HETATM    2  C   UNL     1     -20.533  -5.857  -7.022  1.00  0.00     0.000 C 
BRANCH   2   3
HETATM    3  C   UNL     1     -21.607  -6.126  -5.980  1.00  0.00     0.000 C 
BRANCH   3   4
HETATM    4  C   UNL     1     -20.982  -6.604  -4.675  1.00  0.00     0.000 C 
BRANCH   4   5
HETATM    5  C   UNL     1     -21.940  -6.384  -3.511  1.00  0.00     0.000 C 
BRANCH   5   6
HETATM    6  C   UNL     1     -21.451  -7.109  -2.264  1.00  0.00     0.000 C 
BRANCH   6   7
HETATM    7  C   UNL     1     -22.306  -6.741  -1.057  1.00  0.00     0.000 C 
BRANCH   7   8
HETATM    8  C   UNL     1     -22.570  -7.966  -0.186  1.00  0.00     0.000 C 
BRANCH   8   9
HETATM    9  C   UNL     1     -22.159  -9.244  -0.911  1.00  0.00    -0.000 C 
BRANCH   9  10
HETATM   10  C   UNL     1     -22.515 -10.480  -0.089  1.00  0.00    -0.005 C 
HETATM   11  C   UNL     1     -23.991 -10.815  -0.221  1.00  0.00     0.005 C 
ENDBRANCH   9  10
ENDBRANCH   8   9
ENDBRANCH   7   8
ENDBRANCH   6   7
ENDBRANCH   5   6
ENDBRANCH   4   5
ENDBRANCH   3   4
ENDBRANCH   2   3
ENDBRANCH   1   2
BRANCH   1  12
HETATM   12  C   UNL     1     -19.699  -3.904  -8.374  1.00  0.00     0.002 C 
BRANCH  12  13
HETATM   13  C   UNL     1     -20.102  -4.901  -9.452  1.00  0.00     0.027 C 
BRANCH  13  14
HETATM   14  C   UNL     1     -20.650  -4.191 -10.677  1.00  0.00     0.178 C 
BRANCH  14  15
HETATM   15  O   UNL     1     -21.720  -3.320 -10.287  1.00  0.00    -0.319 OA
BRANCH  15  16
HETATM   16  C   UNL     1     -22.808  -3.383 -11.099  1.00  0.00     0.287 C 
HETATM   17  O   UNL     1     -22.846  -2.992 -12.267  1.00  0.00    -0.262 OA
BRANCH  16  18
HETATM   18  C   UNL     1     -24.010  -3.985 -10.380  1.00  0.00     0.213 C 
HETATM   19  C   UNL     1     -23.769  -4.058  -8.882  1.00  0.00     0.050 C 
BRANCH  18  20
HETATM   20  O   UNL     1     -25.195  -3.218 -10.598  1.00  0.00    -0.386 OA
HETATM   21  H   UNL     1     -24.961  -2.520 -11.241  1.00  0.00     0.210 HD
ENDBRANCH  18  20
ENDBRANCH  16  18
ENDBRANCH  15  16
ENDBRANCH  14  15
ENDBRANCH  13  14
ENDBRANCH  12  13
ENDBRANCH   1  12
TORSDOF 16
BEGIN_RES ARG D 557
REMARK  4 active torsions:
REMARK  status: ('A' for Active; 'I' for Inactive)
REMARK    1  A    between atoms: CA   and  CB  
REMARK    2  A    between atoms: CB   and  CG  
REMARK    3  A    between atoms: CG   and  CD  
REMARK    4  A    between atoms: CD   and  NE  
REMARK       I    between atoms: NE   and  CZ  
REMARK       I    between atoms: CZ   and  NH1 
REMARK       I    between atoms: CZ   and  NH2 
ROOT
ATOM      1  CA  ARG D 557     -26.217   2.705 -17.014  1.00 35.49     0.159 C 
ENDROOT
BRANCH   1   2
ATOM      2  CB  ARG D 557     -26.789   1.319 -17.183  1.00 35.49     0.034 C 
BRANCH   2   3
ATOM      3  CG  ARG D 557     -25.964   0.201 -16.708  1.00 35.49     0.027 C 
BRANCH   3   4
ATOM      4  CD  ARG D 557     -26.779  -0.914 -16.174  1.00 35.49     0.116 C 
BRANCH   4   5
ATOM      5  NE  ARG D 557     -26.187  -1.507 -15.004  1.00 35.49    -0.212 N 
ATOM      6  CZ  ARG D 557     -26.187  -2.787 -14.708  1.00 35.49     0.666 C 
ATOM      7  NH1 ARG D 557     -26.765  -3.693 -15.476  1.00 35.49    -0.235 N 
ATOM      8  NH2 ARG D 557     -25.583  -3.150 -13.614  1.00 35.49    -0.235 N 
ATOM      9  HH  ARG D 557     -27.166  -3.476 -16.201  1.00 35.49     0.174 HD
ATOM     10  HH  ARG D 557     -26.730  -4.514 -15.233  1.00 35.49     0.174 HD
ATOM     11  HH  ARG D 557     -25.212  -2.544 -13.141  1.00 35.49     0.174 HD
ATOM     12  HH  ARG D 557     -25.558  -3.968 -13.391  1.00 35.49     0.174 HD
ATOM     13  HE  ARG D 557     -25.856  -0.988 -14.418  1.00 35.49     0.178 HD
ENDBRANCH   4   5
ENDBRANCH   3   4
ENDBRANCH   2   3
ENDBRANCH   1   2
END_RES ARG D 557
BEGIN_RES GLU D 570
REMARK  3 active torsions:
REMARK  status: ('A' for Active; 'I' for Inactive)
REMARK    5  A    between atoms: CA   and  CB  
REMARK    6  A    between atoms: CB   and  CG  
REMARK    7  A    between atoms: CG   and  CD  
ROOT
ATOM     14  CA  GLU D 570     -18.033  -6.348 -13.375  1.00 32.92     0.160 C 
ENDROOT
BRANCH  14  15
ATOM     15  CB  GLU D 570     -19.500  -6.345 -13.794  1.00 32.92     0.043 C 
BRANCH  15  16
ATOM     16  CG  GLU D 570     -19.797  -6.237 -15.246  1.00 32.92     0.100 C 
BRANCH  16  17
ATOM     17  CD  GLU D 570     -20.708  -7.335 -15.744  1.00 32.92     0.185 C 
ATOM     18  OE1 GLU D 570     -21.518  -7.082 -16.656  1.00 32.92    -0.647 OA
ATOM     19  OE2 GLU D 570     -20.622  -8.456 -15.205  1.00 32.92    -0.647 OA
ENDBRANCH  16  17
ENDBRANCH  15  16
ENDBRANCH  14  15
END_RES GLU D 570
ENDMDL
MODEL 7
REMARK VINA RESULT:      -6.1      2.202      2.744
REMARK  16 active torsions:
REMARK  status: ('A' for Active; 'I' for Inactive)
REMARK    1  A    between atoms: C_2  and  C_3 
REMARK    2  A    between atoms: C_3  and  C_4 
REMARK    3  A    between atoms: C_4  and  C_5 
REMARK    4  A    between atoms: C_5  and  C_6 
REMARK    5  A    between atoms: C_6  and  C_7 
REMARK    6  A    between atoms: C_7  and  C_8 
REMARK    7  A    between atoms: C_8  and  C_9 
REMARK    8  A    between atoms: C_9  and  C_10 
REMARK    9  A    between atoms: C_10  and  C_11 
REMARK   10  A    between atoms: C_11  and  C_12 
REMARK   11  A    between atoms: C_12  and  C_13 
REMARK   12  A    between atoms: C_13  and  C_14 
REMARK   13  A    between atoms: C_14  and  O_15 
REMARK   14  A    between atoms: O_15  and  C_16 
REMARK   15  A    between atoms: C_16  and  C_18 
REMARK   16  A    between atoms: C_18  and  O_20 
ROOT
HETATM    1  C   UNL     1     -20.666  -4.446  -6.614  1.00  0.00     0.000 C 
ENDROOT
BRANCH   1   2
HETATM    2  C   UNL     1     -20.413  -5.321  -5.390  1.00  0.00     0.000 C 
BRANCH   2   3
HETATM    3  C   UNL     1     -21.153  -6.644  -5.499  1.00  0.00     0.000 C 
BRANCH   3   4
HETATM    4  C   UNL     1     -21.852  -6.980  -4.187  1.00  0.00     0.000 C 
BRANCH   4   5
HETATM    5  C   UNL     1     -21.346  -6.080  -3.066  1.00  0.00     0.000 C 
BRANCH   5   6
HETATM    6  C   UNL     1     -22.176  -6.271  -1.803  1.00  0.00     0.000 C 
BRANCH   6   7
HETATM    7  C   UNL     1     -21.815  -7.581  -1.113  1.00  0.00     0.000 C 
BRANCH   7   8
HETATM    8  C   UNL     1     -22.417  -7.640   0.287  1.00  0.00     0.000 C 
BRANCH   8   9
HETATM    9  C   UNL     1     -23.334  -8.851   0.431  1.00  0.00    -0.000 C 
BRANCH   9  10
HETATM   10  C   UNL     1     -22.967  -9.940  -0.573  1.00  0.00    -0.005 C 
HETATM   11  C   UNL     1     -23.976 -11.075  -0.538  1.00  0.00     0.005 C 
ENDBRANCH   9  10
ENDBRANCH   8   9
ENDBRANCH   7   8
ENDBRANCH   6   7
ENDBRANCH   5   6
ENDBRANCH   4   5
ENDBRANCH   3   4
ENDBRANCH   2   3
ENDBRANCH   1   2
BRANCH   1  12
HETATM   12  C   UNL     1     -22.054  -4.697  -7.194  1.00  0.00     0.002 C 
BRANCH  12  13
HETATM   13  C   UNL     1     -22.403  -3.676  -8.269  1.00  0.00     0.027 C 
BRANCH  13  14
HETATM   14  C   UNL     1     -22.369  -4.304  -9.651  1.00  0.00     0.178 C 
BRANCH  14  15
HETATM   15  O   UNL     1     -22.243  -3.276 -10.642  1.00  0.00    -0.319 OA
BRANCH  15  16
HETATM   16  C   UNL     1     -23.370  -3.072 -11.374  1.00  0.00     0.287 C 
HETATM   17  O   UNL     1     -24.520  -3.115 -10.932  1.00  0.00    -0.262 OA
BRANCH  16  18
HETATM   18  C   UNL     1     -23.046  -2.800 -12.838  1.00  0.00     0.213 C 
HETATM   19  C   UNL     1     -22.979  -4.093 -13.631  1.00  0.00     0.050 C 
BRANCH  18  20
HETATM   20  O   UNL     1     -24.027  -1.960 -13.449  1.00  0.00    -0.386 OA
HETATM   21  H   UNL     1     -24.718  -2.553 -13.807  1.00  0.00     0.210 HD
ENDBRANCH  18  20
ENDBRANCH  16  18
ENDBRANCH  15  16
ENDBRANCH  14  15
ENDBRANCH  13  14
ENDBRANCH  12  13
ENDBRANCH   1  12
TORSDOF 16
BEGIN_RES ARG D 557
REMARK  4 active torsions:
REMARK  status: ('A' for Active; 'I' for Inactive)
REMARK    1  A    between atoms: CA   and  CB  
REMARK    2  A    between atoms: CB   and  CG  
REMARK    3  A    between atoms: CG   and  CD  
REMARK    4  A    between atoms: CD   and  NE  
REMARK       I    between atoms: NE   and  CZ  
REMARK       I    between atoms: CZ   and  NH1 
REMARK       I    between atoms: CZ   and  NH2 
ROOT
ATOM      1  CA  ARG D 557     -26.217   2.705 -17.014  1.00 35.49     0.159 C 
ENDROOT
BRANCH   1   2
ATOM      2  CB  ARG D 557     -26.789   1.319 -17.183  1.00 35.49     0.034 C 
BRANCH   2   3
ATOM      3  CG  ARG D 557     -28.227   1.163 -16.933  1.00 35.49     0.027 C 
BRANCH   3   4
ATOM      4  CD  ARG D 557     -28.700  -0.215 -17.200  1.00 35.49     0.116 C 
BRANCH   4   5
ATOM      5  NE  ARG D 557     -27.910  -1.202 -16.513  1.00 35.49    -0.212 N 
ATOM      6  CZ  ARG D 557     -28.026  -2.505 -16.643  1.00 35.49     0.666 C 
ATOM      7  NH1 ARG D 557     -28.921  -3.061 -17.438  1.00 35.49    -0.235 N 
ATOM      8  NH2 ARG D 557     -27.210  -3.251 -15.957  1.00 35.49    -0.235 N 
ATOM      9  HH  ARG D 557     -29.466  -2.589 -17.901  1.00 35.49     0.174 HD
ATOM     10  HH  ARG D 557     -28.948  -3.917 -17.485  1.00 35.49     0.174 HD
ATOM     11  HH  ARG D 557     -26.637  -2.864 -15.457  1.00 35.49     0.174 HD
ATOM     12  HH  ARG D 557     -27.252  -4.096 -16.018  1.00 35.49     0.174 HD
ATOM     13  HE  ARG D 557     -27.357  -0.933 -15.925  1.00 35.49     0.178 HD
ENDBRANCH   4   5
ENDBRANCH   3   4
ENDBRANCH   2   3
ENDBRANCH   1   2
END_RES ARG D 557
BEGIN_RES GLU D 570
REMARK  3 active torsions:
REMARK  status: ('A' for Active; 'I' for Inactive)
REMARK    5  A    between atoms: CA   and  CB  
REMARK    6  A    between atoms: CB   and  CG  
REMARK    7  A    between atoms: CG   and  CD  
ROOT
ATOM     14  CA  GLU D 570     -18.033  -6.348 -13.375  1.00 32.92     0.160 C 
ENDROOT
BRANCH  14  15
ATOM     15  CB  GLU D 570     -19.500  -6.345 -13.794  1.00 32.92     0.043 C 
BRANCH  15  16
ATOM     16  CG  GLU D 570     -19.796  -6.286 -15.249  1.00 32.92     0.100 C 
BRANCH  16  17
ATOM     17  CD  GLU D 570     -20.833  -7.296 -15.681  1.00 32.92     0.185 C 
ATOM     18  OE1 GLU D 570     -20.606  -8.509 -15.507  1.00 32.92    -0.647 OA
ATOM     19  OE2 GLU D 570     -21.877  -6.871 -16.214  1.00 32.92    -0.647 OA
ENDBRANCH  16  17
ENDBRANCH  15  16
ENDBRANCH  14  15
END_RES GLU D 570
ENDMDL
MODEL 8
REMARK VINA RESULT:      -6.0      1.816      2.192
REMARK  16 active torsions:
REMARK  status: ('A' for Active; 'I' for Inactive)
REMARK    1  A    between atoms: C_2  and  C_3 
REMARK    2  A    between atoms: C_3  and  C_4 
REMARK    3  A    between atoms: C_4  and  C_5 
REMARK    4  A    between atoms: C_5  and  C_6 
REMARK    5  A    between atoms: C_6  and  C_7 
REMARK    6  A    between atoms: C_7  and  C_8 
REMARK    7  A    between atoms: C_8  and  C_9 
REMARK    8  A    between atoms: C_9  and  C_10 
REMARK    9  A    between atoms: C_10  and  C_11 
REMARK   10  A    between atoms: C_11  and  C_12 
REMARK   11  A    between atoms: C_12  and  C_13 
REMARK   12  A    between atoms: C_13  and  C_14 
REMARK   13  A    between atoms: C_14  and  O_15 
REMARK   14  A    between atoms: O_15  and  C_16 
REMARK   15  A    between atoms: C_16  and  C_18 
REMARK   16  A    between atoms: C_18  and  O_20 
ROOT
HETATM    1  C   UNL     1     -21.557  -3.646  -7.310  1.00  0.00     0.000 C 
ENDROOT
BRANCH   1   2
HETATM    2  C   UNL     1     -20.338  -4.498  -6.970  1.00  0.00     0.000 C 
BRANCH   2   3
HETATM    3  C   UNL     1     -20.557  -5.279  -5.684  1.00  0.00     0.000 C 
BRANCH   3   4
HETATM    4  C   UNL     1     -21.748  -6.219  -5.821  1.00  0.00     0.000 C 
BRANCH   4   5
HETATM    5  C   UNL     1     -22.280  -6.612  -4.449  1.00  0.00     0.000 C 
BRANCH   5   6
HETATM    6  C   UNL     1     -21.220  -6.397  -3.376  1.00  0.00     0.000 C 
BRANCH   6   7
HETATM    7  C   UNL     1     -20.676  -7.731  -2.881  1.00  0.00     0.000 C 
BRANCH   7   8
HETATM    8  C   UNL     1     -20.823  -7.848  -1.367  1.00  0.00     0.000 C 
BRANCH   8   9
HETATM    9  C   UNL     1     -22.194  -7.352  -0.917  1.00  0.00    -0.000 C 
BRANCH   9  10
HETATM   10  C   UNL     1     -22.541  -7.883   0.472  1.00  0.00    -0.005 C 
HETATM   11  C   UNL     1     -21.317  -8.474   1.150  1.00  0.00     0.005 C 
ENDBRANCH   9  10
ENDBRANCH   8   9
ENDBRANCH   7   8
ENDBRANCH   6   7
ENDBRANCH   5   6
ENDBRANCH   4   5
ENDBRANCH   3   4
ENDBRANCH   2   3
ENDBRANCH   1   2
BRANCH   1  12
HETATM   12  C   UNL     1     -22.080  -3.963  -8.708  1.00  0.00     0.002 C 
BRANCH  12  13
HETATM   13  C   UNL     1     -23.595  -3.823  -8.782  1.00  0.00     0.027 C 
BRANCH  13  14
HETATM   14  C   UNL     1     -24.130  -4.370 -10.094  1.00  0.00     0.178 C 
BRANCH  14  15
HETATM   15  O   UNL     1     -24.675  -3.298 -10.874  1.00  0.00    -0.319 OA
BRANCH  15  16
HETATM   16  C   UNL     1     -24.222  -3.260 -12.154  1.00  0.00     0.287 C 
HETATM   17  O   UNL     1     -24.742  -2.624 -13.073  1.00  0.00    -0.262 OA
BRANCH  16  18
HETATM   18  C   UNL     1     -22.984  -4.131 -12.336  1.00  0.00     0.213 C 
HETATM   19  C   UNL     1     -23.198  -5.162 -13.430  1.00  0.00     0.050 C 
BRANCH  18  20
HETATM   20  O   UNL     1     -21.837  -3.352 -12.683  1.00  0.00    -0.386 OA
HETATM   21  H   UNL     1     -21.078  -3.749 -12.211  1.00  0.00     0.210 HD
ENDBRANCH  18  20
ENDBRANCH  16  18
ENDBRANCH  15  16
ENDBRANCH  14  15
ENDBRANCH  13  14
ENDBRANCH  12  13
ENDBRANCH   1  12
TORSDOF 16
BEGIN_RES ARG D 557
REMARK  4 active torsions:
REMARK  status: ('A' for Active; 'I' for Inactive)
REMARK    1  A    between atoms: CA   and  CB  
REMARK    2  A    between atoms: CB   and  CG  
REMARK    3  A    between atoms: CG   and  CD  
REMARK    4  A    between atoms: CD   and  NE  
REMARK       I    between atoms: NE   and  CZ  
REMARK       I    between atoms: CZ   and  NH1 
REMARK       I    between atoms: CZ   and  NH2 
ROOT
ATOM      1  CA  ARG D 557     -26.217   2.705 -17.014  1.00 35.49     0.159 C 
ENDROOT
BRANCH   1   2
ATOM      2  CB  ARG D 557     -26.789   1.319 -17.183  1.00 35.49     0.034 C 
BRANCH   2   3
ATOM      3  CG  ARG D 557     -26.195   0.255 -16.364  1.00 35.49     0.027 C 
BRANCH   3   4
ATOM      4  CD  ARG D 557     -27.124  -0.879 -16.152  1.00 35.49     0.116 C 
BRANCH   4   5
ATOM      5  NE  ARG D 557     -26.456  -2.033 -15.611  1.00 35.49    -0.212 N 
ATOM      6  CZ  ARG D 557     -26.836  -3.282 -15.764  1.00 35.49     0.666 C 
ATOM      7  NH1 ARG D 557     -27.917  -3.616 -16.444  1.00 35.49    -0.235 N 
ATOM      8  NH2 ARG D 557     -26.097  -4.205 -15.221  1.00 35.49    -0.235 N 
ATOM      9  HH  ARG D 557     -28.417  -3.026 -16.812  1.00 35.49     0.174 HD
ATOM     10  HH  ARG D 557     -28.114  -4.447 -16.513  1.00 35.49     0.174 HD
ATOM     11  HH  ARG D 557     -25.400  -3.960 -14.794  1.00 35.49     0.174 HD
ATOM     12  HH  ARG D 557     -26.307  -5.022 -15.301  1.00 35.49     0.174 HD
ATOM     13  HE  ARG D 557     -25.790  -1.905 -15.098  1.00 35.49     0.178 HD
ENDBRANCH   4   5
ENDBRANCH   3   4
ENDBRANCH   2   3
ENDBRANCH   1   2
END_RES ARG D 557
BEGIN_RES GLU D 570
REMARK  3 active torsions:
REMARK  status: ('A' for Active; 'I' for Inactive)
REMARK    5  A    between atoms: CA   and  CB  
REMARK    6  A    between atoms: CB   and  CG  
REMARK    7  A    between atoms: CG   and  CD  
ROOT
ATOM     14  CA  GLU D 570     -18.033  -6.348 -13.375  1.00 32.92     0.160 C 
ENDROOT
BRANCH  14  15
ATOM     15  CB  GLU D 570     -19.500  -6.345 -13.794  1.00 32.92     0.043 C 
BRANCH  15  16
ATOM     16  CG  GLU D 570     -19.868  -5.546 -14.991  1.00 32.92     0.100 C 
BRANCH  16  17
ATOM     17  CD  GLU D 570     -20.622  -6.348 -16.026  1.00 32.92     0.185 C 
ATOM     18  OE1 GLU D 570     -21.137  -7.432 -15.694  1.00 32.92    -0.647 OA
ATOM     19  OE2 GLU D 570     -20.682  -5.895 -17.186  1.00 32.92    -0.647 OA
ENDBRANCH  16  17
ENDBRANCH  15  16
ENDBRANCH  14  15
END_RES GLU D 570
ENDMDL
MODEL 9
REMARK VINA RESULT:      -5.8      7.955     12.542
REMARK  16 active torsions:
REMARK  status: ('A' for Active; 'I' for Inactive)
REMARK    1  A    between atoms: C_2  and  C_3 
REMARK    2  A    between atoms: C_3  and  C_4 
REMARK    3  A    between atoms: C_4  and  C_5 
REMARK    4  A    between atoms: C_5  and  C_6 
REMARK    5  A    between atoms: C_6  and  C_7 
REMARK    6  A    between atoms: C_7  and  C_8 
REMARK    7  A    between atoms: C_8  and  C_9 
REMARK    8  A    between atoms: C_9  and  C_10 
REMARK    9  A    between atoms: C_10  and  C_11 
REMARK   10  A    between atoms: C_11  and  C_12 
REMARK   11  A    between atoms: C_12  and  C_13 
REMARK   12  A    between atoms: C_13  and  C_14 
REMARK   13  A    between atoms: C_14  and  O_15 
REMARK   14  A    between atoms: O_15  and  C_16 
REMARK   15  A    between atoms: C_16  and  C_18 
REMARK   16  A    between atoms: C_18  and  O_20 
ROOT
HETATM    1  C   UNL     1     -34.628  -4.822 -12.728  1.00  0.00     0.000 C 
ENDROOT
BRANCH   1   2
HETATM    2  C   UNL     1     -34.207  -4.471 -11.303  1.00  0.00     0.000 C 
BRANCH   2   3
HETATM    3  C   UNL     1     -33.131  -3.398 -11.298  1.00  0.00     0.000 C 
BRANCH   3   4
HETATM    4  C   UNL     1     -33.665  -2.104 -10.696  1.00  0.00     0.000 C 
BRANCH   4   5
HETATM    5  C   UNL     1     -35.188  -2.111 -10.678  1.00  0.00     0.000 C 
BRANCH   5   6
HETATM    6  C   UNL     1     -35.744  -0.897 -11.413  1.00  0.00     0.000 C 
BRANCH   6   7
HETATM    7  C   UNL     1     -35.324  -0.915 -12.878  1.00  0.00     0.000 C 
BRANCH   7   8
HETATM    8  C   UNL     1     -34.782   0.446 -13.302  1.00  0.00     0.000 C 
BRANCH   8   9
HETATM    9  C   UNL     1     -35.036   0.691 -14.787  1.00  0.00    -0.000 C 
BRANCH   9  10
HETATM   10  C   UNL     1     -36.248  -0.100 -15.274  1.00  0.00    -0.005 C 
HETATM   11  C   UNL     1     -35.918  -0.880 -16.535  1.00  0.00     0.005 C 
ENDBRANCH   9  10
ENDBRANCH   8   9
ENDBRANCH   7   8
ENDBRANCH   6   7
ENDBRANCH   5   6
ENDBRANCH   4   5
ENDBRANCH   3   4
ENDBRANCH   2   3
ENDBRANCH   1   2
BRANCH   1  12
HETATM   12  C   UNL     1     -33.702  -4.175 -13.752  1.00  0.00     0.002 C 
BRANCH  12  13
HETATM   13  C   UNL     1     -34.396  -3.992 -15.095  1.00  0.00     0.027 C 
BRANCH  13  14
HETATM   14  C   UNL     1     -33.559  -4.564 -16.225  1.00  0.00     0.178 C 
BRANCH  14  15
HETATM   15  O   UNL     1     -32.173  -4.292 -15.981  1.00  0.00    -0.319 OA
BRANCH  15  16
HETATM   16  C   UNL     1     -31.329  -4.886 -16.865  1.00  0.00     0.287 C 
HETATM   17  O   UNL     1     -31.297  -6.093 -17.115  1.00  0.00    -0.262 OA
BRANCH  16  18
HETATM   18  C   UNL     1     -30.390  -3.874 -17.511  1.00  0.00     0.213 C 
HETATM   19  C   UNL     1     -29.348  -4.566 -18.371  1.00  0.00     0.050 C 
BRANCH  18  20
HETATM   20  O   UNL     1     -31.099  -2.948 -18.337  1.00  0.00    -0.386 OA
HETATM   21  H   UNL     1     -32.050  -3.132 -18.209  1.00  0.00     0.210 HD
ENDBRANCH  18  20
ENDBRANCH  16  18
ENDBRANCH  15  16
ENDBRANCH  14  15
ENDBRANCH  13  14
ENDBRANCH  12  13
ENDBRANCH   1  12
TORSDOF 16
BEGIN_RES ARG D 557
REMARK  4 active torsions:
REMARK  status: ('A' for Active; 'I' for Inactive)
REMARK    1  A    between atoms: CA   and  CB  
REMARK    2  A    between atoms: CB   and  CG  
REMARK    3  A    between atoms: CG   and  CD  
REMARK    4  A    between atoms: CD   and  NE  
REMARK       I    between atoms: NE   and  CZ  
REMARK       I    between atoms: CZ   and  NH1 
REMARK       I    between atoms: CZ   and  NH2 
ROOT
ATOM      1  CA  ARG D 557     -26.217   2.705 -17.014  1.00 35.49     0.159 C 
ENDROOT
BRANCH   1   2
ATOM      2  CB  ARG D 557     -26.789   1.319 -17.183  1.00 35.49     0.034 C 
BRANCH   2   3
ATOM      3  CG  ARG D 557     -25.868   0.195 -16.976  1.00 35.49     0.027 C 
BRANCH   3   4
ATOM      4  CD  ARG D 557     -26.294  -0.686 -15.864  1.00 35.49     0.116 C 
BRANCH   4   5
ATOM      5  NE  ARG D 557     -25.234  -0.919 -14.919  1.00 35.49    -0.212 N 
ATOM      6  CZ  ARG D 557     -24.940  -2.073 -14.363  1.00 35.49     0.666 C 
ATOM      7  NH1 ARG D 557     -25.624  -3.174 -14.612  1.00 35.49    -0.235 N 
ATOM      8  NH2 ARG D 557     -23.929  -2.104 -13.544  1.00 35.49    -0.235 N 
ATOM      9  HH  ARG D 557     -26.291  -3.177 -15.149  1.00 35.49     0.174 HD
ATOM     10  HH  ARG D 557     -25.385  -3.899 -14.222  1.00 35.49     0.174 HD
ATOM     11  HH  ARG D 557     -23.502  -1.379 -13.408  1.00 35.49     0.174 HD
ATOM     12  HH  ARG D 557     -23.707  -2.831 -13.168  1.00 35.49     0.174 HD
ATOM     13  HE  ARG D 557     -24.788  -0.248 -14.646  1.00 35.49     0.178 HD
ENDBRANCH   4   5
ENDBRANCH   3   4
ENDBRANCH   2   3
ENDBRANCH   1   2
END_RES ARG D 557
BEGIN_RES GLU D 570
REMARK  3 active torsions:
REMARK  status: ('A' for Active; 'I' for Inactive)
REMARK    5  A    between atoms: CA   and  CB  
REMARK    6  A    between atoms: CB   and  CG  
REMARK    7  A    between atoms: CG   and  CD  
ROOT
ATOM     14  CA  GLU D 570     -18.033  -6.348 -13.375  1.00 32.92     0.160 C 
ENDROOT
BRANCH  14  15
ATOM     15  CB  GLU D 570     -19.500  -6.345 -13.794  1.00 32.92     0.043 C 
BRANCH  15  16
ATOM     16  CG  GLU D 570     -20.445  -5.543 -12.974  1.00 32.92     0.100 C 
BRANCH  16  17
ATOM     17  CD  GLU D 570     -21.683  -5.132 -13.735  1.00 32.92     0.185 C 
ATOM     18  OE1 GLU D 570     -22.746  -4.954 -13.110  1.00 32.92    -0.647 OA
ATOM     19  OE2 GLU D 570     -21.594  -5.003 -14.972  1.00 32.92    -0.647 OA
ENDBRANCH  16  17
ENDBRANCH  15  16
ENDBRANCH  14  15
END_RES GLU D 570
ENDMDL
