MODEL 1
REMARK VINA RESULT:      -7.0      0.000      0.000
REMARK  16 active torsions:
REMARK  status: ('A' for Active; 'I' for Inactive)
REMARK    1  A    between atoms: C_2  and  C_3 
REMARK    2  A    between atoms: C_3  and  C_4 
REMARK    3  A    between atoms: C_4  and  C_5 
REMARK    4  A    between atoms: C_5  and  C_6 
REMARK    5  A    between atoms: C_6  and  C_7 
REMARK    6  A    between atoms: C_7  and  C_8 
REMARK    7  A    between atoms: C_8  and  C_9 
REMARK    8  A    between atoms: C_10  and  C_11 
REMARK    9  A    between atoms: C_11  and  C_12 
REMARK   10  A    between atoms: C_12  and  C_13 
REMARK   11  A    between atoms: C_13  and  C_14 
REMARK   12  A    between atoms: C_14  and  C_15 
REMARK   13  A    between atoms: C_15  and  C_16 
REMARK   14  A    between atoms: C_16  and  C_17 
REMARK   15  A    between atoms: C_17  and  C_18 
REMARK   16  A    between atoms: C_18  and  O_20 
ROOT
HETATM    1  C   UNL     1     -21.575  -5.315  -6.051  1.00  0.00     0.027 C 
ENDROOT
BRANCH   1   2
HETATM    2  C   UNL     1     -21.828  -6.322  -4.976  1.00  0.00    -0.031 C 
HETATM    3  C   UNL     1     -21.220  -7.512  -4.954  1.00  0.00    -0.031 C 
BRANCH   3   4
HETATM    4  C   UNL     1     -21.466  -8.515  -3.876  1.00  0.00     0.027 C 
BRANCH   4   5
HETATM    5  C   UNL     1     -20.237  -8.666  -2.992  1.00  0.00     0.004 C 
BRANCH   5   6
HETATM    6  C   UNL     1     -20.395  -7.827  -1.733  1.00  0.00     0.000 C 
BRANCH   6   7
HETATM    7  C   UNL     1     -21.868  -7.593  -1.441  1.00  0.00     0.000 C 
BRANCH   7   8
HETATM    8  C   UNL     1     -22.124  -7.664   0.056  1.00  0.00     0.000 C 
BRANCH   8   9
HETATM    9  C   UNL     1     -23.215  -8.679   0.354  1.00  0.00    -0.000 C 
BRANCH   9  10
HETATM   10  C   UNL     1     -22.970  -9.970  -0.417  1.00  0.00    -0.005 C 
HETATM   11  C   UNL     1     -24.059 -10.981  -0.119  1.00  0.00     0.005 C 
ENDBRANCH   9  10
ENDBRANCH   8   9
ENDBRANCH   7   8
ENDBRANCH   6   7
ENDBRANCH   5   6
ENDBRANCH   4   5
ENDBRANCH   3   4
ENDBRANCH   1   2
BRANCH   1  12
HETATM   12  C   UNL     1     -20.102  -5.304  -6.435  1.00  0.00     0.004 C 
BRANCH  12  13
HETATM   13  C   UNL     1     -19.956  -5.138  -7.941  1.00  0.00     0.000 C 
BRANCH  13  14
HETATM   14  C   UNL     1     -20.762  -3.942  -8.425  1.00  0.00     0.000 C 
BRANCH  14  15
HETATM   15  C   UNL     1     -21.321  -4.201  -9.823  1.00  0.00     0.001 C 
BRANCH  15  16
HETATM   16  C   UNL     1     -22.735  -4.754  -9.729  1.00  0.00     0.010 C 
BRANCH  16  17
HETATM   17  C   UNL     1     -23.690  -3.772  -9.063  1.00  0.00     0.110 C 
BRANCH  17  18
HETATM   18  C   UNL     1     -24.739  -3.308 -10.059  1.00  0.00     0.139 C 
HETATM   19  O   UNL     1     -24.493  -2.988 -11.210  1.00  0.00    -0.650 OA
BRANCH  18  20
HETATM   20  O   UNL     1     -25.991  -3.274  -9.566  1.00  0.00    -0.776 OA
HETATM   21  H   UNL     1     -26.523  -2.512  -9.858  1.00  0.00     0.167 HD
ENDBRANCH  18  20
ENDBRANCH  17  18
ENDBRANCH  16  17
ENDBRANCH  15  16
ENDBRANCH  14  15
ENDBRANCH  13  14
ENDBRANCH  12  13
ENDBRANCH   1  12
TORSDOF 16
BEGIN_RES ARG D 557
REMARK  4 active torsions:
REMARK  status: ('A' for Active; 'I' for Inactive)
REMARK    1  A    between atoms: CA   and  CB  
REMARK    2  A    between atoms: CB   and  CG  
REMARK    3  A    between atoms: CG   and  CD  
REMARK    4  A    between atoms: CD   and  NE  
REMARK       I    between atoms: NE   and  CZ  
REMARK       I    between atoms: CZ   and  NH1 
REMARK       I    between atoms: CZ   and  NH2 
ROOT
ATOM      1  CA  ARG D 557     -26.217   2.705 -17.014  1.00 35.49     0.159 C 
ENDROOT
BRANCH   1   2
ATOM      2  CB  ARG D 557     -26.789   1.319 -17.183  1.00 35.49     0.034 C 
BRANCH   2   3
ATOM      3  CG  ARG D 557     -25.857   0.196 -17.024  1.00 35.49     0.027 C 
BRANCH   3   4
ATOM      4  CD  ARG D 557     -26.148  -0.612 -15.817  1.00 35.49     0.116 C 
BRANCH   4   5
ATOM      5  NE  ARG D 557     -25.004  -0.726 -14.952  1.00 35.49    -0.212 N 
ATOM      6  CZ  ARG D 557     -24.612  -1.820 -14.337  1.00 35.49     0.666 C 
ATOM      7  NH1 ARG D 557     -25.262  -2.964 -14.443  1.00 35.49    -0.235 N 
ATOM      8  NH2 ARG D 557     -23.537  -1.746 -13.607  1.00 35.49    -0.235 N 
ATOM      9  HH  ARG D 557     -25.970  -3.036 -14.919  1.00 35.49     0.174 HD
ATOM     10  HH  ARG D 557     -24.958  -3.645 -14.020  1.00 35.49     0.174 HD
ATOM     11  HH  ARG D 557     -23.134  -0.995 -13.564  1.00 35.49     0.174 HD
ATOM     12  HH  ARG D 557     -23.251  -2.431 -13.198  1.00 35.49     0.174 HD
ATOM     13  HE  ARG D 557     -24.569  -0.019 -14.770  1.00 35.49     0.178 HD
ENDBRANCH   4   5
ENDBRANCH   3   4
ENDBRANCH   2   3
ENDBRANCH   1   2
END_RES ARG D 557
BEGIN_RES GLU D 570
REMARK  3 active torsions:
REMARK  status: ('A' for Active; 'I' for Inactive)
REMARK    5  A    between atoms: CA   and  CB  
REMARK    6  A    between atoms: CB   and  CG  
REMARK    7  A    between atoms: CG   and  CD  
ROOT
ATOM     14  CA  GLU D 570     -18.033  -6.348 -13.375  1.00 32.92     0.160 C 
ENDROOT
BRANCH  14  15
ATOM     15  CB  GLU D 570     -19.500  -6.345 -13.794  1.00 32.92     0.043 C 
BRANCH  15  16
ATOM     16  CG  GLU D 570     -20.432  -5.488 -13.017  1.00 32.92     0.100 C 
BRANCH  16  17
ATOM     17  CD  GLU D 570     -21.633  -5.044 -13.820  1.00 32.92     0.185 C 
ATOM     18  OE1 GLU D 570     -22.629  -4.595 -13.221  1.00 32.92    -0.647 OA
ATOM     19  OE2 GLU D 570     -21.582  -5.162 -15.060  1.00 32.92    -0.647 OA
ENDBRANCH  16  17
ENDBRANCH  15  16
ENDBRANCH  14  15
END_RES GLU D 570
ENDMDL
MODEL 2
REMARK VINA RESULT:      -6.9      1.918      2.546
REMARK  16 active torsions:
REMARK  status: ('A' for Active; 'I' for Inactive)
REMARK    1  A    between atoms: C_2  and  C_3 
REMARK    2  A    between atoms: C_3  and  C_4 
REMARK    3  A    between atoms: C_4  and  C_5 
REMARK    4  A    between atoms: C_5  and  C_6 
REMARK    5  A    between atoms: C_6  and  C_7 
REMARK    6  A    between atoms: C_7  and  C_8 
REMARK    7  A    between atoms: C_8  and  C_9 
REMARK    8  A    between atoms: C_10  and  C_11 
REMARK    9  A    between atoms: C_11  and  C_12 
REMARK   10  A    between atoms: C_12  and  C_13 
REMARK   11  A    between atoms: C_13  and  C_14 
REMARK   12  A    between atoms: C_14  and  C_15 
REMARK   13  A    between atoms: C_15  and  C_16 
REMARK   14  A    between atoms: C_16  and  C_17 
REMARK   15  A    between atoms: C_17  and  C_18 
REMARK   16  A    between atoms: C_18  and  O_20 
ROOT
HETATM    1  C   UNL     1     -20.942  -6.854  -6.017  1.00  0.00     0.027 C 
ENDROOT
BRANCH   1   2
HETATM    2  C   UNL     1     -20.967  -6.388  -4.597  1.00  0.00    -0.031 C 
HETATM    3  C   UNL     1     -21.963  -6.694  -3.761  1.00  0.00    -0.031 C 
BRANCH   3   4
HETATM    4  C   UNL     1     -21.984  -6.235  -2.341  1.00  0.00     0.027 C 
BRANCH   4   5
HETATM    5  C   UNL     1     -21.595  -7.368  -1.404  1.00  0.00     0.004 C 
BRANCH   5   6
HETATM    6  C   UNL     1     -22.553  -7.421  -0.223  1.00  0.00     0.000 C 
BRANCH   6   7
HETATM    7  C   UNL     1     -22.154  -8.540   0.725  1.00  0.00     0.000 C 
BRANCH   7   8
HETATM    8  C   UNL     1     -22.284  -9.887   0.030  1.00  0.00     0.000 C 
BRANCH   8   9
HETATM    9  C   UNL     1     -23.739 -10.326   0.006  1.00  0.00    -0.000 C 
BRANCH   9  10
HETATM   10  C   UNL     1     -23.986 -11.295  -1.143  1.00  0.00    -0.005 C 
HETATM   11  C   UNL     1     -23.002 -11.044  -2.269  1.00  0.00     0.005 C 
ENDBRANCH   9  10
ENDBRANCH   8   9
ENDBRANCH   7   8
ENDBRANCH   6   7
ENDBRANCH   5   6
ENDBRANCH   4   5
ENDBRANCH   3   4
ENDBRANCH   1   2
BRANCH   1  12
HETATM   12  C   UNL     1     -20.074  -5.934  -6.864  1.00  0.00     0.004 C 
BRANCH  12  13
HETATM   13  C   UNL     1     -20.254  -4.490  -6.418  1.00  0.00     0.000 C 
BRANCH  13  14
HETATM   14  C   UNL     1     -21.036  -3.705  -7.462  1.00  0.00     0.000 C 
BRANCH  14  15
HETATM   15  C   UNL     1     -20.654  -4.157  -8.870  1.00  0.00     0.001 C 
BRANCH  15  16
HETATM   16  C   UNL     1     -21.837  -3.997  -9.812  1.00  0.00     0.010 C 
BRANCH  16  17
HETATM   17  C   UNL     1     -23.144  -3.784  -9.059  1.00  0.00     0.110 C 
BRANCH  17  18
HETATM   18  C   UNL     1     -24.305  -3.726 -10.037  1.00  0.00     0.139 C 
HETATM   19  O   UNL     1     -25.344  -3.121  -9.827  1.00  0.00    -0.650 OA
BRANCH  18  20
HETATM   20  O   UNL     1     -24.101  -4.408 -11.178  1.00  0.00    -0.776 OA
HETATM   21  H   UNL     1     -23.356  -5.035 -11.149  1.00  0.00     0.167 HD
ENDBRANCH  18  20
ENDBRANCH  17  18
ENDBRANCH  16  17
ENDBRANCH  15  16
ENDBRANCH  14  15
ENDBRANCH  13  14
ENDBRANCH  12  13
ENDBRANCH   1  12
TORSDOF 16
BEGIN_RES ARG D 557
REMARK  4 active torsions:
REMARK  status: ('A' for Active; 'I' for Inactive)
REMARK    1  A    between atoms: CA   and  CB  
REMARK    2  A    between atoms: CB   and  CG  
REMARK    3  A    between atoms: CG   and  CD  
REMARK    4  A    between atoms: CD   and  NE  
REMARK       I    between atoms: NE   and  CZ  
REMARK       I    between atoms: CZ   and  NH1 
REMARK       I    between atoms: CZ   and  NH2 
ROOT
ATOM      1  CA  ARG D 557     -26.217   2.705 -17.014  1.00 35.49     0.159 C 
ENDROOT
BRANCH   1   2
ATOM      2  CB  ARG D 557     -26.789   1.319 -17.183  1.00 35.49     0.034 C 
BRANCH   2   3
ATOM      3  CG  ARG D 557     -28.238   1.224 -17.401  1.00 35.49     0.027 C 
BRANCH   3   4
ATOM      4  CD  ARG D 557     -28.888   0.275 -16.468  1.00 35.49     0.116 C 
BRANCH   4   5
ATOM      5  NE  ARG D 557     -29.317  -0.928 -17.131  1.00 35.49    -0.212 N 
ATOM      6  CZ  ARG D 557     -28.727  -2.100 -17.053  1.00 35.49     0.666 C 
ATOM      7  NH1 ARG D 557     -27.631  -2.296 -16.343  1.00 35.49    -0.235 N 
ATOM      8  NH2 ARG D 557     -29.268  -3.089 -17.704  1.00 35.49    -0.235 N 
ATOM      9  HH  ARG D 557     -27.260  -1.661 -15.905  1.00 35.49     0.174 HD
ATOM     10  HH  ARG D 557     -27.292  -3.083 -16.328  1.00 35.49     0.174 HD
ATOM     11  HH  ARG D 557     -29.980  -2.934 -18.148  1.00 35.49     0.174 HD
ATOM     12  HH  ARG D 557     -28.918  -3.860 -17.675  1.00 35.49     0.174 HD
ATOM     13  HE  ARG D 557     -29.975  -0.876 -17.667  1.00 35.49     0.178 HD
ENDBRANCH   4   5
ENDBRANCH   3   4
ENDBRANCH   2   3
ENDBRANCH   1   2
END_RES ARG D 557
BEGIN_RES GLU D 570
REMARK  3 active torsions:
REMARK  status: ('A' for Active; 'I' for Inactive)
REMARK    5  A    between atoms: CA   and  CB  
REMARK    6  A    between atoms: CB   and  CG  
REMARK    7  A    between atoms: CG   and  CD  
ROOT
ATOM     14  CA  GLU D 570     -18.033  -6.348 -13.375  1.00 32.92     0.160 C 
ENDROOT
BRANCH  14  15
ATOM     15  CB  GLU D 570     -19.500  -6.345 -13.794  1.00 32.92     0.043 C 
BRANCH  15  16
ATOM     16  CG  GLU D 570     -20.444  -5.540 -12.976  1.00 32.92     0.100 C 
BRANCH  16  17
ATOM     17  CD  GLU D 570     -21.741  -5.246 -13.693  1.00 32.92     0.185 C 
ATOM     18  OE1 GLU D 570     -22.335  -4.177 -13.456  1.00 32.92    -0.647 OA
ATOM     19  OE2 GLU D 570     -22.178  -6.103 -14.487  1.00 32.92    -0.647 OA
ENDBRANCH  16  17
ENDBRANCH  15  16
ENDBRANCH  14  15
END_RES GLU D 570
ENDMDL
MODEL 3
REMARK VINA RESULT:      -6.8      2.395      3.833
REMARK  16 active torsions:
REMARK  status: ('A' for Active; 'I' for Inactive)
REMARK    1  A    between atoms: C_2  and  C_3 
REMARK    2  A    between atoms: C_3  and  C_4 
REMARK    3  A    between atoms: C_4  and  C_5 
REMARK    4  A    between atoms: C_5  and  C_6 
REMARK    5  A    between atoms: C_6  and  C_7 
REMARK    6  A    between atoms: C_7  and  C_8 
REMARK    7  A    between atoms: C_8  and  C_9 
REMARK    8  A    between atoms: C_10  and  C_11 
REMARK    9  A    between atoms: C_11  and  C_12 
REMARK   10  A    between atoms: C_12  and  C_13 
REMARK   11  A    between atoms: C_13  and  C_14 
REMARK   12  A    between atoms: C_14  and  C_15 
REMARK   13  A    between atoms: C_15  and  C_16 
REMARK   14  A    between atoms: C_16  and  C_17 
REMARK   15  A    between atoms: C_17  and  C_18 
REMARK   16  A    between atoms: C_18  and  O_20 
ROOT
HETATM    1  C   UNL     1     -21.797  -3.902  -9.160  1.00  0.00     0.027 C 
ENDROOT
BRANCH   1   2
HETATM    2  C   UNL     1     -21.652  -4.231  -7.709  1.00  0.00    -0.031 C 
HETATM    3  C   UNL     1     -20.462  -4.440  -7.139  1.00  0.00    -0.031 C 
BRANCH   3   4
HETATM    4  C   UNL     1     -20.316  -4.761  -5.688  1.00  0.00     0.027 C 
BRANCH   4   5
HETATM    5  C   UNL     1     -20.350  -6.266  -5.465  1.00  0.00     0.004 C 
BRANCH   5   6
HETATM    6  C   UNL     1     -21.752  -6.703  -5.068  1.00  0.00     0.000 C 
BRANCH   6   7
HETATM    7  C   UNL     1     -21.734  -7.322  -3.680  1.00  0.00     0.000 C 
BRANCH   7   8
HETATM    8  C   UNL     1     -21.447  -6.255  -2.635  1.00  0.00     0.000 C 
BRANCH   8   9
HETATM    9  C   UNL     1     -22.334  -6.462  -1.417  1.00  0.00    -0.000 C 
BRANCH   9  10
HETATM   10  C   UNL     1     -21.889  -7.690  -0.634  1.00  0.00    -0.005 C 
HETATM   11  C   UNL     1     -22.940  -8.076   0.389  1.00  0.00     0.005 C 
ENDBRANCH   9  10
ENDBRANCH   8   9
ENDBRANCH   7   8
ENDBRANCH   6   7
ENDBRANCH   5   6
ENDBRANCH   4   5
ENDBRANCH   3   4
ENDBRANCH   1   2
BRANCH   1  12
HETATM   12  C   UNL     1     -20.467  -4.078  -9.881  1.00  0.00     0.004 C 
BRANCH  12  13
HETATM   13  C   UNL     1     -20.659  -3.896 -11.380  1.00  0.00     0.000 C 
BRANCH  13  14
HETATM   14  C   UNL     1     -22.121  -3.618 -11.699  1.00  0.00     0.000 C 
BRANCH  14  15
HETATM   15  C   UNL     1     -22.656  -4.640 -12.700  1.00  0.00     0.001 C 
BRANCH  15  16
HETATM   16  C   UNL     1     -23.100  -3.943 -13.976  1.00  0.00     0.010 C 
BRANCH  16  17
HETATM   17  C   UNL     1     -23.440  -2.477 -13.739  1.00  0.00     0.110 C 
BRANCH  17  18
HETATM   18  C   UNL     1     -24.881  -2.206 -14.138  1.00  0.00     0.139 C 
HETATM   19  O   UNL     1     -25.786  -3.014 -14.015  1.00  0.00    -0.650 OA
BRANCH  18  20
HETATM   20  O   UNL     1     -25.089  -0.980 -14.651  1.00  0.00    -0.776 OA
HETATM   21  H   UNL     1     -24.697  -0.835 -15.532  1.00  0.00     0.167 HD
ENDBRANCH  18  20
ENDBRANCH  17  18
ENDBRANCH  16  17
ENDBRANCH  15  16
ENDBRANCH  14  15
ENDBRANCH  13  14
ENDBRANCH  12  13
ENDBRANCH   1  12
TORSDOF 16
BEGIN_RES ARG D 557
REMARK  4 active torsions:
REMARK  status: ('A' for Active; 'I' for Inactive)
REMARK    1  A    between atoms: CA   and  CB  
REMARK    2  A    between atoms: CB   and  CG  
REMARK    3  A    between atoms: CG   and  CD  
REMARK    4  A    between atoms: CD   and  NE  
REMARK       I    between atoms: NE   and  CZ  
REMARK       I    between atoms: CZ   and  NH1 
REMARK       I    between atoms: CZ   and  NH2 
ROOT
ATOM      1  CA  ARG D 557     -26.217   2.705 -17.014  1.00 35.49     0.159 C 
ENDROOT
BRANCH   1   2
ATOM      2  CB  ARG D 557     -26.789   1.319 -17.183  1.00 35.49     0.034 C 
BRANCH   2   3
ATOM      3  CG  ARG D 557     -28.227   1.227 -17.464  1.00 35.49     0.027 C 
BRANCH   3   4
ATOM      4  CD  ARG D 557     -28.932   0.335 -16.515  1.00 35.49     0.116 C 
BRANCH   4   5
ATOM      5  NE  ARG D 557     -29.328  -0.905 -17.129  1.00 35.49    -0.212 N 
ATOM      6  CZ  ARG D 557     -28.685  -2.047 -17.036  1.00 35.49     0.666 C 
ATOM      7  NH1 ARG D 557     -27.561  -2.176 -16.356  1.00 35.49    -0.235 N 
ATOM      8  NH2 ARG D 557     -29.202  -3.077 -17.641  1.00 35.49    -0.235 N 
ATOM      9  HH  ARG D 557     -27.204  -1.512 -15.948  1.00 35.49     0.174 HD
ATOM     10  HH  ARG D 557     -27.188  -2.946 -16.328  1.00 35.49     0.174 HD
ATOM     11  HH  ARG D 557     -29.933  -2.967 -18.066  1.00 35.49     0.174 HD
ATOM     12  HH  ARG D 557     -28.818  -3.832 -17.600  1.00 35.49     0.174 HD
ATOM     13  HE  ARG D 557     -30.003  -0.897 -17.646  1.00 35.49     0.178 HD
ENDBRANCH   4   5
ENDBRANCH   3   4
ENDBRANCH   2   3
ENDBRANCH   1   2
END_RES ARG D 557
BEGIN_RES GLU D 570
REMARK  3 active torsions:
REMARK  status: ('A' for Active; 'I' for Inactive)
REMARK    5  A    between atoms: CA   and  CB  
REMARK    6  A    between atoms: CB   and  CG  
REMARK    7  A    between atoms: CG   and  CD  
ROOT
ATOM     14  CA  GLU D 570     -18.033  -6.348 -13.375  1.00 32.92     0.160 C 
ENDROOT
BRANCH  14  15
ATOM     15  CB  GLU D 570     -19.500  -6.345 -13.794  1.00 32.92     0.043 C 
BRANCH  15  16
ATOM     16  CG  GLU D 570     -19.806  -6.025 -15.212  1.00 32.92     0.100 C 
BRANCH  16  17
ATOM     17  CD  GLU D 570     -20.660  -7.077 -15.883  1.00 32.92     0.185 C 
ATOM     18  OE1 GLU D 570     -20.717  -8.217 -15.384  1.00 32.92    -0.647 OA
ATOM     19  OE2 GLU D 570     -21.264  -6.761 -16.926  1.00 32.92    -0.647 OA
ENDBRANCH  16  17
ENDBRANCH  15  16
ENDBRANCH  14  15
END_RES GLU D 570
ENDMDL
MODEL 4
REMARK VINA RESULT:      -6.6      2.104      2.828
REMARK  16 active torsions:
REMARK  status: ('A' for Active; 'I' for Inactive)
REMARK    1  A    between atoms: C_2  and  C_3 
REMARK    2  A    between atoms: C_3  and  C_4 
REMARK    3  A    between atoms: C_4  and  C_5 
REMARK    4  A    between atoms: C_5  and  C_6 
REMARK    5  A    between atoms: C_6  and  C_7 
REMARK    6  A    between atoms: C_7  and  C_8 
REMARK    7  A    between atoms: C_8  and  C_9 
REMARK    8  A    between atoms: C_10  and  C_11 
REMARK    9  A    between atoms: C_11  and  C_12 
REMARK   10  A    between atoms: C_12  and  C_13 
REMARK   11  A    between atoms: C_13  and  C_14 
REMARK   12  A    between atoms: C_14  and  C_15 
REMARK   13  A    between atoms: C_15  and  C_16 
REMARK   14  A    between atoms: C_16  and  C_17 
REMARK   15  A    between atoms: C_17  and  C_18 
REMARK   16  A    between atoms: C_18  and  O_20 
ROOT
HETATM    1  C   UNL     1     -20.148  -4.513  -7.062  1.00  0.00     0.027 C 
ENDROOT
BRANCH   1   2
HETATM    2  C   UNL     1     -20.801  -5.247  -5.936  1.00  0.00    -0.031 C 
HETATM    3  C   UNL     1     -20.848  -6.582  -5.884  1.00  0.00    -0.031 C 
BRANCH   3   4
HETATM    4  C   UNL     1     -21.494  -7.316  -4.756  1.00  0.00     0.027 C 
BRANCH   4   5
HETATM    5  C   UNL     1     -21.729  -6.386  -3.575  1.00  0.00     0.004 C 
BRANCH   5   6
HETATM    6  C   UNL     1     -21.274  -7.055  -2.286  1.00  0.00     0.000 C 
BRANCH   6   7
HETATM    7  C   UNL     1     -22.282  -6.795  -1.178  1.00  0.00     0.000 C 
BRANCH   7   8
HETATM    8  C   UNL     1     -22.546  -8.074  -0.400  1.00  0.00     0.000 C 
BRANCH   8   9
HETATM    9  C   UNL     1     -22.161  -7.889   1.059  1.00  0.00    -0.000 C 
BRANCH   9  10
HETATM   10  C   UNL     1     -21.011  -8.815   1.431  1.00  0.00    -0.005 C 
HETATM   11  C   UNL     1     -20.946  -9.989   0.474  1.00  0.00     0.005 C 
ENDBRANCH   9  10
ENDBRANCH   8   9
ENDBRANCH   7   8
ENDBRANCH   6   7
ENDBRANCH   5   6
ENDBRANCH   4   5
ENDBRANCH   3   4
ENDBRANCH   1   2
BRANCH   1  12
HETATM   12  C   UNL     1     -21.187  -3.757  -7.879  1.00  0.00     0.004 C 
BRANCH  12  13
HETATM   13  C   UNL     1     -21.317  -4.380  -9.262  1.00  0.00     0.000 C 
BRANCH  13  14
HETATM   14  C   UNL     1     -22.677  -4.059  -9.864  1.00  0.00     0.000 C 
BRANCH  14  15
HETATM   15  C   UNL     1     -22.771  -4.592 -11.293  1.00  0.00     0.001 C 
BRANCH  15  16
HETATM   16  C   UNL     1     -22.108  -3.624 -12.259  1.00  0.00     0.010 C 
BRANCH  16  17
HETATM   17  C   UNL     1     -23.107  -2.649 -12.869  1.00  0.00     0.110 C 
BRANCH  17  18
HETATM   18  C   UNL     1     -23.260  -2.923 -14.356  1.00  0.00     0.139 C 
HETATM   19  O   UNL     1     -22.778  -2.223 -15.231  1.00  0.00    -0.650 OA
BRANCH  18  20
HETATM   20  O   UNL     1     -23.985  -4.019 -14.644  1.00  0.00    -0.776 OA
HETATM   21  H   UNL     1     -24.397  -4.449 -13.872  1.00  0.00     0.167 HD
ENDBRANCH  18  20
ENDBRANCH  17  18
ENDBRANCH  16  17
ENDBRANCH  15  16
ENDBRANCH  14  15
ENDBRANCH  13  14
ENDBRANCH  12  13
ENDBRANCH   1  12
TORSDOF 16
BEGIN_RES ARG D 557
REMARK  4 active torsions:
REMARK  status: ('A' for Active; 'I' for Inactive)
REMARK    1  A    between atoms: CA   and  CB  
REMARK    2  A    between atoms: CB   and  CG  
REMARK    3  A    between atoms: CG   and  CD  
REMARK    4  A    between atoms: CD   and  NE  
REMARK       I    between atoms: NE   and  CZ  
REMARK       I    between atoms: CZ   and  NH1 
REMARK       I    between atoms: CZ   and  NH2 
ROOT
ATOM      1  CA  ARG D 557     -26.217   2.705 -17.014  1.00 35.49     0.159 C 
ENDROOT
BRANCH   1   2
ATOM      2  CB  ARG D 557     -26.789   1.319 -17.183  1.00 35.49     0.034 C 
BRANCH   2   3
ATOM      3  CG  ARG D 557     -28.250   1.215 -17.282  1.00 35.49     0.027 C 
BRANCH   3   4
ATOM      4  CD  ARG D 557     -28.764  -0.054 -16.717  1.00 35.49     0.116 C 
BRANCH   4   5
ATOM      5  NE  ARG D 557     -27.732  -0.815 -16.064  1.00 35.49    -0.212 N 
ATOM      6  CZ  ARG D 557     -27.536  -2.108 -16.188  1.00 35.49     0.666 C 
ATOM      7  NH1 ARG D 557     -28.305  -2.873 -16.942  1.00 35.49    -0.235 N 
ATOM      8  NH2 ARG D 557     -26.537  -2.630 -15.538  1.00 35.49    -0.235 N 
ATOM      9  HH  ARG D 557     -28.967  -2.550 -17.381  1.00 35.49     0.174 HD
ATOM     10  HH  ARG D 557     -28.127  -3.710 -16.987  1.00 35.49     0.174 HD
ATOM     11  HH  ARG D 557     -26.053  -2.111 -15.064  1.00 35.49     0.174 HD
ATOM     12  HH  ARG D 557     -26.377  -3.460 -15.596  1.00 35.49     0.174 HD
ATOM     13  HE  ARG D 557     -27.235  -0.414 -15.502  1.00 35.49     0.178 HD
ENDBRANCH   4   5
ENDBRANCH   3   4
ENDBRANCH   2   3
ENDBRANCH   1   2
END_RES ARG D 557
BEGIN_RES GLU D 570
REMARK  3 active torsions:
REMARK  status: ('A' for Active; 'I' for Inactive)
REMARK    5  A    between atoms: CA   and  CB  
REMARK    6  A    between atoms: CB   and  CG  
REMARK    7  A    between atoms: CG   and  CD  
ROOT
ATOM     14  CA  GLU D 570     -18.033  -6.348 -13.375  1.00 32.92     0.160 C 
ENDROOT
BRANCH  14  15
ATOM     15  CB  GLU D 570     -19.500  -6.345 -13.794  1.00 32.92     0.043 C 
BRANCH  15  16
ATOM     16  CG  GLU D 570     -19.802  -6.106 -15.229  1.00 32.92     0.100 C 
BRANCH  16  17
ATOM     17  CD  GLU D 570     -21.263  -5.819 -15.484  1.00 32.92     0.185 C 
ATOM     18  OE1 GLU D 570     -22.118  -6.317 -14.728  1.00 32.92    -0.647 OA
ATOM     19  OE2 GLU D 570     -21.556  -5.103 -16.462  1.00 32.92    -0.647 OA
ENDBRANCH  16  17
ENDBRANCH  15  16
ENDBRANCH  14  15
END_RES GLU D 570
ENDMDL
MODEL 5
REMARK VINA RESULT:      -6.6      1.711      2.392
REMARK  16 active torsions:
REMARK  status: ('A' for Active; 'I' for Inactive)
REMARK    1  A    between atoms: C_2  and  C_3 
REMARK    2  A    between atoms: C_3  and  C_4 
REMARK    3  A    between atoms: C_4  and  C_5 
REMARK    4  A    between atoms: C_5  and  C_6 
REMARK    5  A    between atoms: C_6  and  C_7 
REMARK    6  A    between atoms: C_7  and  C_8 
REMARK    7  A    between atoms: C_8  and  C_9 
REMARK    8  A    between atoms: C_10  and  C_11 
REMARK    9  A    between atoms: C_11  and  C_12 
REMARK   10  A    between atoms: C_12  and  C_13 
REMARK   11  A    between atoms: C_13  and  C_14 
REMARK   12  A    between atoms: C_14  and  C_15 
REMARK   13  A    between atoms: C_15  and  C_16 
REMARK   14  A    between atoms: C_16  and  C_17 
REMARK   15  A    between atoms: C_17  and  C_18 
REMARK   16  A    between atoms: C_18  and  O_20 
ROOT
HETATM    1  C   UNL     1     -20.229  -4.641  -7.457  1.00  0.00     0.027 C 
ENDROOT
BRANCH   1   2
HETATM    2  C   UNL     1     -20.554  -5.598  -6.356  1.00  0.00    -0.031 C 
HETATM    3  C   UNL     1     -21.810  -5.916  -6.032  1.00  0.00    -0.031 C 
BRANCH   3   4
HETATM    4  C   UNL     1     -22.135  -6.877  -4.937  1.00  0.00     0.027 C 
BRANCH   4   5
HETATM    5  C   UNL     1     -20.866  -7.499  -4.374  1.00  0.00     0.004 C 
BRANCH   5   6
HETATM    6  C   UNL     1     -20.940  -7.550  -2.855  1.00  0.00     0.000 C 
BRANCH   6   7
HETATM    7  C   UNL     1     -21.673  -6.329  -2.325  1.00  0.00     0.000 C 
BRANCH   7   8
HETATM    8  C   UNL     1     -22.416  -6.677  -1.045  1.00  0.00     0.000 C 
BRANCH   8   9
HETATM    9  C   UNL     1     -21.738  -7.845  -0.346  1.00  0.00    -0.000 C 
BRANCH   9  10
HETATM   10  C   UNL     1     -22.760  -8.677   0.418  1.00  0.00    -0.005 C 
HETATM   11  C   UNL     1     -23.116  -9.926  -0.362  1.00  0.00     0.005 C 
ENDBRANCH   9  10
ENDBRANCH   8   9
ENDBRANCH   7   8
ENDBRANCH   6   7
ENDBRANCH   5   6
ENDBRANCH   4   5
ENDBRANCH   3   4
ENDBRANCH   1   2
BRANCH   1  12
HETATM   12  C   UNL     1     -21.329  -3.598  -7.597  1.00  0.00     0.004 C 
BRANCH  12  13
HETATM   13  C   UNL     1     -22.130  -3.854  -8.867  1.00  0.00     0.000 C 
BRANCH  13  14
HETATM   14  C   UNL     1     -21.198  -4.126 -10.038  1.00  0.00     0.000 C 
BRANCH  14  15
HETATM   15  C   UNL     1     -21.497  -3.175 -11.195  1.00  0.00     0.001 C 
BRANCH  15  16
HETATM   16  C   UNL     1     -21.996  -3.955 -12.401  1.00  0.00     0.010 C 
BRANCH  16  17
HETATM   17  C   UNL     1     -23.422  -4.455 -12.210  1.00  0.00     0.110 C 
BRANCH  17  18
HETATM   18  C   UNL     1     -24.357  -3.282 -11.967  1.00  0.00     0.139 C 
HETATM   19  O   UNL     1     -25.022  -3.138 -10.955  1.00  0.00    -0.650 OA
BRANCH  18  20
HETATM   20  O   UNL     1     -24.400  -2.393 -12.976  1.00  0.00    -0.776 OA
HETATM   21  H   UNL     1     -23.528  -2.106 -13.303  1.00  0.00     0.167 HD
ENDBRANCH  18  20
ENDBRANCH  17  18
ENDBRANCH  16  17
ENDBRANCH  15  16
ENDBRANCH  14  15
ENDBRANCH  13  14
ENDBRANCH  12  13
ENDBRANCH   1  12
TORSDOF 16
BEGIN_RES ARG D 557
REMARK  4 active torsions:
REMARK  status: ('A' for Active; 'I' for Inactive)
REMARK    1  A    between atoms: CA   and  CB  
REMARK    2  A    between atoms: CB   and  CG  
REMARK    3  A    between atoms: CG   and  CD  
REMARK    4  A    between atoms: CD   and  NE  
REMARK       I    between atoms: NE   and  CZ  
REMARK       I    between atoms: CZ   and  NH1 
REMARK       I    between atoms: CZ   and  NH2 
ROOT
ATOM      1  CA  ARG D 557     -26.217   2.705 -17.014  1.00 35.49     0.159 C 
ENDROOT
BRANCH   1   2
ATOM      2  CB  ARG D 557     -26.789   1.319 -17.183  1.00 35.49     0.034 C 
BRANCH   2   3
ATOM      3  CG  ARG D 557     -26.122   0.235 -16.451  1.00 35.49     0.027 C 
BRANCH   3   4
ATOM      4  CD  ARG D 557     -27.034  -0.895 -16.162  1.00 35.49     0.116 C 
BRANCH   4   5
ATOM      5  NE  ARG D 557     -26.357  -1.985 -15.511  1.00 35.49    -0.212 N 
ATOM      6  CZ  ARG D 557     -26.689  -3.254 -15.593  1.00 35.49     0.666 C 
ATOM      7  NH1 ARG D 557     -27.725  -3.672 -16.297  1.00 35.49    -0.235 N 
ATOM      8  NH2 ARG D 557     -25.948  -4.111 -14.952  1.00 35.49    -0.235 N 
ATOM      9  HH  ARG D 557     -28.225  -3.126 -16.728  1.00 35.49     0.174 HD
ATOM     10  HH  ARG D 557     -27.892  -4.513 -16.316  1.00 35.49     0.174 HD
ATOM     11  HH  ARG D 557     -25.281  -3.813 -14.512  1.00 35.49     0.174 HD
ATOM     12  HH  ARG D 557     -26.129  -4.939 -14.984  1.00 35.49     0.174 HD
ATOM     13  HE  ARG D 557     -25.721  -1.799 -14.978  1.00 35.49     0.178 HD
ENDBRANCH   4   5
ENDBRANCH   3   4
ENDBRANCH   2   3
ENDBRANCH   1   2
END_RES ARG D 557
BEGIN_RES GLU D 570
REMARK  3 active torsions:
REMARK  status: ('A' for Active; 'I' for Inactive)
REMARK    5  A    between atoms: CA   and  CB  
REMARK    6  A    between atoms: CB   and  CG  
REMARK    7  A    between atoms: CG   and  CD  
ROOT
ATOM     14  CA  GLU D 570     -18.033  -6.348 -13.375  1.00 32.92     0.160 C 
ENDROOT
BRANCH  14  15
ATOM     15  CB  GLU D 570     -19.500  -6.345 -13.794  1.00 32.92     0.043 C 
BRANCH  15  16
ATOM     16  CG  GLU D 570     -19.798  -6.195 -15.242  1.00 32.92     0.100 C 
BRANCH  16  17
ATOM     17  CD  GLU D 570     -20.726  -7.265 -15.766  1.00 32.92     0.185 C 
ATOM     18  OE1 GLU D 570     -20.607  -8.431 -15.343  1.00 32.92    -0.647 OA
ATOM     19  OE2 GLU D 570     -21.572  -6.938 -16.623  1.00 32.92    -0.647 OA
ENDBRANCH  16  17
ENDBRANCH  15  16
ENDBRANCH  14  15
END_RES GLU D 570
ENDMDL
MODEL 6
REMARK VINA RESULT:      -6.5      2.936      4.915
REMARK  16 active torsions:
REMARK  status: ('A' for Active; 'I' for Inactive)
REMARK    1  A    between atoms: C_2  and  C_3 
REMARK    2  A    between atoms: C_3  and  C_4 
REMARK    3  A    between atoms: C_4  and  C_5 
REMARK    4  A    between atoms: C_5  and  C_6 
REMARK    5  A    between atoms: C_6  and  C_7 
REMARK    6  A    between atoms: C_7  and  C_8 
REMARK    7  A    between atoms: C_8  and  C_9 
REMARK    8  A    between atoms: C_10  and  C_11 
REMARK    9  A    between atoms: C_11  and  C_12 
REMARK   10  A    between atoms: C_12  and  C_13 
REMARK   11  A    between atoms: C_13  and  C_14 
REMARK   12  A    between atoms: C_14  and  C_15 
REMARK   13  A    between atoms: C_15  and  C_16 
REMARK   14  A    between atoms: C_16  and  C_17 
REMARK   15  A    between atoms: C_17  and  C_18 
REMARK   16  A    between atoms: C_18  and  O_20 
ROOT
HETATM    1  C   UNL     1     -20.426  -3.834 -11.035  1.00  0.00     0.027 C 
ENDROOT
BRANCH   1   2
HETATM    2  C   UNL     1     -20.814  -4.532  -9.772  1.00  0.00    -0.031 C 
HETATM    3  C   UNL     1     -20.736  -3.942  -8.576  1.00  0.00    -0.031 C 
BRANCH   3   4
HETATM    4  C   UNL     1     -21.130  -4.636  -7.314  1.00  0.00     0.027 C 
BRANCH   4   5
HETATM    5  C   UNL     1     -19.936  -4.775  -6.382  1.00  0.00     0.004 C 
BRANCH   5   6
HETATM    6  C   UNL     1     -20.402  -5.205  -4.999  1.00  0.00     0.000 C 
BRANCH   6   7
HETATM    7  C   UNL     1     -20.827  -6.664  -5.020  1.00  0.00     0.000 C 
BRANCH   7   8
HETATM    8  C   UNL     1     -21.848  -6.929  -3.924  1.00  0.00     0.000 C 
BRANCH   8   9
HETATM    9  C   UNL     1     -21.605  -6.000  -2.746  1.00  0.00    -0.000 C 
BRANCH   9  10
HETATM   10  C   UNL     1     -22.236  -6.566  -1.480  1.00  0.00    -0.005 C 
HETATM   11  C   UNL     1     -21.744  -7.978  -1.228  1.00  0.00     0.005 C 
ENDBRANCH   9  10
ENDBRANCH   8   9
ENDBRANCH   7   8
ENDBRANCH   6   7
ENDBRANCH   5   6
ENDBRANCH   4   5
ENDBRANCH   3   4
ENDBRANCH   1   2
BRANCH   1  12
HETATM   12  C   UNL     1     -21.605  -3.050 -11.594  1.00  0.00     0.004 C 
BRANCH  12  13
HETATM   13  C   UNL     1     -22.839  -3.941 -11.660  1.00  0.00     0.000 C 
BRANCH  13  14
HETATM   14  C   UNL     1     -23.589  -3.714 -12.965  1.00  0.00     0.000 C 
BRANCH  14  15
HETATM   15  C   UNL     1     -22.926  -4.486 -14.106  1.00  0.00     0.001 C 
BRANCH  15  16
HETATM   16  C   UNL     1     -23.572  -5.853 -14.260  1.00  0.00     0.010 C 
BRANCH  16  17
HETATM   17  C   UNL     1     -24.827  -5.799 -15.122  1.00  0.00     0.110 C 
BRANCH  17  18
HETATM   18  C   UNL     1     -25.119  -7.173 -15.702  1.00  0.00     0.139 C 
HETATM   19  O   UNL     1     -24.274  -7.895 -16.205  1.00  0.00    -0.650 OA
BRANCH  18  20
HETATM   20  O   UNL     1     -26.410  -7.543 -15.621  1.00  0.00    -0.776 OA
HETATM   21  H   UNL     1     -26.591  -8.457 -15.907  1.00  0.00     0.167 HD
ENDBRANCH  18  20
ENDBRANCH  17  18
ENDBRANCH  16  17
ENDBRANCH  15  16
ENDBRANCH  14  15
ENDBRANCH  13  14
ENDBRANCH  12  13
ENDBRANCH   1  12
TORSDOF 16
BEGIN_RES ARG D 557
REMARK  4 active torsions:
REMARK  status: ('A' for Active; 'I' for Inactive)
REMARK    1  A    between atoms: CA   and  CB  
REMARK    2  A    between atoms: CB   and  CG  
REMARK    3  A    between atoms: CG   and  CD  
REMARK    4  A    between atoms: CD   and  NE  
REMARK       I    between atoms: NE   and  CZ  
REMARK       I    between atoms: CZ   and  NH1 
REMARK       I    between atoms: CZ   and  NH2 
ROOT
ATOM      1  CA  ARG D 557     -26.217   2.705 -17.014  1.00 35.49     0.159 C 
ENDROOT
BRANCH   1   2
ATOM      2  CB  ARG D 557     -26.789   1.319 -17.183  1.00 35.49     0.034 C 
BRANCH   2   3
ATOM      3  CG  ARG D 557     -28.231   1.226 -17.442  1.00 35.49     0.027 C 
BRANCH   3   4
ATOM      4  CD  ARG D 557     -28.913   0.300 -16.510  1.00 35.49     0.116 C 
BRANCH   4   5
ATOM      5  NE  ARG D 557     -29.292  -0.932 -17.151  1.00 35.49    -0.212 N 
ATOM      6  CZ  ARG D 557     -28.667  -2.082 -17.036  1.00 35.49     0.666 C 
ATOM      7  NH1 ARG D 557     -27.578  -2.227 -16.304  1.00 35.49    -0.235 N 
ATOM      8  NH2 ARG D 557     -29.165  -3.102 -17.672  1.00 35.49    -0.235 N 
ATOM      9  HH  ARG D 557     -27.234  -1.570 -15.875  1.00 35.49     0.174 HD
ATOM     10  HH  ARG D 557     -27.214  -3.002 -16.264  1.00 35.49     0.174 HD
ATOM     11  HH  ARG D 557     -29.873  -2.981 -18.131  1.00 35.49     0.174 HD
ATOM     12  HH  ARG D 557     -28.791  -3.862 -17.619  1.00 35.49     0.174 HD
ATOM     13  HE  ARG D 557     -29.942  -0.913 -17.699  1.00 35.49     0.178 HD
ENDBRANCH   4   5
ENDBRANCH   3   4
ENDBRANCH   2   3
ENDBRANCH   1   2
END_RES ARG D 557
BEGIN_RES GLU D 570
REMARK  3 active torsions:
REMARK  status: ('A' for Active; 'I' for Inactive)
REMARK    5  A    between atoms: CA   and  CB  
REMARK    6  A    between atoms: CB   and  CG  
REMARK    7  A    between atoms: CG   and  CD  
ROOT
ATOM     14  CA  GLU D 570     -18.033  -6.348 -13.375  1.00 32.92     0.160 C 
ENDROOT
BRANCH  14  15
ATOM     15  CB  GLU D 570     -19.500  -6.345 -13.794  1.00 32.92     0.043 C 
BRANCH  15  16
ATOM     16  CG  GLU D 570     -20.087  -7.634 -14.242  1.00 32.92     0.100 C 
BRANCH  16  17
ATOM     17  CD  GLU D 570     -20.636  -7.575 -15.648  1.00 32.92     0.185 C 
ATOM     18  OE1 GLU D 570     -20.638  -6.484 -16.252  1.00 32.92    -0.647 OA
ATOM     19  OE2 GLU D 570     -21.086  -8.626 -16.146  1.00 32.92    -0.647 OA
ENDBRANCH  16  17
ENDBRANCH  15  16
ENDBRANCH  14  15
END_RES GLU D 570
ENDMDL
MODEL 7
REMARK VINA RESULT:      -6.5      1.831      2.471
REMARK  16 active torsions:
REMARK  status: ('A' for Active; 'I' for Inactive)
REMARK    1  A    between atoms: C_2  and  C_3 
REMARK    2  A    between atoms: C_3  and  C_4 
REMARK    3  A    between atoms: C_4  and  C_5 
REMARK    4  A    between atoms: C_5  and  C_6 
REMARK    5  A    between atoms: C_6  and  C_7 
REMARK    6  A    between atoms: C_7  and  C_8 
REMARK    7  A    between atoms: C_8  and  C_9 
REMARK    8  A    between atoms: C_10  and  C_11 
REMARK    9  A    between atoms: C_11  and  C_12 
REMARK   10  A    between atoms: C_12  and  C_13 
REMARK   11  A    between atoms: C_13  and  C_14 
REMARK   12  A    between atoms: C_14  and  C_15 
REMARK   13  A    between atoms: C_15  and  C_16 
REMARK   14  A    between atoms: C_16  and  C_17 
REMARK   15  A    between atoms: C_17  and  C_18 
REMARK   16  A    between atoms: C_18  and  O_20 
ROOT
HETATM    1  C   UNL     1     -21.659  -6.370  -5.713  1.00  0.00     0.027 C 
ENDROOT
BRANCH   1   2
HETATM    2  C   UNL     1     -21.788  -7.477  -4.717  1.00  0.00    -0.031 C 
HETATM    3  C   UNL     1     -20.777  -8.302  -4.430  1.00  0.00    -0.031 C 
BRANCH   3   4
HETATM    4  C   UNL     1     -20.903  -9.403  -3.430  1.00  0.00     0.027 C 
BRANCH   4   5
HETATM    5  C   UNL     1     -22.189 -10.186  -3.653  1.00  0.00     0.004 C 
BRANCH   5   6
HETATM    6  C   UNL     1     -22.608 -10.878  -2.364  1.00  0.00     0.000 C 
BRANCH   6   7
HETATM    7  C   UNL     1     -21.971 -10.188  -1.169  1.00  0.00     0.000 C 
BRANCH   7   8
HETATM    8  C   UNL     1     -23.020  -9.911  -0.103  1.00  0.00     0.000 C 
BRANCH   8   9
HETATM    9  C   UNL     1     -23.125  -8.416   0.153  1.00  0.00    -0.000 C 
BRANCH   9  10
HETATM   10  C   UNL     1     -21.885  -7.697  -0.362  1.00  0.00    -0.005 C 
HETATM   11  C   UNL     1     -22.277  -6.564  -1.290  1.00  0.00     0.005 C 
ENDBRANCH   9  10
ENDBRANCH   8   9
ENDBRANCH   7   8
ENDBRANCH   6   7
ENDBRANCH   5   6
ENDBRANCH   4   5
ENDBRANCH   3   4
ENDBRANCH   1   2
BRANCH   1  12
HETATM   12  C   UNL     1     -20.582  -5.385  -5.277  1.00  0.00     0.004 C 
BRANCH  12  13
HETATM   13  C   UNL     1     -19.861  -4.828  -6.497  1.00  0.00     0.000 C 
BRANCH  13  14
HETATM   14  C   UNL     1     -20.714  -5.004  -7.745  1.00  0.00     0.000 C 
BRANCH  14  15
HETATM   15  C   UNL     1     -21.565  -3.759  -7.993  1.00  0.00     0.001 C 
BRANCH  15  16
HETATM   16  C   UNL     1     -22.956  -4.159  -8.459  1.00  0.00     0.010 C 
BRANCH  16  17
HETATM   17  C   UNL     1     -23.125  -3.994  -9.964  1.00  0.00     0.110 C 
BRANCH  17  18
HETATM   18  C   UNL     1     -24.459  -3.333 -10.269  1.00  0.00     0.139 C 
HETATM   19  O   UNL     1     -24.918  -3.211 -11.393  1.00  0.00    -0.650 OA
BRANCH  18  20
HETATM   20  O   UNL     1     -25.112  -2.881  -9.184  1.00  0.00    -0.776 OA
HETATM   21  H   UNL     1     -25.949  -3.342  -8.990  1.00  0.00     0.167 HD
ENDBRANCH  18  20
ENDBRANCH  17  18
ENDBRANCH  16  17
ENDBRANCH  15  16
ENDBRANCH  14  15
ENDBRANCH  13  14
ENDBRANCH  12  13
ENDBRANCH   1  12
TORSDOF 16
BEGIN_RES ARG D 557
REMARK  4 active torsions:
REMARK  status: ('A' for Active; 'I' for Inactive)
REMARK    1  A    between atoms: CA   and  CB  
REMARK    2  A    between atoms: CB   and  CG  
REMARK    3  A    between atoms: CG   and  CD  
REMARK    4  A    between atoms: CD   and  NE  
REMARK       I    between atoms: NE   and  CZ  
REMARK       I    between atoms: CZ   and  NH1 
REMARK       I    between atoms: CZ   and  NH2 
ROOT
ATOM      1  CA  ARG D 557     -26.217   2.705 -17.014  1.00 35.49     0.159 C 
ENDROOT
BRANCH   1   2
ATOM      2  CB  ARG D 557     -26.789   1.319 -17.183  1.00 35.49     0.034 C 
BRANCH   2   3
ATOM      3  CG  ARG D 557     -28.227   1.227 -17.464  1.00 35.49     0.027 C 
BRANCH   3   4
ATOM      4  CD  ARG D 557     -28.925   0.305 -16.539  1.00 35.49     0.116 C 
BRANCH   4   5
ATOM      5  NE  ARG D 557     -28.144  -0.870 -16.254  1.00 35.49    -0.212 N 
ATOM      6  CZ  ARG D 557     -28.369  -2.076 -16.726  1.00 35.49     0.666 C 
ATOM      7  NH1 ARG D 557     -29.382  -2.345 -17.529  1.00 35.49    -0.235 N 
ATOM      8  NH2 ARG D 557     -27.545  -3.021 -16.378  1.00 35.49    -0.235 N 
ATOM      9  HH  ARG D 557     -29.936  -1.738 -17.773  1.00 35.49     0.174 HD
ATOM     10  HH  ARG D 557     -29.478  -3.149 -17.808  1.00 35.49     0.174 HD
ATOM     11  HH  ARG D 557     -26.896  -2.816 -15.864  1.00 35.49     0.174 HD
ATOM     12  HH  ARG D 557     -27.656  -3.810 -16.665  1.00 35.49     0.174 HD
ATOM     13  HE  ARG D 557     -27.514  -0.803 -15.686  1.00 35.49     0.178 HD
ENDBRANCH   4   5
ENDBRANCH   3   4
ENDBRANCH   2   3
ENDBRANCH   1   2
END_RES ARG D 557
BEGIN_RES GLU D 570
REMARK  3 active torsions:
REMARK  status: ('A' for Active; 'I' for Inactive)
REMARK    5  A    between atoms: CA   and  CB  
REMARK    6  A    between atoms: CB   and  CG  
REMARK    7  A    between atoms: CG   and  CD  
ROOT
ATOM     14  CA  GLU D 570     -18.033  -6.348 -13.375  1.00 32.92     0.160 C 
ENDROOT
BRANCH  14  15
ATOM     15  CB  GLU D 570     -19.500  -6.345 -13.794  1.00 32.92     0.043 C 
BRANCH  15  16
ATOM     16  CG  GLU D 570     -20.435  -5.502 -13.006  1.00 32.92     0.100 C 
BRANCH  16  17
ATOM     17  CD  GLU D 570     -21.704  -5.168 -13.756  1.00 32.92     0.185 C 
ATOM     18  OE1 GLU D 570     -22.787  -5.159 -13.140  1.00 32.92    -0.647 OA
ATOM     19  OE2 GLU D 570     -21.615  -4.931 -14.977  1.00 32.92    -0.647 OA
ENDBRANCH  16  17
ENDBRANCH  15  16
ENDBRANCH  14  15
END_RES GLU D 570
ENDMDL
MODEL 8
REMARK VINA RESULT:      -6.2      4.162      8.205
REMARK  16 active torsions:
REMARK  status: ('A' for Active; 'I' for Inactive)
REMARK    1  A    between atoms: C_2  and  C_3 
REMARK    2  A    between atoms: C_3  and  C_4 
REMARK    3  A    between atoms: C_4  and  C_5 
REMARK    4  A    between atoms: C_5  and  C_6 
REMARK    5  A    between atoms: C_6  and  C_7 
REMARK    6  A    between atoms: C_7  and  C_8 
REMARK    7  A    between atoms: C_8  and  C_9 
REMARK    8  A    between atoms: C_10  and  C_11 
REMARK    9  A    between atoms: C_11  and  C_12 
REMARK   10  A    between atoms: C_12  and  C_13 
REMARK   11  A    between atoms: C_13  and  C_14 
REMARK   12  A    between atoms: C_14  and  C_15 
REMARK   13  A    between atoms: C_15  and  C_16 
REMARK   14  A    between atoms: C_16  and  C_17 
REMARK   15  A    between atoms: C_17  and  C_18 
REMARK   16  A    between atoms: C_18  and  O_20 
ROOT
HETATM    1  C   UNL     1     -21.924  -6.589  -3.969  1.00  0.00     0.027 C 
ENDROOT
BRANCH   1   2
HETATM    2  C   UNL     1     -20.930  -6.361  -5.061  1.00  0.00    -0.031 C 
HETATM    3  C   UNL     1     -20.527  -5.138  -5.418  1.00  0.00    -0.031 C 
BRANCH   3   4
HETATM    4  C   UNL     1     -19.528  -4.911  -6.504  1.00  0.00     0.027 C 
BRANCH   4   5
HETATM    5  C   UNL     1     -20.172  -4.197  -7.684  1.00  0.00     0.004 C 
BRANCH   5   6
HETATM    6  C   UNL     1     -21.446  -3.496  -7.238  1.00  0.00     0.000 C 
BRANCH   6   7
HETATM    7  C   UNL     1     -22.557  -3.738  -8.247  1.00  0.00     0.000 C 
BRANCH   7   8
HETATM    8  C   UNL     1     -22.119  -4.774  -9.270  1.00  0.00     0.000 C 
BRANCH   8   9
HETATM    9  C   UNL     1     -22.743  -4.470 -10.623  1.00  0.00    -0.000 C 
BRANCH   9  10
HETATM   10  C   UNL     1     -21.881  -3.483 -11.399  1.00  0.00    -0.005 C 
HETATM   11  C   UNL     1     -20.416  -3.858 -11.291  1.00  0.00     0.005 C 
ENDBRANCH   9  10
ENDBRANCH   8   9
ENDBRANCH   7   8
ENDBRANCH   6   7
ENDBRANCH   5   6
ENDBRANCH   4   5
ENDBRANCH   3   4
ENDBRANCH   1   2
BRANCH   1  12
HETATM   12  C   UNL     1     -21.349  -6.153  -2.627  1.00  0.00     0.004 C 
BRANCH  12  13
HETATM   13  C   UNL     1     -22.347  -6.445  -1.514  1.00  0.00     0.000 C 
BRANCH  13  14
HETATM   14  C   UNL     1     -21.857  -7.598  -0.650  1.00  0.00     0.000 C 
BRANCH  14  15
HETATM   15  C   UNL     1     -22.978  -8.103   0.257  1.00  0.00     0.001 C 
BRANCH  15  16
HETATM   16  C   UNL     1     -23.240  -9.578  -0.004  1.00  0.00     0.010 C 
BRANCH  16  17
HETATM   17  C   UNL     1     -21.997 -10.299  -0.510  1.00  0.00     0.110 C 
BRANCH  17  18
HETATM   18  C   UNL     1     -21.355 -11.086   0.620  1.00  0.00     0.139 C 
HETATM   19  O   UNL     1     -21.649 -12.236   0.903  1.00  0.00    -0.650 OA
BRANCH  18  20
HETATM   20  O   UNL     1     -20.417 -10.406   1.302  1.00  0.00    -0.776 OA
HETATM   21  H   UNL     1     -20.601 -10.300   2.253  1.00  0.00     0.167 HD
ENDBRANCH  18  20
ENDBRANCH  17  18
ENDBRANCH  16  17
ENDBRANCH  15  16
ENDBRANCH  14  15
ENDBRANCH  13  14
ENDBRANCH  12  13
ENDBRANCH   1  12
TORSDOF 16
BEGIN_RES ARG D 557
REMARK  4 active torsions:
REMARK  status: ('A' for Active; 'I' for Inactive)
REMARK    1  A    between atoms: CA   and  CB  
REMARK    2  A    between atoms: CB   and  CG  
REMARK    3  A    between atoms: CG   and  CD  
REMARK    4  A    between atoms: CD   and  NE  
REMARK       I    between atoms: NE   and  CZ  
REMARK       I    between atoms: CZ   and  NH1 
REMARK       I    between atoms: CZ   and  NH2 
ROOT
ATOM      1  CA  ARG D 557     -26.217   2.705 -17.014  1.00 35.49     0.159 C 
ENDROOT
BRANCH   1   2
ATOM      2  CB  ARG D 557     -26.789   1.319 -17.183  1.00 35.49     0.034 C 
BRANCH   2   3
ATOM      3  CG  ARG D 557     -28.223   1.228 -17.482  1.00 35.49     0.027 C 
BRANCH   3   4
ATOM      4  CD  ARG D 557     -28.928   0.282 -16.587  1.00 35.49     0.116 C 
BRANCH   4   5
ATOM      5  NE  ARG D 557     -28.129  -0.876 -16.285  1.00 35.49    -0.212 N 
ATOM      6  CZ  ARG D 557     -28.352  -2.097 -16.718  1.00 35.49     0.666 C 
ATOM      7  NH1 ARG D 557     -29.378  -2.398 -17.492  1.00 35.49    -0.235 N 
ATOM      8  NH2 ARG D 557     -27.510  -3.023 -16.361  1.00 35.49    -0.235 N 
ATOM      9  HH  ARG D 557     -29.943  -1.804 -17.741  1.00 35.49     0.174 HD
ATOM     10  HH  ARG D 557     -29.471  -3.211 -17.746  1.00 35.49     0.174 HD
ATOM     11  HH  ARG D 557     -26.853  -2.798 -15.867  1.00 35.49     0.174 HD
ATOM     12  HH  ARG D 557     -27.619  -3.822 -16.624  1.00 35.49     0.174 HD
ATOM     13  HE  ARG D 557     -27.488  -0.786 -15.733  1.00 35.49     0.178 HD
ENDBRANCH   4   5
ENDBRANCH   3   4
ENDBRANCH   2   3
ENDBRANCH   1   2
END_RES ARG D 557
BEGIN_RES GLU D 570
REMARK  3 active torsions:
REMARK  status: ('A' for Active; 'I' for Inactive)
REMARK    5  A    between atoms: CA   and  CB  
REMARK    6  A    between atoms: CB   and  CG  
REMARK    7  A    between atoms: CG   and  CD  
ROOT
ATOM     14  CA  GLU D 570     -18.033  -6.348 -13.375  1.00 32.92     0.160 C 
ENDROOT
BRANCH  14  15
ATOM     15  CB  GLU D 570     -19.500  -6.345 -13.794  1.00 32.92     0.043 C 
BRANCH  15  16
ATOM     16  CG  GLU D 570     -19.811  -5.960 -15.195  1.00 32.92     0.100 C 
BRANCH  16  17
ATOM     17  CD  GLU D 570     -21.232  -5.480 -15.372  1.00 32.92     0.185 C 
ATOM     18  OE1 GLU D 570     -21.535  -4.853 -16.406  1.00 32.92    -0.647 OA
ATOM     19  OE2 GLU D 570     -22.048  -5.717 -14.460  1.00 32.92    -0.647 OA
ENDBRANCH  16  17
ENDBRANCH  15  16
ENDBRANCH  14  15
END_RES GLU D 570
ENDMDL
MODEL 9
REMARK VINA RESULT:      -6.2      1.932      3.249
REMARK  16 active torsions:
REMARK  status: ('A' for Active; 'I' for Inactive)
REMARK    1  A    between atoms: C_2  and  C_3 
REMARK    2  A    between atoms: C_3  and  C_4 
REMARK    3  A    between atoms: C_4  and  C_5 
REMARK    4  A    between atoms: C_5  and  C_6 
REMARK    5  A    between atoms: C_6  and  C_7 
REMARK    6  A    between atoms: C_7  and  C_8 
REMARK    7  A    between atoms: C_8  and  C_9 
REMARK    8  A    between atoms: C_10  and  C_11 
REMARK    9  A    between atoms: C_11  and  C_12 
REMARK   10  A    between atoms: C_12  and  C_13 
REMARK   11  A    between atoms: C_13  and  C_14 
REMARK   12  A    between atoms: C_14  and  C_15 
REMARK   13  A    between atoms: C_15  and  C_16 
REMARK   14  A    between atoms: C_16  and  C_17 
REMARK   15  A    between atoms: C_17  and  C_18 
REMARK   16  A    between atoms: C_18  and  O_20 
ROOT
HETATM    1  C   UNL     1     -21.545  -6.244  -2.846  1.00  0.00     0.027 C 
ENDROOT
BRANCH   1   2
HETATM    2  C   UNL     1     -21.547  -7.152  -1.659  1.00  0.00    -0.031 C 
HETATM    3  C   UNL     1     -22.483  -7.084  -0.708  1.00  0.00    -0.031 C 
BRANCH   3   4
HETATM    4  C   UNL     1     -22.489  -7.995   0.474  1.00  0.00     0.027 C 
BRANCH   4   5
HETATM    5  C   UNL     1     -22.269  -9.437   0.042  1.00  0.00     0.004 C 
BRANCH   5   6
HETATM    6  C   UNL     1     -23.607 -10.119  -0.201  1.00  0.00     0.000 C 
BRANCH   6   7
HETATM    7  C   UNL     1     -23.499 -11.605   0.100  1.00  0.00     0.000 C 
BRANCH   7   8
HETATM    8  C   UNL     1     -22.080 -11.953   0.520  1.00  0.00     0.000 C 
BRANCH   8   9
HETATM    9  C   UNL     1     -22.068 -13.262   1.294  1.00  0.00    -0.000 C 
BRANCH   9  10
HETATM   10  C   UNL     1     -23.482 -13.654   1.702  1.00  0.00    -0.005 C 
HETATM   11  C   UNL     1     -23.453 -14.520   2.946  1.00  0.00     0.005 C 
ENDBRANCH   9  10
ENDBRANCH   8   9
ENDBRANCH   7   8
ENDBRANCH   6   7
ENDBRANCH   5   6
ENDBRANCH   4   5
ENDBRANCH   3   4
ENDBRANCH   1   2
BRANCH   1  12
HETATM   12  C   UNL     1     -21.193  -7.020  -4.109  1.00  0.00     0.004 C 
BRANCH  12  13
HETATM   13  C   UNL     1     -21.683  -6.265  -5.338  1.00  0.00     0.000 C 
BRANCH  13  14
HETATM   14  C   UNL     1     -20.527  -5.994  -6.290  1.00  0.00     0.000 C 
BRANCH  14  15
HETATM   15  C   UNL     1     -20.372  -4.493  -6.531  1.00  0.00     0.001 C 
BRANCH  15  16
HETATM   16  C   UNL     1     -21.654  -3.919  -7.112  1.00  0.00     0.010 C 
BRANCH  16  17
HETATM   17  C   UNL     1     -21.696  -4.032  -8.631  1.00  0.00     0.110 C 
BRANCH  17  18
HETATM   18  C   UNL     1     -23.116  -4.309  -9.094  1.00  0.00     0.139 C 
HETATM   19  O   UNL     1     -23.394  -4.931 -10.105  1.00  0.00    -0.650 OA
BRANCH  18  20
HETATM   20  O   UNL     1     -24.067  -3.803  -8.288  1.00  0.00    -0.776 OA
HETATM   21  H   UNL     1     -24.544  -4.465  -7.755  1.00  0.00     0.167 HD
ENDBRANCH  18  20
ENDBRANCH  17  18
ENDBRANCH  16  17
ENDBRANCH  15  16
ENDBRANCH  14  15
ENDBRANCH  13  14
ENDBRANCH  12  13
ENDBRANCH   1  12
TORSDOF 16
BEGIN_RES ARG D 557
REMARK  4 active torsions:
REMARK  status: ('A' for Active; 'I' for Inactive)
REMARK    1  A    between atoms: CA   and  CB  
REMARK    2  A    between atoms: CB   and  CG  
REMARK    3  A    between atoms: CG   and  CD  
REMARK    4  A    between atoms: CD   and  NE  
REMARK       I    between atoms: NE   and  CZ  
REMARK       I    between atoms: CZ   and  NH1 
REMARK       I    between atoms: CZ   and  NH2 
ROOT
ATOM      1  CA  ARG D 557     -26.217   2.705 -17.014  1.00 35.49     0.159 C 
ENDROOT
BRANCH   1   2
ATOM      2  CB  ARG D 557     -26.789   1.319 -17.183  1.00 35.49     0.034 C 
BRANCH   2   3
ATOM      3  CG  ARG D 557     -25.863   0.195 -16.997  1.00 35.49     0.027 C 
BRANCH   3   4
ATOM      4  CD  ARG D 557     -26.288  -0.710 -15.905  1.00 35.49     0.116 C 
BRANCH   4   5
ATOM      5  NE  ARG D 557     -25.248  -0.907 -14.928  1.00 35.49    -0.212 N 
ATOM      6  CZ  ARG D 557     -24.957  -2.042 -14.334  1.00 35.49     0.666 C 
ATOM      7  NH1 ARG D 557     -25.623  -3.158 -14.571  1.00 35.49    -0.235 N 
ATOM      8  NH2 ARG D 557     -23.967  -2.042 -13.490  1.00 35.49    -0.235 N 
ATOM      9  HH  ARG D 557     -26.277  -3.182 -15.124  1.00 35.49     0.174 HD
ATOM     10  HH  ARG D 557     -25.387  -3.869 -14.156  1.00 35.49     0.174 HD
ATOM     11  HH  ARG D 557     -23.550  -1.308 -13.363  1.00 35.49     0.174 HD
ATOM     12  HH  ARG D 557     -23.747  -2.756 -13.090  1.00 35.49     0.174 HD
ATOM     13  HE  ARG D 557     -24.816  -0.224 -14.662  1.00 35.49     0.178 HD
ENDBRANCH   4   5
ENDBRANCH   3   4
ENDBRANCH   2   3
ENDBRANCH   1   2
END_RES ARG D 557
BEGIN_RES GLU D 570
REMARK  3 active torsions:
REMARK  status: ('A' for Active; 'I' for Inactive)
REMARK    5  A    between atoms: CA   and  CB  
REMARK    6  A    between atoms: CB   and  CG  
REMARK    7  A    between atoms: CG   and  CD  
ROOT
ATOM     14  CA  GLU D 570     -18.033  -6.348 -13.375  1.00 32.92     0.160 C 
ENDROOT
BRANCH  14  15
ATOM     15  CB  GLU D 570     -19.500  -6.345 -13.794  1.00 32.92     0.043 C 
BRANCH  15  16
ATOM     16  CG  GLU D 570     -20.099  -7.643 -14.200  1.00 32.92     0.100 C 
BRANCH  16  17
ATOM     17  CD  GLU D 570     -20.624  -7.632 -15.617  1.00 32.92     0.185 C 
ATOM     18  OE1 GLU D 570     -20.959  -6.547 -16.130  1.00 32.92    -0.647 OA
ATOM     19  OE2 GLU D 570     -20.718  -8.722 -16.214  1.00 32.92    -0.647 OA
ENDBRANCH  16  17
ENDBRANCH  15  16
ENDBRANCH  14  15
END_RES GLU D 570
ENDMDL
