MODEL 1
REMARK VINA RESULT:      -6.8      0.000      0.000
REMARK  21 active torsions:
REMARK  status: ('A' for Active; 'I' for Inactive)
REMARK    1  A    between atoms: C_2  and  C_3 
REMARK    2  A    between atoms: C_3  and  C_4 
REMARK    3  A    between atoms: C_4  and  C_5 
REMARK    4  A    between atoms: C_5  and  C_6 
REMARK    5  A    between atoms: C_6  and  C_7 
REMARK    6  A    between atoms: C_7  and  C_8 
REMARK    7  A    between atoms: C_8  and  C_9 
REMARK    8  A    between atoms: C_9  and  C_10 
REMARK    9  A    between atoms: C_10  and  C_11 
REMARK   10  A    between atoms: C_11  and  C_12 
REMARK   11  A    between atoms: C_12  and  C_13 
REMARK   12  A    between atoms: C_13  and  C_14 
REMARK   13  A    between atoms: C_14  and  C_15 
REMARK   14  A    between atoms: C_15  and  C_16 
REMARK   15  A    between atoms: C_16  and  C_17 
REMARK   16  A    between atoms: C_17  and  C_18 
REMARK   17  A    between atoms: C_18  and  C_19 
REMARK   18  A    between atoms: C_19  and  C_20 
REMARK   19  A    between atoms: C_20  and  C_21 
REMARK   20  A    between atoms: C_21  and  C_22 
REMARK   21  A    between atoms: C_22  and  O_24 
ROOT
HETATM    1  C   UNL     1     -21.404  -7.792  -4.566  1.00  0.00     0.000 C 
ENDROOT
BRANCH   1   2
HETATM    2  C   UNL     1     -21.100  -7.618  -3.091  1.00  0.00     0.000 C 
BRANCH   2   3
HETATM    3  C   UNL     1     -21.532  -6.238  -2.634  1.00  0.00     0.000 C 
BRANCH   3   4
HETATM    4  C   UNL     1     -22.253  -6.337  -1.304  1.00  0.00     0.000 C 
BRANCH   4   5
HETATM    5  C   UNL     1     -22.365  -7.790  -0.886  1.00  0.00     0.000 C 
BRANCH   5   6
HETATM    6  C   UNL     1     -22.477  -7.887   0.623  1.00  0.00     0.000 C 
BRANCH   6   7
HETATM    7  C   UNL     1     -21.292  -8.649   1.181  1.00  0.00     0.000 C 
BRANCH   7   8
HETATM    8  C   UNL     1     -20.697  -9.538   0.106  1.00  0.00     0.000 C 
BRANCH   8   9
HETATM    9  C   UNL     1     -20.406 -10.914   0.675  1.00  0.00     0.000 C 
BRANCH   9  10
HETATM   10  C   UNL     1     -21.255 -11.957  -0.031  1.00  0.00     0.000 C 
BRANCH  10  11
HETATM   11  C   UNL     1     -22.237 -12.576   0.946  1.00  0.00    -0.000 C 
BRANCH  11  12
HETATM   12  C   UNL     1     -23.644 -12.555   0.368  1.00  0.00    -0.005 C 
HETATM   13  C   UNL     1     -23.929 -11.209  -0.266  1.00  0.00     0.005 C 
ENDBRANCH  11  12
ENDBRANCH  10  11
ENDBRANCH   9  10
ENDBRANCH   8   9
ENDBRANCH   7   8
ENDBRANCH   6   7
ENDBRANCH   5   6
ENDBRANCH   4   5
ENDBRANCH   3   4
ENDBRANCH   2   3
ENDBRANCH   1   2
BRANCH   1  14
HETATM   14  C   UNL     1     -21.959  -6.499  -5.133  1.00  0.00     0.000 C 
BRANCH  14  15
HETATM   15  C   UNL     1     -21.189  -6.110  -6.380  1.00  0.00     0.000 C 
BRANCH  15  16
HETATM   16  C   UNL     1     -20.549  -4.747  -6.190  1.00  0.00     0.000 C 
BRANCH  16  17
HETATM   17  C   UNL     1     -21.028  -3.794  -7.272  1.00  0.00     0.000 C 
BRANCH  17  18
HETATM   18  C   UNL     1     -20.460  -4.203  -8.621  1.00  0.00     0.000 C 
BRANCH  18  19
HETATM   19  C   UNL     1     -21.485  -3.953  -9.721  1.00  0.00     0.001 C 
BRANCH  19  20
HETATM   20  C   UNL     1     -22.806  -4.623  -9.374  1.00  0.00     0.010 C 
BRANCH  20  21
HETATM   21  C   UNL     1     -23.745  -4.724 -10.581  1.00  0.00     0.110 C 
BRANCH  21  22
HETATM   22  C   UNL     1     -24.535  -3.447 -10.719  1.00  0.00     0.139 C 
HETATM   23  O   UNL     1     -25.468  -3.126  -9.985  1.00  0.00    -0.650 OA
BRANCH  22  24
HETATM   24  O   UNL     1     -24.147  -2.647 -11.727  1.00  0.00    -0.776 OA
HETATM   25  H   UNL     1     -24.274  -1.689 -11.589  1.00  0.00     0.167 HD
ENDBRANCH  22  24
ENDBRANCH  21  22
ENDBRANCH  20  21
ENDBRANCH  19  20
ENDBRANCH  18  19
ENDBRANCH  17  18
ENDBRANCH  16  17
ENDBRANCH  15  16
ENDBRANCH  14  15
ENDBRANCH   1  14
TORSDOF 21
BEGIN_RES ARG D 557
REMARK  4 active torsions:
REMARK  status: ('A' for Active; 'I' for Inactive)
REMARK    1  A    between atoms: CA   and  CB  
REMARK    2  A    between atoms: CB   and  CG  
REMARK    3  A    between atoms: CG   and  CD  
REMARK    4  A    between atoms: CD   and  NE  
REMARK       I    between atoms: NE   and  CZ  
REMARK       I    between atoms: CZ   and  NH1 
REMARK       I    between atoms: CZ   and  NH2 
ROOT
ATOM      1  CA  ARG D 557     -26.217   2.705 -17.014  1.00 35.49     0.159 C 
ENDROOT
BRANCH   1   2
ATOM      2  CB  ARG D 557     -26.789   1.319 -17.183  1.00 35.49     0.034 C 
BRANCH   2   3
ATOM      3  CG  ARG D 557     -28.233   1.169 -16.964  1.00 35.49     0.027 C 
BRANCH   3   4
ATOM      4  CD  ARG D 557     -28.630  -0.245 -16.771  1.00 35.49     0.116 C 
BRANCH   4   5
ATOM      5  NE  ARG D 557     -27.624  -1.000 -16.073  1.00 35.49    -0.212 N 
ATOM      6  CZ  ARG D 557     -27.470  -2.305 -16.124  1.00 35.49     0.666 C 
ATOM      7  NH1 ARG D 557     -28.261  -3.085 -16.836  1.00 35.49    -0.235 N 
ATOM      8  NH2 ARG D 557     -26.488  -2.820 -15.442  1.00 35.49    -0.235 N 
ATOM      9  HH  ARG D 557     -28.912  -2.767 -17.294  1.00 35.49     0.174 HD
ATOM     10  HH  ARG D 557     -28.111  -3.929 -16.834  1.00 35.49     0.174 HD
ATOM     11  HH  ARG D 557     -25.989  -2.291 -14.997  1.00 35.49     0.174 HD
ATOM     12  HH  ARG D 557     -26.355  -3.657 -15.453  1.00 35.49     0.174 HD
ATOM     13  HE  ARG D 557     -27.115  -0.585 -15.533  1.00 35.49     0.178 HD
ENDBRANCH   4   5
ENDBRANCH   3   4
ENDBRANCH   2   3
ENDBRANCH   1   2
END_RES ARG D 557
BEGIN_RES GLU D 570
REMARK  3 active torsions:
REMARK  status: ('A' for Active; 'I' for Inactive)
REMARK    5  A    between atoms: CA   and  CB  
REMARK    6  A    between atoms: CB   and  CG  
REMARK    7  A    between atoms: CG   and  CD  
ROOT
ATOM     14  CA  GLU D 570     -18.033  -6.348 -13.375  1.00 32.92     0.160 C 
ENDROOT
BRANCH  14  15
ATOM     15  CB  GLU D 570     -19.500  -6.345 -13.794  1.00 32.92     0.043 C 
BRANCH  15  16
ATOM     16  CG  GLU D 570     -20.444  -5.540 -12.976  1.00 32.92     0.100 C 
BRANCH  16  17
ATOM     17  CD  GLU D 570     -21.725  -5.212 -13.707  1.00 32.92     0.185 C 
ATOM     18  OE1 GLU D 570     -22.234  -4.084 -13.560  1.00 32.92    -0.647 OA
ATOM     19  OE2 GLU D 570     -22.234  -6.098 -14.421  1.00 32.92    -0.647 OA
ENDBRANCH  16  17
ENDBRANCH  15  16
ENDBRANCH  14  15
END_RES GLU D 570
ENDMDL
MODEL 2
REMARK VINA RESULT:      -6.8      1.887      3.189
REMARK  21 active torsions:
REMARK  status: ('A' for Active; 'I' for Inactive)
REMARK    1  A    between atoms: C_2  and  C_3 
REMARK    2  A    between atoms: C_3  and  C_4 
REMARK    3  A    between atoms: C_4  and  C_5 
REMARK    4  A    between atoms: C_5  and  C_6 
REMARK    5  A    between atoms: C_6  and  C_7 
REMARK    6  A    between atoms: C_7  and  C_8 
REMARK    7  A    between atoms: C_8  and  C_9 
REMARK    8  A    between atoms: C_9  and  C_10 
REMARK    9  A    between atoms: C_10  and  C_11 
REMARK   10  A    between atoms: C_11  and  C_12 
REMARK   11  A    between atoms: C_12  and  C_13 
REMARK   12  A    between atoms: C_13  and  C_14 
REMARK   13  A    between atoms: C_14  and  C_15 
REMARK   14  A    between atoms: C_15  and  C_16 
REMARK   15  A    between atoms: C_16  and  C_17 
REMARK   16  A    between atoms: C_17  and  C_18 
REMARK   17  A    between atoms: C_18  and  C_19 
REMARK   18  A    between atoms: C_19  and  C_20 
REMARK   19  A    between atoms: C_20  and  C_21 
REMARK   20  A    between atoms: C_21  and  C_22 
REMARK   21  A    between atoms: C_22  and  O_24 
ROOT
HETATM    1  C   UNL     1     -20.148  -7.676  -5.013  1.00  0.00     0.000 C 
ENDROOT
BRANCH   1   2
HETATM    2  C   UNL     1     -19.931  -9.149  -4.726  1.00  0.00     0.000 C 
BRANCH   2   3
HETATM    3  C   UNL     1     -21.113  -9.702  -3.952  1.00  0.00     0.000 C 
BRANCH   3   4
HETATM    4  C   UNL     1     -21.588 -10.993  -4.590  1.00  0.00     0.000 C 
BRANCH   4   5
HETATM    5  C   UNL     1     -22.575 -11.689  -3.674  1.00  0.00     0.000 C 
BRANCH   5   6
HETATM    6  C   UNL     1     -22.753 -10.884  -2.402  1.00  0.00     0.000 C 
BRANCH   6   7
HETATM    7  C   UNL     1     -23.930 -11.423  -1.611  1.00  0.00     0.000 C 
BRANCH   7   8
HETATM    8  C   UNL     1     -23.817 -10.994  -0.161  1.00  0.00     0.000 C 
BRANCH   8   9
HETATM    9  C   UNL     1     -22.725  -9.951  -0.013  1.00  0.00     0.000 C 
BRANCH   9  10
HETATM   10  C   UNL     1     -23.331  -8.622   0.400  1.00  0.00     0.000 C 
BRANCH  10  11
HETATM   11  C   UNL     1     -22.299  -7.517   0.270  1.00  0.00    -0.000 C 
BRANCH  11  12
HETATM   12  C   UNL     1     -21.720  -7.495  -1.137  1.00  0.00    -0.005 C 
HETATM   13  C   UNL     1     -22.221  -6.278  -1.888  1.00  0.00     0.005 C 
ENDBRANCH  11  12
ENDBRANCH  10  11
ENDBRANCH   9  10
ENDBRANCH   8   9
ENDBRANCH   7   8
ENDBRANCH   6   7
ENDBRANCH   5   6
ENDBRANCH   4   5
ENDBRANCH   3   4
ENDBRANCH   2   3
ENDBRANCH   1   2
BRANCH   1  14
HETATM   14  C   UNL     1     -21.602  -7.428  -5.365  1.00  0.00     0.000 C 
BRANCH  14  15
HETATM   15  C   UNL     1     -21.831  -5.948  -5.602  1.00  0.00     0.000 C 
BRANCH  15  16
HETATM   16  C   UNL     1     -20.525  -5.277  -5.987  1.00  0.00     0.000 C 
BRANCH  16  17
HETATM   17  C   UNL     1     -20.806  -3.981  -6.728  1.00  0.00     0.000 C 
BRANCH  17  18
HETATM   18  C   UNL     1     -20.094  -3.978  -8.071  1.00  0.00     0.000 C 
BRANCH  18  19
HETATM   19  C   UNL     1     -20.901  -4.766  -9.096  1.00  0.00     0.001 C 
BRANCH  19  20
HETATM   20  C   UNL     1     -21.801  -3.832  -9.890  1.00  0.00     0.010 C 
BRANCH  20  21
HETATM   21  C   UNL     1     -23.087  -4.519 -10.361  1.00  0.00     0.110 C 
BRANCH  21  22
HETATM   22  C   UNL     1     -24.282  -3.687  -9.969  1.00  0.00     0.139 C 
HETATM   23  O   UNL     1     -25.103  -3.235 -10.765  1.00  0.00    -0.650 OA
BRANCH  22  24
HETATM   24  O   UNL     1     -24.404  -3.457  -8.650  1.00  0.00    -0.776 OA
HETATM   25  H   UNL     1     -24.644  -4.227  -8.100  1.00  0.00     0.167 HD
ENDBRANCH  22  24
ENDBRANCH  21  22
ENDBRANCH  20  21
ENDBRANCH  19  20
ENDBRANCH  18  19
ENDBRANCH  17  18
ENDBRANCH  16  17
ENDBRANCH  15  16
ENDBRANCH  14  15
ENDBRANCH   1  14
TORSDOF 21
BEGIN_RES ARG D 557
REMARK  4 active torsions:
REMARK  status: ('A' for Active; 'I' for Inactive)
REMARK    1  A    between atoms: CA   and  CB  
REMARK    2  A    between atoms: CB   and  CG  
REMARK    3  A    between atoms: CG   and  CD  
REMARK    4  A    between atoms: CD   and  NE  
REMARK       I    between atoms: NE   and  CZ  
REMARK       I    between atoms: CZ   and  NH1 
REMARK       I    between atoms: CZ   and  NH2 
ROOT
ATOM      1  CA  ARG D 557     -26.217   2.705 -17.014  1.00 35.49     0.159 C 
ENDROOT
BRANCH   1   2
ATOM      2  CB  ARG D 557     -26.789   1.319 -17.183  1.00 35.49     0.034 C 
BRANCH   2   3
ATOM      3  CG  ARG D 557     -25.836   0.203 -17.149  1.00 35.49     0.027 C 
BRANCH   3   4
ATOM      4  CD  ARG D 557     -24.755   0.414 -16.161  1.00 35.49     0.116 C 
BRANCH   4   5
ATOM      5  NE  ARG D 557     -24.900  -0.435 -15.008  1.00 35.49    -0.212 N 
ATOM      6  CZ  ARG D 557     -24.075  -1.394 -14.650  1.00 35.49     0.666 C 
ATOM      7  NH1 ARG D 557     -22.995  -1.696 -15.347  1.00 35.49    -0.235 N 
ATOM      8  NH2 ARG D 557     -24.353  -2.050 -13.561  1.00 35.49    -0.235 N 
ATOM      9  HH  ARG D 557     -22.792  -1.276 -16.065  1.00 35.49     0.174 HD
ATOM     10  HH  ARG D 557     -22.492  -2.330 -15.064  1.00 35.49     0.174 HD
ATOM     11  HH  ARG D 557     -25.053  -1.828 -13.128  1.00 35.49     0.174 HD
ATOM     12  HH  ARG D 557     -23.842  -2.673 -13.297  1.00 35.49     0.174 HD
ATOM     13  HE  ARG D 557     -25.607  -0.358 -14.542  1.00 35.49     0.178 HD
ENDBRANCH   4   5
ENDBRANCH   3   4
ENDBRANCH   2   3
ENDBRANCH   1   2
END_RES ARG D 557
BEGIN_RES GLU D 570
REMARK  3 active torsions:
REMARK  status: ('A' for Active; 'I' for Inactive)
REMARK    5  A    between atoms: CA   and  CB  
REMARK    6  A    between atoms: CB   and  CG  
REMARK    7  A    between atoms: CG   and  CD  
ROOT
ATOM     14  CA  GLU D 570     -18.033  -6.348 -13.375  1.00 32.92     0.160 C 
ENDROOT
BRANCH  14  15
ATOM     15  CB  GLU D 570     -19.500  -6.345 -13.794  1.00 32.92     0.043 C 
BRANCH  15  16
ATOM     16  CG  GLU D 570     -20.441  -5.525 -12.987  1.00 32.92     0.100 C 
BRANCH  16  17
ATOM     17  CD  GLU D 570     -21.726  -5.212 -13.718  1.00 32.92     0.185 C 
ATOM     18  OE1 GLU D 570     -22.197  -4.061 -13.648  1.00 32.92    -0.647 OA
ATOM     19  OE2 GLU D 570     -22.275  -6.133 -14.354  1.00 32.92    -0.647 OA
ENDBRANCH  16  17
ENDBRANCH  15  16
ENDBRANCH  14  15
END_RES GLU D 570
ENDMDL
MODEL 3
REMARK VINA RESULT:      -6.6      1.689      2.520
REMARK  21 active torsions:
REMARK  status: ('A' for Active; 'I' for Inactive)
REMARK    1  A    between atoms: C_2  and  C_3 
REMARK    2  A    between atoms: C_3  and  C_4 
REMARK    3  A    between atoms: C_4  and  C_5 
REMARK    4  A    between atoms: C_5  and  C_6 
REMARK    5  A    between atoms: C_6  and  C_7 
REMARK    6  A    between atoms: C_7  and  C_8 
REMARK    7  A    between atoms: C_8  and  C_9 
REMARK    8  A    between atoms: C_9  and  C_10 
REMARK    9  A    between atoms: C_10  and  C_11 
REMARK   10  A    between atoms: C_11  and  C_12 
REMARK   11  A    between atoms: C_12  and  C_13 
REMARK   12  A    between atoms: C_13  and  C_14 
REMARK   13  A    between atoms: C_14  and  C_15 
REMARK   14  A    between atoms: C_15  and  C_16 
REMARK   15  A    between atoms: C_16  and  C_17 
REMARK   16  A    between atoms: C_17  and  C_18 
REMARK   17  A    between atoms: C_18  and  C_19 
REMARK   18  A    between atoms: C_19  and  C_20 
REMARK   19  A    between atoms: C_20  and  C_21 
REMARK   20  A    between atoms: C_21  and  C_22 
REMARK   21  A    between atoms: C_22  and  O_24 
ROOT
HETATM    1  C   UNL     1     -21.922  -6.398  -4.261  1.00  0.00     0.000 C 
ENDROOT
BRANCH   1   2
HETATM    2  C   UNL     1     -21.888  -6.560  -2.754  1.00  0.00     0.000 C 
BRANCH   2   3
HETATM    3  C   UNL     1     -20.790  -7.532  -2.365  1.00  0.00     0.000 C 
BRANCH   3   4
HETATM    4  C   UNL     1     -21.062  -8.088  -0.981  1.00  0.00     0.000 C 
BRANCH   4   5
HETATM    5  C   UNL     1     -22.207  -7.332  -0.337  1.00  0.00     0.000 C 
BRANCH   5   6
HETATM    6  C   UNL     1     -23.109  -8.297   0.408  1.00  0.00     0.000 C 
BRANCH   6   7
HETATM    7  C   UNL     1     -22.734  -9.725   0.064  1.00  0.00     0.000 C 
BRANCH   7   8
HETATM    8  C   UNL     1     -23.987 -10.565  -0.091  1.00  0.00     0.000 C 
BRANCH   8   9
HETATM    9  C   UNL     1     -23.862 -11.462  -1.308  1.00  0.00     0.000 C 
BRANCH   9  10
HETATM   10  C   UNL     1     -22.508 -11.261  -1.963  1.00  0.00     0.000 C 
BRANCH  10  11
HETATM   11  C   UNL     1     -22.686 -10.708  -3.366  1.00  0.00    -0.000 C 
BRANCH  11  12
HETATM   12  C   UNL     1     -21.831 -11.485  -4.355  1.00  0.00    -0.005 C 
HETATM   13  C   UNL     1     -21.163 -10.535  -5.328  1.00  0.00     0.005 C 
ENDBRANCH  11  12
ENDBRANCH  10  11
ENDBRANCH   9  10
ENDBRANCH   8   9
ENDBRANCH   7   8
ENDBRANCH   6   7
ENDBRANCH   5   6
ENDBRANCH   4   5
ENDBRANCH   3   4
ENDBRANCH   2   3
ENDBRANCH   1   2
BRANCH   1  14
HETATM   14  C   UNL     1     -20.717  -7.081  -4.880  1.00  0.00     0.000 C 
BRANCH  14  15
HETATM   15  C   UNL     1     -20.150  -6.220  -5.992  1.00  0.00     0.000 C 
BRANCH  15  16
HETATM   16  C   UNL     1     -20.273  -4.752  -5.624  1.00  0.00     0.000 C 
BRANCH  16  17
HETATM   17  C   UNL     1     -20.861  -3.974  -6.788  1.00  0.00     0.000 C 
BRANCH  17  18
HETATM   18  C   UNL     1     -20.250  -4.445  -8.098  1.00  0.00     0.000 C 
BRANCH  18  19
HETATM   19  C   UNL     1     -21.340  -4.950  -9.036  1.00  0.00     0.001 C 
BRANCH  19  20
HETATM   20  C   UNL     1     -21.934  -3.794  -9.825  1.00  0.00     0.010 C 
BRANCH  20  21
HETATM   21  C   UNL     1     -23.255  -4.168 -10.506  1.00  0.00     0.110 C 
BRANCH  21  22
HETATM   22  C   UNL     1     -24.414  -3.669  -9.680  1.00  0.00     0.139 C 
HETATM   23  O   UNL     1     -25.454  -3.212 -10.149  1.00  0.00    -0.650 OA
BRANCH  22  24
HETATM   24  O   UNL     1     -24.239  -3.756  -8.350  1.00  0.00    -0.776 OA
HETATM   25  H   UNL     1     -25.017  -3.543  -7.799  1.00  0.00     0.167 HD
ENDBRANCH  22  24
ENDBRANCH  21  22
ENDBRANCH  20  21
ENDBRANCH  19  20
ENDBRANCH  18  19
ENDBRANCH  17  18
ENDBRANCH  16  17
ENDBRANCH  15  16
ENDBRANCH  14  15
ENDBRANCH   1  14
TORSDOF 21
BEGIN_RES ARG D 557
REMARK  4 active torsions:
REMARK  status: ('A' for Active; 'I' for Inactive)
REMARK    1  A    between atoms: CA   and  CB  
REMARK    2  A    between atoms: CB   and  CG  
REMARK    3  A    between atoms: CG   and  CD  
REMARK    4  A    between atoms: CD   and  NE  
REMARK       I    between atoms: NE   and  CZ  
REMARK       I    between atoms: CZ   and  NH1 
REMARK       I    between atoms: CZ   and  NH2 
ROOT
ATOM      1  CA  ARG D 557     -26.217   2.705 -17.014  1.00 35.49     0.159 C 
ENDROOT
BRANCH   1   2
ATOM      2  CB  ARG D 557     -26.789   1.319 -17.183  1.00 35.49     0.034 C 
BRANCH   2   3
ATOM      3  CG  ARG D 557     -25.860   0.195 -17.013  1.00 35.49     0.027 C 
BRANCH   3   4
ATOM      4  CD  ARG D 557     -26.297  -0.744 -15.955  1.00 35.49     0.116 C 
BRANCH   4   5
ATOM      5  NE  ARG D 557     -25.294  -0.922 -14.939  1.00 35.49    -0.212 N 
ATOM      6  CZ  ARG D 557     -25.021  -2.048 -14.318  1.00 35.49     0.666 C 
ATOM      7  NH1 ARG D 557     -25.674  -3.169 -14.562  1.00 35.49    -0.235 N 
ATOM      8  NH2 ARG D 557     -24.062  -2.031 -13.438  1.00 35.49    -0.235 N 
ATOM      9  HH  ARG D 557     -26.308  -3.203 -15.138  1.00 35.49     0.174 HD
ATOM     10  HH  ARG D 557     -25.451  -3.873 -14.128  1.00 35.49     0.174 HD
ATOM     11  HH  ARG D 557     -23.653  -1.294 -13.306  1.00 35.49     0.174 HD
ATOM     12  HH  ARG D 557     -23.855  -2.739 -13.020  1.00 35.49     0.174 HD
ATOM     13  HE  ARG D 557     -24.874  -0.234 -14.667  1.00 35.49     0.178 HD
ENDBRANCH   4   5
ENDBRANCH   3   4
ENDBRANCH   2   3
ENDBRANCH   1   2
END_RES ARG D 557
BEGIN_RES GLU D 570
REMARK  3 active torsions:
REMARK  status: ('A' for Active; 'I' for Inactive)
REMARK    5  A    between atoms: CA   and  CB  
REMARK    6  A    between atoms: CB   and  CG  
REMARK    7  A    between atoms: CG   and  CD  
ROOT
ATOM     14  CA  GLU D 570     -18.033  -6.348 -13.375  1.00 32.92     0.160 C 
ENDROOT
BRANCH  14  15
ATOM     15  CB  GLU D 570     -19.500  -6.345 -13.794  1.00 32.92     0.043 C 
BRANCH  15  16
ATOM     16  CG  GLU D 570     -20.426  -5.461 -13.039  1.00 32.92     0.100 C 
BRANCH  16  17
ATOM     17  CD  GLU D 570     -21.740  -5.239 -13.751  1.00 32.92     0.185 C 
ATOM     18  OE1 GLU D 570     -22.331  -6.215 -14.250  1.00 32.92    -0.647 OA
ATOM     19  OE2 GLU D 570     -22.174  -4.072 -13.825  1.00 32.92    -0.647 OA
ENDBRANCH  16  17
ENDBRANCH  15  16
ENDBRANCH  14  15
END_RES GLU D 570
ENDMDL
MODEL 4
REMARK VINA RESULT:      -6.6      1.357      2.099
REMARK  21 active torsions:
REMARK  status: ('A' for Active; 'I' for Inactive)
REMARK    1  A    between atoms: C_2  and  C_3 
REMARK    2  A    between atoms: C_3  and  C_4 
REMARK    3  A    between atoms: C_4  and  C_5 
REMARK    4  A    between atoms: C_5  and  C_6 
REMARK    5  A    between atoms: C_6  and  C_7 
REMARK    6  A    between atoms: C_7  and  C_8 
REMARK    7  A    between atoms: C_8  and  C_9 
REMARK    8  A    between atoms: C_9  and  C_10 
REMARK    9  A    between atoms: C_10  and  C_11 
REMARK   10  A    between atoms: C_11  and  C_12 
REMARK   11  A    between atoms: C_12  and  C_13 
REMARK   12  A    between atoms: C_13  and  C_14 
REMARK   13  A    between atoms: C_14  and  C_15 
REMARK   14  A    between atoms: C_15  and  C_16 
REMARK   15  A    between atoms: C_16  and  C_17 
REMARK   16  A    between atoms: C_17  and  C_18 
REMARK   17  A    between atoms: C_18  and  C_19 
REMARK   18  A    between atoms: C_19  and  C_20 
REMARK   19  A    between atoms: C_20  and  C_21 
REMARK   20  A    between atoms: C_21  and  C_22 
REMARK   21  A    between atoms: C_22  and  O_24 
ROOT
HETATM    1  C   UNL     1     -21.738  -7.764  -4.258  1.00  0.00     0.000 C 
ENDROOT
BRANCH   1   2
HETATM    2  C   UNL     1     -21.093  -7.271  -2.978  1.00  0.00     0.000 C 
BRANCH   2   3
HETATM    3  C   UNL     1     -22.022  -6.302  -2.272  1.00  0.00     0.000 C 
BRANCH   3   4
HETATM    4  C   UNL     1     -22.356  -6.824  -0.888  1.00  0.00     0.000 C 
BRANCH   4   5
HETATM    5  C   UNL     1     -21.395  -7.933  -0.509  1.00  0.00     0.000 C 
BRANCH   5   6
HETATM    6  C   UNL     1     -21.997  -8.786   0.589  1.00  0.00     0.000 C 
BRANCH   6   7
HETATM    7  C   UNL     1     -23.371  -9.273   0.171  1.00  0.00     0.000 C 
BRANCH   7   8
HETATM    8  C   UNL     1     -23.290 -10.716  -0.288  1.00  0.00     0.000 C 
BRANCH   8   9
HETATM    9  C   UNL     1     -23.182 -10.773  -1.800  1.00  0.00     0.000 C 
BRANCH   9  10
HETATM   10  C   UNL     1     -21.874 -11.431  -2.202  1.00  0.00     0.000 C 
BRANCH  10  11
HETATM   11  C   UNL     1     -21.456 -12.443  -1.150  1.00  0.00    -0.000 C 
BRANCH  11  12
HETATM   12  C   UNL     1     -19.947 -12.416  -0.959  1.00  0.00    -0.005 C 
HETATM   13  C   UNL     1     -19.587 -11.553   0.233  1.00  0.00     0.005 C 
ENDBRANCH  11  12
ENDBRANCH  10  11
ENDBRANCH   9  10
ENDBRANCH   8   9
ENDBRANCH   7   8
ENDBRANCH   6   7
ENDBRANCH   5   6
ENDBRANCH   4   5
ENDBRANCH   3   4
ENDBRANCH   2   3
ENDBRANCH   1   2
BRANCH   1  14
HETATM   14  C   UNL     1     -22.048  -6.587  -5.164  1.00  0.00     0.000 C 
BRANCH  14  15
HETATM   15  C   UNL     1     -20.842  -6.269  -6.028  1.00  0.00     0.000 C 
BRANCH  15  16
HETATM   16  C   UNL     1     -20.430  -4.821  -5.829  1.00  0.00     0.000 C 
BRANCH  16  17
HETATM   17  C   UNL     1     -20.731  -4.020  -7.084  1.00  0.00     0.000 C 
BRANCH  17  18
HETATM   18  C   UNL     1     -21.081  -4.952  -8.232  1.00  0.00     0.000 C 
BRANCH  18  19
HETATM   19  C   UNL     1     -20.667  -4.330  -9.560  1.00  0.00     0.001 C 
BRANCH  19  20
HETATM   20  C   UNL     1     -21.849  -3.617 -10.199  1.00  0.00     0.010 C 
BRANCH  20  21
HETATM   21  C   UNL     1     -23.093  -4.509 -10.285  1.00  0.00     0.110 C 
BRANCH  21  22
HETATM   22  C   UNL     1     -24.308  -3.732  -9.845  1.00  0.00     0.139 C 
HETATM   23  O   UNL     1     -25.131  -3.238 -10.613  1.00  0.00    -0.650 OA
BRANCH  22  24
HETATM   24  O   UNL     1     -24.448  -3.606  -8.514  1.00  0.00    -0.776 OA
HETATM   25  H   UNL     1     -25.011  -4.272  -8.075  1.00  0.00     0.167 HD
ENDBRANCH  22  24
ENDBRANCH  21  22
ENDBRANCH  20  21
ENDBRANCH  19  20
ENDBRANCH  18  19
ENDBRANCH  17  18
ENDBRANCH  16  17
ENDBRANCH  15  16
ENDBRANCH  14  15
ENDBRANCH   1  14
TORSDOF 21
BEGIN_RES ARG D 557
REMARK  4 active torsions:
REMARK  status: ('A' for Active; 'I' for Inactive)
REMARK    1  A    between atoms: CA   and  CB  
REMARK    2  A    between atoms: CB   and  CG  
REMARK    3  A    between atoms: CG   and  CD  
REMARK    4  A    between atoms: CD   and  NE  
REMARK       I    between atoms: NE   and  CZ  
REMARK       I    between atoms: CZ   and  NH1 
REMARK       I    between atoms: CZ   and  NH2 
ROOT
ATOM      1  CA  ARG D 557     -26.217   2.705 -17.014  1.00 35.49     0.159 C 
ENDROOT
BRANCH   1   2
ATOM      2  CB  ARG D 557     -26.789   1.319 -17.183  1.00 35.49     0.034 C 
BRANCH   2   3
ATOM      3  CG  ARG D 557     -25.878   0.194 -16.938  1.00 35.49     0.027 C 
BRANCH   3   4
ATOM      4  CD  ARG D 557     -26.425  -0.772 -15.958  1.00 35.49     0.116 C 
BRANCH   4   5
ATOM      5  NE  ARG D 557     -25.515  -1.015 -14.871  1.00 35.49    -0.212 N 
ATOM      6  CZ  ARG D 557     -25.286  -2.180 -14.307  1.00 35.49     0.666 C 
ATOM      7  NH1 ARG D 557     -25.901  -3.285 -14.687  1.00 35.49    -0.235 N 
ATOM      8  NH2 ARG D 557     -24.410  -2.220 -13.345  1.00 35.49    -0.235 N 
ATOM      9  HH  ARG D 557     -26.479  -3.283 -15.319  1.00 35.49     0.174 HD
ATOM     10  HH  ARG D 557     -25.709  -4.017 -14.284  1.00 35.49     0.174 HD
ATOM     11  HH  ARG D 557     -24.023  -1.492 -13.126  1.00 35.49     0.174 HD
ATOM     12  HH  ARG D 557     -24.232  -2.954 -12.960  1.00 35.49     0.174 HD
ATOM     13  HE  ARG D 557     -25.129  -0.346 -14.515  1.00 35.49     0.178 HD
ENDBRANCH   4   5
ENDBRANCH   3   4
ENDBRANCH   2   3
ENDBRANCH   1   2
END_RES ARG D 557
BEGIN_RES GLU D 570
REMARK  3 active torsions:
REMARK  status: ('A' for Active; 'I' for Inactive)
REMARK    5  A    between atoms: CA   and  CB  
REMARK    6  A    between atoms: CB   and  CG  
REMARK    7  A    between atoms: CG   and  CD  
ROOT
ATOM     14  CA  GLU D 570     -18.033  -6.348 -13.375  1.00 32.92     0.160 C 
ENDROOT
BRANCH  14  15
ATOM     15  CB  GLU D 570     -19.500  -6.345 -13.794  1.00 32.92     0.043 C 
BRANCH  15  16
ATOM     16  CG  GLU D 570     -20.406  -5.388 -13.108  1.00 32.92     0.100 C 
BRANCH  16  17
ATOM     17  CD  GLU D 570     -21.641  -5.063 -13.915  1.00 32.92     0.185 C 
ATOM     18  OE1 GLU D 570     -21.897  -5.741 -14.929  1.00 32.92    -0.647 OA
ATOM     19  OE2 GLU D 570     -22.350  -4.109 -13.540  1.00 32.92    -0.647 OA
ENDBRANCH  16  17
ENDBRANCH  15  16
ENDBRANCH  14  15
END_RES GLU D 570
ENDMDL
MODEL 5
REMARK VINA RESULT:      -6.5      1.832      2.777
REMARK  21 active torsions:
REMARK  status: ('A' for Active; 'I' for Inactive)
REMARK    1  A    between atoms: C_2  and  C_3 
REMARK    2  A    between atoms: C_3  and  C_4 
REMARK    3  A    between atoms: C_4  and  C_5 
REMARK    4  A    between atoms: C_5  and  C_6 
REMARK    5  A    between atoms: C_6  and  C_7 
REMARK    6  A    between atoms: C_7  and  C_8 
REMARK    7  A    between atoms: C_8  and  C_9 
REMARK    8  A    between atoms: C_9  and  C_10 
REMARK    9  A    between atoms: C_10  and  C_11 
REMARK   10  A    between atoms: C_11  and  C_12 
REMARK   11  A    between atoms: C_12  and  C_13 
REMARK   12  A    between atoms: C_13  and  C_14 
REMARK   13  A    between atoms: C_14  and  C_15 
REMARK   14  A    between atoms: C_15  and  C_16 
REMARK   15  A    between atoms: C_16  and  C_17 
REMARK   16  A    between atoms: C_17  and  C_18 
REMARK   17  A    between atoms: C_18  and  C_19 
REMARK   18  A    between atoms: C_19  and  C_20 
REMARK   19  A    between atoms: C_20  and  C_21 
REMARK   20  A    between atoms: C_21  and  C_22 
REMARK   21  A    between atoms: C_22  and  O_24 
ROOT
HETATM    1  C   UNL     1     -20.026  -5.902  -6.245  1.00  0.00     0.000 C 
ENDROOT
BRANCH   1   2
HETATM    2  C   UNL     1     -20.919  -5.638  -5.049  1.00  0.00     0.000 C 
BRANCH   2   3
HETATM    3  C   UNL     1     -21.932  -6.758  -4.905  1.00  0.00     0.000 C 
BRANCH   3   4
HETATM    4  C   UNL     1     -21.633  -7.567  -3.658  1.00  0.00     0.000 C 
BRANCH   4   5
HETATM    5  C   UNL     1     -21.239  -6.640  -2.525  1.00  0.00     0.000 C 
BRANCH   5   6
HETATM    6  C   UNL     1     -22.353  -6.575  -1.499  1.00  0.00     0.000 C 
BRANCH   6   7
HETATM    7  C   UNL     1     -21.988  -7.409  -0.286  1.00  0.00     0.000 C 
BRANCH   7   8
HETATM    8  C   UNL     1     -23.221  -8.111   0.248  1.00  0.00     0.000 C 
BRANCH   8   9
HETATM    9  C   UNL     1     -23.110  -9.605   0.010  1.00  0.00     0.000 C 
BRANCH   9  10
HETATM   10  C   UNL     1     -21.662  -9.984  -0.241  1.00  0.00     0.000 C 
BRANCH  10  11
HETATM   11  C   UNL     1     -21.557 -10.843  -1.488  1.00  0.00    -0.000 C 
BRANCH  11  12
HETATM   12  C   UNL     1     -22.914 -10.962  -2.165  1.00  0.00    -0.005 C 
HETATM   13  C   UNL     1     -22.738 -11.130  -3.661  1.00  0.00     0.005 C 
ENDBRANCH  11  12
ENDBRANCH  10  11
ENDBRANCH   9  10
ENDBRANCH   8   9
ENDBRANCH   7   8
ENDBRANCH   6   7
ENDBRANCH   5   6
ENDBRANCH   4   5
ENDBRANCH   3   4
ENDBRANCH   2   3
ENDBRANCH   1   2
BRANCH   1  14
HETATM   14  C   UNL     1     -19.731  -4.599  -6.965  1.00  0.00     0.000 C 
BRANCH  14  15
HETATM   15  C   UNL     1     -20.031  -4.747  -8.444  1.00  0.00     0.000 C 
BRANCH  15  16
HETATM   16  C   UNL     1     -21.532  -4.713  -8.673  1.00  0.00     0.000 C 
BRANCH  16  17
HETATM   17  C   UNL     1     -21.864  -3.737  -9.788  1.00  0.00     0.000 C 
BRANCH  17  18
HETATM   18  C   UNL     1     -21.179  -4.159 -11.078  1.00  0.00     0.000 C 
BRANCH  18  19
HETATM   19  C   UNL     1     -22.122  -3.972 -12.260  1.00  0.00     0.001 C 
BRANCH  19  20
HETATM   20  C   UNL     1     -23.084  -2.825 -11.991  1.00  0.00     0.010 C 
BRANCH  20  21
HETATM   21  C   UNL     1     -24.356  -2.917 -12.842  1.00  0.00     0.110 C 
BRANCH  21  22
HETATM   22  C   UNL     1     -23.986  -3.113 -14.291  1.00  0.00     0.139 C 
HETATM   23  O   UNL     1     -23.409  -2.273 -14.979  1.00  0.00    -0.650 OA
BRANCH  22  24
HETATM   24  O   UNL     1     -24.335  -4.304 -14.808  1.00  0.00    -0.776 OA
HETATM   25  H   UNL     1     -24.585  -4.995 -14.166  1.00  0.00     0.167 HD
ENDBRANCH  22  24
ENDBRANCH  21  22
ENDBRANCH  20  21
ENDBRANCH  19  20
ENDBRANCH  18  19
ENDBRANCH  17  18
ENDBRANCH  16  17
ENDBRANCH  15  16
ENDBRANCH  14  15
ENDBRANCH   1  14
TORSDOF 21
BEGIN_RES ARG D 557
REMARK  4 active torsions:
REMARK  status: ('A' for Active; 'I' for Inactive)
REMARK    1  A    between atoms: CA   and  CB  
REMARK    2  A    between atoms: CB   and  CG  
REMARK    3  A    between atoms: CG   and  CD  
REMARK    4  A    between atoms: CD   and  NE  
REMARK       I    between atoms: NE   and  CZ  
REMARK       I    between atoms: CZ   and  NH1 
REMARK       I    between atoms: CZ   and  NH2 
ROOT
ATOM      1  CA  ARG D 557     -26.217   2.705 -17.014  1.00 35.49     0.159 C 
ENDROOT
BRANCH   1   2
ATOM      2  CB  ARG D 557     -26.789   1.319 -17.183  1.00 35.49     0.034 C 
BRANCH   2   3
ATOM      3  CG  ARG D 557     -28.235   1.225 -17.419  1.00 35.49     0.027 C 
BRANCH   3   4
ATOM      4  CD  ARG D 557     -28.900   0.292 -16.482  1.00 35.49     0.116 C 
BRANCH   4   5
ATOM      5  NE  ARG D 557     -29.300  -0.931 -17.127  1.00 35.49    -0.212 N 
ATOM      6  CZ  ARG D 557     -28.675  -2.085 -17.041  1.00 35.49     0.666 C 
ATOM      7  NH1 ARG D 557     -27.568  -2.241 -16.338  1.00 35.49    -0.235 N 
ATOM      8  NH2 ARG D 557     -29.192  -3.096 -17.676  1.00 35.49    -0.235 N 
ATOM      9  HH  ARG D 557     -27.212  -1.589 -15.911  1.00 35.49     0.174 HD
ATOM     10  HH  ARG D 557     -27.206  -3.017 -16.317  1.00 35.49     0.174 HD
ATOM     11  HH  ARG D 557     -29.911  -2.967 -18.116  1.00 35.49     0.174 HD
ATOM     12  HH  ARG D 557     -28.819  -3.857 -17.641  1.00 35.49     0.174 HD
ATOM     13  HE  ARG D 557     -29.963  -0.904 -17.659  1.00 35.49     0.178 HD
ENDBRANCH   4   5
ENDBRANCH   3   4
ENDBRANCH   2   3
ENDBRANCH   1   2
END_RES ARG D 557
BEGIN_RES GLU D 570
REMARK  3 active torsions:
REMARK  status: ('A' for Active; 'I' for Inactive)
REMARK    5  A    between atoms: CA   and  CB  
REMARK    6  A    between atoms: CB   and  CG  
REMARK    7  A    between atoms: CG   and  CD  
ROOT
ATOM     14  CA  GLU D 570     -18.033  -6.348 -13.375  1.00 32.92     0.160 C 
ENDROOT
BRANCH  14  15
ATOM     15  CB  GLU D 570     -19.500  -6.345 -13.794  1.00 32.92     0.043 C 
BRANCH  15  16
ATOM     16  CG  GLU D 570     -19.807  -6.018 -15.211  1.00 32.92     0.100 C 
BRANCH  16  17
ATOM     17  CD  GLU D 570     -21.269  -5.719 -15.443  1.00 32.92     0.185 C 
ATOM     18  OE1 GLU D 570     -22.128  -6.411 -14.863  1.00 32.92    -0.647 OA
ATOM     19  OE2 GLU D 570     -21.560  -4.794 -16.227  1.00 32.92    -0.647 OA
ENDBRANCH  16  17
ENDBRANCH  15  16
ENDBRANCH  14  15
END_RES GLU D 570
ENDMDL
MODEL 6
REMARK VINA RESULT:      -6.5      1.601      2.983
REMARK  21 active torsions:
REMARK  status: ('A' for Active; 'I' for Inactive)
REMARK    1  A    between atoms: C_2  and  C_3 
REMARK    2  A    between atoms: C_3  and  C_4 
REMARK    3  A    between atoms: C_4  and  C_5 
REMARK    4  A    between atoms: C_5  and  C_6 
REMARK    5  A    between atoms: C_6  and  C_7 
REMARK    6  A    between atoms: C_7  and  C_8 
REMARK    7  A    between atoms: C_8  and  C_9 
REMARK    8  A    between atoms: C_9  and  C_10 
REMARK    9  A    between atoms: C_10  and  C_11 
REMARK   10  A    between atoms: C_11  and  C_12 
REMARK   11  A    between atoms: C_12  and  C_13 
REMARK   12  A    between atoms: C_13  and  C_14 
REMARK   13  A    between atoms: C_14  and  C_15 
REMARK   14  A    between atoms: C_15  and  C_16 
REMARK   15  A    between atoms: C_16  and  C_17 
REMARK   16  A    between atoms: C_17  and  C_18 
REMARK   17  A    between atoms: C_18  and  C_19 
REMARK   18  A    between atoms: C_19  and  C_20 
REMARK   19  A    between atoms: C_20  and  C_21 
REMARK   20  A    between atoms: C_21  and  C_22 
REMARK   21  A    between atoms: C_22  and  O_24 
ROOT
HETATM    1  C   UNL     1     -19.464  -4.638  -6.884  1.00  0.00     0.000 C 
ENDROOT
BRANCH   1   2
HETATM    2  C   UNL     1     -20.110  -5.185  -5.626  1.00  0.00     0.000 C 
BRANCH   2   3
HETATM    3  C   UNL     1     -20.852  -6.470  -5.944  1.00  0.00     0.000 C 
BRANCH   3   4
HETATM    4  C   UNL     1     -21.109  -7.246  -4.667  1.00  0.00     0.000 C 
BRANCH   4   5
HETATM    5  C   UNL     1     -22.238  -6.598  -3.889  1.00  0.00     0.000 C 
BRANCH   5   6
HETATM    6  C   UNL     1     -21.747  -6.184  -2.515  1.00  0.00     0.000 C 
BRANCH   6   7
HETATM    7  C   UNL     1     -21.543  -7.411  -1.649  1.00  0.00     0.000 C 
BRANCH   7   8
HETATM    8  C   UNL     1     -22.504  -7.380  -0.475  1.00  0.00     0.000 C 
BRANCH   8   9
HETATM    9  C   UNL     1     -22.012  -8.306   0.621  1.00  0.00     0.000 C 
BRANCH   9  10
HETATM   10  C   UNL     1     -22.095  -9.749   0.156  1.00  0.00     0.000 C 
BRANCH  10  11
HETATM   11  C   UNL     1     -23.546 -10.145  -0.054  1.00  0.00    -0.000 C 
BRANCH  11  12
HETATM   12  C   UNL     1     -23.675 -11.061  -1.263  1.00  0.00    -0.005 C 
HETATM   13  C   UNL     1     -22.378 -11.077  -2.046  1.00  0.00     0.005 C 
ENDBRANCH  11  12
ENDBRANCH  10  11
ENDBRANCH   9  10
ENDBRANCH   8   9
ENDBRANCH   7   8
ENDBRANCH   6   7
ENDBRANCH   5   6
ENDBRANCH   4   5
ENDBRANCH   3   4
ENDBRANCH   2   3
ENDBRANCH   1   2
BRANCH   1  14
HETATM   14  C   UNL     1     -20.132  -5.236  -8.107  1.00  0.00     0.000 C 
BRANCH  14  15
HETATM   15  C   UNL     1     -20.566  -4.131  -9.050  1.00  0.00     0.000 C 
BRANCH  15  16
HETATM   16  C   UNL     1     -20.270  -4.527 -10.485  1.00  0.00     0.000 C 
BRANCH  16  17
HETATM   17  C   UNL     1     -20.426  -3.324 -11.398  1.00  0.00     0.000 C 
BRANCH  17  18
HETATM   18  C   UNL     1     -21.886  -3.141 -11.781  1.00  0.00     0.000 C 
BRANCH  18  19
HETATM   19  C   UNL     1     -22.423  -4.411 -12.431  1.00  0.00     0.001 C 
BRANCH  19  20
HETATM   20  C   UNL     1     -23.833  -4.699 -11.939  1.00  0.00     0.010 C 
BRANCH  20  21
HETATM   21  C   UNL     1     -23.877  -5.009 -10.438  1.00  0.00     0.110 C 
BRANCH  21  22
HETATM   22  C   UNL     1     -24.557  -3.880  -9.705  1.00  0.00     0.139 C 
HETATM   23  O   UNL     1     -25.395  -3.134 -10.207  1.00  0.00    -0.650 OA
BRANCH  22  24
HETATM   24  O   UNL     1     -24.183  -3.730  -8.423  1.00  0.00    -0.776 OA
HETATM   25  H   UNL     1     -23.729  -4.493  -8.016  1.00  0.00     0.167 HD
ENDBRANCH  22  24
ENDBRANCH  21  22
ENDBRANCH  20  21
ENDBRANCH  19  20
ENDBRANCH  18  19
ENDBRANCH  17  18
ENDBRANCH  16  17
ENDBRANCH  15  16
ENDBRANCH  14  15
ENDBRANCH   1  14
TORSDOF 21
BEGIN_RES ARG D 557
REMARK  4 active torsions:
REMARK  status: ('A' for Active; 'I' for Inactive)
REMARK    1  A    between atoms: CA   and  CB  
REMARK    2  A    between atoms: CB   and  CG  
REMARK    3  A    between atoms: CG   and  CD  
REMARK    4  A    between atoms: CD   and  NE  
REMARK       I    between atoms: NE   and  CZ  
REMARK       I    between atoms: CZ   and  NH1 
REMARK       I    between atoms: CZ   and  NH2 
ROOT
ATOM      1  CA  ARG D 557     -26.217   2.705 -17.014  1.00 35.49     0.159 C 
ENDROOT
BRANCH   1   2
ATOM      2  CB  ARG D 557     -26.789   1.319 -17.183  1.00 35.49     0.034 C 
BRANCH   2   3
ATOM      3  CG  ARG D 557     -25.949   0.199 -16.741  1.00 35.49     0.027 C 
BRANCH   3   4
ATOM      4  CD  ARG D 557     -26.730  -0.856 -16.056  1.00 35.49     0.116 C 
BRANCH   4   5
ATOM      5  NE  ARG D 557     -27.988  -1.109 -16.708  1.00 35.49    -0.212 N 
ATOM      6  CZ  ARG D 557     -28.503  -2.294 -16.949  1.00 35.49     0.666 C 
ATOM      7  NH1 ARG D 557     -27.890  -3.415 -16.617  1.00 35.49    -0.235 N 
ATOM      8  NH2 ARG D 557     -29.666  -2.336 -17.532  1.00 35.49    -0.235 N 
ATOM      9  HH  ARG D 557     -27.125  -3.411 -16.230  1.00 35.49     0.174 HD
ATOM     10  HH  ARG D 557     -28.276  -4.159 -16.796  1.00 35.49     0.174 HD
ATOM     11  HH  ARG D 557     -30.042  -1.596 -17.728  1.00 35.49     0.174 HD
ATOM     12  HH  ARG D 557     -30.032  -3.082 -17.700  1.00 35.49     0.174 HD
ATOM     13  HE  ARG D 557     -28.417  -0.445 -17.021  1.00 35.49     0.178 HD
ENDBRANCH   4   5
ENDBRANCH   3   4
ENDBRANCH   2   3
ENDBRANCH   1   2
END_RES ARG D 557
BEGIN_RES GLU D 570
REMARK  3 active torsions:
REMARK  status: ('A' for Active; 'I' for Inactive)
REMARK    5  A    between atoms: CA   and  CB  
REMARK    6  A    between atoms: CB   and  CG  
REMARK    7  A    between atoms: CG   and  CD  
ROOT
ATOM     14  CA  GLU D 570     -18.033  -6.348 -13.375  1.00 32.92     0.160 C 
ENDROOT
BRANCH  14  15
ATOM     15  CB  GLU D 570     -19.500  -6.345 -13.794  1.00 32.92     0.043 C 
BRANCH  15  16
ATOM     16  CG  GLU D 570     -19.797  -6.448 -15.246  1.00 32.92     0.100 C 
BRANCH  16  17
ATOM     17  CD  GLU D 570     -20.950  -7.378 -15.547  1.00 32.92     0.185 C 
ATOM     18  OE1 GLU D 570     -22.112  -6.930 -15.523  1.00 32.92    -0.647 OA
ATOM     19  OE2 GLU D 570     -20.688  -8.572 -15.793  1.00 32.92    -0.647 OA
ENDBRANCH  16  17
ENDBRANCH  15  16
ENDBRANCH  14  15
END_RES GLU D 570
ENDMDL
MODEL 7
REMARK VINA RESULT:      -6.5      1.582      2.418
REMARK  21 active torsions:
REMARK  status: ('A' for Active; 'I' for Inactive)
REMARK    1  A    between atoms: C_2  and  C_3 
REMARK    2  A    between atoms: C_3  and  C_4 
REMARK    3  A    between atoms: C_4  and  C_5 
REMARK    4  A    between atoms: C_5  and  C_6 
REMARK    5  A    between atoms: C_6  and  C_7 
REMARK    6  A    between atoms: C_7  and  C_8 
REMARK    7  A    between atoms: C_8  and  C_9 
REMARK    8  A    between atoms: C_9  and  C_10 
REMARK    9  A    between atoms: C_10  and  C_11 
REMARK   10  A    between atoms: C_11  and  C_12 
REMARK   11  A    between atoms: C_12  and  C_13 
REMARK   12  A    between atoms: C_13  and  C_14 
REMARK   13  A    between atoms: C_14  and  C_15 
REMARK   14  A    between atoms: C_15  and  C_16 
REMARK   15  A    between atoms: C_16  and  C_17 
REMARK   16  A    between atoms: C_17  and  C_18 
REMARK   17  A    between atoms: C_18  and  C_19 
REMARK   18  A    between atoms: C_19  and  C_20 
REMARK   19  A    between atoms: C_20  and  C_21 
REMARK   20  A    between atoms: C_21  and  C_22 
REMARK   21  A    between atoms: C_22  and  O_24 
ROOT
HETATM    1  C   UNL     1     -21.938  -6.353  -3.120  1.00  0.00     0.000 C 
ENDROOT
BRANCH   1   2
HETATM    2  C   UNL     1     -20.735  -7.138  -2.637  1.00  0.00     0.000 C 
BRANCH   2   3
HETATM    3  C   UNL     1     -20.986  -7.654  -1.233  1.00  0.00     0.000 C 
BRANCH   3   4
HETATM    4  C   UNL     1     -22.287  -7.086  -0.701  1.00  0.00     0.000 C 
BRANCH   4   5
HETATM    5  C   UNL     1     -22.997  -8.127   0.142  1.00  0.00     0.000 C 
BRANCH   5   6
HETATM    6  C   UNL     1     -22.264  -9.451   0.055  1.00  0.00     0.000 C 
BRANCH   6   7
HETATM    7  C   UNL     1     -23.003 -10.391  -0.877  1.00  0.00     0.000 C 
BRANCH   7   8
HETATM    8  C   UNL     1     -24.048 -11.171  -0.102  1.00  0.00     0.000 C 
BRANCH   8   9
HETATM    9  C   UNL     1     -23.688 -12.644  -0.088  1.00  0.00     0.000 C 
BRANCH   9  10
HETATM   10  C   UNL     1     -22.839 -12.959   1.130  1.00  0.00     0.000 C 
BRANCH  10  11
HETATM   11  C   UNL     1     -23.570 -13.933   2.036  1.00  0.00    -0.000 C 
BRANCH  11  12
HETATM   12  C   UNL     1     -22.692 -15.138   2.339  1.00  0.00    -0.005 C 
HETATM   13  C   UNL     1     -22.169 -15.059   3.759  1.00  0.00     0.005 C 
ENDBRANCH  11  12
ENDBRANCH  10  11
ENDBRANCH   9  10
ENDBRANCH   8   9
ENDBRANCH   7   8
ENDBRANCH   6   7
ENDBRANCH   5   6
ENDBRANCH   4   5
ENDBRANCH   3   4
ENDBRANCH   2   3
ENDBRANCH   1   2
BRANCH   1  14
HETATM   14  C   UNL     1     -22.244  -6.714  -4.562  1.00  0.00     0.000 C 
BRANCH  14  15
HETATM   15  C   UNL     1     -20.952  -6.852  -5.344  1.00  0.00     0.000 C 
BRANCH  15  16
HETATM   16  C   UNL     1     -21.072  -6.126  -6.672  1.00  0.00     0.000 C 
BRANCH  16  17
HETATM   17  C   UNL     1     -20.712  -4.660  -6.496  1.00  0.00     0.000 C 
BRANCH  17  18
HETATM   18  C   UNL     1     -21.464  -3.810  -7.507  1.00  0.00     0.000 C 
BRANCH  18  19
HETATM   19  C   UNL     1     -21.040  -4.179  -8.924  1.00  0.00     0.001 C 
BRANCH  19  20
HETATM   20  C   UNL     1     -22.243  -4.163  -9.855  1.00  0.00     0.010 C 
BRANCH  20  21
HETATM   21  C   UNL     1     -23.555  -3.896  -9.109  1.00  0.00     0.110 C 
BRANCH  21  22
HETATM   22  C   UNL     1     -24.585  -3.355 -10.069  1.00  0.00     0.139 C 
HETATM   23  O   UNL     1     -24.335  -2.975 -11.212  1.00  0.00    -0.650 OA
BRANCH  22  24
HETATM   24  O   UNL     1     -25.839  -3.308  -9.588  1.00  0.00    -0.776 OA
HETATM   25  H   UNL     1     -26.464  -2.734 -10.071  1.00  0.00     0.167 HD
ENDBRANCH  22  24
ENDBRANCH  21  22
ENDBRANCH  20  21
ENDBRANCH  19  20
ENDBRANCH  18  19
ENDBRANCH  17  18
ENDBRANCH  16  17
ENDBRANCH  15  16
ENDBRANCH  14  15
ENDBRANCH   1  14
TORSDOF 21
BEGIN_RES ARG D 557
REMARK  4 active torsions:
REMARK  status: ('A' for Active; 'I' for Inactive)
REMARK    1  A    between atoms: CA   and  CB  
REMARK    2  A    between atoms: CB   and  CG  
REMARK    3  A    between atoms: CG   and  CD  
REMARK    4  A    between atoms: CD   and  NE  
REMARK       I    between atoms: NE   and  CZ  
REMARK       I    between atoms: CZ   and  NH1 
REMARK       I    between atoms: CZ   and  NH2 
ROOT
ATOM      1  CA  ARG D 557     -26.217   2.705 -17.014  1.00 35.49     0.159 C 
ENDROOT
BRANCH   1   2
ATOM      2  CB  ARG D 557     -26.789   1.319 -17.183  1.00 35.49     0.034 C 
BRANCH   2   3
ATOM      3  CG  ARG D 557     -25.840   0.201 -17.121  1.00 35.49     0.027 C 
BRANCH   3   4
ATOM      4  CD  ARG D 557     -25.347  -0.045 -15.746  1.00 35.49     0.116 C 
BRANCH   4   5
ATOM      5  NE  ARG D 557     -25.643  -1.378 -15.293  1.00 35.49    -0.212 N 
ATOM      6  CZ  ARG D 557     -24.931  -2.074 -14.436  1.00 35.49     0.666 C 
ATOM      7  NH1 ARG D 557     -23.821  -1.609 -13.893  1.00 35.49    -0.235 N 
ATOM      8  NH2 ARG D 557     -25.362  -3.261 -14.122  1.00 35.49    -0.235 N 
ATOM      9  HH  ARG D 557     -23.520  -0.830 -14.084  1.00 35.49     0.174 HD
ATOM     10  HH  ARG D 557     -23.400  -2.107 -13.338  1.00 35.49     0.174 HD
ATOM     11  HH  ARG D 557     -26.086  -3.533 -14.482  1.00 35.49     0.174 HD
ATOM     12  HH  ARG D 557     -24.931  -3.739 -13.569  1.00 35.49     0.174 HD
ATOM     13  HE  ARG D 557     -26.302  -1.782 -15.647  1.00 35.49     0.178 HD
ENDBRANCH   4   5
ENDBRANCH   3   4
ENDBRANCH   2   3
ENDBRANCH   1   2
END_RES ARG D 557
BEGIN_RES GLU D 570
REMARK  3 active torsions:
REMARK  status: ('A' for Active; 'I' for Inactive)
REMARK    5  A    between atoms: CA   and  CB  
REMARK    6  A    between atoms: CB   and  CG  
REMARK    7  A    between atoms: CG   and  CD  
ROOT
ATOM     14  CA  GLU D 570     -18.033  -6.348 -13.375  1.00 32.92     0.160 C 
ENDROOT
BRANCH  14  15
ATOM     15  CB  GLU D 570     -19.500  -6.345 -13.794  1.00 32.92     0.043 C 
BRANCH  15  16
ATOM     16  CG  GLU D 570     -20.442  -5.529 -12.984  1.00 32.92     0.100 C 
BRANCH  16  17
ATOM     17  CD  GLU D 570     -21.744  -5.251 -13.698  1.00 32.92     0.185 C 
ATOM     18  OE1 GLU D 570     -22.307  -4.153 -13.524  1.00 32.92    -0.647 OA
ATOM     19  OE2 GLU D 570     -22.215  -6.147 -14.425  1.00 32.92    -0.647 OA
ENDBRANCH  16  17
ENDBRANCH  15  16
ENDBRANCH  14  15
END_RES GLU D 570
ENDMDL
MODEL 8
REMARK VINA RESULT:      -6.3      2.270      3.402
REMARK  21 active torsions:
REMARK  status: ('A' for Active; 'I' for Inactive)
REMARK    1  A    between atoms: C_2  and  C_3 
REMARK    2  A    between atoms: C_3  and  C_4 
REMARK    3  A    between atoms: C_4  and  C_5 
REMARK    4  A    between atoms: C_5  and  C_6 
REMARK    5  A    between atoms: C_6  and  C_7 
REMARK    6  A    between atoms: C_7  and  C_8 
REMARK    7  A    between atoms: C_8  and  C_9 
REMARK    8  A    between atoms: C_9  and  C_10 
REMARK    9  A    between atoms: C_10  and  C_11 
REMARK   10  A    between atoms: C_11  and  C_12 
REMARK   11  A    between atoms: C_12  and  C_13 
REMARK   12  A    between atoms: C_13  and  C_14 
REMARK   13  A    between atoms: C_14  and  C_15 
REMARK   14  A    between atoms: C_15  and  C_16 
REMARK   15  A    between atoms: C_16  and  C_17 
REMARK   16  A    between atoms: C_17  and  C_18 
REMARK   17  A    between atoms: C_18  and  C_19 
REMARK   18  A    between atoms: C_19  and  C_20 
REMARK   19  A    between atoms: C_20  and  C_21 
REMARK   20  A    between atoms: C_21  and  C_22 
REMARK   21  A    between atoms: C_22  and  O_24 
ROOT
HETATM    1  C   UNL     1     -21.594  -6.232  -2.716  1.00  0.00     0.000 C 
ENDROOT
BRANCH   1   2
HETATM    2  C   UNL     1     -22.273  -6.473  -1.382  1.00  0.00     0.000 C 
BRANCH   2   3
HETATM    3  C   UNL     1     -21.627  -7.652  -0.680  1.00  0.00     0.000 C 
BRANCH   3   4
HETATM    4  C   UNL     1     -22.688  -8.481   0.018  1.00  0.00     0.000 C 
BRANCH   4   5
HETATM    5  C   UNL     1     -22.326  -9.951  -0.058  1.00  0.00     0.000 C 
BRANCH   5   6
HETATM    6  C   UNL     1     -23.217 -10.651  -1.065  1.00  0.00     0.000 C 
BRANCH   6   7
HETATM    7  C   UNL     1     -22.457 -10.879  -2.356  1.00  0.00     0.000 C 
BRANCH   7   8
HETATM    8  C   UNL     1     -20.979 -11.047  -2.063  1.00  0.00     0.000 C 
BRANCH   8   9
HETATM    9  C   UNL     1     -20.261 -11.557  -3.298  1.00  0.00     0.000 C 
BRANCH   9  10
HETATM   10  C   UNL     1     -19.254 -10.526  -3.776  1.00  0.00     0.000 C 
BRANCH  10  11
HETATM   11  C   UNL     1     -18.540  -9.908  -2.589  1.00  0.00    -0.000 C 
BRANCH  11  12
HETATM   12  C   UNL     1     -17.154 -10.516  -2.428  1.00  0.00    -0.005 C 
HETATM   13  C   UNL     1     -16.096  -9.530  -2.878  1.00  0.00     0.005 C 
ENDBRANCH  11  12
ENDBRANCH  10  11
ENDBRANCH   9  10
ENDBRANCH   8   9
ENDBRANCH   7   8
ENDBRANCH   6   7
ENDBRANCH   5   6
ENDBRANCH   4   5
ENDBRANCH   3   4
ENDBRANCH   2   3
ENDBRANCH   1   2
BRANCH   1  14
HETATM   14  C   UNL     1     -21.173  -7.556  -3.326  1.00  0.00     0.000 C 
BRANCH  14  15
HETATM   15  C   UNL     1     -21.693  -7.657  -4.747  1.00  0.00     0.000 C 
BRANCH  15  16
HETATM   16  C   UNL     1     -22.044  -6.276  -5.270  1.00  0.00     0.000 C 
BRANCH  16  17
HETATM   17  C   UNL     1     -21.231  -5.972  -6.516  1.00  0.00     0.000 C 
BRANCH  17  18
HETATM   18  C   UNL     1     -20.749  -4.530  -6.490  1.00  0.00     0.000 C 
BRANCH  18  19
HETATM   19  C   UNL     1     -21.289  -3.772  -7.697  1.00  0.00     0.001 C 
BRANCH  19  20
HETATM   20  C   UNL     1     -21.969  -4.732  -8.661  1.00  0.00     0.010 C 
BRANCH  20  21
HETATM   21  C   UNL     1     -22.441  -4.036  -9.943  1.00  0.00     0.110 C 
BRANCH  21  22
HETATM   22  C   UNL     1     -23.856  -3.545  -9.765  1.00  0.00     0.139 C 
HETATM   23  O   UNL     1     -24.524  -3.020 -10.653  1.00  0.00    -0.650 OA
BRANCH  22  24
HETATM   24  O   UNL     1     -24.365  -3.721  -8.534  1.00  0.00    -0.776 OA
HETATM   25  H   UNL     1     -25.194  -3.243  -8.339  1.00  0.00     0.167 HD
ENDBRANCH  22  24
ENDBRANCH  21  22
ENDBRANCH  20  21
ENDBRANCH  19  20
ENDBRANCH  18  19
ENDBRANCH  17  18
ENDBRANCH  16  17
ENDBRANCH  15  16
ENDBRANCH  14  15
ENDBRANCH   1  14
TORSDOF 21
BEGIN_RES ARG D 557
REMARK  4 active torsions:
REMARK  status: ('A' for Active; 'I' for Inactive)
REMARK    1  A    between atoms: CA   and  CB  
REMARK    2  A    between atoms: CB   and  CG  
REMARK    3  A    between atoms: CG   and  CD  
REMARK    4  A    between atoms: CD   and  NE  
REMARK       I    between atoms: NE   and  CZ  
REMARK       I    between atoms: CZ   and  NH1 
REMARK       I    between atoms: CZ   and  NH2 
ROOT
ATOM      1  CA  ARG D 557     -26.217   2.705 -17.014  1.00 35.49     0.159 C 
ENDROOT
BRANCH   1   2
ATOM      2  CB  ARG D 557     -26.789   1.319 -17.183  1.00 35.49     0.034 C 
BRANCH   2   3
ATOM      3  CG  ARG D 557     -25.837   0.202 -17.143  1.00 35.49     0.027 C 
BRANCH   3   4
ATOM      4  CD  ARG D 557     -24.766   0.410 -16.142  1.00 35.49     0.116 C 
BRANCH   4   5
ATOM      5  NE  ARG D 557     -24.930  -0.435 -14.988  1.00 35.49    -0.212 N 
ATOM      6  CZ  ARG D 557     -24.133  -1.419 -14.636  1.00 35.49     0.666 C 
ATOM      7  NH1 ARG D 557     -23.067  -1.754 -15.340  1.00 35.49    -0.235 N 
ATOM      8  NH2 ARG D 557     -24.424  -2.066 -13.546  1.00 35.49    -0.235 N 
ATOM      9  HH  ARG D 557     -22.856  -1.340 -16.060  1.00 35.49     0.174 HD
ATOM     10  HH  ARG D 557     -22.582  -2.403 -15.060  1.00 35.49     0.174 HD
ATOM     11  HH  ARG D 557     -25.114  -1.823 -13.108  1.00 35.49     0.174 HD
ATOM     12  HH  ARG D 557     -23.931  -2.705 -13.284  1.00 35.49     0.174 HD
ATOM     13  HE  ARG D 557     -25.632  -0.336 -14.517  1.00 35.49     0.178 HD
ENDBRANCH   4   5
ENDBRANCH   3   4
ENDBRANCH   2   3
ENDBRANCH   1   2
END_RES ARG D 557
BEGIN_RES GLU D 570
REMARK  3 active torsions:
REMARK  status: ('A' for Active; 'I' for Inactive)
REMARK    5  A    between atoms: CA   and  CB  
REMARK    6  A    between atoms: CB   and  CG  
REMARK    7  A    between atoms: CG   and  CD  
ROOT
ATOM     14  CA  GLU D 570     -18.033  -6.348 -13.375  1.00 32.92     0.160 C 
ENDROOT
BRANCH  14  15
ATOM     15  CB  GLU D 570     -19.500  -6.345 -13.794  1.00 32.92     0.043 C 
BRANCH  15  16
ATOM     16  CG  GLU D 570     -20.443  -5.536 -12.979  1.00 32.92     0.100 C 
BRANCH  16  17
ATOM     17  CD  GLU D 570     -21.741  -5.246 -13.695  1.00 32.92     0.185 C 
ATOM     18  OE1 GLU D 570     -22.279  -4.132 -13.547  1.00 32.92    -0.647 OA
ATOM     19  OE2 GLU D 570     -22.236  -6.149 -14.399  1.00 32.92    -0.647 OA
ENDBRANCH  16  17
ENDBRANCH  15  16
ENDBRANCH  14  15
END_RES GLU D 570
ENDMDL
MODEL 9
REMARK VINA RESULT:      -6.0      2.779      6.170
REMARK  21 active torsions:
REMARK  status: ('A' for Active; 'I' for Inactive)
REMARK    1  A    between atoms: C_2  and  C_3 
REMARK    2  A    between atoms: C_3  and  C_4 
REMARK    3  A    between atoms: C_4  and  C_5 
REMARK    4  A    between atoms: C_5  and  C_6 
REMARK    5  A    between atoms: C_6  and  C_7 
REMARK    6  A    between atoms: C_7  and  C_8 
REMARK    7  A    between atoms: C_8  and  C_9 
REMARK    8  A    between atoms: C_9  and  C_10 
REMARK    9  A    between atoms: C_10  and  C_11 
REMARK   10  A    between atoms: C_11  and  C_12 
REMARK   11  A    between atoms: C_12  and  C_13 
REMARK   12  A    between atoms: C_13  and  C_14 
REMARK   13  A    between atoms: C_14  and  C_15 
REMARK   14  A    between atoms: C_15  and  C_16 
REMARK   15  A    between atoms: C_16  and  C_17 
REMARK   16  A    between atoms: C_17  and  C_18 
REMARK   17  A    between atoms: C_18  and  C_19 
REMARK   18  A    between atoms: C_19  and  C_20 
REMARK   19  A    between atoms: C_20  and  C_21 
REMARK   20  A    between atoms: C_21  and  C_22 
REMARK   21  A    between atoms: C_22  and  O_24 
ROOT
HETATM    1  C   UNL     1     -21.208  -4.203 -11.211  1.00  0.00     0.000 C 
ENDROOT
BRANCH   1   2
HETATM    2  C   UNL     1     -20.922  -4.299  -9.725  1.00  0.00     0.000 C 
BRANCH   2   3
HETATM    3  C   UNL     1     -22.211  -4.141  -8.941  1.00  0.00     0.000 C 
BRANCH   3   4
HETATM    4  C   UNL     1     -21.968  -4.465  -7.480  1.00  0.00     0.000 C 
BRANCH   4   5
HETATM    5  C   UNL     1     -20.570  -4.035  -7.082  1.00  0.00     0.000 C 
BRANCH   5   6
HETATM    6  C   UNL     1     -20.100  -4.844  -5.890  1.00  0.00     0.000 C 
BRANCH   6   7
HETATM    7  C   UNL     1     -20.415  -6.312  -6.105  1.00  0.00     0.000 C 
BRANCH   7   8
HETATM    8  C   UNL     1     -20.636  -6.994  -4.769  1.00  0.00     0.000 C 
BRANCH   8   9
HETATM    9  C   UNL     1     -21.905  -6.470  -4.124  1.00  0.00     0.000 C 
BRANCH   9  10
HETATM   10  C   UNL     1     -21.671  -6.225  -2.645  1.00  0.00     0.000 C 
BRANCH  10  11
HETATM   11  C   UNL     1     -21.841  -7.519  -1.869  1.00  0.00    -0.000 C 
BRANCH  11  12
HETATM   12  C   UNL     1     -22.443  -7.241  -0.500  1.00  0.00    -0.005 C 
HETATM   13  C   UNL     1     -21.768  -8.099   0.551  1.00  0.00     0.005 C 
ENDBRANCH  11  12
ENDBRANCH  10  11
ENDBRANCH   9  10
ENDBRANCH   8   9
ENDBRANCH   7   8
ENDBRANCH   6   7
ENDBRANCH   5   6
ENDBRANCH   4   5
ENDBRANCH   3   4
ENDBRANCH   2   3
ENDBRANCH   1   2
BRANCH   1  14
HETATM   14  C   UNL     1     -22.605  -3.653 -11.433  1.00  0.00     0.000 C 
BRANCH  14  15
HETATM   15  C   UNL     1     -22.976  -3.762 -12.899  1.00  0.00     0.000 C 
BRANCH  15  16
HETATM   16  C   UNL     1     -23.074  -5.222 -13.301  1.00  0.00     0.000 C 
BRANCH  16  17
HETATM   17  C   UNL     1     -23.357  -5.332 -14.789  1.00  0.00     0.000 C 
BRANCH  17  18
HETATM   18  C   UNL     1     -24.293  -6.498 -15.062  1.00  0.00     0.000 C 
BRANCH  18  19
HETATM   19  C   UNL     1     -25.566  -6.003 -15.739  1.00  0.00     0.001 C 
BRANCH  19  20
HETATM   20  C   UNL     1     -26.642  -7.078 -15.690  1.00  0.00     0.010 C 
BRANCH  20  21
HETATM   21  C   UNL     1     -28.057  -6.490 -15.725  1.00  0.00     0.110 C 
BRANCH  21  22
HETATM   22  C   UNL     1     -28.602  -6.560 -17.129  1.00  0.00     0.139 C 
HETATM   23  O   UNL     1     -28.574  -5.628 -17.930  1.00  0.00    -0.650 OA
BRANCH  22  24
HETATM   24  O   UNL     1     -29.142  -7.743 -17.469  1.00  0.00    -0.776 OA
HETATM   25  H   UNL     1     -28.518  -8.428 -17.776  1.00  0.00     0.167 HD
ENDBRANCH  22  24
ENDBRANCH  21  22
ENDBRANCH  20  21
ENDBRANCH  19  20
ENDBRANCH  18  19
ENDBRANCH  17  18
ENDBRANCH  16  17
ENDBRANCH  15  16
ENDBRANCH  14  15
ENDBRANCH   1  14
TORSDOF 21
BEGIN_RES ARG D 557
REMARK  4 active torsions:
REMARK  status: ('A' for Active; 'I' for Inactive)
REMARK    1  A    between atoms: CA   and  CB  
REMARK    2  A    between atoms: CB   and  CG  
REMARK    3  A    between atoms: CG   and  CD  
REMARK    4  A    between atoms: CD   and  NE  
REMARK       I    between atoms: NE   and  CZ  
REMARK       I    between atoms: CZ   and  NH1 
REMARK       I    between atoms: CZ   and  NH2 
ROOT
ATOM      1  CA  ARG D 557     -26.217   2.705 -17.014  1.00 35.49     0.159 C 
ENDROOT
BRANCH   1   2
ATOM      2  CB  ARG D 557     -26.789   1.319 -17.183  1.00 35.49     0.034 C 
BRANCH   2   3
ATOM      3  CG  ARG D 557     -28.249   1.191 -17.092  1.00 35.49     0.027 C 
BRANCH   3   4
ATOM      4  CD  ARG D 557     -28.668  -0.123 -16.554  1.00 35.49     0.116 C 
BRANCH   4   5
ATOM      5  NE  ARG D 557     -27.583  -0.816 -15.910  1.00 35.49    -0.212 N 
ATOM      6  CZ  ARG D 557     -27.307  -2.095 -16.033  1.00 35.49     0.666 C 
ATOM      7  NH1 ARG D 557     -28.033  -2.908 -16.778  1.00 35.49    -0.235 N 
ATOM      8  NH2 ARG D 557     -26.271  -2.550 -15.392  1.00 35.49    -0.235 N 
ATOM      9  HH  ARG D 557     -28.718  -2.630 -17.211  1.00 35.49     0.174 HD
ATOM     10  HH  ARG D 557     -27.804  -3.733 -16.823  1.00 35.49     0.174 HD
ATOM     11  HH  ARG D 557     -25.816  -2.001 -14.924  1.00 35.49     0.174 HD
ATOM     12  HH  ARG D 557     -26.059  -3.369 -15.450  1.00 35.49     0.174 HD
ATOM     13  HE  ARG D 557     -27.107  -0.383 -15.353  1.00 35.49     0.178 HD
ENDBRANCH   4   5
ENDBRANCH   3   4
ENDBRANCH   2   3
ENDBRANCH   1   2
END_RES ARG D 557
BEGIN_RES GLU D 570
REMARK  3 active torsions:
REMARK  status: ('A' for Active; 'I' for Inactive)
REMARK    5  A    between atoms: CA   and  CB  
REMARK    6  A    between atoms: CB   and  CG  
REMARK    7  A    between atoms: CG   and  CD  
ROOT
ATOM     14  CA  GLU D 570     -18.033  -6.348 -13.375  1.00 32.92     0.160 C 
ENDROOT
BRANCH  14  15
ATOM     15  CB  GLU D 570     -19.500  -6.345 -13.794  1.00 32.92     0.043 C 
BRANCH  15  16
ATOM     16  CG  GLU D 570     -20.102  -7.645 -14.189  1.00 32.92     0.100 C 
BRANCH  16  17
ATOM     17  CD  GLU D 570     -20.691  -7.623 -15.580  1.00 32.92     0.185 C 
ATOM     18  OE1 GLU D 570     -21.289  -8.633 -16.000  1.00 32.92    -0.647 OA
ATOM     19  OE2 GLU D 570     -20.537  -6.592 -16.264  1.00 32.92    -0.647 OA
ENDBRANCH  16  17
ENDBRANCH  15  16
ENDBRANCH  14  15
END_RES GLU D 570
ENDMDL
