MODEL 1
REMARK VINA RESULT:      -7.3      0.000      0.000
REMARK  11 active torsions:
REMARK  status: ('A' for Active; 'I' for Inactive)
REMARK       I    between atoms: C_2  and  N_4 
REMARK    1  A    between atoms: N_4  and  C_5 
REMARK    2  A    between atoms: C_6  and  O_21 
REMARK    3  A    between atoms: C_8  and  C_17 
REMARK    4  A    between atoms: C_8  and  O_20 
REMARK    5  A    between atoms: C_10  and  C_11 
REMARK    6  A    between atoms: C_11  and  C_12 
REMARK    7  A    between atoms: C_11  and  O_16 
REMARK    8  A    between atoms: C_12  and  C_13 
REMARK    9  A    between atoms: C_12  and  O_15 
REMARK   10  A    between atoms: C_13  and  O_14 
REMARK   11  A    between atoms: C_17  and  O_19 
ROOT
HETATM    1  C   UNL     1     -24.553  -3.053 -12.924  1.00  0.00     0.145 C 
HETATM    2  C   UNL     1     -24.344  -2.671 -11.442  1.00  0.00     0.149 C 
HETATM    3  C   UNL     1     -22.876  -2.803 -11.032  1.00  0.00     0.114 C 
HETATM    4  C   UNL     1     -22.300  -4.161 -11.444  1.00  0.00     0.253 C 
HETATM    5  O   UNL     1     -22.522  -4.395 -12.848  1.00  0.00    -0.336 OA
HETATM    6  C   UNL     1     -23.926  -4.448 -13.175  1.00  0.00     0.182 C 
ENDROOT
BRANCH   6   7
HETATM    7  C   UNL     1     -24.158  -4.951 -14.624  1.00  0.00     0.180 C 
BRANCH   7   8
HETATM    8  C   UNL     1     -24.183  -6.493 -14.752  1.00  0.00     0.173 C 
BRANCH   8   9
HETATM    9  C   UNL     1     -24.613  -6.928 -16.165  1.00  0.00     0.198 C 
BRANCH   9  10
HETATM   10  O   UNL     1     -23.959  -8.145 -16.525  1.00  0.00    -0.398 OA
HETATM   11  H   UNL     1     -24.604  -8.865 -16.404  1.00  0.00     0.209 HD
ENDBRANCH   9  10
ENDBRANCH   8   9
BRANCH   8  12
HETATM   12  O   UNL     1     -22.903  -7.077 -14.466  1.00  0.00    -0.391 OA
HETATM   13  H   UNL     1     -22.918  -7.372 -13.537  1.00  0.00     0.210 HD
ENDBRANCH   8  12
ENDBRANCH   7   8
BRANCH   7  14
HETATM   14  O   UNL     1     -25.383  -4.420 -15.135  1.00  0.00    -0.390 OA
HETATM   15  H   UNL     1     -25.409  -4.544 -16.103  1.00  0.00     0.210 HD
ENDBRANCH   7  14
ENDBRANCH   6   7
BRANCH   1  16
HETATM   16  N   UNL     1     -23.971  -2.038 -13.812  1.00  0.00    -0.352 N 
HETATM   17  C   UNL     1     -24.737  -1.388 -14.756  1.00  0.00     0.214 C 
HETATM   18  C   UNL     1     -23.977  -0.370 -15.561  1.00  0.00     0.117 C 
HETATM   19  O   UNL     1     -25.933  -1.595 -14.919  1.00  0.00    -0.274 OA
HETATM   20  H   UNL     1     -23.051  -1.671 -13.604  1.00  0.00     0.163 HD
ENDBRANCH   1  16
BRANCH   2  21
HETATM   21  O   UNL     1     -25.169  -3.488 -10.604  1.00  0.00    -0.393 OA
HETATM   22  H   UNL     1     -25.623  -2.916  -9.953  1.00  0.00     0.210 HD
ENDBRANCH   2  21
BRANCH   4  23
HETATM   23  C   UNL     1     -20.758  -4.132 -11.192  1.00  0.00     0.205 C 
HETATM   24  O   UNL     1     -20.107  -5.034 -10.693  1.00  0.00    -0.646 OA
BRANCH  23  25
HETATM   25  O   UNL     1     -20.193  -2.979 -11.640  1.00  0.00    -0.772 OA
HETATM   26  H   UNL     1     -20.081  -2.364 -10.878  1.00  0.00     0.167 HD
ENDBRANCH  23  25
ENDBRANCH   4  23
BRANCH   4  27
HETATM   27  O   UNL     1     -22.931  -5.190 -10.696  1.00  0.00    -0.357 OA
HETATM   28  H   UNL     1     -22.517  -5.178  -9.813  1.00  0.00     0.213 HD
ENDBRANCH   4  27
TORSDOF 11
BEGIN_RES ARG D 557
REMARK  4 active torsions:
REMARK  status: ('A' for Active; 'I' for Inactive)
REMARK    1  A    between atoms: CA   and  CB  
REMARK    2  A    between atoms: CB   and  CG  
REMARK    3  A    between atoms: CG   and  CD  
REMARK    4  A    between atoms: CD   and  NE  
REMARK       I    between atoms: NE   and  CZ  
REMARK       I    between atoms: CZ   and  NH1 
REMARK       I    between atoms: CZ   and  NH2 
ROOT
ATOM      1  CA  ARG D 557     -26.217   2.705 -17.014  1.00 35.49     0.159 C 
ENDROOT
BRANCH   1   2
ATOM      2  CB  ARG D 557     -26.789   1.319 -17.183  1.00 35.49     0.034 C 
BRANCH   2   3
ATOM      3  CG  ARG D 557     -28.158   1.106 -16.698  1.00 35.49     0.027 C 
BRANCH   3   4
ATOM      4  CD  ARG D 557     -28.779  -0.107 -17.278  1.00 35.49     0.116 C 
BRANCH   4   5
ATOM      5  NE  ARG D 557     -28.150  -1.314 -16.812  1.00 35.49    -0.212 N 
ATOM      6  CZ  ARG D 557     -28.601  -2.535 -16.994  1.00 35.49     0.666 C 
ATOM      7  NH1 ARG D 557     -29.727  -2.787 -17.636  1.00 35.49    -0.235 N 
ATOM      8  NH2 ARG D 557     -27.888  -3.516 -16.520  1.00 35.49    -0.235 N 
ATOM      9  HH  ARG D 557     -30.211  -2.158 -17.958  1.00 35.49     0.174 HD
ATOM     10  HH  ARG D 557     -29.970  -3.604 -17.727  1.00 35.49     0.174 HD
ATOM     11  HH  ARG D 557     -27.162  -3.324 -16.116  1.00 35.49     0.174 HD
ATOM     12  HH  ARG D 557     -28.145  -4.317 -16.621  1.00 35.49     0.174 HD
ATOM     13  HE  ARG D 557     -27.457  -1.241 -16.325  1.00 35.49     0.178 HD
ENDBRANCH   4   5
ENDBRANCH   3   4
ENDBRANCH   2   3
ENDBRANCH   1   2
END_RES ARG D 557
BEGIN_RES GLU D 570
REMARK  3 active torsions:
REMARK  status: ('A' for Active; 'I' for Inactive)
REMARK    5  A    between atoms: CA   and  CB  
REMARK    6  A    between atoms: CB   and  CG  
REMARK    7  A    between atoms: CG   and  CD  
ROOT
ATOM     14  CA  GLU D 570     -18.033  -6.348 -13.375  1.00 32.92     0.160 C 
ENDROOT
BRANCH  14  15
ATOM     15  CB  GLU D 570     -19.500  -6.345 -13.794  1.00 32.92     0.043 C 
BRANCH  15  16
ATOM     16  CG  GLU D 570     -19.807  -6.007 -15.208  1.00 32.92     0.100 C 
BRANCH  16  17
ATOM     17  CD  GLU D 570     -20.522  -7.121 -15.938  1.00 32.92     0.185 C 
ATOM     18  OE1 GLU D 570     -21.204  -6.845 -16.944  1.00 32.92    -0.647 OA
ATOM     19  OE2 GLU D 570     -20.413  -8.279 -15.489  1.00 32.92    -0.647 OA
ENDBRANCH  16  17
ENDBRANCH  15  16
ENDBRANCH  14  15
END_RES GLU D 570
ENDMDL
MODEL 2
REMARK VINA RESULT:      -7.2      1.621      3.847
REMARK  11 active torsions:
REMARK  status: ('A' for Active; 'I' for Inactive)
REMARK       I    between atoms: C_2  and  N_4 
REMARK    1  A    between atoms: N_4  and  C_5 
REMARK    2  A    between atoms: C_6  and  O_21 
REMARK    3  A    between atoms: C_8  and  C_17 
REMARK    4  A    between atoms: C_8  and  O_20 
REMARK    5  A    between atoms: C_10  and  C_11 
REMARK    6  A    between atoms: C_11  and  C_12 
REMARK    7  A    between atoms: C_11  and  O_16 
REMARK    8  A    between atoms: C_12  and  C_13 
REMARK    9  A    between atoms: C_12  and  O_15 
REMARK   10  A    between atoms: C_13  and  O_14 
REMARK   11  A    between atoms: C_17  and  O_19 
ROOT
HETATM    1  C   UNL     1     -22.448  -4.444 -13.326  1.00  0.00     0.145 C 
HETATM    2  C   UNL     1     -21.801  -4.786 -11.966  1.00  0.00     0.149 C 
HETATM    3  C   UNL     1     -22.813  -4.681 -10.823  1.00  0.00     0.114 C 
HETATM    4  C   UNL     1     -23.575  -3.352 -10.870  1.00  0.00     0.253 C 
HETATM    5  O   UNL     1     -24.161  -3.156 -12.171  1.00  0.00    -0.336 OA
HETATM    6  C   UNL     1     -23.164  -3.075 -13.211  1.00  0.00     0.182 C 
ENDROOT
BRANCH   6   7
HETATM    7  C   UNL     1     -23.778  -2.611 -14.558  1.00  0.00     0.180 C 
BRANCH   7   8
HETATM    8  C   UNL     1     -24.734  -1.402 -14.423  1.00  0.00     0.173 C 
BRANCH   8   9
HETATM    9  C   UNL     1     -24.668  -0.497 -15.667  1.00  0.00     0.198 C 
BRANCH   9  10
HETATM   10  O   UNL     1     -23.488   0.306 -15.630  1.00  0.00    -0.398 OA
HETATM   11  H   UNL     1     -23.371   0.688 -16.519  1.00  0.00     0.209 HD
ENDBRANCH   9  10
ENDBRANCH   8   9
BRANCH   8  12
HETATM   12  O   UNL     1     -26.097  -1.812 -14.232  1.00  0.00    -0.391 OA
HETATM   13  H   UNL     1     -26.290  -1.746 -13.279  1.00  0.00     0.210 HD
ENDBRANCH   8  12
ENDBRANCH   7   8
BRANCH   7  14
HETATM   14  O   UNL     1     -22.738  -2.283 -15.482  1.00  0.00    -0.390 OA
HETATM   15  H   UNL     1     -22.356  -3.105 -15.842  1.00  0.00     0.210 HD
ENDBRANCH   7  14
ENDBRANCH   6   7
BRANCH   1  16
HETATM   16  N   UNL     1     -23.378  -5.501 -13.742  1.00  0.00    -0.352 N 
HETATM   17  C   UNL     1     -23.444  -5.922 -15.053  1.00  0.00     0.214 C 
HETATM   18  C   UNL     1     -24.440  -7.024 -15.289  1.00  0.00     0.117 C 
HETATM   19  O   UNL     1     -22.746  -5.464 -15.949  1.00  0.00    -0.274 OA
HETATM   20  H   UNL     1     -23.835  -6.061 -13.034  1.00  0.00     0.163 HD
ENDBRANCH   1  16
BRANCH   2  21
HETATM   21  O   UNL     1     -20.686  -3.920 -11.722  1.00  0.00    -0.393 OA
HETATM   22  H   UNL     1     -21.021  -3.025 -11.512  1.00  0.00     0.210 HD
ENDBRANCH   2  21
BRANCH   4  23
HETATM   23  C   UNL     1     -24.729  -3.414  -9.819  1.00  0.00     0.205 C 
HETATM   24  O   UNL     1     -25.912  -3.248 -10.058  1.00  0.00    -0.646 OA
BRANCH  23  25
HETATM   25  O   UNL     1     -24.267  -3.725  -8.578  1.00  0.00    -0.772 OA
HETATM   26  H   UNL     1     -23.654  -3.014  -8.280  1.00  0.00     0.167 HD
ENDBRANCH  23  25
ENDBRANCH   4  23
BRANCH   4  27
HETATM   27  O   UNL     1     -22.679  -2.283 -10.599  1.00  0.00    -0.357 OA
HETATM   28  H   UNL     1     -22.677  -2.170  -9.630  1.00  0.00     0.213 HD
ENDBRANCH   4  27
TORSDOF 11
BEGIN_RES ARG D 557
REMARK  4 active torsions:
REMARK  status: ('A' for Active; 'I' for Inactive)
REMARK    1  A    between atoms: CA   and  CB  
REMARK    2  A    between atoms: CB   and  CG  
REMARK    3  A    between atoms: CG   and  CD  
REMARK    4  A    between atoms: CD   and  NE  
REMARK       I    between atoms: NE   and  CZ  
REMARK       I    between atoms: CZ   and  NH1 
REMARK       I    between atoms: CZ   and  NH2 
ROOT
ATOM      1  CA  ARG D 557     -26.217   2.705 -17.014  1.00 35.49     0.159 C 
ENDROOT
BRANCH   1   2
ATOM      2  CB  ARG D 557     -26.789   1.319 -17.183  1.00 35.49     0.034 C 
BRANCH   2   3
ATOM      3  CG  ARG D 557     -28.230   1.227 -17.448  1.00 35.49     0.027 C 
BRANCH   3   4
ATOM      4  CD  ARG D 557     -28.918   0.308 -16.512  1.00 35.49     0.116 C 
BRANCH   4   5
ATOM      5  NE  ARG D 557     -28.159  -0.892 -16.274  1.00 35.49    -0.212 N 
ATOM      6  CZ  ARG D 557     -28.434  -2.083 -16.758  1.00 35.49     0.666 C 
ATOM      7  NH1 ARG D 557     -29.481  -2.311 -17.529  1.00 35.49    -0.235 N 
ATOM      8  NH2 ARG D 557     -27.623  -3.055 -16.456  1.00 35.49    -0.235 N 
ATOM      9  HH  ARG D 557     -30.026  -1.685 -17.743  1.00 35.49     0.174 HD
ATOM     10  HH  ARG D 557     -29.608  -3.107 -17.818  1.00 35.49     0.174 HD
ATOM     11  HH  ARG D 557     -26.951  -2.877 -15.962  1.00 35.49     0.174 HD
ATOM     12  HH  ARG D 557     -27.765  -3.836 -16.753  1.00 35.49     0.174 HD
ATOM     13  HE  ARG D 557     -27.508  -0.851 -15.729  1.00 35.49     0.178 HD
ENDBRANCH   4   5
ENDBRANCH   3   4
ENDBRANCH   2   3
ENDBRANCH   1   2
END_RES ARG D 557
BEGIN_RES GLU D 570
REMARK  3 active torsions:
REMARK  status: ('A' for Active; 'I' for Inactive)
REMARK    5  A    between atoms: CA   and  CB  
REMARK    6  A    between atoms: CB   and  CG  
REMARK    7  A    between atoms: CG   and  CD  
ROOT
ATOM     14  CA  GLU D 570     -18.033  -6.348 -13.375  1.00 32.92     0.160 C 
ENDROOT
BRANCH  14  15
ATOM     15  CB  GLU D 570     -19.500  -6.345 -13.794  1.00 32.92     0.043 C 
BRANCH  15  16
ATOM     16  CG  GLU D 570     -20.115  -7.652 -14.144  1.00 32.92     0.100 C 
BRANCH  16  17
ATOM     17  CD  GLU D 570     -20.472  -7.762 -15.608  1.00 32.92     0.185 C 
ATOM     18  OE1 GLU D 570     -21.154  -8.730 -15.993  1.00 32.92    -0.647 OA
ATOM     19  OE2 GLU D 570     -20.049  -6.879 -16.381  1.00 32.92    -0.647 OA
ENDBRANCH  16  17
ENDBRANCH  15  16
ENDBRANCH  14  15
END_RES GLU D 570
ENDMDL
MODEL 3
REMARK VINA RESULT:      -7.0      2.972      6.628
REMARK  11 active torsions:
REMARK  status: ('A' for Active; 'I' for Inactive)
REMARK       I    between atoms: C_2  and  N_4 
REMARK    1  A    between atoms: N_4  and  C_5 
REMARK    2  A    between atoms: C_6  and  O_21 
REMARK    3  A    between atoms: C_8  and  C_17 
REMARK    4  A    between atoms: C_8  and  O_20 
REMARK    5  A    between atoms: C_10  and  C_11 
REMARK    6  A    between atoms: C_11  and  C_12 
REMARK    7  A    between atoms: C_11  and  O_16 
REMARK    8  A    between atoms: C_12  and  C_13 
REMARK    9  A    between atoms: C_12  and  O_15 
REMARK   10  A    between atoms: C_13  and  O_14 
REMARK   11  A    between atoms: C_17  and  O_19 
ROOT
HETATM    1  C   UNL     1     -27.382  -6.814 -18.163  1.00  0.00     0.145 C 
HETATM    2  C   UNL     1     -28.860  -6.597 -18.555  1.00  0.00     0.149 C 
HETATM    3  C   UNL     1     -29.254  -5.122 -18.460  1.00  0.00     0.114 C 
HETATM    4  C   UNL     1     -28.838  -4.517 -17.115  1.00  0.00     0.253 C 
HETATM    5  O   UNL     1     -27.438  -4.749 -16.872  1.00  0.00    -0.336 OA
HETATM    6  C   UNL     1     -27.127  -6.156 -16.784  1.00  0.00     0.182 C 
ENDROOT
BRANCH   6   7
HETATM    7  C   UNL     1     -25.682  -6.392 -16.271  1.00  0.00     0.180 C 
BRANCH   7   8
HETATM    8  C   UNL     1     -25.323  -5.563 -15.015  1.00  0.00     0.173 C 
BRANCH   8   9
HETATM    9  C   UNL     1     -23.888  -5.858 -14.543  1.00  0.00     0.198 C 
BRANCH   9  10
HETATM   10  O   UNL     1     -23.015  -4.795 -14.924  1.00  0.00    -0.398 OA
HETATM   11  H   UNL     1     -23.004  -4.154 -14.190  1.00  0.00     0.209 HD
ENDBRANCH   9  10
ENDBRANCH   8   9
BRANCH   8  12
HETATM   12  O   UNL     1     -25.443  -4.151 -15.251  1.00  0.00    -0.391 OA
HETATM   13  H   UNL     1     -24.566  -3.826 -15.525  1.00  0.00     0.210 HD
ENDBRANCH   8  12
ENDBRANCH   7   8
BRANCH   7  14
HETATM   14  O   UNL     1     -25.486  -7.779 -15.987  1.00  0.00    -0.390 OA
HETATM   15  H   UNL     1     -24.604  -7.905 -15.588  1.00  0.00     0.210 HD
ENDBRANCH   7  14
ENDBRANCH   6   7
BRANCH   1  16
HETATM   16  N   UNL     1     -26.485  -6.267 -19.190  1.00  0.00    -0.352 N 
HETATM   17  C   UNL     1     -26.272  -6.928 -20.381  1.00  0.00     0.214 C 
HETATM   18  C   UNL     1     -25.339  -6.211 -21.316  1.00  0.00     0.117 C 
HETATM   19  O   UNL     1     -26.806  -7.991 -20.671  1.00  0.00    -0.274 OA
HETATM   20  H   UNL     1     -26.172  -5.308 -19.110  1.00  0.00     0.163 HD
ENDBRANCH   1  16
BRANCH   2  21
HETATM   21  O   UNL     1     -29.710  -7.392 -17.719  1.00  0.00    -0.393 OA
HETATM   22  H   UNL     1     -29.300  -8.273 -17.599  1.00  0.00     0.210 HD
ENDBRANCH   2  21
BRANCH   4  23
HETATM   23  C   UNL     1     -29.072  -2.974 -17.182  1.00  0.00     0.205 C 
HETATM   24  O   UNL     1     -28.266  -2.122 -16.848  1.00  0.00    -0.646 OA
BRANCH  23  25
HETATM   25  O   UNL     1     -30.289  -2.669 -17.708  1.00  0.00    -0.772 OA
HETATM   26  H   UNL     1     -30.945  -2.607 -16.976  1.00  0.00     0.167 HD
ENDBRANCH  23  25
ENDBRANCH   4  23
BRANCH   4  27
HETATM   27  O   UNL     1     -29.596  -5.115 -16.073  1.00  0.00    -0.357 OA
HETATM   28  H   UNL     1     -30.301  -5.628 -16.510  1.00  0.00     0.213 HD
ENDBRANCH   4  27
TORSDOF 11
BEGIN_RES ARG D 557
REMARK  4 active torsions:
REMARK  status: ('A' for Active; 'I' for Inactive)
REMARK    1  A    between atoms: CA   and  CB  
REMARK    2  A    between atoms: CB   and  CG  
REMARK    3  A    between atoms: CG   and  CD  
REMARK    4  A    between atoms: CD   and  NE  
REMARK       I    between atoms: NE   and  CZ  
REMARK       I    between atoms: CZ   and  NH1 
REMARK       I    between atoms: CZ   and  NH2 
ROOT
ATOM      1  CA  ARG D 557     -26.217   2.705 -17.014  1.00 35.49     0.159 C 
ENDROOT
BRANCH   1   2
ATOM      2  CB  ARG D 557     -26.789   1.319 -17.183  1.00 35.49     0.034 C 
BRANCH   2   3
ATOM      3  CG  ARG D 557     -25.840   0.201 -17.124  1.00 35.49     0.027 C 
BRANCH   3   4
ATOM      4  CD  ARG D 557     -24.745   0.441 -16.156  1.00 35.49     0.116 C 
BRANCH   4   5
ATOM      5  NE  ARG D 557     -24.850  -0.406 -14.997  1.00 35.49    -0.212 N 
ATOM      6  CZ  ARG D 557     -24.040  -1.395 -14.692  1.00 35.49     0.666 C 
ATOM      7  NH1 ARG D 557     -23.016  -1.733 -15.454  1.00 35.49    -0.235 N 
ATOM      8  NH2 ARG D 557     -24.273  -2.044 -13.589  1.00 35.49    -0.235 N 
ATOM      9  HH  ARG D 557     -22.842  -1.318 -16.183  1.00 35.49     0.174 HD
ATOM     10  HH  ARG D 557     -22.520  -2.385 -15.203  1.00 35.49     0.174 HD
ATOM     11  HH  ARG D 557     -24.937  -1.798 -13.113  1.00 35.49     0.174 HD
ATOM     12  HH  ARG D 557     -23.770  -2.685 -13.357  1.00 35.49     0.174 HD
ATOM     13  HE  ARG D 557     -25.524  -0.305 -14.489  1.00 35.49     0.178 HD
ENDBRANCH   4   5
ENDBRANCH   3   4
ENDBRANCH   2   3
ENDBRANCH   1   2
END_RES ARG D 557
BEGIN_RES GLU D 570
REMARK  3 active torsions:
REMARK  status: ('A' for Active; 'I' for Inactive)
REMARK    5  A    between atoms: CA   and  CB  
REMARK    6  A    between atoms: CB   and  CG  
REMARK    7  A    between atoms: CG   and  CD  
ROOT
ATOM     14  CA  GLU D 570     -18.033  -6.348 -13.375  1.00 32.92     0.160 C 
ENDROOT
BRANCH  14  15
ATOM     15  CB  GLU D 570     -19.500  -6.345 -13.794  1.00 32.92     0.043 C 
BRANCH  15  16
ATOM     16  CG  GLU D 570     -20.080  -7.629 -14.266  1.00 32.92     0.100 C 
BRANCH  16  17
ATOM     17  CD  GLU D 570     -20.724  -7.520 -15.628  1.00 32.92     0.185 C 
ATOM     18  OE1 GLU D 570     -20.767  -6.408 -16.189  1.00 32.92    -0.647 OA
ATOM     19  OE2 GLU D 570     -21.206  -8.554 -16.131  1.00 32.92    -0.647 OA
ENDBRANCH  16  17
ENDBRANCH  15  16
ENDBRANCH  14  15
END_RES GLU D 570
ENDMDL
MODEL 4
REMARK VINA RESULT:      -6.5      3.095      5.839
REMARK  11 active torsions:
REMARK  status: ('A' for Active; 'I' for Inactive)
REMARK       I    between atoms: C_2  and  N_4 
REMARK    1  A    between atoms: N_4  and  C_5 
REMARK    2  A    between atoms: C_6  and  O_21 
REMARK    3  A    between atoms: C_8  and  C_17 
REMARK    4  A    between atoms: C_8  and  O_20 
REMARK    5  A    between atoms: C_10  and  C_11 
REMARK    6  A    between atoms: C_11  and  C_12 
REMARK    7  A    between atoms: C_11  and  O_16 
REMARK    8  A    between atoms: C_12  and  C_13 
REMARK    9  A    between atoms: C_12  and  O_15 
REMARK   10  A    between atoms: C_13  and  O_14 
REMARK   11  A    between atoms: C_17  and  O_19 
ROOT
HETATM    1  C   UNL     1     -28.332  -6.273 -17.774  1.00  0.00     0.145 C 
HETATM    2  C   UNL     1     -28.505  -6.822 -16.340  1.00  0.00     0.149 C 
HETATM    3  C   UNL     1     -27.428  -6.278 -15.399  1.00  0.00     0.114 C 
HETATM    4  C   UNL     1     -26.027  -6.441 -15.998  1.00  0.00     0.253 C 
HETATM    5  O   UNL     1     -25.975  -5.865 -17.317  1.00  0.00    -0.336 OA
HETATM    6  C   UNL     1     -26.874  -6.523 -18.235  1.00  0.00     0.182 C 
ENDROOT
BRANCH   6   7
HETATM    7  C   UNL     1     -26.629  -6.074 -19.698  1.00  0.00     0.180 C 
BRANCH   7   8
HETATM    8  C   UNL     1     -25.838  -7.102 -20.542  1.00  0.00     0.173 C 
BRANCH   8   9
HETATM    9  C   UNL     1     -24.502  -7.468 -19.869  1.00  0.00     0.198 C 
BRANCH   9  10
HETATM   10  O   UNL     1     -23.845  -8.499 -20.606  1.00  0.00    -0.398 OA
HETATM   11  H   UNL     1     -23.115  -8.080 -21.098  1.00  0.00     0.209 HD
ENDBRANCH   9  10
ENDBRANCH   8   9
BRANCH   8  12
HETATM   12  O   UNL     1     -26.584  -8.310 -20.756  1.00  0.00    -0.391 OA
HETATM   13  H   UNL     1     -27.519  -8.059 -20.873  1.00  0.00     0.210 HD
ENDBRANCH   8  12
ENDBRANCH   7   8
BRANCH   7  14
HETATM   14  O   UNL     1     -27.876  -5.803 -20.342  1.00  0.00    -0.390 OA
HETATM   15  H   UNL     1     -28.242  -4.967 -19.998  1.00  0.00     0.210 HD
ENDBRANCH   7  14
ENDBRANCH   6   7
BRANCH   1  16
HETATM   16  N   UNL     1     -28.674  -4.846 -17.831  1.00  0.00    -0.352 N 
HETATM   17  C   UNL     1     -29.954  -4.405 -17.575  1.00  0.00     0.214 C 
HETATM   18  C   UNL     1     -30.112  -2.912 -17.662  1.00  0.00     0.117 C 
HETATM   19  O   UNL     1     -30.881  -5.148 -17.280  1.00  0.00    -0.274 OA
HETATM   20  H   UNL     1     -27.928  -4.163 -17.866  1.00  0.00     0.163 HD
ENDBRANCH   1  16
BRANCH   2  21
HETATM   21  O   UNL     1     -28.472  -8.254 -16.356  1.00  0.00    -0.393 OA
HETATM   22  H   UNL     1     -28.922  -8.589 -15.555  1.00  0.00     0.210 HD
ENDBRANCH   2  21
BRANCH   4  23
HETATM   23  C   UNL     1     -25.016  -5.671 -15.089  1.00  0.00     0.205 C 
HETATM   24  O   UNL     1     -24.940  -4.458 -14.988  1.00  0.00    -0.646 OA
BRANCH  23  25
HETATM   25  O   UNL     1     -24.235  -6.520 -14.369  1.00  0.00    -0.772 OA
HETATM   26  H   UNL     1     -23.432  -6.737 -14.896  1.00  0.00     0.167 HD
ENDBRANCH  23  25
ENDBRANCH   4  23
BRANCH   4  27
HETATM   27  O   UNL     1     -25.706  -7.822 -16.082  1.00  0.00    -0.357 OA
HETATM   28  H   UNL     1     -26.557  -8.298 -16.099  1.00  0.00     0.213 HD
ENDBRANCH   4  27
TORSDOF 11
BEGIN_RES ARG D 557
REMARK  4 active torsions:
REMARK  status: ('A' for Active; 'I' for Inactive)
REMARK    1  A    between atoms: CA   and  CB  
REMARK    2  A    between atoms: CB   and  CG  
REMARK    3  A    between atoms: CG   and  CD  
REMARK    4  A    between atoms: CD   and  NE  
REMARK       I    between atoms: NE   and  CZ  
REMARK       I    between atoms: CZ   and  NH1 
REMARK       I    between atoms: CZ   and  NH2 
ROOT
ATOM      1  CA  ARG D 557     -26.217   2.705 -17.014  1.00 35.49     0.159 C 
ENDROOT
BRANCH   1   2
ATOM      2  CB  ARG D 557     -26.789   1.319 -17.183  1.00 35.49     0.034 C 
BRANCH   2   3
ATOM      3  CG  ARG D 557     -25.836   0.203 -17.155  1.00 35.49     0.027 C 
BRANCH   3   4
ATOM      4  CD  ARG D 557     -24.736   0.424 -16.188  1.00 35.49     0.116 C 
BRANCH   4   5
ATOM      5  NE  ARG D 557     -24.881  -0.387 -15.008  1.00 35.49    -0.212 N 
ATOM      6  CZ  ARG D 557     -24.094  -1.378 -14.656  1.00 35.49     0.666 C 
ATOM      7  NH1 ARG D 557     -23.059  -1.755 -15.385  1.00 35.49    -0.235 N 
ATOM      8  NH2 ARG D 557     -24.362  -1.991 -13.540  1.00 35.49    -0.235 N 
ATOM      9  HH  ARG D 557     -22.862  -1.365 -16.122  1.00 35.49     0.174 HD
ATOM     10  HH  ARG D 557     -22.579  -2.407 -15.104  1.00 35.49     0.174 HD
ATOM     11  HH  ARG D 557     -25.032  -1.721 -13.086  1.00 35.49     0.174 HD
ATOM     12  HH  ARG D 557     -23.875  -2.633 -13.278  1.00 35.49     0.174 HD
ATOM     13  HE  ARG D 557     -25.564  -0.260 -14.518  1.00 35.49     0.178 HD
ENDBRANCH   4   5
ENDBRANCH   3   4
ENDBRANCH   2   3
ENDBRANCH   1   2
END_RES ARG D 557
BEGIN_RES GLU D 570
REMARK  3 active torsions:
REMARK  status: ('A' for Active; 'I' for Inactive)
REMARK    5  A    between atoms: CA   and  CB  
REMARK    6  A    between atoms: CB   and  CG  
REMARK    7  A    between atoms: CG   and  CD  
ROOT
ATOM     14  CA  GLU D 570     -18.033  -6.348 -13.375  1.00 32.92     0.160 C 
ENDROOT
BRANCH  14  15
ATOM     15  CB  GLU D 570     -19.500  -6.345 -13.794  1.00 32.92     0.043 C 
BRANCH  15  16
ATOM     16  CG  GLU D 570     -20.444  -5.542 -12.975  1.00 32.92     0.100 C 
BRANCH  16  17
ATOM     17  CD  GLU D 570     -21.530  -4.889 -13.798  1.00 32.92     0.185 C 
ATOM     18  OE1 GLU D 570     -21.564  -5.094 -15.026  1.00 32.92    -0.647 OA
ATOM     19  OE2 GLU D 570     -22.345  -4.151 -13.210  1.00 32.92    -0.647 OA
ENDBRANCH  16  17
ENDBRANCH  15  16
ENDBRANCH  14  15
END_RES GLU D 570
ENDMDL
MODEL 5
REMARK VINA RESULT:      -5.9      7.488     10.427
REMARK  11 active torsions:
REMARK  status: ('A' for Active; 'I' for Inactive)
REMARK       I    between atoms: C_2  and  N_4 
REMARK    1  A    between atoms: N_4  and  C_5 
REMARK    2  A    between atoms: C_6  and  O_21 
REMARK    3  A    between atoms: C_8  and  C_17 
REMARK    4  A    between atoms: C_8  and  O_20 
REMARK    5  A    between atoms: C_10  and  C_11 
REMARK    6  A    between atoms: C_11  and  C_12 
REMARK    7  A    between atoms: C_11  and  O_16 
REMARK    8  A    between atoms: C_12  and  C_13 
REMARK    9  A    between atoms: C_12  and  O_15 
REMARK   10  A    between atoms: C_13  and  O_14 
REMARK   11  A    between atoms: C_17  and  O_19 
ROOT
HETATM    1  C   UNL     1     -33.868  -3.491 -11.132  1.00  0.00     0.145 C 
HETATM    2  C   UNL     1     -34.074  -2.349 -10.113  1.00  0.00     0.149 C 
HETATM    3  C   UNL     1     -35.462  -1.719 -10.251  1.00  0.00     0.114 C 
HETATM    4  C   UNL     1     -35.771  -1.360 -11.708  1.00  0.00     0.253 C 
HETATM    5  O   UNL     1     -35.578  -2.505 -12.559  1.00  0.00    -0.336 OA
HETATM    6  C   UNL     1     -34.210  -2.967 -12.549  1.00  0.00     0.182 C 
ENDROOT
BRANCH   6   7
HETATM    7  C   UNL     1     -33.956  -4.027 -13.652  1.00  0.00     0.180 C 
BRANCH   7   8
HETATM    8  C   UNL     1     -34.000  -3.455 -15.089  1.00  0.00     0.173 C 
BRANCH   8   9
HETATM    9  C   UNL     1     -34.326  -4.553 -16.118  1.00  0.00     0.198 C 
BRANCH   9  10
HETATM   10  O   UNL     1     -35.060  -5.608 -15.495  1.00  0.00    -0.398 OA
HETATM   11  H   UNL     1     -35.851  -5.209 -15.091  1.00  0.00     0.209 HD
ENDBRANCH   9  10
ENDBRANCH   8   9
BRANCH   8  12
HETATM   12  O   UNL     1     -34.971  -2.406 -15.221  1.00  0.00    -0.391 OA
HETATM   13  H   UNL     1     -34.953  -1.886 -14.397  1.00  0.00     0.210 HD
ENDBRANCH   8  12
ENDBRANCH   7   8
BRANCH   7  14
HETATM   14  O   UNL     1     -32.691  -4.659 -13.440  1.00  0.00    -0.390 OA
HETATM   15  H   UNL     1     -31.978  -4.011 -13.592  1.00  0.00     0.210 HD
ENDBRANCH   7  14
ENDBRANCH   6   7
BRANCH   1  16
HETATM   16  N   UNL     1     -34.688  -4.658 -10.781  1.00  0.00    -0.352 N 
HETATM   17  C   UNL     1     -34.154  -5.928 -10.755  1.00  0.00     0.214 C 
HETATM   18  C   UNL     1     -35.136  -6.994 -10.357  1.00  0.00     0.117 C 
HETATM   19  O   UNL     1     -32.982  -6.176 -11.009  1.00  0.00    -0.274 OA
HETATM   20  H   UNL     1     -35.600  -4.512 -10.366  1.00  0.00     0.163 HD
ENDBRANCH   1  16
BRANCH   2  21
HETATM   21  O   UNL     1     -33.059  -1.353 -10.282  1.00  0.00    -0.393 OA
HETATM   22  H   UNL     1     -33.320  -0.548  -9.788  1.00  0.00     0.210 HD
ENDBRANCH   2  21
BRANCH   4  23
HETATM   23  C   UNL     1     -37.271  -0.933 -11.797  1.00  0.00     0.205 C 
HETATM   24  O   UNL     1     -38.018  -0.776 -10.846  1.00  0.00    -0.646 OA
BRANCH  23  25
HETATM   25  O   UNL     1     -37.658  -0.707 -13.081  1.00  0.00    -0.772 OA
HETATM   26  H   UNL     1     -36.965  -0.172 -13.532  1.00  0.00     0.167 HD
ENDBRANCH  23  25
ENDBRANCH   4  23
BRANCH   4  27
HETATM   27  O   UNL     1     -34.906  -0.316 -12.132  1.00  0.00    -0.357 OA
HETATM   28  H   UNL     1     -34.322  -0.123 -11.375  1.00  0.00     0.213 HD
ENDBRANCH   4  27
TORSDOF 11
BEGIN_RES ARG D 557
REMARK  4 active torsions:
REMARK  status: ('A' for Active; 'I' for Inactive)
REMARK    1  A    between atoms: CA   and  CB  
REMARK    2  A    between atoms: CB   and  CG  
REMARK    3  A    between atoms: CG   and  CD  
REMARK    4  A    between atoms: CD   and  NE  
REMARK       I    between atoms: NE   and  CZ  
REMARK       I    between atoms: CZ   and  NH1 
REMARK       I    between atoms: CZ   and  NH2 
ROOT
ATOM      1  CA  ARG D 557     -26.217   2.705 -17.014  1.00 35.49     0.159 C 
ENDROOT
BRANCH   1   2
ATOM      2  CB  ARG D 557     -26.789   1.319 -17.183  1.00 35.49     0.034 C 
BRANCH   2   3
ATOM      3  CG  ARG D 557     -25.836   0.203 -17.151  1.00 35.49     0.027 C 
BRANCH   3   4
ATOM      4  CD  ARG D 557     -24.756   0.411 -16.160  1.00 35.49     0.116 C 
BRANCH   4   5
ATOM      5  NE  ARG D 557     -24.905  -0.440 -15.009  1.00 35.49    -0.212 N 
ATOM      6  CZ  ARG D 557     -24.094  -1.415 -14.664  1.00 35.49     0.666 C 
ATOM      7  NH1 ARG D 557     -23.028  -1.735 -15.373  1.00 35.49    -0.235 N 
ATOM      8  NH2 ARG D 557     -24.373  -2.070 -13.575  1.00 35.49    -0.235 N 
ATOM      9  HH  ARG D 557     -22.824  -1.316 -16.093  1.00 35.49     0.174 HD
ATOM     10  HH  ARG D 557     -22.534  -2.379 -15.098  1.00 35.49     0.174 HD
ATOM     11  HH  ARG D 557     -25.064  -1.837 -13.133  1.00 35.49     0.174 HD
ATOM     12  HH  ARG D 557     -23.871  -2.703 -13.318  1.00 35.49     0.174 HD
ATOM     13  HE  ARG D 557     -25.606  -0.351 -14.535  1.00 35.49     0.178 HD
ENDBRANCH   4   5
ENDBRANCH   3   4
ENDBRANCH   2   3
ENDBRANCH   1   2
END_RES ARG D 557
BEGIN_RES GLU D 570
REMARK  3 active torsions:
REMARK  status: ('A' for Active; 'I' for Inactive)
REMARK    5  A    between atoms: CA   and  CB  
REMARK    6  A    between atoms: CB   and  CG  
REMARK    7  A    between atoms: CG   and  CD  
ROOT
ATOM     14  CA  GLU D 570     -18.033  -6.348 -13.375  1.00 32.92     0.160 C 
ENDROOT
BRANCH  14  15
ATOM     15  CB  GLU D 570     -19.500  -6.345 -13.794  1.00 32.92     0.043 C 
BRANCH  15  16
ATOM     16  CG  GLU D 570     -20.442  -5.532 -12.982  1.00 32.92     0.100 C 
BRANCH  16  17
ATOM     17  CD  GLU D 570     -21.731  -5.224 -13.708  1.00 32.92     0.185 C 
ATOM     18  OE1 GLU D 570     -22.309  -4.143 -13.482  1.00 32.92    -0.647 OA
ATOM     19  OE2 GLU D 570     -22.176  -6.079 -14.498  1.00 32.92    -0.647 OA
ENDBRANCH  16  17
ENDBRANCH  15  16
ENDBRANCH  14  15
END_RES GLU D 570
ENDMDL
MODEL 6
REMARK VINA RESULT:      -5.6      7.319     10.062
REMARK  11 active torsions:
REMARK  status: ('A' for Active; 'I' for Inactive)
REMARK       I    between atoms: C_2  and  N_4 
REMARK    1  A    between atoms: N_4  and  C_5 
REMARK    2  A    between atoms: C_6  and  O_21 
REMARK    3  A    between atoms: C_8  and  C_17 
REMARK    4  A    between atoms: C_8  and  O_20 
REMARK    5  A    between atoms: C_10  and  C_11 
REMARK    6  A    between atoms: C_11  and  C_12 
REMARK    7  A    between atoms: C_11  and  O_16 
REMARK    8  A    between atoms: C_12  and  C_13 
REMARK    9  A    between atoms: C_12  and  O_15 
REMARK   10  A    between atoms: C_13  and  O_14 
REMARK   11  A    between atoms: C_17  and  O_19 
ROOT
HETATM    1  C   UNL     1     -33.769  -3.602 -11.190  1.00  0.00     0.145 C 
HETATM    2  C   UNL     1     -33.985  -2.367 -10.289  1.00  0.00     0.149 C 
HETATM    3  C   UNL     1     -35.350  -1.723 -10.537  1.00  0.00     0.114 C 
HETATM    4  C   UNL     1     -35.597  -1.494 -12.032  1.00  0.00     0.253 C 
HETATM    5  O   UNL     1     -35.402  -2.717 -12.766  1.00  0.00    -0.336 OA
HETATM    6  C   UNL     1     -34.047  -3.204 -12.662  1.00  0.00     0.182 C 
ENDROOT
BRANCH   6   7
HETATM    7  C   UNL     1     -33.779  -4.367 -13.652  1.00  0.00     0.180 C 
BRANCH   7   8
HETATM    8  C   UNL     1     -34.527  -4.223 -14.999  1.00  0.00     0.173 C 
BRANCH   8   9
HETATM    9  C   UNL     1     -33.550  -3.927 -16.152  1.00  0.00     0.198 C 
BRANCH   9  10
HETATM   10  O   UNL     1     -33.037  -5.146 -16.688  1.00  0.00    -0.398 OA
HETATM   11  H   UNL     1     -32.077  -5.153 -16.520  1.00  0.00     0.209 HD
ENDBRANCH   9  10
ENDBRANCH   8   9
BRANCH   8  12
HETATM   12  O   UNL     1     -35.273  -5.405 -15.328  1.00  0.00    -0.391 OA
HETATM   13  H   UNL     1     -36.126  -5.118 -15.700  1.00  0.00     0.210 HD
ENDBRANCH   8  12
ENDBRANCH   7   8
BRANCH   7  14
HETATM   14  O   UNL     1     -32.376  -4.477 -13.907  1.00  0.00    -0.390 OA
HETATM   15  H   UNL     1     -32.029  -3.608 -14.181  1.00  0.00     0.210 HD
ENDBRANCH   7  14
ENDBRANCH   6   7
BRANCH   1  16
HETATM   16  N   UNL     1     -34.630  -4.714 -10.766  1.00  0.00    -0.352 N 
HETATM   17  C   UNL     1     -34.151  -6.004 -10.693  1.00  0.00     0.214 C 
HETATM   18  C   UNL     1     -35.168  -7.006 -10.223  1.00  0.00     0.117 C 
HETATM   19  O   UNL     1     -32.997  -6.315 -10.963  1.00  0.00    -0.274 OA
HETATM   20  H   UNL     1     -35.524  -4.509 -10.337  1.00  0.00     0.163 HD
ENDBRANCH   1  16
BRANCH   2  21
HETATM   21  O   UNL     1     -32.940  -1.412 -10.509  1.00  0.00    -0.393 OA
HETATM   22  H   UNL     1     -32.555  -1.563 -11.396  1.00  0.00     0.210 HD
ENDBRANCH   2  21
BRANCH   4  23
HETATM   23  C   UNL     1     -37.083  -1.046 -12.216  1.00  0.00     0.205 C 
HETATM   24  O   UNL     1     -37.601  -0.737 -13.276  1.00  0.00    -0.646 OA
BRANCH  23  25
HETATM   25  O   UNL     1     -37.770  -1.078 -11.044  1.00  0.00    -0.772 OA
HETATM   26  H   UNL     1     -37.153  -0.863 -10.307  1.00  0.00     0.167 HD
ENDBRANCH  23  25
ENDBRANCH   4  23
BRANCH   4  27
HETATM   27  O   UNL     1     -34.692  -0.512 -12.516  1.00  0.00    -0.357 OA
HETATM   28  H   UNL     1     -33.905  -0.997 -12.825  1.00  0.00     0.213 HD
ENDBRANCH   4  27
TORSDOF 11
BEGIN_RES ARG D 557
REMARK  4 active torsions:
REMARK  status: ('A' for Active; 'I' for Inactive)
REMARK    1  A    between atoms: CA   and  CB  
REMARK    2  A    between atoms: CB   and  CG  
REMARK    3  A    between atoms: CG   and  CD  
REMARK    4  A    between atoms: CD   and  NE  
REMARK       I    between atoms: NE   and  CZ  
REMARK       I    between atoms: CZ   and  NH1 
REMARK       I    between atoms: CZ   and  NH2 
ROOT
ATOM      1  CA  ARG D 557     -26.217   2.705 -17.014  1.00 35.49     0.159 C 
ENDROOT
BRANCH   1   2
ATOM      2  CB  ARG D 557     -26.789   1.319 -17.183  1.00 35.49     0.034 C 
BRANCH   2   3
ATOM      3  CG  ARG D 557     -28.232   1.226 -17.436  1.00 35.49     0.027 C 
BRANCH   3   4
ATOM      4  CD  ARG D 557     -28.910   0.298 -16.502  1.00 35.49     0.116 C 
BRANCH   4   5
ATOM      5  NE  ARG D 557     -29.296  -0.931 -17.143  1.00 35.49    -0.212 N 
ATOM      6  CZ  ARG D 557     -28.670  -2.082 -17.037  1.00 35.49     0.666 C 
ATOM      7  NH1 ARG D 557     -27.575  -2.230 -16.315  1.00 35.49    -0.235 N 
ATOM      8  NH2 ARG D 557     -29.174  -3.100 -17.672  1.00 35.49    -0.235 N 
ATOM      9  HH  ARG D 557     -27.227  -1.574 -15.887  1.00 35.49     0.174 HD
ATOM     10  HH  ARG D 557     -27.211  -3.005 -16.281  1.00 35.49     0.174 HD
ATOM     11  HH  ARG D 557     -29.886  -2.977 -18.125  1.00 35.49     0.174 HD
ATOM     12  HH  ARG D 557     -28.800  -3.860 -17.625  1.00 35.49     0.174 HD
ATOM     13  HE  ARG D 557     -29.950  -0.910 -17.686  1.00 35.49     0.178 HD
ENDBRANCH   4   5
ENDBRANCH   3   4
ENDBRANCH   2   3
ENDBRANCH   1   2
END_RES ARG D 557
BEGIN_RES GLU D 570
REMARK  3 active torsions:
REMARK  status: ('A' for Active; 'I' for Inactive)
REMARK    5  A    between atoms: CA   and  CB  
REMARK    6  A    between atoms: CB   and  CG  
REMARK    7  A    between atoms: CG   and  CD  
ROOT
ATOM     14  CA  GLU D 570     -18.033  -6.348 -13.375  1.00 32.92     0.160 C 
ENDROOT
BRANCH  14  15
ATOM     15  CB  GLU D 570     -19.500  -6.345 -13.794  1.00 32.92     0.043 C 
BRANCH  15  16
ATOM     16  CG  GLU D 570     -20.436  -5.503 -13.005  1.00 32.92     0.100 C 
BRANCH  16  17
ATOM     17  CD  GLU D 570     -21.710  -5.181 -13.750  1.00 32.92     0.185 C 
ATOM     18  OE1 GLU D 570     -21.649  -4.903 -14.963  1.00 32.92    -0.647 OA
ATOM     19  OE2 GLU D 570     -22.780  -5.191 -13.109  1.00 32.92    -0.647 OA
ENDBRANCH  16  17
ENDBRANCH  15  16
ENDBRANCH  14  15
END_RES GLU D 570
ENDMDL
MODEL 7
REMARK VINA RESULT:      -5.5      3.151      5.578
REMARK  11 active torsions:
REMARK  status: ('A' for Active; 'I' for Inactive)
REMARK       I    between atoms: C_2  and  N_4 
REMARK    1  A    between atoms: N_4  and  C_5 
REMARK    2  A    between atoms: C_6  and  O_21 
REMARK    3  A    between atoms: C_8  and  C_17 
REMARK    4  A    between atoms: C_8  and  O_20 
REMARK    5  A    between atoms: C_10  and  C_11 
REMARK    6  A    between atoms: C_11  and  C_12 
REMARK    7  A    between atoms: C_11  and  O_16 
REMARK    8  A    between atoms: C_12  and  C_13 
REMARK    9  A    between atoms: C_12  and  O_15 
REMARK   10  A    between atoms: C_13  and  O_14 
REMARK   11  A    between atoms: C_17  and  O_19 
ROOT
HETATM    1  C   UNL     1     -28.510  -6.651 -17.737  1.00  0.00     0.145 C 
HETATM    2  C   UNL     1     -28.546  -7.002 -16.233  1.00  0.00     0.149 C 
HETATM    3  C   UNL     1     -27.478  -6.234 -15.453  1.00  0.00     0.114 C 
HETATM    4  C   UNL     1     -26.104  -6.354 -16.120  1.00  0.00     0.253 C 
HETATM    5  O   UNL     1     -26.183  -5.970 -17.505  1.00  0.00    -0.336 OA
HETATM    6  C   UNL     1     -27.063  -6.831 -18.259  1.00  0.00     0.182 C 
ENDROOT
BRANCH   6   7
HETATM    7  C   UNL     1     -26.945  -6.575 -19.784  1.00  0.00     0.180 C 
BRANCH   7   8
HETATM    8  C   UNL     1     -25.492  -6.361 -20.271  1.00  0.00     0.173 C 
BRANCH   8   9
HETATM    9  C   UNL     1     -24.773  -7.705 -20.491  1.00  0.00     0.198 C 
BRANCH   9  10
HETATM   10  O   UNL     1     -25.194  -8.292 -21.722  1.00  0.00    -0.398 OA
HETATM   11  H   UNL     1     -26.079  -7.936 -21.923  1.00  0.00     0.209 HD
ENDBRANCH   9  10
ENDBRANCH   8   9
BRANCH   8  12
HETATM   12  O   UNL     1     -25.440  -5.612 -21.494  1.00  0.00    -0.391 OA
HETATM   13  H   UNL     1     -24.619  -5.086 -21.479  1.00  0.00     0.210 HD
ENDBRANCH   8  12
ENDBRANCH   7   8
BRANCH   7  14
HETATM   14  O   UNL     1     -27.524  -7.664 -20.508  1.00  0.00    -0.390 OA
HETATM   15  H   UNL     1     -27.618  -8.432 -19.914  1.00  0.00     0.210 HD
ENDBRANCH   7  14
ENDBRANCH   6   7
BRANCH   1  16
HETATM   16  N   UNL     1     -28.994  -5.283 -17.965  1.00  0.00    -0.352 N 
HETATM   17  C   UNL     1     -30.291  -4.924 -17.668  1.00  0.00     0.214 C 
HETATM   18  C   UNL     1     -30.602  -3.480 -17.950  1.00  0.00     0.117 C 
HETATM   19  O   UNL     1     -31.118  -5.694 -17.196  1.00  0.00    -0.274 OA
HETATM   20  H   UNL     1     -28.324  -4.550 -18.158  1.00  0.00     0.163 HD
ENDBRANCH   1  16
BRANCH   2  21
HETATM   21  O   UNL     1     -28.372  -8.413 -16.056  1.00  0.00    -0.393 OA
HETATM   22  H   UNL     1     -27.845  -8.763 -16.803  1.00  0.00     0.210 HD
ENDBRANCH   2  21
BRANCH   4  23
HETATM   23  C   UNL     1     -25.125  -5.373 -15.397  1.00  0.00     0.205 C 
HETATM   24  O   UNL     1     -25.431  -4.293 -14.922  1.00  0.00    -0.646 OA
BRANCH  23  25
HETATM   25  O   UNL     1     -23.867  -5.884 -15.313  1.00  0.00    -0.772 OA
HETATM   26  H   UNL     1     -23.836  -6.532 -14.572  1.00  0.00     0.167 HD
ENDBRANCH  23  25
ENDBRANCH   4  23
BRANCH   4  27
HETATM   27  O   UNL     1     -25.652  -7.698 -16.035  1.00  0.00    -0.357 OA
HETATM   28  H   UNL     1     -26.254  -8.148 -15.413  1.00  0.00     0.213 HD
ENDBRANCH   4  27
TORSDOF 11
BEGIN_RES ARG D 557
REMARK  4 active torsions:
REMARK  status: ('A' for Active; 'I' for Inactive)
REMARK    1  A    between atoms: CA   and  CB  
REMARK    2  A    between atoms: CB   and  CG  
REMARK    3  A    between atoms: CG   and  CD  
REMARK    4  A    between atoms: CD   and  NE  
REMARK       I    between atoms: NE   and  CZ  
REMARK       I    between atoms: CZ   and  NH1 
REMARK       I    between atoms: CZ   and  NH2 
ROOT
ATOM      1  CA  ARG D 557     -26.217   2.705 -17.014  1.00 35.49     0.159 C 
ENDROOT
BRANCH   1   2
ATOM      2  CB  ARG D 557     -26.789   1.319 -17.183  1.00 35.49     0.034 C 
BRANCH   2   3
ATOM      3  CG  ARG D 557     -28.251   1.213 -17.269  1.00 35.49     0.027 C 
BRANCH   3   4
ATOM      4  CD  ARG D 557     -28.806   0.257 -16.285  1.00 35.49     0.116 C 
BRANCH   4   5
ATOM      5  NE  ARG D 557     -28.511  -1.109 -16.629  1.00 35.49    -0.212 N 
ATOM      6  CZ  ARG D 557     -27.529  -1.830 -16.137  1.00 35.49     0.666 C 
ATOM      7  NH1 ARG D 557     -26.672  -1.351 -15.253  1.00 35.49    -0.235 N 
ATOM      8  NH2 ARG D 557     -27.422  -3.060 -16.547  1.00 35.49    -0.235 N 
ATOM      9  HH  ARG D 557     -26.724  -0.545 -14.967  1.00 35.49     0.174 HD
ATOM     10  HH  ARG D 557     -26.053  -1.869 -14.965  1.00 35.49     0.174 HD
ATOM     11  HH  ARG D 557     -27.994  -3.344 -17.113  1.00 35.49     0.174 HD
ATOM     12  HH  ARG D 557     -26.804  -3.557 -16.249  1.00 35.49     0.174 HD
ATOM     13  HE  ARG D 557     -28.969  -1.473 -17.246  1.00 35.49     0.178 HD
ENDBRANCH   4   5
ENDBRANCH   3   4
ENDBRANCH   2   3
ENDBRANCH   1   2
END_RES ARG D 557
BEGIN_RES GLU D 570
REMARK  3 active torsions:
REMARK  status: ('A' for Active; 'I' for Inactive)
REMARK    5  A    between atoms: CA   and  CB  
REMARK    6  A    between atoms: CB   and  CG  
REMARK    7  A    between atoms: CG   and  CD  
ROOT
ATOM     14  CA  GLU D 570     -18.033  -6.348 -13.375  1.00 32.92     0.160 C 
ENDROOT
BRANCH  14  15
ATOM     15  CB  GLU D 570     -19.500  -6.345 -13.794  1.00 32.92     0.043 C 
BRANCH  15  16
ATOM     16  CG  GLU D 570     -19.798  -6.195 -15.242  1.00 32.92     0.100 C 
BRANCH  16  17
ATOM     17  CD  GLU D 570     -20.685  -7.294 -15.778  1.00 32.92     0.185 C 
ATOM     18  OE1 GLU D 570     -21.435  -7.051 -16.743  1.00 32.92    -0.647 OA
ATOM     19  OE2 GLU D 570     -20.643  -8.406 -15.215  1.00 32.92    -0.647 OA
ENDBRANCH  16  17
ENDBRANCH  15  16
ENDBRANCH  14  15
END_RES GLU D 570
ENDMDL
MODEL 8
REMARK VINA RESULT:      -5.3      7.714     10.114
REMARK  11 active torsions:
REMARK  status: ('A' for Active; 'I' for Inactive)
REMARK       I    between atoms: C_2  and  N_4 
REMARK    1  A    between atoms: N_4  and  C_5 
REMARK    2  A    between atoms: C_6  and  O_21 
REMARK    3  A    between atoms: C_8  and  C_17 
REMARK    4  A    between atoms: C_8  and  O_20 
REMARK    5  A    between atoms: C_10  and  C_11 
REMARK    6  A    between atoms: C_11  and  C_12 
REMARK    7  A    between atoms: C_11  and  O_16 
REMARK    8  A    between atoms: C_12  and  C_13 
REMARK    9  A    between atoms: C_12  and  O_15 
REMARK   10  A    between atoms: C_13  and  O_14 
REMARK   11  A    between atoms: C_17  and  O_19 
ROOT
HETATM    1  C   UNL     1     -20.283  -9.860  -4.016  1.00  0.00     0.145 C 
HETATM    2  C   UNL     1     -19.681 -10.413  -2.705  1.00  0.00     0.149 C 
HETATM    3  C   UNL     1     -20.722 -10.451  -1.584  1.00  0.00     0.114 C 
HETATM    4  C   UNL     1     -21.453  -9.111  -1.454  1.00  0.00     0.253 C 
HETATM    5  O   UNL     1     -22.000  -8.713  -2.725  1.00  0.00    -0.336 OA
HETATM    6  C   UNL     1     -20.973  -8.506  -3.719  1.00  0.00     0.182 C 
ENDROOT
BRANCH   6   7
HETATM    7  C   UNL     1     -21.541  -7.835  -4.997  1.00  0.00     0.180 C 
BRANCH   7   8
HETATM    8  C   UNL     1     -21.862  -6.331  -4.822  1.00  0.00     0.173 C 
BRANCH   8   9
HETATM    9  C   UNL     1     -20.937  -5.458  -5.690  1.00  0.00     0.198 C 
BRANCH   9  10
HETATM   10  O   UNL     1     -21.497  -5.293  -6.993  1.00  0.00    -0.398 OA
HETATM   11  H   UNL     1     -20.779  -4.988  -7.577  1.00  0.00     0.209 HD
ENDBRANCH   9  10
ENDBRANCH   8   9
BRANCH   8  12
HETATM   12  O   UNL     1     -23.224  -6.030  -5.163  1.00  0.00    -0.391 OA
HETATM   13  H   UNL     1     -23.231  -5.151  -5.583  1.00  0.00     0.210 HD
ENDBRANCH   8  12
ENDBRANCH   7   8
BRANCH   7  14
HETATM   14  O   UNL     1     -20.621  -7.992  -6.080  1.00  0.00    -0.390 OA
HETATM   15  H   UNL     1     -19.964  -7.271  -6.053  1.00  0.00     0.210 HD
ENDBRANCH   7  14
ENDBRANCH   6   7
BRANCH   1  16
HETATM   16  N   UNL     1     -21.223 -10.822  -4.605  1.00  0.00    -0.352 N 
HETATM   17  C   UNL     1     -21.022 -11.340  -5.867  1.00  0.00     0.214 C 
HETATM   18  C   UNL     1     -22.077 -12.322  -6.296  1.00  0.00     0.117 C 
HETATM   19  O   UNL     1     -20.065 -11.052  -6.574  1.00  0.00    -0.274 OA
HETATM   20  H   UNL     1     -21.918 -11.258  -4.012  1.00  0.00     0.163 HD
ENDBRANCH   1  16
BRANCH   2  21
HETATM   21  O   UNL     1     -18.555  -9.621  -2.310  1.00  0.00    -0.393 OA
HETATM   22  H   UNL     1     -17.746  -9.998  -2.712  1.00  0.00     0.210 HD
ENDBRANCH   2  21
BRANCH   4  23
HETATM   23  C   UNL     1     -22.637  -9.298  -0.451  1.00  0.00     0.205 C 
HETATM   24  O   UNL     1     -23.040  -8.455   0.331  1.00  0.00    -0.646 OA
BRANCH  23  25
HETATM   25  O   UNL     1     -23.216 -10.522  -0.575  1.00  0.00    -0.772 OA
HETATM   26  H   UNL     1     -23.606 -10.778   0.293  1.00  0.00     0.167 HD
ENDBRANCH  23  25
ENDBRANCH   4  23
BRANCH   4  27
HETATM   27  O   UNL     1     -20.543  -8.116  -1.008  1.00  0.00    -0.357 OA
HETATM   28  H   UNL     1     -19.674  -8.357  -1.379  1.00  0.00     0.213 HD
ENDBRANCH   4  27
TORSDOF 11
BEGIN_RES ARG D 557
REMARK  4 active torsions:
REMARK  status: ('A' for Active; 'I' for Inactive)
REMARK    1  A    between atoms: CA   and  CB  
REMARK    2  A    between atoms: CB   and  CG  
REMARK    3  A    between atoms: CG   and  CD  
REMARK    4  A    between atoms: CD   and  NE  
REMARK       I    between atoms: NE   and  CZ  
REMARK       I    between atoms: CZ   and  NH1 
REMARK       I    between atoms: CZ   and  NH2 
ROOT
ATOM      1  CA  ARG D 557     -26.217   2.705 -17.014  1.00 35.49     0.159 C 
ENDROOT
BRANCH   1   2
ATOM      2  CB  ARG D 557     -26.789   1.319 -17.183  1.00 35.49     0.034 C 
BRANCH   2   3
ATOM      3  CG  ARG D 557     -25.836   0.203 -17.157  1.00 35.49     0.027 C 
BRANCH   3   4
ATOM      4  CD  ARG D 557     -24.766   0.398 -16.151  1.00 35.49     0.116 C 
BRANCH   4   5
ATOM      5  NE  ARG D 557     -24.935  -0.459 -15.007  1.00 35.49    -0.212 N 
ATOM      6  CZ  ARG D 557     -24.128  -1.433 -14.651  1.00 35.49     0.666 C 
ATOM      7  NH1 ARG D 557     -23.047  -1.746 -15.341  1.00 35.49    -0.235 N 
ATOM      8  NH2 ARG D 557     -24.426  -2.094 -13.570  1.00 35.49    -0.235 N 
ATOM      9  HH  ARG D 557     -22.831  -1.323 -16.054  1.00 35.49     0.174 HD
ATOM     10  HH  ARG D 557     -22.557  -2.390 -15.059  1.00 35.49     0.174 HD
ATOM     11  HH  ARG D 557     -25.126  -1.865 -13.141  1.00 35.49     0.174 HD
ATOM     12  HH  ARG D 557     -23.927  -2.727 -13.307  1.00 35.49     0.174 HD
ATOM     13  HE  ARG D 557     -25.645  -0.375 -14.547  1.00 35.49     0.178 HD
ENDBRANCH   4   5
ENDBRANCH   3   4
ENDBRANCH   2   3
ENDBRANCH   1   2
END_RES ARG D 557
BEGIN_RES GLU D 570
REMARK  3 active torsions:
REMARK  status: ('A' for Active; 'I' for Inactive)
REMARK    5  A    between atoms: CA   and  CB  
REMARK    6  A    between atoms: CB   and  CG  
REMARK    7  A    between atoms: CG   and  CD  
ROOT
ATOM     14  CA  GLU D 570     -18.033  -6.348 -13.375  1.00 32.92     0.160 C 
ENDROOT
BRANCH  14  15
ATOM     15  CB  GLU D 570     -19.500  -6.345 -13.794  1.00 32.92     0.043 C 
BRANCH  15  16
ATOM     16  CG  GLU D 570     -20.441  -5.527 -12.986  1.00 32.92     0.100 C 
BRANCH  16  17
ATOM     17  CD  GLU D 570     -21.596  -4.985 -13.796  1.00 32.92     0.185 C 
ATOM     18  OE1 GLU D 570     -22.391  -4.190 -13.260  1.00 32.92    -0.647 OA
ATOM     19  OE2 GLU D 570     -21.717  -5.374 -14.975  1.00 32.92    -0.647 OA
ENDBRANCH  16  17
ENDBRANCH  15  16
ENDBRANCH  14  15
END_RES GLU D 570
ENDMDL
MODEL 9
REMARK VINA RESULT:      -5.2      8.141     10.291
REMARK  11 active torsions:
REMARK  status: ('A' for Active; 'I' for Inactive)
REMARK       I    between atoms: C_2  and  N_4 
REMARK    1  A    between atoms: N_4  and  C_5 
REMARK    2  A    between atoms: C_6  and  O_21 
REMARK    3  A    between atoms: C_8  and  C_17 
REMARK    4  A    between atoms: C_8  and  O_20 
REMARK    5  A    between atoms: C_10  and  C_11 
REMARK    6  A    between atoms: C_11  and  C_12 
REMARK    7  A    between atoms: C_11  and  O_16 
REMARK    8  A    between atoms: C_12  and  C_13 
REMARK    9  A    between atoms: C_12  and  O_15 
REMARK   10  A    between atoms: C_13  and  O_14 
REMARK   11  A    between atoms: C_17  and  O_19 
ROOT
HETATM    1  C   UNL     1     -20.950 -10.218  -2.412  1.00  0.00     0.145 C 
HETATM    2  C   UNL     1     -20.228  -8.899  -2.058  1.00  0.00     0.149 C 
HETATM    3  C   UNL     1     -20.829  -7.712  -2.812  1.00  0.00     0.114 C 
HETATM    4  C   UNL     1     -20.955  -8.006  -4.310  1.00  0.00     0.253 C 
HETATM    5  O   UNL     1     -21.672  -9.237  -4.521  1.00  0.00    -0.336 OA
HETATM    6  C   UNL     1     -20.985 -10.372  -3.953  1.00  0.00     0.182 C 
ENDROOT
BRANCH   6   7
HETATM    7  C   UNL     1     -21.624 -11.711  -4.403  1.00  0.00     0.180 C 
BRANCH   7   8
HETATM    8  C   UNL     1     -21.092 -12.233  -5.759  1.00  0.00     0.173 C 
BRANCH   8   9
HETATM    9  C   UNL     1     -21.956 -13.391  -6.290  1.00  0.00     0.198 C 
BRANCH   9  10
HETATM   10  O   UNL     1     -23.278 -13.302  -5.758  1.00  0.00    -0.398 OA
HETATM   11  H   UNL     1     -23.594 -14.213  -5.617  1.00  0.00     0.209 HD
ENDBRANCH   9  10
ENDBRANCH   8   9
BRANCH   8  12
HETATM   12  O   UNL     1     -21.055 -11.199  -6.755  1.00  0.00    -0.391 OA
HETATM   13  H   UNL     1     -21.000 -10.346  -6.288  1.00  0.00     0.210 HD
ENDBRANCH   8  12
ENDBRANCH   7   8
BRANCH   7  14
HETATM   14  O   UNL     1     -21.414 -12.712  -3.403  1.00  0.00    -0.390 OA
HETATM   15  H   UNL     1     -21.885 -12.457  -2.588  1.00  0.00     0.210 HD
ENDBRANCH   7  14
ENDBRANCH   6   7
BRANCH   1  16
HETATM   16  N   UNL     1     -22.303 -10.242  -1.842  1.00  0.00    -0.352 N 
HETATM   17  C   UNL     1     -22.557 -10.837  -0.625  1.00  0.00     0.214 C 
HETATM   18  C   UNL     1     -23.994 -10.749  -0.193  1.00  0.00     0.117 C 
HETATM   19  O   UNL     1     -21.695 -11.372   0.061  1.00  0.00    -0.274 OA
HETATM   20  H   UNL     1     -23.018  -9.651  -2.246  1.00  0.00     0.163 HD
ENDBRANCH   1  16
BRANCH   2  21
HETATM   21  O   UNL     1     -18.830  -9.013  -2.346  1.00  0.00    -0.393 OA
HETATM   22  H   UNL     1     -18.720  -9.275  -3.283  1.00  0.00     0.210 HD
ENDBRANCH   2  21
BRANCH   4  23
HETATM   23  C   UNL     1     -21.771  -6.847  -4.967  1.00  0.00     0.205 C 
HETATM   24  O   UNL     1     -22.649  -6.202  -4.418  1.00  0.00    -0.646 OA
BRANCH  23  25
HETATM   25  O   UNL     1     -21.360  -6.595  -6.238  1.00  0.00    -0.772 OA
HETATM   26  H   UNL     1     -22.124  -6.251  -6.757  1.00  0.00     0.167 HD
ENDBRANCH  23  25
ENDBRANCH   4  23
BRANCH   4  27
HETATM   27  O   UNL     1     -19.659  -8.120  -4.880  1.00  0.00    -0.357 OA
HETATM   28  H   UNL     1     -19.178  -7.311  -4.625  1.00  0.00     0.213 HD
ENDBRANCH   4  27
TORSDOF 11
BEGIN_RES ARG D 557
REMARK  4 active torsions:
REMARK  status: ('A' for Active; 'I' for Inactive)
REMARK    1  A    between atoms: CA   and  CB  
REMARK    2  A    between atoms: CB   and  CG  
REMARK    3  A    between atoms: CG   and  CD  
REMARK    4  A    between atoms: CD   and  NE  
REMARK       I    between atoms: NE   and  CZ  
REMARK       I    between atoms: CZ   and  NH1 
REMARK       I    between atoms: CZ   and  NH2 
ROOT
ATOM      1  CA  ARG D 557     -26.217   2.705 -17.014  1.00 35.49     0.159 C 
ENDROOT
BRANCH   1   2
ATOM      2  CB  ARG D 557     -26.789   1.319 -17.183  1.00 35.49     0.034 C 
BRANCH   2   3
ATOM      3  CG  ARG D 557     -25.835   0.203 -17.160  1.00 35.49     0.027 C 
BRANCH   3   4
ATOM      4  CD  ARG D 557     -24.744   0.414 -16.181  1.00 35.49     0.116 C 
BRANCH   4   5
ATOM      5  NE  ARG D 557     -24.887  -0.426 -15.021  1.00 35.49    -0.212 N 
ATOM      6  CZ  ARG D 557     -24.075  -1.399 -14.673  1.00 35.49     0.666 C 
ATOM      7  NH1 ARG D 557     -23.013  -1.726 -15.386  1.00 35.49    -0.235 N 
ATOM      8  NH2 ARG D 557     -24.346  -2.044 -13.575  1.00 35.49    -0.235 N 
ATOM      9  HH  ARG D 557     -22.814  -1.314 -16.110  1.00 35.49     0.174 HD
ATOM     10  HH  ARG D 557     -22.518  -2.368 -15.108  1.00 35.49     0.174 HD
ATOM     11  HH  ARG D 557     -25.034  -1.806 -13.131  1.00 35.49     0.174 HD
ATOM     12  HH  ARG D 557     -23.843  -2.675 -13.316  1.00 35.49     0.174 HD
ATOM     13  HE  ARG D 557     -25.584  -0.333 -14.543  1.00 35.49     0.178 HD
ENDBRANCH   4   5
ENDBRANCH   3   4
ENDBRANCH   2   3
ENDBRANCH   1   2
END_RES ARG D 557
BEGIN_RES GLU D 570
REMARK  3 active torsions:
REMARK  status: ('A' for Active; 'I' for Inactive)
REMARK    5  A    between atoms: CA   and  CB  
REMARK    6  A    between atoms: CB   and  CG  
REMARK    7  A    between atoms: CG   and  CD  
ROOT
ATOM     14  CA  GLU D 570     -18.033  -6.348 -13.375  1.00 32.92     0.160 C 
ENDROOT
BRANCH  14  15
ATOM     15  CB  GLU D 570     -19.500  -6.345 -13.794  1.00 32.92     0.043 C 
BRANCH  15  16
ATOM     16  CG  GLU D 570     -20.442  -5.531 -12.983  1.00 32.92     0.100 C 
BRANCH  16  17
ATOM     17  CD  GLU D 570     -21.742  -5.247 -13.698  1.00 32.92     0.185 C 
ATOM     18  OE1 GLU D 570     -22.216  -6.113 -14.459  1.00 32.92    -0.647 OA
ATOM     19  OE2 GLU D 570     -22.285  -4.141 -13.508  1.00 32.92    -0.647 OA
ENDBRANCH  16  17
ENDBRANCH  15  16
ENDBRANCH  14  15
END_RES GLU D 570
ENDMDL
