MODEL 1
REMARK VINA RESULT:      -6.4      0.000      0.000
REMARK  3 active torsions:
REMARK  status: ('A' for Active; 'I' for Inactive)
REMARK       I    between atoms: C_2  and  N_4 
REMARK    1  A    between atoms: C_6  and  O_12 
REMARK    2  A    between atoms: C_8  and  C_9 
REMARK    3  A    between atoms: C_9  and  O_11 
ROOT
HETATM    1  C   UNL     1     -32.991  -4.666 -16.453  1.00  0.00     0.117 C 
HETATM    2  C   UNL     1     -31.865  -4.073 -17.257  1.00  0.00     0.216 C 
HETATM    3  O   UNL     1     -31.945  -2.948 -17.757  1.00  0.00    -0.274 OA
HETATM    4  N   UNL     1     -30.700  -4.783 -17.356  1.00  0.00    -0.335 N 
HETATM    5  C   UNL     1     -30.328  -5.975 -16.606  1.00  0.00     0.158 C 
HETATM    6  C   UNL     1     -28.976  -6.419 -17.184  1.00  0.00     0.138 C 
HETATM    7  C   UNL     1     -28.748  -5.522 -18.404  1.00  0.00     0.069 C 
HETATM    8  C   UNL     1     -29.551  -4.267 -18.101  1.00  0.00     0.187 C 
ENDROOT
BRANCH   8   9
HETATM    9  C   UNL     1     -28.775  -3.239 -17.262  1.00  0.00     0.163 C 
HETATM   10  O   UNL     1     -27.837  -3.510 -16.527  1.00  0.00    -0.648 OA
BRANCH   9  11
HETATM   11  O   UNL     1     -29.217  -1.969 -17.427  1.00  0.00    -0.775 OA
HETATM   12  H   UNL     1     -29.999  -1.910 -18.031  1.00  0.00     0.167 HD
ENDBRANCH   9  11
ENDBRANCH   8   9
BRANCH   6  13
HETATM   13  O   UNL     1     -29.001  -7.786 -17.577  1.00  0.00    -0.394 OA
HETATM   14  H   UNL     1     -29.576  -8.276 -16.962  1.00  0.00     0.210 HD
ENDBRANCH   6  13
TORSDOF 3
BEGIN_RES ARG D 557
REMARK  4 active torsions:
REMARK  status: ('A' for Active; 'I' for Inactive)
REMARK    1  A    between atoms: CA   and  CB  
REMARK    2  A    between atoms: CB   and  CG  
REMARK    3  A    between atoms: CG   and  CD  
REMARK    4  A    between atoms: CD   and  NE  
REMARK       I    between atoms: NE   and  CZ  
REMARK       I    between atoms: CZ   and  NH1 
REMARK       I    between atoms: CZ   and  NH2 
ROOT
ATOM      1  CA  ARG D 557     -26.217   2.705 -17.014  1.00 35.49     0.159 C 
ENDROOT
BRANCH   1   2
ATOM      2  CB  ARG D 557     -26.789   1.319 -17.183  1.00 35.49     0.034 C 
BRANCH   2   3
ATOM      3  CG  ARG D 557     -25.866   0.195 -16.985  1.00 35.49     0.027 C 
BRANCH   3   4
ATOM      4  CD  ARG D 557     -26.261  -0.666 -15.847  1.00 35.49     0.116 C 
BRANCH   4   5
ATOM      5  NE  ARG D 557     -25.172  -0.894 -14.935  1.00 35.49    -0.212 N 
ATOM      6  CZ  ARG D 557     -24.883  -2.036 -14.353  1.00 35.49     0.666 C 
ATOM      7  NH1 ARG D 557     -25.599  -3.129 -14.541  1.00 35.49    -0.235 N 
ATOM      8  NH2 ARG D 557     -23.843  -2.065 -13.570  1.00 35.49    -0.235 N 
ATOM      9  HH  ARG D 557     -26.286  -3.133 -15.053  1.00 35.49     0.174 HD
ATOM     10  HH  ARG D 557     -25.362  -3.846 -14.137  1.00 35.49     0.174 HD
ATOM     11  HH  ARG D 557     -23.395  -1.346 -13.473  1.00 35.49     0.174 HD
ATOM     12  HH  ARG D 557     -23.624  -2.785 -13.180  1.00 35.49     0.174 HD
ATOM     13  HE  ARG D 557     -24.701  -0.225 -14.700  1.00 35.49     0.178 HD
ENDBRANCH   4   5
ENDBRANCH   3   4
ENDBRANCH   2   3
ENDBRANCH   1   2
END_RES ARG D 557
BEGIN_RES GLU D 570
REMARK  3 active torsions:
REMARK  status: ('A' for Active; 'I' for Inactive)
REMARK    5  A    between atoms: CA   and  CB  
REMARK    6  A    between atoms: CB   and  CG  
REMARK    7  A    between atoms: CG   and  CD  
ROOT
ATOM     14  CA  GLU D 570     -18.033  -6.348 -13.375  1.00 32.92     0.160 C 
ENDROOT
BRANCH  14  15
ATOM     15  CB  GLU D 570     -19.500  -6.345 -13.794  1.00 32.92     0.043 C 
BRANCH  15  16
ATOM     16  CG  GLU D 570     -20.448  -5.558 -12.963  1.00 32.92     0.100 C 
BRANCH  16  17
ATOM     17  CD  GLU D 570     -21.681  -5.128 -13.723  1.00 32.92     0.185 C 
ATOM     18  OE1 GLU D 570     -21.625  -5.034 -14.964  1.00 32.92    -0.647 OA
ATOM     19  OE2 GLU D 570     -22.709  -4.866 -13.068  1.00 32.92    -0.647 OA
ENDBRANCH  16  17
ENDBRANCH  15  16
ENDBRANCH  14  15
END_RES GLU D 570
ENDMDL
MODEL 2
REMARK VINA RESULT:      -6.3      3.694      6.725
REMARK  3 active torsions:
REMARK  status: ('A' for Active; 'I' for Inactive)
REMARK       I    between atoms: C_2  and  N_4 
REMARK    1  A    between atoms: C_6  and  O_12 
REMARK    2  A    between atoms: C_8  and  C_9 
REMARK    3  A    between atoms: C_9  and  O_11 
ROOT
HETATM    1  C   UNL     1     -24.540  -3.441 -10.375  1.00  0.00     0.117 C 
HETATM    2  C   UNL     1     -23.445  -3.369 -11.405  1.00  0.00     0.216 C 
HETATM    3  O   UNL     1     -22.296  -3.744 -11.160  1.00  0.00    -0.274 OA
HETATM    4  N   UNL     1     -23.772  -2.948 -12.665  1.00  0.00    -0.335 N 
HETATM    5  C   UNL     1     -25.108  -2.744 -13.207  1.00  0.00     0.158 C 
HETATM    6  C   UNL     1     -24.898  -2.169 -14.615  1.00  0.00     0.138 C 
HETATM    7  C   UNL     1     -23.394  -1.896 -14.715  1.00  0.00     0.069 C 
HETATM    8  C   UNL     1     -22.770  -2.871 -13.729  1.00  0.00     0.187 C 
ENDROOT
BRANCH   8   9
HETATM    9  C   UNL     1     -22.508  -4.259 -14.332  1.00  0.00     0.163 C 
HETATM   10  O   UNL     1     -22.918  -5.309 -13.860  1.00  0.00    -0.648 OA
BRANCH   9  11
HETATM   11  O   UNL     1     -21.783  -4.218 -15.476  1.00  0.00    -0.775 OA
HETATM   12  H   UNL     1     -20.829  -4.440 -15.334  1.00  0.00     0.167 HD
ENDBRANCH   9  11
ENDBRANCH   8   9
BRANCH   6  13
HETATM   13  O   UNL     1     -25.629  -0.964 -14.801  1.00  0.00    -0.394 OA
HETATM   14  H   UNL     1     -26.547  -1.109 -14.508  1.00  0.00     0.210 HD
ENDBRANCH   6  13
TORSDOF 3
BEGIN_RES ARG D 557
REMARK  4 active torsions:
REMARK  status: ('A' for Active; 'I' for Inactive)
REMARK    1  A    between atoms: CA   and  CB  
REMARK    2  A    between atoms: CB   and  CG  
REMARK    3  A    between atoms: CG   and  CD  
REMARK    4  A    between atoms: CD   and  NE  
REMARK       I    between atoms: NE   and  CZ  
REMARK       I    between atoms: CZ   and  NH1 
REMARK       I    between atoms: CZ   and  NH2 
ROOT
ATOM      1  CA  ARG D 557     -26.217   2.705 -17.014  1.00 35.49     0.159 C 
ENDROOT
BRANCH   1   2
ATOM      2  CB  ARG D 557     -26.789   1.319 -17.183  1.00 35.49     0.034 C 
BRANCH   2   3
ATOM      3  CG  ARG D 557     -28.231   1.227 -17.444  1.00 35.49     0.027 C 
BRANCH   3   4
ATOM      4  CD  ARG D 557     -28.916   0.308 -16.506  1.00 35.49     0.116 C 
BRANCH   4   5
ATOM      5  NE  ARG D 557     -28.151  -0.885 -16.259  1.00 35.49    -0.212 N 
ATOM      6  CZ  ARG D 557     -28.410  -2.079 -16.745  1.00 35.49     0.666 C 
ATOM      7  NH1 ARG D 557     -29.447  -2.316 -17.527  1.00 35.49    -0.235 N 
ATOM      8  NH2 ARG D 557     -27.595  -3.044 -16.432  1.00 35.49    -0.235 N 
ATOM      9  HH  ARG D 557     -29.995  -1.695 -17.747  1.00 35.49     0.174 HD
ATOM     10  HH  ARG D 557     -29.565  -3.114 -17.816  1.00 35.49     0.174 HD
ATOM     11  HH  ARG D 557     -26.930  -2.860 -15.931  1.00 35.49     0.174 HD
ATOM     12  HH  ARG D 557     -27.728  -3.827 -16.730  1.00 35.49     0.174 HD
ATOM     13  HE  ARG D 557     -27.506  -0.839 -15.706  1.00 35.49     0.178 HD
ENDBRANCH   4   5
ENDBRANCH   3   4
ENDBRANCH   2   3
ENDBRANCH   1   2
END_RES ARG D 557
BEGIN_RES GLU D 570
REMARK  3 active torsions:
REMARK  status: ('A' for Active; 'I' for Inactive)
REMARK    5  A    between atoms: CA   and  CB  
REMARK    6  A    between atoms: CB   and  CG  
REMARK    7  A    between atoms: CG   and  CD  
ROOT
ATOM     14  CA  GLU D 570     -18.033  -6.348 -13.375  1.00 32.92     0.160 C 
ENDROOT
BRANCH  14  15
ATOM     15  CB  GLU D 570     -19.500  -6.345 -13.794  1.00 32.92     0.043 C 
BRANCH  15  16
ATOM     16  CG  GLU D 570     -20.094  -7.640 -14.215  1.00 32.92     0.100 C 
BRANCH  16  17
ATOM     17  CD  GLU D 570     -20.534  -7.645 -15.660  1.00 32.92     0.185 C 
ATOM     18  OE1 GLU D 570     -20.630  -6.561 -16.267  1.00 32.92    -0.647 OA
ATOM     19  OE2 GLU D 570     -20.802  -8.743 -16.186  1.00 32.92    -0.647 OA
ENDBRANCH  16  17
ENDBRANCH  15  16
ENDBRANCH  14  15
END_RES GLU D 570
ENDMDL
MODEL 3
REMARK VINA RESULT:      -6.3      5.600      8.516
REMARK  3 active torsions:
REMARK  status: ('A' for Active; 'I' for Inactive)
REMARK       I    between atoms: C_2  and  N_4 
REMARK    1  A    between atoms: C_6  and  O_12 
REMARK    2  A    between atoms: C_8  and  C_9 
REMARK    3  A    between atoms: C_9  and  O_11 
ROOT
HETATM    1  C   UNL     1     -19.588  -4.229  -8.307  1.00  0.00     0.117 C 
HETATM    2  C   UNL     1     -21.001  -4.709  -8.504  1.00  0.00     0.216 C 
HETATM    3  O   UNL     1     -21.588  -5.371  -7.645  1.00  0.00    -0.274 OA
HETATM    4  N   UNL     1     -21.661  -4.322  -9.638  1.00  0.00    -0.335 N 
HETATM    5  C   UNL     1     -21.235  -3.322 -10.607  1.00  0.00     0.158 C 
HETATM    6  C   UNL     1     -22.285  -3.363 -11.727  1.00  0.00     0.138 C 
HETATM    7  C   UNL     1     -23.175  -4.565 -11.399  1.00  0.00     0.069 C 
HETATM    8  C   UNL     1     -23.044  -4.727  -9.893  1.00  0.00     0.187 C 
ENDROOT
BRANCH   8   9
HETATM    9  C   UNL     1     -24.025  -3.849  -9.102  1.00  0.00     0.163 C 
HETATM   10  O   UNL     1     -24.754  -3.003  -9.599  1.00  0.00    -0.648 OA
BRANCH   9  11
HETATM   11  O   UNL     1     -24.030  -4.113  -7.773  1.00  0.00    -0.775 OA
HETATM   12  H   UNL     1     -24.568  -3.464  -7.255  1.00  0.00     0.167 HD
ENDBRANCH   9  11
ENDBRANCH   8   9
BRANCH   6  13
HETATM   13  O   UNL     1     -21.680  -3.533 -13.003  1.00  0.00    -0.394 OA
HETATM   14  H   UNL     1     -20.793  -3.131 -12.983  1.00  0.00     0.210 HD
ENDBRANCH   6  13
TORSDOF 3
BEGIN_RES ARG D 557
REMARK  4 active torsions:
REMARK  status: ('A' for Active; 'I' for Inactive)
REMARK    1  A    between atoms: CA   and  CB  
REMARK    2  A    between atoms: CB   and  CG  
REMARK    3  A    between atoms: CG   and  CD  
REMARK    4  A    between atoms: CD   and  NE  
REMARK       I    between atoms: NE   and  CZ  
REMARK       I    between atoms: CZ   and  NH1 
REMARK       I    between atoms: CZ   and  NH2 
ROOT
ATOM      1  CA  ARG D 557     -26.217   2.705 -17.014  1.00 35.49     0.159 C 
ENDROOT
BRANCH   1   2
ATOM      2  CB  ARG D 557     -26.789   1.319 -17.183  1.00 35.49     0.034 C 
BRANCH   2   3
ATOM      3  CG  ARG D 557     -25.832   0.206 -17.195  1.00 35.49     0.027 C 
BRANCH   3   4
ATOM      4  CD  ARG D 557     -24.777   0.358 -16.167  1.00 35.49     0.116 C 
BRANCH   4   5
ATOM      5  NE  ARG D 557     -24.996  -0.502 -15.034  1.00 35.49    -0.212 N 
ATOM      6  CZ  ARG D 557     -24.208  -1.482 -14.650  1.00 35.49     0.666 C 
ATOM      7  NH1 ARG D 557     -23.102  -1.798 -15.298  1.00 35.49    -0.235 N 
ATOM      8  NH2 ARG D 557     -24.552  -2.146 -13.585  1.00 35.49    -0.235 N 
ATOM      9  HH  ARG D 557     -22.855  -1.373 -16.000  1.00 35.49     0.174 HD
ATOM     10  HH  ARG D 557     -22.626  -2.445 -15.000  1.00 35.49     0.174 HD
ATOM     11  HH  ARG D 557     -25.268  -1.915 -13.183  1.00 35.49     0.174 HD
ATOM     12  HH  ARG D 557     -24.067  -2.783 -13.305  1.00 35.49     0.174 HD
ATOM     13  HE  ARG D 557     -25.723  -0.416 -14.602  1.00 35.49     0.178 HD
ENDBRANCH   4   5
ENDBRANCH   3   4
ENDBRANCH   2   3
ENDBRANCH   1   2
END_RES ARG D 557
BEGIN_RES GLU D 570
REMARK  3 active torsions:
REMARK  status: ('A' for Active; 'I' for Inactive)
REMARK    5  A    between atoms: CA   and  CB  
REMARK    6  A    between atoms: CB   and  CG  
REMARK    7  A    between atoms: CG   and  CD  
ROOT
ATOM     14  CA  GLU D 570     -18.033  -6.348 -13.375  1.00 32.92     0.160 C 
ENDROOT
BRANCH  14  15
ATOM     15  CB  GLU D 570     -19.500  -6.345 -13.794  1.00 32.92     0.043 C 
BRANCH  15  16
ATOM     16  CG  GLU D 570     -19.810  -5.970 -15.198  1.00 32.92     0.100 C 
BRANCH  16  17
ATOM     17  CD  GLU D 570     -21.285  -5.740 -15.434  1.00 32.92     0.185 C 
ATOM     18  OE1 GLU D 570     -21.679  -4.593 -15.721  1.00 32.92    -0.647 OA
ATOM     19  OE2 GLU D 570     -22.055  -6.713 -15.315  1.00 32.92    -0.647 OA
ENDBRANCH  16  17
ENDBRANCH  15  16
ENDBRANCH  14  15
END_RES GLU D 570
ENDMDL
MODEL 4
REMARK VINA RESULT:      -6.3      4.605      8.173
REMARK  3 active torsions:
REMARK  status: ('A' for Active; 'I' for Inactive)
REMARK       I    between atoms: C_2  and  N_4 
REMARK    1  A    between atoms: C_6  and  O_12 
REMARK    2  A    between atoms: C_8  and  C_9 
REMARK    3  A    between atoms: C_9  and  O_11 
ROOT
HETATM    1  C   UNL     1     -19.974  -3.988  -8.819  1.00  0.00     0.117 C 
HETATM    2  C   UNL     1     -21.364  -4.528  -9.017  1.00  0.00     0.216 C 
HETATM    3  O   UNL     1     -21.944  -5.169  -8.136  1.00  0.00    -0.274 OA
HETATM    4  N   UNL     1     -22.016  -4.222 -10.180  1.00  0.00    -0.335 N 
HETATM    5  C   UNL     1     -21.607  -3.257 -11.191  1.00  0.00     0.158 C 
HETATM    6  C   UNL     1     -22.633  -3.391 -12.326  1.00  0.00     0.138 C 
HETATM    7  C   UNL     1     -23.485  -4.607 -11.954  1.00  0.00     0.069 C 
HETATM    8  C   UNL     1     -23.378  -4.690 -10.439  1.00  0.00     0.187 C 
ENDROOT
BRANCH   8   9
HETATM    9  C   UNL     1     -24.405  -3.810  -9.710  1.00  0.00     0.163 C 
HETATM   10  O   UNL     1     -25.262  -3.139 -10.266  1.00  0.00    -0.648 OA
BRANCH   9  11
HETATM   11  O   UNL     1     -24.292  -3.859  -8.361  1.00  0.00    -0.775 OA
HETATM   12  H   UNL     1     -24.982  -4.428  -7.938  1.00  0.00     0.167 HD
ENDBRANCH   9  11
ENDBRANCH   8   9
BRANCH   6  13
HETATM   13  O   UNL     1     -21.997  -3.602 -13.581  1.00  0.00    -0.394 OA
HETATM   14  H   UNL     1     -21.231  -4.188 -13.447  1.00  0.00     0.210 HD
ENDBRANCH   6  13
TORSDOF 3
BEGIN_RES ARG D 557
REMARK  4 active torsions:
REMARK  status: ('A' for Active; 'I' for Inactive)
REMARK    1  A    between atoms: CA   and  CB  
REMARK    2  A    between atoms: CB   and  CG  
REMARK    3  A    between atoms: CG   and  CD  
REMARK    4  A    between atoms: CD   and  NE  
REMARK       I    between atoms: NE   and  CZ  
REMARK       I    between atoms: CZ   and  NH1 
REMARK       I    between atoms: CZ   and  NH2 
ROOT
ATOM      1  CA  ARG D 557     -26.217   2.705 -17.014  1.00 35.49     0.159 C 
ENDROOT
BRANCH   1   2
ATOM      2  CB  ARG D 557     -26.789   1.319 -17.183  1.00 35.49     0.034 C 
BRANCH   2   3
ATOM      3  CG  ARG D 557     -28.217   1.153 -16.888  1.00 35.49     0.027 C 
BRANCH   3   4
ATOM      4  CD  ARG D 557     -28.600  -0.269 -16.733  1.00 35.49     0.116 C 
BRANCH   4   5
ATOM      5  NE  ARG D 557     -27.601  -1.025 -16.026  1.00 35.49    -0.212 N 
ATOM      6  CZ  ARG D 557     -27.432  -2.327 -16.094  1.00 35.49     0.666 C 
ATOM      7  NH1 ARG D 557     -28.199  -3.104 -16.836  1.00 35.49    -0.235 N 
ATOM      8  NH2 ARG D 557     -26.459  -2.843 -15.400  1.00 35.49    -0.235 N 
ATOM      9  HH  ARG D 557     -28.843  -2.785 -17.303  1.00 35.49     0.174 HD
ATOM     10  HH  ARG D 557     -28.040  -3.945 -16.844  1.00 35.49     0.174 HD
ATOM     11  HH  ARG D 557     -25.975  -2.316 -14.936  1.00 35.49     0.174 HD
ATOM     12  HH  ARG D 557     -26.317  -3.679 -15.422  1.00 35.49     0.174 HD
ATOM     13  HE  ARG D 557     -27.109  -0.613 -15.468  1.00 35.49     0.178 HD
ENDBRANCH   4   5
ENDBRANCH   3   4
ENDBRANCH   2   3
ENDBRANCH   1   2
END_RES ARG D 557
BEGIN_RES GLU D 570
REMARK  3 active torsions:
REMARK  status: ('A' for Active; 'I' for Inactive)
REMARK    5  A    between atoms: CA   and  CB  
REMARK    6  A    between atoms: CB   and  CG  
REMARK    7  A    between atoms: CG   and  CD  
ROOT
ATOM     14  CA  GLU D 570     -18.033  -6.348 -13.375  1.00 32.92     0.160 C 
ENDROOT
BRANCH  14  15
ATOM     15  CB  GLU D 570     -19.500  -6.345 -13.794  1.00 32.92     0.043 C 
BRANCH  15  16
ATOM     16  CG  GLU D 570     -19.797  -6.218 -15.244  1.00 32.92     0.100 C 
BRANCH  16  17
ATOM     17  CD  GLU D 570     -21.236  -5.848 -15.521  1.00 32.92     0.185 C 
ATOM     18  OE1 GLU D 570     -21.483  -4.969 -16.369  1.00 32.92    -0.647 OA
ATOM     19  OE2 GLU D 570     -22.125  -6.432 -14.870  1.00 32.92    -0.647 OA
ENDBRANCH  16  17
ENDBRANCH  15  16
ENDBRANCH  14  15
END_RES GLU D 570
ENDMDL
MODEL 5
REMARK VINA RESULT:      -5.9      1.837      3.184
REMARK  3 active torsions:
REMARK  status: ('A' for Active; 'I' for Inactive)
REMARK       I    between atoms: C_2  and  N_4 
REMARK    1  A    between atoms: C_6  and  O_12 
REMARK    2  A    between atoms: C_8  and  C_9 
REMARK    3  A    between atoms: C_9  and  O_11 
ROOT
HETATM    1  C   UNL     1     -27.100  -6.413 -19.736  1.00  0.00     0.117 C 
HETATM    2  C   UNL     1     -26.809  -6.245 -18.270  1.00  0.00     0.216 C 
HETATM    3  O   UNL     1     -25.678  -6.420 -17.807  1.00  0.00    -0.274 OA
HETATM    4  N   UNL     1     -27.819  -5.808 -17.457  1.00  0.00    -0.335 N 
HETATM    5  C   UNL     1     -29.114  -5.284 -17.866  1.00  0.00     0.158 C 
HETATM    6  C   UNL     1     -29.892  -5.049 -16.563  1.00  0.00     0.138 C 
HETATM    7  C   UNL     1     -29.021  -5.657 -15.460  1.00  0.00     0.069 C 
HETATM    8  C   UNL     1     -27.610  -5.598 -16.024  1.00  0.00     0.187 C 
ENDROOT
BRANCH   8   9
HETATM    9  C   UNL     1     -26.910  -4.254 -15.766  1.00  0.00     0.163 C 
HETATM   10  O   UNL     1     -27.430  -3.160 -15.929  1.00  0.00    -0.648 OA
BRANCH   9  11
HETATM   11  O   UNL     1     -25.642  -4.388 -15.308  1.00  0.00    -0.775 OA
HETATM   12  H   UNL     1     -25.604  -4.668 -14.360  1.00  0.00     0.167 HD
ENDBRANCH   9  11
ENDBRANCH   8   9
BRANCH   6  13
HETATM   13  O   UNL     1     -31.163  -5.687 -16.592  1.00  0.00    -0.394 OA
HETATM   14  H   UNL     1     -31.691  -5.295 -17.312  1.00  0.00     0.210 HD
ENDBRANCH   6  13
TORSDOF 3
BEGIN_RES ARG D 557
REMARK  4 active torsions:
REMARK  status: ('A' for Active; 'I' for Inactive)
REMARK    1  A    between atoms: CA   and  CB  
REMARK    2  A    between atoms: CB   and  CG  
REMARK    3  A    between atoms: CG   and  CD  
REMARK    4  A    between atoms: CD   and  NE  
REMARK       I    between atoms: NE   and  CZ  
REMARK       I    between atoms: CZ   and  NH1 
REMARK       I    between atoms: CZ   and  NH2 
ROOT
ATOM      1  CA  ARG D 557     -26.217   2.705 -17.014  1.00 35.49     0.159 C 
ENDROOT
BRANCH   1   2
ATOM      2  CB  ARG D 557     -26.789   1.319 -17.183  1.00 35.49     0.034 C 
BRANCH   2   3
ATOM      3  CG  ARG D 557     -25.836   0.203 -17.158  1.00 35.49     0.027 C 
BRANCH   3   4
ATOM      4  CD  ARG D 557     -24.772   0.393 -16.145  1.00 35.49     0.116 C 
BRANCH   4   5
ATOM      5  NE  ARG D 557     -24.943  -0.476 -15.010  1.00 35.49    -0.212 N 
ATOM      6  CZ  ARG D 557     -24.129  -1.444 -14.655  1.00 35.49     0.666 C 
ATOM      7  NH1 ARG D 557     -23.038  -1.740 -15.337  1.00 35.49    -0.235 N 
ATOM      8  NH2 ARG D 557     -24.429  -2.118 -13.583  1.00 35.49    -0.235 N 
ATOM      9  HH  ARG D 557     -22.819  -1.308 -16.044  1.00 35.49     0.174 HD
ATOM     10  HH  ARG D 557     -22.543  -2.381 -15.056  1.00 35.49     0.174 HD
ATOM     11  HH  ARG D 557     -25.136  -1.900 -13.158  1.00 35.49     0.174 HD
ATOM     12  HH  ARG D 557     -23.926  -2.748 -13.320  1.00 35.49     0.174 HD
ATOM     13  HE  ARG D 557     -25.658  -0.403 -14.555  1.00 35.49     0.178 HD
ENDBRANCH   4   5
ENDBRANCH   3   4
ENDBRANCH   2   3
ENDBRANCH   1   2
END_RES ARG D 557
BEGIN_RES GLU D 570
REMARK  3 active torsions:
REMARK  status: ('A' for Active; 'I' for Inactive)
REMARK    5  A    between atoms: CA   and  CB  
REMARK    6  A    between atoms: CB   and  CG  
REMARK    7  A    between atoms: CG   and  CD  
ROOT
ATOM     14  CA  GLU D 570     -18.033  -6.348 -13.375  1.00 32.92     0.160 C 
ENDROOT
BRANCH  14  15
ATOM     15  CB  GLU D 570     -19.500  -6.345 -13.794  1.00 32.92     0.043 C 
BRANCH  15  16
ATOM     16  CG  GLU D 570     -20.441  -5.529 -12.985  1.00 32.92     0.100 C 
BRANCH  16  17
ATOM     17  CD  GLU D 570     -21.739  -5.239 -13.703  1.00 32.92     0.185 C 
ATOM     18  OE1 GLU D 570     -22.183  -6.077 -14.512  1.00 32.92    -0.647 OA
ATOM     19  OE2 GLU D 570     -22.308  -4.156 -13.468  1.00 32.92    -0.647 OA
ENDBRANCH  16  17
ENDBRANCH  15  16
ENDBRANCH  14  15
END_RES GLU D 570
ENDMDL
MODEL 6
REMARK VINA RESULT:      -5.5      1.215      2.499
REMARK  3 active torsions:
REMARK  status: ('A' for Active; 'I' for Inactive)
REMARK       I    between atoms: C_2  and  N_4 
REMARK    1  A    between atoms: C_6  and  O_12 
REMARK    2  A    between atoms: C_8  and  C_9 
REMARK    3  A    between atoms: C_9  and  O_11 
ROOT
HETATM    1  C   UNL     1     -26.380  -5.979 -16.615  1.00  0.00     0.117 C 
HETATM    2  C   UNL     1     -27.730  -5.413 -16.269  1.00  0.00     0.216 C 
HETATM    3  O   UNL     1     -27.867  -4.538 -15.410  1.00  0.00    -0.274 OA
HETATM    4  N   UNL     1     -28.812  -5.835 -16.992  1.00  0.00    -0.335 N 
HETATM    5  C   UNL     1     -28.800  -6.631 -18.212  1.00  0.00     0.158 C 
HETATM    6  C   UNL     1     -30.275  -6.906 -18.537  1.00  0.00     0.138 C 
HETATM    7  C   UNL     1     -31.056  -6.387 -17.327  1.00  0.00     0.069 C 
HETATM    8  C   UNL     1     -30.155  -5.316 -16.732  1.00  0.00     0.187 C 
ENDROOT
BRANCH   8   9
HETATM    9  C   UNL     1     -30.343  -3.936 -17.382  1.00  0.00     0.163 C 
HETATM   10  O   UNL     1     -31.409  -3.345 -17.457  1.00  0.00    -0.648 OA
BRANCH   9  11
HETATM   11  O   UNL     1     -29.190  -3.407 -17.859  1.00  0.00    -0.775 OA
HETATM   12  H   UNL     1     -29.139  -3.425 -18.847  1.00  0.00     0.167 HD
ENDBRANCH   9  11
ENDBRANCH   8   9
BRANCH   6  13
HETATM   13  O   UNL     1     -30.518  -8.296 -18.719  1.00  0.00    -0.394 OA
HETATM   14  H   UNL     1     -30.456  -8.738 -17.853  1.00  0.00     0.210 HD
ENDBRANCH   6  13
TORSDOF 3
BEGIN_RES ARG D 557
REMARK  4 active torsions:
REMARK  status: ('A' for Active; 'I' for Inactive)
REMARK    1  A    between atoms: CA   and  CB  
REMARK    2  A    between atoms: CB   and  CG  
REMARK    3  A    between atoms: CG   and  CD  
REMARK    4  A    between atoms: CD   and  NE  
REMARK       I    between atoms: NE   and  CZ  
REMARK       I    between atoms: CZ   and  NH1 
REMARK       I    between atoms: CZ   and  NH2 
ROOT
ATOM      1  CA  ARG D 557     -26.217   2.705 -17.014  1.00 35.49     0.159 C 
ENDROOT
BRANCH   1   2
ATOM      2  CB  ARG D 557     -26.789   1.319 -17.183  1.00 35.49     0.034 C 
BRANCH   2   3
ATOM      3  CG  ARG D 557     -25.857   0.196 -17.026  1.00 35.49     0.027 C 
BRANCH   3   4
ATOM      4  CD  ARG D 557     -26.222  -0.687 -15.895  1.00 35.49     0.116 C 
BRANCH   4   5
ATOM      5  NE  ARG D 557     -25.150  -0.820 -14.943  1.00 35.49    -0.212 N 
ATOM      6  CZ  ARG D 557     -24.767  -1.939 -14.371  1.00 35.49     0.666 C 
ATOM      7  NH1 ARG D 557     -25.357  -3.096 -14.608  1.00 35.49    -0.235 N 
ATOM      8  NH2 ARG D 557     -23.761  -1.878 -13.547  1.00 35.49    -0.235 N 
ATOM      9  HH  ARG D 557     -26.019  -3.160 -15.148  1.00 35.49     0.174 HD
ATOM     10  HH  ARG D 557     -25.061  -3.794 -14.207  1.00 35.49     0.174 HD
ATOM     11  HH  ARG D 557     -23.394  -1.119 -13.419  1.00 35.49     0.174 HD
ATOM     12  HH  ARG D 557     -23.482  -2.580 -13.162  1.00 35.49     0.174 HD
ATOM     13  HE  ARG D 557     -24.762  -0.112 -14.677  1.00 35.49     0.178 HD
ENDBRANCH   4   5
ENDBRANCH   3   4
ENDBRANCH   2   3
ENDBRANCH   1   2
END_RES ARG D 557
BEGIN_RES GLU D 570
REMARK  3 active torsions:
REMARK  status: ('A' for Active; 'I' for Inactive)
REMARK    5  A    between atoms: CA   and  CB  
REMARK    6  A    between atoms: CB   and  CG  
REMARK    7  A    between atoms: CG   and  CD  
ROOT
ATOM     14  CA  GLU D 570     -18.033  -6.348 -13.375  1.00 32.92     0.160 C 
ENDROOT
BRANCH  14  15
ATOM     15  CB  GLU D 570     -19.500  -6.345 -13.794  1.00 32.92     0.043 C 
BRANCH  15  16
ATOM     16  CG  GLU D 570     -20.439  -5.519 -12.992  1.00 32.92     0.100 C 
BRANCH  16  17
ATOM     17  CD  GLU D 570     -21.639  -5.053 -13.784  1.00 32.92     0.185 C 
ATOM     18  OE1 GLU D 570     -21.582  -5.063 -15.029  1.00 32.92    -0.647 OA
ATOM     19  OE2 GLU D 570     -22.639  -4.659 -13.153  1.00 32.92    -0.647 OA
ENDBRANCH  16  17
ENDBRANCH  15  16
ENDBRANCH  14  15
END_RES GLU D 570
ENDMDL
MODEL 7
REMARK VINA RESULT:      -5.3      4.831      6.581
REMARK  3 active torsions:
REMARK  status: ('A' for Active; 'I' for Inactive)
REMARK       I    between atoms: C_2  and  N_4 
REMARK    1  A    between atoms: C_6  and  O_12 
REMARK    2  A    between atoms: C_8  and  C_9 
REMARK    3  A    between atoms: C_9  and  O_11 
ROOT
HETATM    1  C   UNL     1     -34.964  -4.173 -11.172  1.00  0.00     0.117 C 
HETATM    2  C   UNL     1     -34.649  -3.130 -12.209  1.00  0.00     0.216 C 
HETATM    3  O   UNL     1     -33.957  -3.384 -13.198  1.00  0.00    -0.274 OA
HETATM    4  N   UNL     1     -35.220  -1.893 -12.075  1.00  0.00    -0.335 N 
HETATM    5  C   UNL     1     -36.273  -1.506 -11.146  1.00  0.00     0.158 C 
HETATM    6  C   UNL     1     -36.456   0.006 -11.342  1.00  0.00     0.138 C 
HETATM    7  C   UNL     1     -35.318   0.431 -12.274  1.00  0.00     0.069 C 
HETATM    8  C   UNL     1     -34.981  -0.831 -13.052  1.00  0.00     0.187 C 
ENDROOT
BRANCH   8   9
HETATM    9  C   UNL     1     -35.860  -1.028 -14.297  1.00  0.00     0.163 C 
HETATM   10  O   UNL     1     -37.009  -0.626 -14.405  1.00  0.00    -0.648 OA
BRANCH   9  11
HETATM   11  O   UNL     1     -35.228  -1.683 -15.301  1.00  0.00    -0.775 OA
HETATM   12  H   UNL     1     -34.600  -2.374 -14.973  1.00  0.00     0.167 HD
ENDBRANCH   9  11
ENDBRANCH   8   9
BRANCH   6  13
HETATM   13  O   UNL     1     -36.367   0.707 -10.107  1.00  0.00    -0.394 OA
HETATM   14  H   UNL     1     -36.190   1.646 -10.295  1.00  0.00     0.210 HD
ENDBRANCH   6  13
TORSDOF 3
BEGIN_RES ARG D 557
REMARK  4 active torsions:
REMARK  status: ('A' for Active; 'I' for Inactive)
REMARK    1  A    between atoms: CA   and  CB  
REMARK    2  A    between atoms: CB   and  CG  
REMARK    3  A    between atoms: CG   and  CD  
REMARK    4  A    between atoms: CD   and  NE  
REMARK       I    between atoms: NE   and  CZ  
REMARK       I    between atoms: CZ   and  NH1 
REMARK       I    between atoms: CZ   and  NH2 
ROOT
ATOM      1  CA  ARG D 557     -26.217   2.705 -17.014  1.00 35.49     0.159 C 
ENDROOT
BRANCH   1   2
ATOM      2  CB  ARG D 557     -26.789   1.319 -17.183  1.00 35.49     0.034 C 
BRANCH   2   3
ATOM      3  CG  ARG D 557     -25.835   0.204 -17.166  1.00 35.49     0.027 C 
BRANCH   3   4
ATOM      4  CD  ARG D 557     -24.744   0.409 -16.186  1.00 35.49     0.116 C 
BRANCH   4   5
ATOM      5  NE  ARG D 557     -24.892  -0.430 -15.026  1.00 35.49    -0.212 N 
ATOM      6  CZ  ARG D 557     -24.080  -1.401 -14.672  1.00 35.49     0.666 C 
ATOM      7  NH1 ARG D 557     -23.014  -1.727 -15.379  1.00 35.49    -0.235 N 
ATOM      8  NH2 ARG D 557     -24.357  -2.046 -13.576  1.00 35.49    -0.235 N 
ATOM      9  HH  ARG D 557     -22.811  -1.315 -16.103  1.00 35.49     0.174 HD
ATOM     10  HH  ARG D 557     -22.520  -2.368 -15.098  1.00 35.49     0.174 HD
ATOM     11  HH  ARG D 557     -25.048  -1.808 -13.136  1.00 35.49     0.174 HD
ATOM     12  HH  ARG D 557     -23.855  -2.676 -13.313  1.00 35.49     0.174 HD
ATOM     13  HE  ARG D 557     -25.592  -0.337 -14.553  1.00 35.49     0.178 HD
ENDBRANCH   4   5
ENDBRANCH   3   4
ENDBRANCH   2   3
ENDBRANCH   1   2
END_RES ARG D 557
BEGIN_RES GLU D 570
REMARK  3 active torsions:
REMARK  status: ('A' for Active; 'I' for Inactive)
REMARK    5  A    between atoms: CA   and  CB  
REMARK    6  A    between atoms: CB   and  CG  
REMARK    7  A    between atoms: CG   and  CD  
ROOT
ATOM     14  CA  GLU D 570     -18.033  -6.348 -13.375  1.00 32.92     0.160 C 
ENDROOT
BRANCH  14  15
ATOM     15  CB  GLU D 570     -19.500  -6.345 -13.794  1.00 32.92     0.043 C 
BRANCH  15  16
ATOM     16  CG  GLU D 570     -20.442  -5.531 -12.983  1.00 32.92     0.100 C 
BRANCH  16  17
ATOM     17  CD  GLU D 570     -21.740  -5.242 -13.701  1.00 32.92     0.185 C 
ATOM     18  OE1 GLU D 570     -22.316  -4.156 -13.496  1.00 32.92    -0.647 OA
ATOM     19  OE2 GLU D 570     -22.194  -6.118 -14.462  1.00 32.92    -0.647 OA
ENDBRANCH  16  17
ENDBRANCH  15  16
ENDBRANCH  14  15
END_RES GLU D 570
ENDMDL
MODEL 8
REMARK VINA RESULT:      -5.2      5.585      8.452
REMARK  3 active torsions:
REMARK  status: ('A' for Active; 'I' for Inactive)
REMARK       I    between atoms: C_2  and  N_4 
REMARK    1  A    between atoms: C_6  and  O_12 
REMARK    2  A    between atoms: C_8  and  C_9 
REMARK    3  A    between atoms: C_9  and  O_11 
ROOT
HETATM    1  C   UNL     1     -21.143  -5.163  -7.149  1.00  0.00     0.117 C 
HETATM    2  C   UNL     1     -21.016  -4.298  -8.373  1.00  0.00     0.216 C 
HETATM    3  O   UNL     1     -19.935  -3.812  -8.717  1.00  0.00    -0.274 OA
HETATM    4  N   UNL     1     -22.123  -4.123  -9.158  1.00  0.00    -0.335 N 
HETATM    5  C   UNL     1     -23.387  -4.841  -9.069  1.00  0.00     0.158 C 
HETATM    6  C   UNL     1     -24.309  -4.179 -10.104  1.00  0.00     0.138 C 
HETATM    7  C   UNL     1     -23.536  -2.954 -10.603  1.00  0.00     0.069 C 
HETATM    8  C   UNL     1     -22.076  -3.315 -10.377  1.00  0.00     0.187 C 
ENDROOT
BRANCH   8   9
HETATM    9  C   UNL     1     -21.462  -4.113 -11.537  1.00  0.00     0.163 C 
HETATM   10  O   UNL     1     -22.096  -4.834 -12.295  1.00  0.00    -0.648 OA
BRANCH   9  11
HETATM   11  O   UNL     1     -20.126  -3.929 -11.668  1.00  0.00    -0.775 OA
HETATM   12  H   UNL     1     -19.597  -4.557 -11.116  1.00  0.00     0.167 HD
ENDBRANCH   9  11
ENDBRANCH   8   9
BRANCH   6  13
HETATM   13  O   UNL     1     -25.543  -3.777  -9.523  1.00  0.00    -0.394 OA
HETATM   14  H   UNL     1     -25.753  -4.384  -8.790  1.00  0.00     0.210 HD
ENDBRANCH   6  13
TORSDOF 3
BEGIN_RES ARG D 557
REMARK  4 active torsions:
REMARK  status: ('A' for Active; 'I' for Inactive)
REMARK    1  A    between atoms: CA   and  CB  
REMARK    2  A    between atoms: CB   and  CG  
REMARK    3  A    between atoms: CG   and  CD  
REMARK    4  A    between atoms: CD   and  NE  
REMARK       I    between atoms: NE   and  CZ  
REMARK       I    between atoms: CZ   and  NH1 
REMARK       I    between atoms: CZ   and  NH2 
ROOT
ATOM      1  CA  ARG D 557     -26.217   2.705 -17.014  1.00 35.49     0.159 C 
ENDROOT
BRANCH   1   2
ATOM      2  CB  ARG D 557     -26.789   1.319 -17.183  1.00 35.49     0.034 C 
BRANCH   2   3
ATOM      3  CG  ARG D 557     -25.838   0.202 -17.140  1.00 35.49     0.027 C 
BRANCH   3   4
ATOM      4  CD  ARG D 557     -24.743   0.430 -16.169  1.00 35.49     0.116 C 
BRANCH   4   5
ATOM      5  NE  ARG D 557     -24.830  -0.455 -15.037  1.00 35.49    -0.212 N 
ATOM      6  CZ  ARG D 557     -23.980  -1.414 -14.745  1.00 35.49     0.666 C 
ATOM      7  NH1 ARG D 557     -22.928  -1.683 -15.496  1.00 35.49    -0.235 N 
ATOM      8  NH2 ARG D 557     -24.203  -2.106 -13.665  1.00 35.49    -0.235 N 
ATOM      9  HH  ARG D 557     -22.761  -1.239 -16.210  1.00 35.49     0.174 HD
ATOM     10  HH  ARG D 557     -22.407  -2.318 -15.255  1.00 35.49     0.174 HD
ATOM     11  HH  ARG D 557     -24.886  -1.905 -13.196  1.00 35.49     0.174 HD
ATOM     12  HH  ARG D 557     -23.675  -2.730 -13.442  1.00 35.49     0.174 HD
ATOM     13  HE  ARG D 557     -25.517  -0.400 -14.539  1.00 35.49     0.178 HD
ENDBRANCH   4   5
ENDBRANCH   3   4
ENDBRANCH   2   3
ENDBRANCH   1   2
END_RES ARG D 557
BEGIN_RES GLU D 570
REMARK  3 active torsions:
REMARK  status: ('A' for Active; 'I' for Inactive)
REMARK    5  A    between atoms: CA   and  CB  
REMARK    6  A    between atoms: CB   and  CG  
REMARK    7  A    between atoms: CG   and  CD  
ROOT
ATOM     14  CA  GLU D 570     -18.033  -6.348 -13.375  1.00 32.92     0.160 C 
ENDROOT
BRANCH  14  15
ATOM     15  CB  GLU D 570     -19.500  -6.345 -13.794  1.00 32.92     0.043 C 
BRANCH  15  16
ATOM     16  CG  GLU D 570     -19.821  -5.857 -15.160  1.00 32.92     0.100 C 
BRANCH  16  17
ATOM     17  CD  GLU D 570     -21.303  -5.672 -15.387  1.00 32.92     0.185 C 
ATOM     18  OE1 GLU D 570     -21.736  -4.536 -15.657  1.00 32.92    -0.647 OA
ATOM     19  OE2 GLU D 570     -22.041  -6.671 -15.277  1.00 32.92    -0.647 OA
ENDBRANCH  16  17
ENDBRANCH  15  16
ENDBRANCH  14  15
END_RES GLU D 570
ENDMDL
MODEL 9
REMARK VINA RESULT:      -5.1      4.983      6.892
REMARK  3 active torsions:
REMARK  status: ('A' for Active; 'I' for Inactive)
REMARK       I    between atoms: C_2  and  N_4 
REMARK    1  A    between atoms: C_6  and  O_12 
REMARK    2  A    between atoms: C_8  and  C_9 
REMARK    3  A    between atoms: C_9  and  O_11 
ROOT
HETATM    1  C   UNL     1     -34.965  -4.186 -11.303  1.00  0.00     0.117 C 
HETATM    2  C   UNL     1     -34.661  -3.125 -12.326  1.00  0.00     0.216 C 
HETATM    3  O   UNL     1     -33.989  -3.366 -13.333  1.00  0.00    -0.274 OA
HETATM    4  N   UNL     1     -35.220  -1.888 -12.159  1.00  0.00    -0.335 N 
HETATM    5  C   UNL     1     -36.253  -1.510 -11.204  1.00  0.00     0.158 C 
HETATM    6  C   UNL     1     -36.429   0.007 -11.369  1.00  0.00     0.138 C 
HETATM    7  C   UNL     1     -35.304   0.441 -12.313  1.00  0.00     0.069 C 
HETATM    8  C   UNL     1     -34.991  -0.809 -13.121  1.00  0.00     0.187 C 
ENDROOT
BRANCH   8   9
HETATM    9  C   UNL     1     -35.894  -0.977 -14.353  1.00  0.00     0.163 C 
HETATM   10  O   UNL     1     -37.053  -0.594 -14.420  1.00  0.00    -0.648 OA
BRANCH   9  11
HETATM   11  O   UNL     1     -35.272  -1.580 -15.395  1.00  0.00    -0.775 OA
HETATM   12  H   UNL     1     -34.824  -2.424 -15.137  1.00  0.00     0.167 HD
ENDBRANCH   9  11
ENDBRANCH   8   9
BRANCH   6  13
HETATM   13  O   UNL     1     -36.312   0.684 -10.123  1.00  0.00    -0.394 OA
HETATM   14  H   UNL     1     -35.371   0.722  -9.877  1.00  0.00     0.210 HD
ENDBRANCH   6  13
TORSDOF 3
BEGIN_RES ARG D 557
REMARK  4 active torsions:
REMARK  status: ('A' for Active; 'I' for Inactive)
REMARK    1  A    between atoms: CA   and  CB  
REMARK    2  A    between atoms: CB   and  CG  
REMARK    3  A    between atoms: CG   and  CD  
REMARK    4  A    between atoms: CD   and  NE  
REMARK       I    between atoms: NE   and  CZ  
REMARK       I    between atoms: CZ   and  NH1 
REMARK       I    between atoms: CZ   and  NH2 
ROOT
ATOM      1  CA  ARG D 557     -26.217   2.705 -17.014  1.00 35.49     0.159 C 
ENDROOT
BRANCH   1   2
ATOM      2  CB  ARG D 557     -26.789   1.319 -17.183  1.00 35.49     0.034 C 
BRANCH   2   3
ATOM      3  CG  ARG D 557     -28.232   1.226 -17.437  1.00 35.49     0.027 C 
BRANCH   3   4
ATOM      4  CD  ARG D 557     -28.913   0.308 -16.496  1.00 35.49     0.116 C 
BRANCH   4   5
ATOM      5  NE  ARG D 557     -29.316  -0.919 -17.131  1.00 35.49    -0.212 N 
ATOM      6  CZ  ARG D 557     -28.693  -2.073 -17.039  1.00 35.49     0.666 C 
ATOM      7  NH1 ARG D 557     -27.584  -2.226 -16.338  1.00 35.49    -0.235 N 
ATOM      8  NH2 ARG D 557     -29.213  -3.088 -17.666  1.00 35.49    -0.235 N 
ATOM      9  HH  ARG D 557     -27.226  -1.572 -15.916  1.00 35.49     0.174 HD
ATOM     10  HH  ARG D 557     -27.224  -3.003 -16.312  1.00 35.49     0.174 HD
ATOM     11  HH  ARG D 557     -29.933  -2.961 -18.104  1.00 35.49     0.174 HD
ATOM     12  HH  ARG D 557     -28.842  -3.849 -17.626  1.00 35.49     0.174 HD
ATOM     13  HE  ARG D 557     -29.980  -0.895 -17.662  1.00 35.49     0.178 HD
ENDBRANCH   4   5
ENDBRANCH   3   4
ENDBRANCH   2   3
ENDBRANCH   1   2
END_RES ARG D 557
BEGIN_RES GLU D 570
REMARK  3 active torsions:
REMARK  status: ('A' for Active; 'I' for Inactive)
REMARK    5  A    between atoms: CA   and  CB  
REMARK    6  A    between atoms: CB   and  CG  
REMARK    7  A    between atoms: CG   and  CD  
ROOT
ATOM     14  CA  GLU D 570     -18.033  -6.348 -13.375  1.00 32.92     0.160 C 
ENDROOT
BRANCH  14  15
ATOM     15  CB  GLU D 570     -19.500  -6.345 -13.794  1.00 32.92     0.043 C 
BRANCH  15  16
ATOM     16  CG  GLU D 570     -20.442  -5.529 -12.984  1.00 32.92     0.100 C 
BRANCH  16  17
ATOM     17  CD  GLU D 570     -21.735  -5.233 -13.706  1.00 32.92     0.185 C 
ATOM     18  OE1 GLU D 570     -22.326  -4.161 -13.473  1.00 32.92    -0.647 OA
ATOM     19  OE2 GLU D 570     -22.171  -6.089 -14.500  1.00 32.92    -0.647 OA
ENDBRANCH  16  17
ENDBRANCH  15  16
ENDBRANCH  14  15
END_RES GLU D 570
ENDMDL
