MODEL 1
REMARK VINA RESULT:      -7.7      0.000      0.000
REMARK  18 active torsions:
REMARK  status: ('A' for Active; 'I' for Inactive)
REMARK    1  A    between atoms: C_2  and  C_4 
REMARK    2  A    between atoms: C_4  and  C_5 
REMARK    3  A    between atoms: C_5  and  C_6 
REMARK    4  A    between atoms: C_6  and  C_7 
REMARK    5  A    between atoms: C_7  and  C_8 
REMARK    6  A    between atoms: C_8  and  C_9 
REMARK    7  A    between atoms: C_9  and  C_10 
REMARK    8  A    between atoms: C_10  and  C_11 
REMARK    9  A    between atoms: C_11  and  C_12 
REMARK   10  A    between atoms: C_12  and  C_13 
REMARK   11  A    between atoms: C_13  and  C_14 
REMARK   12  A    between atoms: C_14  and  C_15 
REMARK   13  A    between atoms: C_15  and  C_16 
REMARK   14  A    between atoms: C_16  and  C_17 
REMARK   15  A    between atoms: C_17  and  C_18 
REMARK       I    between atoms: C_18  and  N_20 
REMARK   16  A    between atoms: N_20  and  C_21 
REMARK   17  A    between atoms: C_21  and  C_22 
REMARK   18  A    between atoms: C_22  and  O_24 
ROOT
HETATM    1  C   UNL     1     -19.760  -4.529  -7.341  1.00  0.00     0.000 C 
ENDROOT
BRANCH   1   2
HETATM    2  C   UNL     1     -20.187  -5.147  -6.018  1.00  0.00     0.000 C 
BRANCH   2   3
HETATM    3  C   UNL     1     -20.982  -6.421  -6.264  1.00  0.00     0.000 C 
BRANCH   3   4
HETATM    4  C   UNL     1     -21.127  -7.208  -4.974  1.00  0.00     0.000 C 
BRANCH   4   5
HETATM    5  C   UNL     1     -21.716  -6.328  -3.884  1.00  0.00     0.000 C 
BRANCH   5   6
HETATM    6  C   UNL     1     -21.232  -6.794  -2.522  1.00  0.00     0.000 C 
BRANCH   6   7
HETATM    7  C   UNL     1     -22.321  -6.590  -1.484  1.00  0.00     0.000 C 
BRANCH   7   8
HETATM    8  C   UNL     1     -22.009  -7.383  -0.223  1.00  0.00     0.000 C 
BRANCH   8   9
HETATM    9  C   UNL     1     -23.066  -8.458  -0.027  1.00  0.00     0.000 C 
BRANCH   9  10
HETATM   10  C   UNL     1     -22.661  -9.763  -0.704  1.00  0.00     0.004 C 
BRANCH  10  11
HETATM   11  C   UNL     1     -23.210 -10.997   0.028  1.00  0.00    -0.023 C 
HETATM   12  C   UNL     1     -24.241 -11.698  -0.857  1.00  0.00     0.009 C 
HETATM   13  C   UNL     1     -22.105 -11.981   0.418  1.00  0.00     0.009 C 
ENDBRANCH  10  11
ENDBRANCH   9  10
ENDBRANCH   8   9
ENDBRANCH   7   8
ENDBRANCH   6   7
ENDBRANCH   5   6
ENDBRANCH   4   5
ENDBRANCH   3   4
ENDBRANCH   2   3
ENDBRANCH   1   2
BRANCH   1  14
HETATM   14  C   UNL     1     -20.976  -4.051  -8.121  1.00  0.00     0.000 C 
BRANCH  14  15
HETATM   15  C   UNL     1     -20.693  -4.030  -9.620  1.00  0.00     0.000 C 
BRANCH  15  16
HETATM   16  C   UNL     1     -21.915  -3.519 -10.373  1.00  0.00     0.009 C 
BRANCH  16  17
HETATM   17  C   UNL     1     -23.212  -3.751  -9.604  1.00  0.00     0.103 C 
BRANCH  17  18
HETATM   18  C   UNL     1     -24.414  -3.376 -10.451  1.00  0.00     0.217 C 
HETATM   19  O   UNL     1     -25.546  -3.234  -9.997  1.00  0.00    -0.274 OA
HETATM   20  N   UNL     1     -24.119  -3.192 -11.783  1.00  0.00    -0.359 N 
HETATM   21  H   UNL     1     -23.192  -3.410 -12.124  1.00  0.00     0.162 HD
BRANCH  20  22
HETATM   22  C   UNL     1     -25.160  -2.850 -12.735  1.00  0.00     0.153 C 
BRANCH  22  23
HETATM   23  C   UNL     1     -24.627  -2.606 -14.159  1.00  0.00     0.132 C 
HETATM   24  C   UNL     1     -23.230  -2.007 -14.109  1.00  0.00     0.041 C 
BRANCH  23  25
HETATM   25  O   UNL     1     -24.518  -3.839 -14.880  1.00  0.00    -0.394 OA
HETATM   26  H   UNL     1     -24.907  -4.514 -14.299  1.00  0.00     0.210 HD
ENDBRANCH  23  25
ENDBRANCH  22  23
ENDBRANCH  20  22
ENDBRANCH  17  18
ENDBRANCH  16  17
ENDBRANCH  15  16
ENDBRANCH  14  15
ENDBRANCH   1  14
TORSDOF 18
BEGIN_RES ARG D 557
REMARK  4 active torsions:
REMARK  status: ('A' for Active; 'I' for Inactive)
REMARK    1  A    between atoms: CA   and  CB  
REMARK    2  A    between atoms: CB   and  CG  
REMARK    3  A    between atoms: CG   and  CD  
REMARK    4  A    between atoms: CD   and  NE  
REMARK       I    between atoms: NE   and  CZ  
REMARK       I    between atoms: CZ   and  NH1 
REMARK       I    between atoms: CZ   and  NH2 
ROOT
ATOM      1  CA  ARG D 557     -26.217   2.705 -17.014  1.00 35.49     0.159 C 
ENDROOT
BRANCH   1   2
ATOM      2  CB  ARG D 557     -26.789   1.319 -17.183  1.00 35.49     0.034 C 
BRANCH   2   3
ATOM      3  CG  ARG D 557     -28.237   1.225 -17.407  1.00 35.49     0.027 C 
BRANCH   3   4
ATOM      4  CD  ARG D 557     -28.892   0.283 -16.471  1.00 35.49     0.116 C 
BRANCH   4   5
ATOM      5  NE  ARG D 557     -29.282  -0.942 -17.119  1.00 35.49    -0.212 N 
ATOM      6  CZ  ARG D 557     -28.650  -2.091 -17.033  1.00 35.49     0.666 C 
ATOM      7  NH1 ARG D 557     -27.543  -2.240 -16.329  1.00 35.49    -0.235 N 
ATOM      8  NH2 ARG D 557     -29.159  -3.105 -17.671  1.00 35.49    -0.235 N 
ATOM      9  HH  ARG D 557     -27.192  -1.587 -15.900  1.00 35.49     0.174 HD
ATOM     10  HH  ARG D 557     -27.176  -3.014 -16.308  1.00 35.49     0.174 HD
ATOM     11  HH  ARG D 557     -29.879  -2.981 -18.111  1.00 35.49     0.174 HD
ATOM     12  HH  ARG D 557     -28.781  -3.863 -17.636  1.00 35.49     0.174 HD
ATOM     13  HE  ARG D 557     -29.945  -0.919 -17.651  1.00 35.49     0.178 HD
ENDBRANCH   4   5
ENDBRANCH   3   4
ENDBRANCH   2   3
ENDBRANCH   1   2
END_RES ARG D 557
BEGIN_RES GLU D 570
REMARK  3 active torsions:
REMARK  status: ('A' for Active; 'I' for Inactive)
REMARK    5  A    between atoms: CA   and  CB  
REMARK    6  A    between atoms: CB   and  CG  
REMARK    7  A    between atoms: CG   and  CD  
ROOT
ATOM     14  CA  GLU D 570     -18.033  -6.348 -13.375  1.00 32.92     0.160 C 
ENDROOT
BRANCH  14  15
ATOM     15  CB  GLU D 570     -19.500  -6.345 -13.794  1.00 32.92     0.043 C 
BRANCH  15  16
ATOM     16  CG  GLU D 570     -20.430  -5.479 -13.024  1.00 32.92     0.100 C 
BRANCH  16  17
ATOM     17  CD  GLU D 570     -21.758  -5.279 -13.717  1.00 32.92     0.185 C 
ATOM     18  OE1 GLU D 570     -22.809  -5.408 -13.059  1.00 32.92    -0.647 OA
ATOM     19  OE2 GLU D 570     -21.748  -5.007 -14.933  1.00 32.92    -0.647 OA
ENDBRANCH  16  17
ENDBRANCH  15  16
ENDBRANCH  14  15
END_RES GLU D 570
ENDMDL
MODEL 2
REMARK VINA RESULT:      -7.6      1.471      2.076
REMARK  18 active torsions:
REMARK  status: ('A' for Active; 'I' for Inactive)
REMARK    1  A    between atoms: C_2  and  C_4 
REMARK    2  A    between atoms: C_4  and  C_5 
REMARK    3  A    between atoms: C_5  and  C_6 
REMARK    4  A    between atoms: C_6  and  C_7 
REMARK    5  A    between atoms: C_7  and  C_8 
REMARK    6  A    between atoms: C_8  and  C_9 
REMARK    7  A    between atoms: C_9  and  C_10 
REMARK    8  A    between atoms: C_10  and  C_11 
REMARK    9  A    between atoms: C_11  and  C_12 
REMARK   10  A    between atoms: C_12  and  C_13 
REMARK   11  A    between atoms: C_13  and  C_14 
REMARK   12  A    between atoms: C_14  and  C_15 
REMARK   13  A    between atoms: C_15  and  C_16 
REMARK   14  A    between atoms: C_16  and  C_17 
REMARK   15  A    between atoms: C_17  and  C_18 
REMARK       I    between atoms: C_18  and  N_20 
REMARK   16  A    between atoms: N_20  and  C_21 
REMARK   17  A    between atoms: C_21  and  C_22 
REMARK   18  A    between atoms: C_22  and  O_24 
ROOT
HETATM    1  C   UNL     1     -21.201  -3.755  -7.203  1.00  0.00     0.000 C 
ENDROOT
BRANCH   1   2
HETATM    2  C   UNL     1     -19.982  -4.464  -6.630  1.00  0.00     0.000 C 
BRANCH   2   3
HETATM    3  C   UNL     1     -20.314  -5.072  -5.276  1.00  0.00     0.000 C 
BRANCH   3   4
HETATM    4  C   UNL     1     -20.888  -6.467  -5.453  1.00  0.00     0.000 C 
BRANCH   4   5
HETATM    5  C   UNL     1     -22.165  -6.617  -4.643  1.00  0.00     0.000 C 
BRANCH   5   6
HETATM    6  C   UNL     1     -21.860  -6.472  -3.162  1.00  0.00     0.000 C 
BRANCH   6   7
HETATM    7  C   UNL     1     -20.917  -7.574  -2.714  1.00  0.00     0.000 C 
BRANCH   7   8
HETATM    8  C   UNL     1     -20.944  -7.712  -1.198  1.00  0.00     0.000 C 
BRANCH   8   9
HETATM    9  C   UNL     1     -22.360  -7.481  -0.694  1.00  0.00     0.000 C 
BRANCH   9  10
HETATM   10  C   UNL     1     -22.774  -8.555   0.307  1.00  0.00     0.004 C 
BRANCH  10  11
HETATM   11  C   UNL     1     -22.657  -9.973  -0.272  1.00  0.00    -0.023 C 
HETATM   12  C   UNL     1     -21.574 -10.744   0.482  1.00  0.00     0.009 C 
HETATM   13  C   UNL     1     -23.980 -10.738  -0.209  1.00  0.00     0.009 C 
ENDBRANCH  10  11
ENDBRANCH   9  10
ENDBRANCH   8   9
ENDBRANCH   7   8
ENDBRANCH   6   7
ENDBRANCH   5   6
ENDBRANCH   4   5
ENDBRANCH   3   4
ENDBRANCH   2   3
ENDBRANCH   1   2
BRANCH   1  14
HETATM   14  C   UNL     1     -21.568  -4.341  -8.558  1.00  0.00     0.000 C 
BRANCH  14  15
HETATM   15  C   UNL     1     -20.318  -4.680  -9.365  1.00  0.00     0.000 C 
BRANCH  15  16
HETATM   16  C   UNL     1     -20.519  -4.289 -10.824  1.00  0.00     0.009 C 
BRANCH  16  17
HETATM   17  C   UNL     1     -21.827  -3.538 -11.051  1.00  0.00     0.103 C 
BRANCH  17  18
HETATM   18  C   UNL     1     -22.313  -3.723 -12.476  1.00  0.00     0.217 C 
HETATM   19  O   UNL     1     -22.448  -4.821 -13.009  1.00  0.00    -0.274 OA
HETATM   20  N   UNL     1     -22.607  -2.542 -13.121  1.00  0.00    -0.359 N 
HETATM   21  H   UNL     1     -22.392  -1.661 -12.672  1.00  0.00     0.162 HD
BRANCH  20  22
HETATM   22  C   UNL     1     -23.065  -2.541 -14.498  1.00  0.00     0.153 C 
BRANCH  22  23
HETATM   23  C   UNL     1     -24.522  -2.068 -14.655  1.00  0.00     0.132 C 
HETATM   24  C   UNL     1     -25.404  -2.697 -13.588  1.00  0.00     0.041 C 
BRANCH  23  25
HETATM   25  O   UNL     1     -24.617  -0.649 -14.481  1.00  0.00    -0.394 OA
HETATM   26  H   UNL     1     -24.116  -0.262 -15.218  1.00  0.00     0.210 HD
ENDBRANCH  23  25
ENDBRANCH  22  23
ENDBRANCH  20  22
ENDBRANCH  17  18
ENDBRANCH  16  17
ENDBRANCH  15  16
ENDBRANCH  14  15
ENDBRANCH   1  14
TORSDOF 18
BEGIN_RES ARG D 557
REMARK  4 active torsions:
REMARK  status: ('A' for Active; 'I' for Inactive)
REMARK    1  A    between atoms: CA   and  CB  
REMARK    2  A    between atoms: CB   and  CG  
REMARK    3  A    between atoms: CG   and  CD  
REMARK    4  A    between atoms: CD   and  NE  
REMARK       I    between atoms: NE   and  CZ  
REMARK       I    between atoms: CZ   and  NH1 
REMARK       I    between atoms: CZ   and  NH2 
ROOT
ATOM      1  CA  ARG D 557     -26.217   2.705 -17.014  1.00 35.49     0.159 C 
ENDROOT
BRANCH   1   2
ATOM      2  CB  ARG D 557     -26.789   1.319 -17.183  1.00 35.49     0.034 C 
BRANCH   2   3
ATOM      3  CG  ARG D 557     -28.230   1.227 -17.446  1.00 35.49     0.027 C 
BRANCH   3   4
ATOM      4  CD  ARG D 557     -28.918   0.312 -16.506  1.00 35.49     0.116 C 
BRANCH   4   5
ATOM      5  NE  ARG D 557     -29.335  -0.908 -17.144  1.00 35.49    -0.212 N 
ATOM      6  CZ  ARG D 557     -28.723  -2.068 -17.058  1.00 35.49     0.666 C 
ATOM      7  NH1 ARG D 557     -27.613  -2.234 -16.362  1.00 35.49    -0.235 N 
ATOM      8  NH2 ARG D 557     -29.255  -3.076 -17.686  1.00 35.49    -0.235 N 
ATOM      9  HH  ARG D 557     -27.247  -1.585 -15.939  1.00 35.49     0.174 HD
ATOM     10  HH  ARG D 557     -27.260  -3.014 -16.340  1.00 35.49     0.174 HD
ATOM     11  HH  ARG D 557     -29.976  -2.941 -18.121  1.00 35.49     0.174 HD
ATOM     12  HH  ARG D 557     -28.891  -3.841 -17.651  1.00 35.49     0.174 HD
ATOM     13  HE  ARG D 557     -30.001  -0.876 -17.671  1.00 35.49     0.178 HD
ENDBRANCH   4   5
ENDBRANCH   3   4
ENDBRANCH   2   3
ENDBRANCH   1   2
END_RES ARG D 557
BEGIN_RES GLU D 570
REMARK  3 active torsions:
REMARK  status: ('A' for Active; 'I' for Inactive)
REMARK    5  A    between atoms: CA   and  CB  
REMARK    6  A    between atoms: CB   and  CG  
REMARK    7  A    between atoms: CG   and  CD  
ROOT
ATOM     14  CA  GLU D 570     -18.033  -6.348 -13.375  1.00 32.92     0.160 C 
ENDROOT
BRANCH  14  15
ATOM     15  CB  GLU D 570     -19.500  -6.345 -13.794  1.00 32.92     0.043 C 
BRANCH  15  16
ATOM     16  CG  GLU D 570     -20.108  -7.648 -14.167  1.00 32.92     0.100 C 
BRANCH  16  17
ATOM     17  CD  GLU D 570     -20.793  -7.616 -15.513  1.00 32.92     0.185 C 
ATOM     18  OE1 GLU D 570     -21.352  -6.565 -15.883  1.00 32.92    -0.647 OA
ATOM     19  OE2 GLU D 570     -20.784  -8.657 -16.199  1.00 32.92    -0.647 OA
ENDBRANCH  16  17
ENDBRANCH  15  16
ENDBRANCH  14  15
END_RES GLU D 570
ENDMDL
MODEL 3
REMARK VINA RESULT:      -7.3      1.693      2.502
REMARK  18 active torsions:
REMARK  status: ('A' for Active; 'I' for Inactive)
REMARK    1  A    between atoms: C_2  and  C_4 
REMARK    2  A    between atoms: C_4  and  C_5 
REMARK    3  A    between atoms: C_5  and  C_6 
REMARK    4  A    between atoms: C_6  and  C_7 
REMARK    5  A    between atoms: C_7  and  C_8 
REMARK    6  A    between atoms: C_8  and  C_9 
REMARK    7  A    between atoms: C_9  and  C_10 
REMARK    8  A    between atoms: C_10  and  C_11 
REMARK    9  A    between atoms: C_11  and  C_12 
REMARK   10  A    between atoms: C_12  and  C_13 
REMARK   11  A    between atoms: C_13  and  C_14 
REMARK   12  A    between atoms: C_14  and  C_15 
REMARK   13  A    between atoms: C_15  and  C_16 
REMARK   14  A    between atoms: C_16  and  C_17 
REMARK   15  A    between atoms: C_17  and  C_18 
REMARK       I    between atoms: C_18  and  N_20 
REMARK   16  A    between atoms: N_20  and  C_21 
REMARK   17  A    between atoms: C_21  and  C_22 
REMARK   18  A    between atoms: C_22  and  O_24 
ROOT
HETATM    1  C   UNL     1     -21.079  -5.916  -5.184  1.00  0.00     0.000 C 
ENDROOT
BRANCH   1   2
HETATM    2  C   UNL     1     -20.338  -7.244  -5.249  1.00  0.00     0.000 C 
BRANCH   2   3
HETATM    3  C   UNL     1     -21.322  -8.401  -5.179  1.00  0.00     0.000 C 
BRANCH   3   4
HETATM    4  C   UNL     1     -21.522  -8.837  -3.738  1.00  0.00     0.000 C 
BRANCH   4   5
HETATM    5  C   UNL     1     -20.219  -8.710  -2.965  1.00  0.00     0.000 C 
BRANCH   5   6
HETATM    6  C   UNL     1     -20.454  -7.950  -1.671  1.00  0.00     0.000 C 
BRANCH   6   7
HETATM    7  C   UNL     1     -21.773  -7.201  -1.740  1.00  0.00     0.000 C 
BRANCH   7   8
HETATM    8  C   UNL     1     -22.396  -7.095  -0.355  1.00  0.00     0.000 C 
BRANCH   8   9
HETATM    9  C   UNL     1     -22.267  -8.430   0.361  1.00  0.00     0.000 C 
BRANCH   9  10
HETATM   10  C   UNL     1     -23.472  -9.324   0.086  1.00  0.00     0.004 C 
BRANCH  10  11
HETATM   11  C   UNL     1     -23.072 -10.788  -0.152  1.00  0.00    -0.023 C 
HETATM   12  C   UNL     1     -23.425 -11.187  -1.584  1.00  0.00     0.009 C 
HETATM   13  C   UNL     1     -21.585 -11.034   0.105  1.00  0.00     0.009 C 
ENDBRANCH  10  11
ENDBRANCH   9  10
ENDBRANCH   8   9
ENDBRANCH   7   8
ENDBRANCH   6   7
ENDBRANCH   5   6
ENDBRANCH   4   5
ENDBRANCH   3   4
ENDBRANCH   2   3
ENDBRANCH   1   2
BRANCH   1  14
HETATM   14  C   UNL     1     -20.184  -4.785  -5.666  1.00  0.00     0.000 C 
BRANCH  14  15
HETATM   15  C   UNL     1     -19.674  -5.054  -7.080  1.00  0.00     0.000 C 
BRANCH  15  16
HETATM   16  C   UNL     1     -20.758  -4.718  -8.096  1.00  0.00     0.009 C 
BRANCH  16  17
HETATM   17  C   UNL     1     -20.193  -4.091  -9.366  1.00  0.00     0.103 C 
BRANCH  17  18
HETATM   18  C   UNL     1     -21.207  -4.149 -10.493  1.00  0.00     0.217 C 
HETATM   19  O   UNL     1     -20.975  -3.763 -11.635  1.00  0.00    -0.274 OA
HETATM   20  N   UNL     1     -22.417  -4.693 -10.123  1.00  0.00    -0.359 N 
HETATM   21  H   UNL     1     -22.591  -4.910  -9.150  1.00  0.00     0.162 HD
BRANCH  20  22
HETATM   22  C   UNL     1     -23.506  -4.803 -11.077  1.00  0.00     0.153 C 
BRANCH  22  23
HETATM   23  C   UNL     1     -24.464  -3.598 -11.049  1.00  0.00     0.132 C 
HETATM   24  C   UNL     1     -24.693  -3.132  -9.620  1.00  0.00     0.041 C 
BRANCH  23  25
HETATM   25  O   UNL     1     -23.904  -2.486 -11.757  1.00  0.00    -0.394 OA
HETATM   26  H   UNL     1     -23.728  -1.809 -11.082  1.00  0.00     0.210 HD
ENDBRANCH  23  25
ENDBRANCH  22  23
ENDBRANCH  20  22
ENDBRANCH  17  18
ENDBRANCH  16  17
ENDBRANCH  15  16
ENDBRANCH  14  15
ENDBRANCH   1  14
TORSDOF 18
BEGIN_RES ARG D 557
REMARK  4 active torsions:
REMARK  status: ('A' for Active; 'I' for Inactive)
REMARK    1  A    between atoms: CA   and  CB  
REMARK    2  A    between atoms: CB   and  CG  
REMARK    3  A    between atoms: CG   and  CD  
REMARK    4  A    between atoms: CD   and  NE  
REMARK       I    between atoms: NE   and  CZ  
REMARK       I    between atoms: CZ   and  NH1 
REMARK       I    between atoms: CZ   and  NH2 
ROOT
ATOM      1  CA  ARG D 557     -26.217   2.705 -17.014  1.00 35.49     0.159 C 
ENDROOT
BRANCH   1   2
ATOM      2  CB  ARG D 557     -26.789   1.319 -17.183  1.00 35.49     0.034 C 
BRANCH   2   3
ATOM      3  CG  ARG D 557     -28.242   1.222 -17.365  1.00 35.49     0.027 C 
BRANCH   3   4
ATOM      4  CD  ARG D 557     -28.863   0.248 -16.438  1.00 35.49     0.116 C 
BRANCH   4   5
ATOM      5  NE  ARG D 557     -29.247  -0.968 -17.106  1.00 35.49    -0.212 N 
ATOM      6  CZ  ARG D 557     -28.624  -2.122 -17.017  1.00 35.49     0.666 C 
ATOM      7  NH1 ARG D 557     -27.535  -2.286 -16.290  1.00 35.49    -0.235 N 
ATOM      8  NH2 ARG D 557     -29.126  -3.126 -17.675  1.00 35.49    -0.235 N 
ATOM      9  HH  ARG D 557     -27.189  -1.639 -15.847  1.00 35.49     0.174 HD
ATOM     10  HH  ARG D 557     -27.173  -3.062 -16.268  1.00 35.49     0.174 HD
ATOM     11  HH  ARG D 557     -29.834  -2.993 -18.130  1.00 35.49     0.174 HD
ATOM     12  HH  ARG D 557     -28.754  -3.888 -17.639  1.00 35.49     0.174 HD
ATOM     13  HE  ARG D 557     -29.897  -0.935 -17.653  1.00 35.49     0.178 HD
ENDBRANCH   4   5
ENDBRANCH   3   4
ENDBRANCH   2   3
ENDBRANCH   1   2
END_RES ARG D 557
BEGIN_RES GLU D 570
REMARK  3 active torsions:
REMARK  status: ('A' for Active; 'I' for Inactive)
REMARK    5  A    between atoms: CA   and  CB  
REMARK    6  A    between atoms: CB   and  CG  
REMARK    7  A    between atoms: CG   and  CD  
ROOT
ATOM     14  CA  GLU D 570     -18.033  -6.348 -13.375  1.00 32.92     0.160 C 
ENDROOT
BRANCH  14  15
ATOM     15  CB  GLU D 570     -19.500  -6.345 -13.794  1.00 32.92     0.043 C 
BRANCH  15  16
ATOM     16  CG  GLU D 570     -19.796  -6.331 -15.250  1.00 32.92     0.100 C 
BRANCH  16  17
ATOM     17  CD  GLU D 570     -20.841  -7.346 -15.649  1.00 32.92     0.185 C 
ATOM     18  OE1 GLU D 570     -20.553  -8.558 -15.612  1.00 32.92    -0.647 OA
ATOM     19  OE2 GLU D 570     -21.955  -6.924 -16.018  1.00 32.92    -0.647 OA
ENDBRANCH  16  17
ENDBRANCH  15  16
ENDBRANCH  14  15
END_RES GLU D 570
ENDMDL
MODEL 4
REMARK VINA RESULT:      -7.2      1.564      2.510
REMARK  18 active torsions:
REMARK  status: ('A' for Active; 'I' for Inactive)
REMARK    1  A    between atoms: C_2  and  C_4 
REMARK    2  A    between atoms: C_4  and  C_5 
REMARK    3  A    between atoms: C_5  and  C_6 
REMARK    4  A    between atoms: C_6  and  C_7 
REMARK    5  A    between atoms: C_7  and  C_8 
REMARK    6  A    between atoms: C_8  and  C_9 
REMARK    7  A    between atoms: C_9  and  C_10 
REMARK    8  A    between atoms: C_10  and  C_11 
REMARK    9  A    between atoms: C_11  and  C_12 
REMARK   10  A    between atoms: C_12  and  C_13 
REMARK   11  A    between atoms: C_13  and  C_14 
REMARK   12  A    between atoms: C_14  and  C_15 
REMARK   13  A    between atoms: C_15  and  C_16 
REMARK   14  A    between atoms: C_16  and  C_17 
REMARK   15  A    between atoms: C_17  and  C_18 
REMARK       I    between atoms: C_18  and  N_20 
REMARK   16  A    between atoms: N_20  and  C_21 
REMARK   17  A    between atoms: C_21  and  C_22 
REMARK   18  A    between atoms: C_22  and  O_24 
ROOT
HETATM    1  C   UNL     1     -20.087  -5.925  -7.111  1.00  0.00     0.000 C 
ENDROOT
BRANCH   1   2
HETATM    2  C   UNL     1     -21.035  -6.484  -6.061  1.00  0.00     0.000 C 
BRANCH   2   3
HETATM    3  C   UNL     1     -20.317  -7.508  -5.194  1.00  0.00     0.000 C 
BRANCH   3   4
HETATM    4  C   UNL     1     -21.142  -7.822  -3.958  1.00  0.00     0.000 C 
BRANCH   4   5
HETATM    5  C   UNL     1     -20.257  -8.407  -2.870  1.00  0.00     0.000 C 
BRANCH   5   6
HETATM    6  C   UNL     1     -20.567  -9.882  -2.686  1.00  0.00     0.000 C 
BRANCH   6   7
HETATM    7  C   UNL     1     -21.966 -10.187  -3.188  1.00  0.00     0.000 C 
BRANCH   7   8
HETATM    8  C   UNL     1     -22.783 -10.872  -2.102  1.00  0.00     0.000 C 
BRANCH   8   9
HETATM    9  C   UNL     1     -22.284 -10.425  -0.737  1.00  0.00     0.000 C 
BRANCH   9  10
HETATM   10  C   UNL     1     -23.288  -9.501  -0.055  1.00  0.00     0.004 C 
BRANCH  10  11
HETATM   11  C   UNL     1     -22.628  -8.239   0.518  1.00  0.00    -0.023 C 
HETATM   12  C   UNL     1     -21.241  -8.588   1.058  1.00  0.00     0.009 C 
HETATM   13  C   UNL     1     -22.516  -7.119  -0.519  1.00  0.00     0.009 C 
ENDBRANCH  10  11
ENDBRANCH   9  10
ENDBRANCH   8   9
ENDBRANCH   7   8
ENDBRANCH   6   7
ENDBRANCH   5   6
ENDBRANCH   4   5
ENDBRANCH   3   4
ENDBRANCH   2   3
ENDBRANCH   1   2
BRANCH   1  14
HETATM   14  C   UNL     1     -20.377  -4.452  -7.357  1.00  0.00     0.000 C 
BRANCH  14  15
HETATM   15  C   UNL     1     -21.879  -4.198  -7.458  1.00  0.00     0.000 C 
BRANCH  15  16
HETATM   16  C   UNL     1     -22.220  -3.644  -8.836  1.00  0.00     0.009 C 
BRANCH  16  17
HETATM   17  C   UNL     1     -23.692  -3.833  -9.191  1.00  0.00     0.103 C 
BRANCH  17  18
HETATM   18  C   UNL     1     -23.947  -3.459 -10.640  1.00  0.00     0.217 C 
HETATM   19  O   UNL     1     -25.059  -3.185 -11.083  1.00  0.00    -0.274 OA
HETATM   20  N   UNL     1     -22.811  -3.438 -11.417  1.00  0.00    -0.359 N 
HETATM   21  H   UNL     1     -21.934  -3.760 -11.029  1.00  0.00     0.162 HD
BRANCH  20  22
HETATM   22  C   UNL     1     -22.883  -3.119 -12.831  1.00  0.00     0.153 C 
BRANCH  22  23
HETATM   23  C   UNL     1     -22.395  -4.262 -13.739  1.00  0.00     0.132 C 
HETATM   24  C   UNL     1     -23.463  -5.337 -13.863  1.00  0.00     0.041 C 
BRANCH  23  25
HETATM   25  O   UNL     1     -22.139  -3.785 -15.066  1.00  0.00    -0.394 OA
HETATM   26  H   UNL     1     -22.605  -4.399 -15.657  1.00  0.00     0.210 HD
ENDBRANCH  23  25
ENDBRANCH  22  23
ENDBRANCH  20  22
ENDBRANCH  17  18
ENDBRANCH  16  17
ENDBRANCH  15  16
ENDBRANCH  14  15
ENDBRANCH   1  14
TORSDOF 18
BEGIN_RES ARG D 557
REMARK  4 active torsions:
REMARK  status: ('A' for Active; 'I' for Inactive)
REMARK    1  A    between atoms: CA   and  CB  
REMARK    2  A    between atoms: CB   and  CG  
REMARK    3  A    between atoms: CG   and  CD  
REMARK    4  A    between atoms: CD   and  NE  
REMARK       I    between atoms: NE   and  CZ  
REMARK       I    between atoms: CZ   and  NH1 
REMARK       I    between atoms: CZ   and  NH2 
ROOT
ATOM      1  CA  ARG D 557     -26.217   2.705 -17.014  1.00 35.49     0.159 C 
ENDROOT
BRANCH   1   2
ATOM      2  CB  ARG D 557     -26.789   1.319 -17.183  1.00 35.49     0.034 C 
BRANCH   2   3
ATOM      3  CG  ARG D 557     -28.231   1.226 -17.442  1.00 35.49     0.027 C 
BRANCH   3   4
ATOM      4  CD  ARG D 557     -28.896   0.226 -16.576  1.00 35.49     0.116 C 
BRANCH   4   5
ATOM      5  NE  ARG D 557     -28.007  -0.840 -16.196  1.00 35.49    -0.212 N 
ATOM      6  CZ  ARG D 557     -28.098  -2.092 -16.585  1.00 35.49     0.666 C 
ATOM      7  NH1 ARG D 557     -29.059  -2.518 -17.383  1.00 35.49    -0.235 N 
ATOM      8  NH2 ARG D 557     -27.189  -2.920 -16.158  1.00 35.49    -0.235 N 
ATOM      9  HH  ARG D 557     -29.666  -1.990 -17.678  1.00 35.49     0.174 HD
ATOM     10  HH  ARG D 557     -29.066  -3.346 -17.606  1.00 35.49     0.174 HD
ATOM     11  HH  ARG D 557     -26.576  -2.615 -15.650  1.00 35.49     0.174 HD
ATOM     12  HH  ARG D 557     -27.212  -3.735 -16.391  1.00 35.49     0.174 HD
ATOM     13  HE  ARG D 557     -27.400  -0.669 -15.625  1.00 35.49     0.178 HD
ENDBRANCH   4   5
ENDBRANCH   3   4
ENDBRANCH   2   3
ENDBRANCH   1   2
END_RES ARG D 557
BEGIN_RES GLU D 570
REMARK  3 active torsions:
REMARK  status: ('A' for Active; 'I' for Inactive)
REMARK    5  A    between atoms: CA   and  CB  
REMARK    6  A    between atoms: CB   and  CG  
REMARK    7  A    between atoms: CG   and  CD  
ROOT
ATOM     14  CA  GLU D 570     -18.033  -6.348 -13.375  1.00 32.92     0.160 C 
ENDROOT
BRANCH  14  15
ATOM     15  CB  GLU D 570     -19.500  -6.345 -13.794  1.00 32.92     0.043 C 
BRANCH  15  16
ATOM     16  CG  GLU D 570     -20.030  -7.574 -14.438  1.00 32.92     0.100 C 
BRANCH  16  17
ATOM     17  CD  GLU D 570     -20.832  -7.287 -15.686  1.00 32.92     0.185 C 
ATOM     18  OE1 GLU D 570     -21.588  -8.169 -16.137  1.00 32.92    -0.647 OA
ATOM     19  OE2 GLU D 570     -20.691  -6.173 -16.228  1.00 32.92    -0.647 OA
ENDBRANCH  16  17
ENDBRANCH  15  16
ENDBRANCH  14  15
END_RES GLU D 570
ENDMDL
MODEL 5
REMARK VINA RESULT:      -7.0      2.460      4.987
REMARK  18 active torsions:
REMARK  status: ('A' for Active; 'I' for Inactive)
REMARK    1  A    between atoms: C_2  and  C_4 
REMARK    2  A    between atoms: C_4  and  C_5 
REMARK    3  A    between atoms: C_5  and  C_6 
REMARK    4  A    between atoms: C_6  and  C_7 
REMARK    5  A    between atoms: C_7  and  C_8 
REMARK    6  A    between atoms: C_8  and  C_9 
REMARK    7  A    between atoms: C_9  and  C_10 
REMARK    8  A    between atoms: C_10  and  C_11 
REMARK    9  A    between atoms: C_11  and  C_12 
REMARK   10  A    between atoms: C_12  and  C_13 
REMARK   11  A    between atoms: C_13  and  C_14 
REMARK   12  A    between atoms: C_14  and  C_15 
REMARK   13  A    between atoms: C_15  and  C_16 
REMARK   14  A    between atoms: C_16  and  C_17 
REMARK   15  A    between atoms: C_17  and  C_18 
REMARK       I    between atoms: C_18  and  N_20 
REMARK   16  A    between atoms: N_20  and  C_21 
REMARK   17  A    between atoms: C_21  and  C_22 
REMARK   18  A    between atoms: C_22  and  O_24 
ROOT
HETATM    1  C   UNL     1     -21.384  -7.363  -1.982  1.00  0.00     0.000 C 
ENDROOT
BRANCH   1   2
HETATM    2  C   UNL     1     -22.413  -6.908  -0.957  1.00  0.00     0.000 C 
BRANCH   2   3
HETATM    3  C   UNL     1     -22.404  -7.838   0.247  1.00  0.00     0.000 C 
BRANCH   3   4
HETATM    4  C   UNL     1     -22.171  -9.272  -0.198  1.00  0.00     0.000 C 
BRANCH   4   5
HETATM    5  C   UNL     1     -23.486 -10.034  -0.227  1.00  0.00     0.000 C 
BRANCH   5   6
HETATM    6  C   UNL     1     -23.452 -11.086  -1.322  1.00  0.00     0.000 C 
BRANCH   6   7
HETATM    7  C   UNL     1     -22.164 -10.969  -2.117  1.00  0.00     0.000 C 
BRANCH   7   8
HETATM    8  C   UNL     1     -22.468 -10.714  -3.586  1.00  0.00     0.000 C 
BRANCH   8   9
HETATM    9  C   UNL     1     -21.170 -10.453  -4.334  1.00  0.00     0.000 C 
BRANCH   9  10
HETATM   10  C   UNL     1     -19.989 -10.349  -3.375  1.00  0.00     0.004 C 
BRANCH  10  11
HETATM   11  C   UNL     1     -18.954  -9.310  -3.831  1.00  0.00    -0.023 C 
HETATM   12  C   UNL     1     -17.700  -9.425  -2.965  1.00  0.00     0.009 C 
HETATM   13  C   UNL     1     -18.584  -9.467  -5.307  1.00  0.00     0.009 C 
ENDBRANCH  10  11
ENDBRANCH   9  10
ENDBRANCH   8   9
ENDBRANCH   7   8
ENDBRANCH   6   7
ENDBRANCH   5   6
ENDBRANCH   4   5
ENDBRANCH   3   4
ENDBRANCH   2   3
ENDBRANCH   1   2
BRANCH   1  14
HETATM   14  C   UNL     1     -21.285  -6.355  -3.117  1.00  0.00     0.000 C 
BRANCH  14  15
HETATM   15  C   UNL     1     -22.240  -6.713  -4.253  1.00  0.00     0.000 C 
BRANCH  15  16
HETATM   16  C   UNL     1     -21.450  -7.012  -5.521  1.00  0.00     0.009 C 
BRANCH  16  17
HETATM   17  C   UNL     1     -20.229  -6.110  -5.674  1.00  0.00     0.103 C 
BRANCH  17  18
HETATM   18  C   UNL     1     -20.354  -5.241  -6.912  1.00  0.00     0.217 C 
HETATM   19  O   UNL     1     -19.526  -4.393  -7.231  1.00  0.00    -0.274 OA
HETATM   20  N   UNL     1     -21.480  -5.500  -7.661  1.00  0.00    -0.359 N 
HETATM   21  H   UNL     1     -22.178  -6.143  -7.308  1.00  0.00     0.162 HD
BRANCH  20  22
HETATM   22  C   UNL     1     -21.762  -4.743  -8.867  1.00  0.00     0.153 C 
BRANCH  22  23
HETATM   23  C   UNL     1     -23.089  -3.964  -8.801  1.00  0.00     0.132 C 
HETATM   24  C   UNL     1     -24.041  -4.442  -9.886  1.00  0.00     0.041 C 
BRANCH  23  25
HETATM   25  O   UNL     1     -23.748  -4.189  -7.550  1.00  0.00    -0.394 OA
HETATM   26  H   UNL     1     -23.553  -3.406  -7.008  1.00  0.00     0.210 HD
ENDBRANCH  23  25
ENDBRANCH  22  23
ENDBRANCH  20  22
ENDBRANCH  17  18
ENDBRANCH  16  17
ENDBRANCH  15  16
ENDBRANCH  14  15
ENDBRANCH   1  14
TORSDOF 18
BEGIN_RES ARG D 557
REMARK  4 active torsions:
REMARK  status: ('A' for Active; 'I' for Inactive)
REMARK    1  A    between atoms: CA   and  CB  
REMARK    2  A    between atoms: CB   and  CG  
REMARK    3  A    between atoms: CG   and  CD  
REMARK    4  A    between atoms: CD   and  NE  
REMARK       I    between atoms: NE   and  CZ  
REMARK       I    between atoms: CZ   and  NH1 
REMARK       I    between atoms: CZ   and  NH2 
ROOT
ATOM      1  CA  ARG D 557     -26.217   2.705 -17.014  1.00 35.49     0.159 C 
ENDROOT
BRANCH   1   2
ATOM      2  CB  ARG D 557     -26.789   1.319 -17.183  1.00 35.49     0.034 C 
BRANCH   2   3
ATOM      3  CG  ARG D 557     -28.236   1.225 -17.413  1.00 35.49     0.027 C 
BRANCH   3   4
ATOM      4  CD  ARG D 557     -28.896   0.287 -16.477  1.00 35.49     0.116 C 
BRANCH   4   5
ATOM      5  NE  ARG D 557     -29.293  -0.936 -17.124  1.00 35.49    -0.212 N 
ATOM      6  CZ  ARG D 557     -28.668  -2.089 -17.036  1.00 35.49     0.666 C 
ATOM      7  NH1 ARG D 557     -27.564  -2.246 -16.329  1.00 35.49    -0.235 N 
ATOM      8  NH2 ARG D 557     -29.182  -3.100 -17.674  1.00 35.49    -0.235 N 
ATOM      9  HH  ARG D 557     -27.209  -1.594 -15.900  1.00 35.49     0.174 HD
ATOM     10  HH  ARG D 557     -27.202  -3.022 -16.306  1.00 35.49     0.174 HD
ATOM     11  HH  ARG D 557     -29.900  -2.972 -18.116  1.00 35.49     0.174 HD
ATOM     12  HH  ARG D 557     -28.810  -3.861 -17.637  1.00 35.49     0.174 HD
ATOM     13  HE  ARG D 557     -29.954  -0.909 -17.658  1.00 35.49     0.178 HD
ENDBRANCH   4   5
ENDBRANCH   3   4
ENDBRANCH   2   3
ENDBRANCH   1   2
END_RES ARG D 557
BEGIN_RES GLU D 570
REMARK  3 active torsions:
REMARK  status: ('A' for Active; 'I' for Inactive)
REMARK    5  A    between atoms: CA   and  CB  
REMARK    6  A    between atoms: CB   and  CG  
REMARK    7  A    between atoms: CG   and  CD  
ROOT
ATOM     14  CA  GLU D 570     -18.033  -6.348 -13.375  1.00 32.92     0.160 C 
ENDROOT
BRANCH  14  15
ATOM     15  CB  GLU D 570     -19.500  -6.345 -13.794  1.00 32.92     0.043 C 
BRANCH  15  16
ATOM     16  CG  GLU D 570     -20.011  -7.544 -14.507  1.00 32.92     0.100 C 
BRANCH  16  17
ATOM     17  CD  GLU D 570     -20.824  -7.200 -15.732  1.00 32.92     0.185 C 
ATOM     18  OE1 GLU D 570     -21.813  -7.902 -16.020  1.00 32.92    -0.647 OA
ATOM     19  OE2 GLU D 570     -20.459  -6.227 -16.422  1.00 32.92    -0.647 OA
ENDBRANCH  16  17
ENDBRANCH  15  16
ENDBRANCH  14  15
END_RES GLU D 570
ENDMDL
MODEL 6
REMARK VINA RESULT:      -6.9      3.233      6.071
REMARK  18 active torsions:
REMARK  status: ('A' for Active; 'I' for Inactive)
REMARK    1  A    between atoms: C_2  and  C_4 
REMARK    2  A    between atoms: C_4  and  C_5 
REMARK    3  A    between atoms: C_5  and  C_6 
REMARK    4  A    between atoms: C_6  and  C_7 
REMARK    5  A    between atoms: C_7  and  C_8 
REMARK    6  A    between atoms: C_8  and  C_9 
REMARK    7  A    between atoms: C_9  and  C_10 
REMARK    8  A    between atoms: C_10  and  C_11 
REMARK    9  A    between atoms: C_11  and  C_12 
REMARK   10  A    between atoms: C_12  and  C_13 
REMARK   11  A    between atoms: C_13  and  C_14 
REMARK   12  A    between atoms: C_14  and  C_15 
REMARK   13  A    between atoms: C_15  and  C_16 
REMARK   14  A    between atoms: C_16  and  C_17 
REMARK   15  A    between atoms: C_17  and  C_18 
REMARK       I    between atoms: C_18  and  N_20 
REMARK   16  A    between atoms: N_20  and  C_21 
REMARK   17  A    between atoms: C_21  and  C_22 
REMARK   18  A    between atoms: C_22  and  O_24 
ROOT
HETATM    1  C   UNL     1     -22.061  -7.834   0.136  1.00  0.00     0.000 C 
ENDROOT
BRANCH   1   2
HETATM    2  C   UNL     1     -23.170  -8.873   0.221  1.00  0.00     0.000 C 
BRANCH   2   3
HETATM    3  C   UNL     1     -22.650 -10.235  -0.214  1.00  0.00     0.000 C 
BRANCH   3   4
HETATM    4  C   UNL     1     -23.671 -10.930  -1.099  1.00  0.00     0.000 C 
BRANCH   4   5
HETATM    5  C   UNL     1     -22.994 -11.504  -2.332  1.00  0.00     0.000 C 
BRANCH   5   6
HETATM    6  C   UNL     1     -22.225 -10.413  -3.058  1.00  0.00     0.000 C 
BRANCH   6   7
HETATM    7  C   UNL     1     -20.848 -10.919  -3.448  1.00  0.00     0.000 C 
BRANCH   7   8
HETATM    8  C   UNL     1     -19.774 -10.221  -2.626  1.00  0.00     0.000 C 
BRANCH   8   9
HETATM    9  C   UNL     1     -18.607  -9.851  -3.528  1.00  0.00     0.000 C 
BRANCH   9  10
HETATM   10  C   UNL     1     -17.497  -9.162  -2.742  1.00  0.00     0.004 C 
BRANCH  10  11
HETATM   11  C   UNL     1     -16.102  -9.690  -3.111  1.00  0.00    -0.023 C 
HETATM   12  C   UNL     1     -15.815 -10.967  -2.323  1.00  0.00     0.009 C 
HETATM   13  C   UNL     1     -15.961  -9.960  -4.610  1.00  0.00     0.009 C 
ENDBRANCH  10  11
ENDBRANCH   9  10
ENDBRANCH   8   9
ENDBRANCH   7   8
ENDBRANCH   6   7
ENDBRANCH   5   6
ENDBRANCH   4   5
ENDBRANCH   3   4
ENDBRANCH   2   3
ENDBRANCH   1   2
BRANCH   1  14
HETATM   14  C   UNL     1     -22.338  -6.856  -0.996  1.00  0.00     0.000 C 
BRANCH  14  15
HETATM   15  C   UNL     1     -21.318  -7.017  -2.121  1.00  0.00     0.000 C 
BRANCH  15  16
HETATM   16  C   UNL     1     -21.848  -6.376  -3.398  1.00  0.00     0.009 C 
BRANCH  16  17
HETATM   17  C   UNL     1     -21.177  -6.932  -4.650  1.00  0.00     0.103 C 
BRANCH  17  18
HETATM   18  C   UNL     1     -20.855  -5.816  -5.628  1.00  0.00     0.217 C 
HETATM   19  O   UNL     1     -20.168  -4.840  -5.341  1.00  0.00    -0.274 OA
HETATM   20  N   UNL     1     -21.394  -6.004  -6.881  1.00  0.00    -0.359 N 
HETATM   21  H   UNL     1     -22.028  -6.775  -7.042  1.00  0.00     0.162 HD
BRANCH  20  22
HETATM   22  C   UNL     1     -21.198  -5.019  -7.930  1.00  0.00     0.153 C 
BRANCH  22  23
HETATM   23  C   UNL     1     -22.308  -3.953  -7.978  1.00  0.00     0.132 C 
HETATM   24  C   UNL     1     -22.748  -3.706  -9.413  1.00  0.00     0.041 C 
BRANCH  23  25
HETATM   25  O   UNL     1     -23.469  -4.395  -7.265  1.00  0.00    -0.394 OA
HETATM   26  H   UNL     1     -23.663  -3.692  -6.622  1.00  0.00     0.210 HD
ENDBRANCH  23  25
ENDBRANCH  22  23
ENDBRANCH  20  22
ENDBRANCH  17  18
ENDBRANCH  16  17
ENDBRANCH  15  16
ENDBRANCH  14  15
ENDBRANCH   1  14
TORSDOF 18
BEGIN_RES ARG D 557
REMARK  4 active torsions:
REMARK  status: ('A' for Active; 'I' for Inactive)
REMARK    1  A    between atoms: CA   and  CB  
REMARK    2  A    between atoms: CB   and  CG  
REMARK    3  A    between atoms: CG   and  CD  
REMARK    4  A    between atoms: CD   and  NE  
REMARK       I    between atoms: NE   and  CZ  
REMARK       I    between atoms: CZ   and  NH1 
REMARK       I    between atoms: CZ   and  NH2 
ROOT
ATOM      1  CA  ARG D 557     -26.217   2.705 -17.014  1.00 35.49     0.159 C 
ENDROOT
BRANCH   1   2
ATOM      2  CB  ARG D 557     -26.789   1.319 -17.183  1.00 35.49     0.034 C 
BRANCH   2   3
ATOM      3  CG  ARG D 557     -25.836   0.203 -17.155  1.00 35.49     0.027 C 
BRANCH   3   4
ATOM      4  CD  ARG D 557     -24.751   0.412 -16.169  1.00 35.49     0.116 C 
BRANCH   4   5
ATOM      5  NE  ARG D 557     -24.893  -0.442 -15.019  1.00 35.49    -0.212 N 
ATOM      6  CZ  ARG D 557     -24.071  -1.407 -14.673  1.00 35.49     0.666 C 
ATOM      7  NH1 ARG D 557     -22.999  -1.713 -15.380  1.00 35.49    -0.235 N 
ATOM      8  NH2 ARG D 557     -24.344  -2.067 -13.584  1.00 35.49    -0.235 N 
ATOM      9  HH  ARG D 557     -22.799  -1.291 -16.098  1.00 35.49     0.174 HD
ATOM     10  HH  ARG D 557     -22.498  -2.351 -15.104  1.00 35.49     0.174 HD
ATOM     11  HH  ARG D 557     -25.039  -1.842 -13.144  1.00 35.49     0.174 HD
ATOM     12  HH  ARG D 557     -23.835  -2.694 -13.327  1.00 35.49     0.174 HD
ATOM     13  HE  ARG D 557     -25.595  -0.362 -14.546  1.00 35.49     0.178 HD
ENDBRANCH   4   5
ENDBRANCH   3   4
ENDBRANCH   2   3
ENDBRANCH   1   2
END_RES ARG D 557
BEGIN_RES GLU D 570
REMARK  3 active torsions:
REMARK  status: ('A' for Active; 'I' for Inactive)
REMARK    5  A    between atoms: CA   and  CB  
REMARK    6  A    between atoms: CB   and  CG  
REMARK    7  A    between atoms: CG   and  CD  
ROOT
ATOM     14  CA  GLU D 570     -18.033  -6.348 -13.375  1.00 32.92     0.160 C 
ENDROOT
BRANCH  14  15
ATOM     15  CB  GLU D 570     -19.500  -6.345 -13.794  1.00 32.92     0.043 C 
BRANCH  15  16
ATOM     16  CG  GLU D 570     -20.444  -5.539 -12.977  1.00 32.92     0.100 C 
BRANCH  16  17
ATOM     17  CD  GLU D 570     -21.736  -5.234 -13.698  1.00 32.92     0.185 C 
ATOM     18  OE1 GLU D 570     -22.217  -6.089 -14.466  1.00 32.92    -0.647 OA
ATOM     19  OE2 GLU D 570     -22.263  -4.121 -13.506  1.00 32.92    -0.647 OA
ENDBRANCH  16  17
ENDBRANCH  15  16
ENDBRANCH  14  15
END_RES GLU D 570
ENDMDL
MODEL 7
REMARK VINA RESULT:      -6.9      1.939      3.738
REMARK  18 active torsions:
REMARK  status: ('A' for Active; 'I' for Inactive)
REMARK    1  A    between atoms: C_2  and  C_4 
REMARK    2  A    between atoms: C_4  and  C_5 
REMARK    3  A    between atoms: C_5  and  C_6 
REMARK    4  A    between atoms: C_6  and  C_7 
REMARK    5  A    between atoms: C_7  and  C_8 
REMARK    6  A    between atoms: C_8  and  C_9 
REMARK    7  A    between atoms: C_9  and  C_10 
REMARK    8  A    between atoms: C_10  and  C_11 
REMARK    9  A    between atoms: C_11  and  C_12 
REMARK   10  A    between atoms: C_12  and  C_13 
REMARK   11  A    between atoms: C_13  and  C_14 
REMARK   12  A    between atoms: C_14  and  C_15 
REMARK   13  A    between atoms: C_15  and  C_16 
REMARK   14  A    between atoms: C_16  and  C_17 
REMARK   15  A    between atoms: C_17  and  C_18 
REMARK       I    between atoms: C_18  and  N_20 
REMARK   16  A    between atoms: N_20  and  C_21 
REMARK   17  A    between atoms: C_21  and  C_22 
REMARK   18  A    between atoms: C_22  and  O_24 
ROOT
HETATM    1  C   UNL     1     -21.218  -7.755  -3.218  1.00  0.00     0.000 C 
ENDROOT
BRANCH   1   2
HETATM    2  C   UNL     1     -21.689  -6.383  -2.757  1.00  0.00     0.000 C 
BRANCH   2   3
HETATM    3  C   UNL     1     -22.222  -6.459  -1.335  1.00  0.00     0.000 C 
BRANCH   3   4
HETATM    4  C   UNL     1     -22.290  -7.905  -0.875  1.00  0.00     0.000 C 
BRANCH   4   5
HETATM    5  C   UNL     1     -22.341  -7.973   0.643  1.00  0.00     0.000 C 
BRANCH   5   6
HETATM    6  C   UNL     1     -21.234  -8.875   1.160  1.00  0.00     0.000 C 
BRANCH   6   7
HETATM    7  C   UNL     1     -20.698  -9.740   0.034  1.00  0.00     0.000 C 
BRANCH   7   8
HETATM    8  C   UNL     1     -20.444 -11.157   0.527  1.00  0.00     0.000 C 
BRANCH   8   9
HETATM    9  C   UNL     1     -21.771 -11.881   0.691  1.00  0.00     0.000 C 
BRANCH   9  10
HETATM   10  C   UNL     1     -22.179 -12.587  -0.598  1.00  0.00     0.004 C 
BRANCH  10  11
HETATM   11  C   UNL     1     -23.415 -11.950  -1.250  1.00  0.00    -0.023 C 
HETATM   12  C   UNL     1     -24.140 -11.078  -0.226  1.00  0.00     0.009 C 
HETATM   13  C   UNL     1     -23.057 -11.116  -2.482  1.00  0.00     0.009 C 
ENDBRANCH  10  11
ENDBRANCH   9  10
ENDBRANCH   8   9
ENDBRANCH   7   8
ENDBRANCH   6   7
ENDBRANCH   5   6
ENDBRANCH   4   5
ENDBRANCH   3   4
ENDBRANCH   2   3
ENDBRANCH   1   2
BRANCH   1  14
HETATM   14  C   UNL     1     -21.401  -7.901  -4.721  1.00  0.00     0.000 C 
BRANCH  14  15
HETATM   15  C   UNL     1     -20.383  -7.055  -5.482  1.00  0.00     0.000 C 
BRANCH  15  16
HETATM   16  C   UNL     1     -21.070  -6.320  -6.626  1.00  0.00     0.009 C 
BRANCH  16  17
HETATM   17  C   UNL     1     -20.878  -4.809  -6.547  1.00  0.00     0.103 C 
BRANCH  17  18
HETATM   18  C   UNL     1     -20.387  -4.259  -7.874  1.00  0.00     0.217 C 
HETATM   19  O   UNL     1     -19.245  -3.848  -8.056  1.00  0.00    -0.274 OA
HETATM   20  N   UNL     1     -21.339  -4.276  -8.868  1.00  0.00    -0.359 N 
HETATM   21  H   UNL     1     -22.291  -4.538  -8.645  1.00  0.00     0.162 HD
BRANCH  20  22
HETATM   22  C   UNL     1     -21.039  -3.766 -10.194  1.00  0.00     0.153 C 
BRANCH  22  23
HETATM   23  C   UNL     1     -21.809  -4.490 -11.314  1.00  0.00     0.132 C 
HETATM   24  C   UNL     1     -23.301  -4.490 -11.021  1.00  0.00     0.041 C 
BRANCH  23  25
HETATM   25  O   UNL     1     -21.637  -3.816 -12.567  1.00  0.00    -0.394 OA
HETATM   26  H   UNL     1     -22.489  -3.902 -13.027  1.00  0.00     0.210 HD
ENDBRANCH  23  25
ENDBRANCH  22  23
ENDBRANCH  20  22
ENDBRANCH  17  18
ENDBRANCH  16  17
ENDBRANCH  15  16
ENDBRANCH  14  15
ENDBRANCH   1  14
TORSDOF 18
BEGIN_RES ARG D 557
REMARK  4 active torsions:
REMARK  status: ('A' for Active; 'I' for Inactive)
REMARK    1  A    between atoms: CA   and  CB  
REMARK    2  A    between atoms: CB   and  CG  
REMARK    3  A    between atoms: CG   and  CD  
REMARK    4  A    between atoms: CD   and  NE  
REMARK       I    between atoms: NE   and  CZ  
REMARK       I    between atoms: CZ   and  NH1 
REMARK       I    between atoms: CZ   and  NH2 
ROOT
ATOM      1  CA  ARG D 557     -26.217   2.705 -17.014  1.00 35.49     0.159 C 
ENDROOT
BRANCH   1   2
ATOM      2  CB  ARG D 557     -26.789   1.319 -17.183  1.00 35.49     0.034 C 
BRANCH   2   3
ATOM      3  CG  ARG D 557     -28.152   1.102 -16.684  1.00 35.49     0.027 C 
BRANCH   3   4
ATOM      4  CD  ARG D 557     -28.792  -0.089 -17.290  1.00 35.49     0.116 C 
BRANCH   4   5
ATOM      5  NE  ARG D 557     -28.176  -1.315 -16.856  1.00 35.49    -0.212 N 
ATOM      6  CZ  ARG D 557     -28.660  -2.524 -17.036  1.00 35.49     0.666 C 
ATOM      7  NH1 ARG D 557     -29.811  -2.743 -17.644  1.00 35.49    -0.235 N 
ATOM      8  NH2 ARG D 557     -27.955  -3.524 -16.595  1.00 35.49    -0.235 N 
ATOM      9  HH  ARG D 557     -30.290  -2.099 -17.945  1.00 35.49     0.174 HD
ATOM     10  HH  ARG D 557     -30.075  -3.553 -17.735  1.00 35.49     0.174 HD
ATOM     11  HH  ARG D 557     -27.212  -3.353 -16.213  1.00 35.49     0.174 HD
ATOM     12  HH  ARG D 557     -28.233  -4.319 -16.696  1.00 35.49     0.174 HD
ATOM     13  HE  ARG D 557     -27.465  -1.262 -16.391  1.00 35.49     0.178 HD
ENDBRANCH   4   5
ENDBRANCH   3   4
ENDBRANCH   2   3
ENDBRANCH   1   2
END_RES ARG D 557
BEGIN_RES GLU D 570
REMARK  3 active torsions:
REMARK  status: ('A' for Active; 'I' for Inactive)
REMARK    5  A    between atoms: CA   and  CB  
REMARK    6  A    between atoms: CB   and  CG  
REMARK    7  A    between atoms: CG   and  CD  
ROOT
ATOM     14  CA  GLU D 570     -18.033  -6.348 -13.375  1.00 32.92     0.160 C 
ENDROOT
BRANCH  14  15
ATOM     15  CB  GLU D 570     -19.500  -6.345 -13.794  1.00 32.92     0.043 C 
BRANCH  15  16
ATOM     16  CG  GLU D 570     -19.801  -6.116 -15.231  1.00 32.92     0.100 C 
BRANCH  16  17
ATOM     17  CD  GLU D 570     -21.230  -5.690 -15.473  1.00 32.92     0.185 C 
ATOM     18  OE1 GLU D 570     -22.103  -5.999 -14.639  1.00 32.92    -0.647 OA
ATOM     19  OE2 GLU D 570     -21.482  -5.056 -16.516  1.00 32.92    -0.647 OA
ENDBRANCH  16  17
ENDBRANCH  15  16
ENDBRANCH  14  15
END_RES GLU D 570
ENDMDL
MODEL 8
REMARK VINA RESULT:      -6.9      2.059      4.054
REMARK  18 active torsions:
REMARK  status: ('A' for Active; 'I' for Inactive)
REMARK    1  A    between atoms: C_2  and  C_4 
REMARK    2  A    between atoms: C_4  and  C_5 
REMARK    3  A    between atoms: C_5  and  C_6 
REMARK    4  A    between atoms: C_6  and  C_7 
REMARK    5  A    between atoms: C_7  and  C_8 
REMARK    6  A    between atoms: C_8  and  C_9 
REMARK    7  A    between atoms: C_9  and  C_10 
REMARK    8  A    between atoms: C_10  and  C_11 
REMARK    9  A    between atoms: C_11  and  C_12 
REMARK   10  A    between atoms: C_12  and  C_13 
REMARK   11  A    between atoms: C_13  and  C_14 
REMARK   12  A    between atoms: C_14  and  C_15 
REMARK   13  A    between atoms: C_15  and  C_16 
REMARK   14  A    between atoms: C_16  and  C_17 
REMARK   15  A    between atoms: C_17  and  C_18 
REMARK       I    between atoms: C_18  and  N_20 
REMARK   16  A    between atoms: N_20  and  C_21 
REMARK   17  A    between atoms: C_21  and  C_22 
REMARK   18  A    between atoms: C_22  and  O_24 
ROOT
HETATM    1  C   UNL     1     -21.344  -6.090  -3.585  1.00  0.00     0.000 C 
ENDROOT
BRANCH   1   2
HETATM    2  C   UNL     1     -22.166  -6.217  -2.310  1.00  0.00     0.000 C 
BRANCH   2   3
HETATM    3  C   UNL     1     -21.538  -7.241  -1.378  1.00  0.00     0.000 C 
BRANCH   3   4
HETATM    4  C   UNL     1     -22.500  -7.591  -0.256  1.00  0.00     0.000 C 
BRANCH   4   5
HETATM    5  C   UNL     1     -22.239  -9.003   0.240  1.00  0.00     0.000 C 
BRANCH   5   6
HETATM    6  C   UNL     1     -23.092  -9.992  -0.538  1.00  0.00     0.000 C 
BRANCH   6   7
HETATM    7  C   UNL     1     -22.205 -10.921  -1.346  1.00  0.00     0.000 C 
BRANCH   7   8
HETATM    8  C   UNL     1     -22.558 -10.839  -2.824  1.00  0.00     0.000 C 
BRANCH   8   9
HETATM    9  C   UNL     1     -21.411 -10.191  -3.583  1.00  0.00     0.000 C 
BRANCH   9  10
HETATM   10  C   UNL     1     -20.106 -10.286  -2.801  1.00  0.00     0.004 C 
BRANCH  10  11
HETATM   11  C   UNL     1     -19.067  -9.255  -3.266  1.00  0.00    -0.023 C 
HETATM   12  C   UNL     1     -17.674  -9.693  -2.814  1.00  0.00     0.009 C 
HETATM   13  C   UNL     1     -19.083  -9.057  -4.783  1.00  0.00     0.009 C 
ENDBRANCH  10  11
ENDBRANCH   9  10
ENDBRANCH   8   9
ENDBRANCH   7   8
ENDBRANCH   6   7
ENDBRANCH   5   6
ENDBRANCH   4   5
ENDBRANCH   3   4
ENDBRANCH   2   3
ENDBRANCH   1   2
BRANCH   1  14
HETATM   14  C   UNL     1     -22.065  -6.755  -4.748  1.00  0.00     0.000 C 
BRANCH  14  15
HETATM   15  C   UNL     1     -21.273  -6.603  -6.044  1.00  0.00     0.000 C 
BRANCH  15  16
HETATM   16  C   UNL     1     -20.322  -5.417  -5.936  1.00  0.00     0.009 C 
BRANCH  16  17
HETATM   17  C   UNL     1     -19.809  -4.955  -7.296  1.00  0.00     0.103 C 
BRANCH  17  18
HETATM   18  C   UNL     1     -20.891  -4.207  -8.053  1.00  0.00     0.217 C 
HETATM   19  O   UNL     1     -21.732  -3.496  -7.509  1.00  0.00    -0.274 OA
HETATM   20  N   UNL     1     -20.838  -4.384  -9.418  1.00  0.00    -0.359 N 
HETATM   21  H   UNL     1     -20.186  -5.051  -9.810  1.00  0.00     0.162 HD
BRANCH  20  22
HETATM   22  C   UNL     1     -21.815  -3.754 -10.288  1.00  0.00     0.153 C 
BRANCH  22  23
HETATM   23  C   UNL     1     -21.901  -4.407 -11.680  1.00  0.00     0.132 C 
HETATM   24  C   UNL     1     -23.334  -4.808 -11.993  1.00  0.00     0.041 C 
BRANCH  23  25
HETATM   25  O   UNL     1     -21.503  -3.483 -12.700  1.00  0.00    -0.394 OA
HETATM   26  H   UNL     1     -21.828  -3.861 -13.534  1.00  0.00     0.210 HD
ENDBRANCH  23  25
ENDBRANCH  22  23
ENDBRANCH  20  22
ENDBRANCH  17  18
ENDBRANCH  16  17
ENDBRANCH  15  16
ENDBRANCH  14  15
ENDBRANCH   1  14
TORSDOF 18
BEGIN_RES ARG D 557
REMARK  4 active torsions:
REMARK  status: ('A' for Active; 'I' for Inactive)
REMARK    1  A    between atoms: CA   and  CB  
REMARK    2  A    between atoms: CB   and  CG  
REMARK    3  A    between atoms: CG   and  CD  
REMARK    4  A    between atoms: CD   and  NE  
REMARK       I    between atoms: NE   and  CZ  
REMARK       I    between atoms: CZ   and  NH1 
REMARK       I    between atoms: CZ   and  NH2 
ROOT
ATOM      1  CA  ARG D 557     -26.217   2.705 -17.014  1.00 35.49     0.159 C 
ENDROOT
BRANCH   1   2
ATOM      2  CB  ARG D 557     -26.789   1.319 -17.183  1.00 35.49     0.034 C 
BRANCH   2   3
ATOM      3  CG  ARG D 557     -28.167   1.112 -16.722  1.00 35.49     0.027 C 
BRANCH   3   4
ATOM      4  CD  ARG D 557     -28.781  -0.103 -17.305  1.00 35.49     0.116 C 
BRANCH   4   5
ATOM      5  NE  ARG D 557     -28.168  -1.309 -16.815  1.00 35.49    -0.212 N 
ATOM      6  CZ  ARG D 557     -28.614  -2.530 -17.007  1.00 35.49     0.666 C 
ATOM      7  NH1 ARG D 557     -29.719  -2.783 -17.684  1.00 35.49    -0.235 N 
ATOM      8  NH2 ARG D 557     -27.918  -3.509 -16.507  1.00 35.49    -0.235 N 
ATOM      9  HH  ARG D 557     -30.192  -2.154 -18.023  1.00 35.49     0.174 HD
ATOM     10  HH  ARG D 557     -29.960  -3.600 -17.780  1.00 35.49     0.174 HD
ATOM     11  HH  ARG D 557     -27.204  -3.316 -16.081  1.00 35.49     0.174 HD
ATOM     12  HH  ARG D 557     -28.172  -4.311 -16.614  1.00 35.49     0.174 HD
ATOM     13  HE  ARG D 557     -27.490  -1.234 -16.307  1.00 35.49     0.178 HD
ENDBRANCH   4   5
ENDBRANCH   3   4
ENDBRANCH   2   3
ENDBRANCH   1   2
END_RES ARG D 557
BEGIN_RES GLU D 570
REMARK  3 active torsions:
REMARK  status: ('A' for Active; 'I' for Inactive)
REMARK    5  A    between atoms: CA   and  CB  
REMARK    6  A    between atoms: CB   and  CG  
REMARK    7  A    between atoms: CG   and  CD  
ROOT
ATOM     14  CA  GLU D 570     -18.033  -6.348 -13.375  1.00 32.92     0.160 C 
ENDROOT
BRANCH  14  15
ATOM     15  CB  GLU D 570     -19.500  -6.345 -13.794  1.00 32.92     0.043 C 
BRANCH  15  16
ATOM     16  CG  GLU D 570     -19.812  -5.945 -15.190  1.00 32.92     0.100 C 
BRANCH  16  17
ATOM     17  CD  GLU D 570     -21.286  -5.703 -15.419  1.00 32.92     0.185 C 
ATOM     18  OE1 GLU D 570     -21.687  -4.538 -15.602  1.00 32.92    -0.647 OA
ATOM     19  OE2 GLU D 570     -22.050  -6.688 -15.397  1.00 32.92    -0.647 OA
ENDBRANCH  16  17
ENDBRANCH  15  16
ENDBRANCH  14  15
END_RES GLU D 570
ENDMDL
MODEL 9
REMARK VINA RESULT:      -6.9      1.725      2.403
REMARK  18 active torsions:
REMARK  status: ('A' for Active; 'I' for Inactive)
REMARK    1  A    between atoms: C_2  and  C_4 
REMARK    2  A    between atoms: C_4  and  C_5 
REMARK    3  A    between atoms: C_5  and  C_6 
REMARK    4  A    between atoms: C_6  and  C_7 
REMARK    5  A    between atoms: C_7  and  C_8 
REMARK    6  A    between atoms: C_8  and  C_9 
REMARK    7  A    between atoms: C_9  and  C_10 
REMARK    8  A    between atoms: C_10  and  C_11 
REMARK    9  A    between atoms: C_11  and  C_12 
REMARK   10  A    between atoms: C_12  and  C_13 
REMARK   11  A    between atoms: C_13  and  C_14 
REMARK   12  A    between atoms: C_14  and  C_15 
REMARK   13  A    between atoms: C_15  and  C_16 
REMARK   14  A    between atoms: C_16  and  C_17 
REMARK   15  A    between atoms: C_17  and  C_18 
REMARK       I    between atoms: C_18  and  N_20 
REMARK   16  A    between atoms: N_20  and  C_21 
REMARK   17  A    between atoms: C_21  and  C_22 
REMARK   18  A    between atoms: C_22  and  O_24 
ROOT
HETATM    1  C   UNL     1     -20.142  -5.982  -6.303  1.00  0.00     0.000 C 
ENDROOT
BRANCH   1   2
HETATM    2  C   UNL     1     -21.108  -5.722  -5.156  1.00  0.00     0.000 C 
BRANCH   2   3
HETATM    3  C   UNL     1     -21.355  -7.003  -4.374  1.00  0.00     0.000 C 
BRANCH   3   4
HETATM    4  C   UNL     1     -21.093  -6.775  -2.895  1.00  0.00     0.000 C 
BRANCH   4   5
HETATM    5  C   UNL     1     -22.399  -6.518  -2.163  1.00  0.00     0.000 C 
BRANCH   5   6
HETATM    6  C   UNL     1     -22.168  -6.546  -0.662  1.00  0.00     0.000 C 
BRANCH   6   7
HETATM    7  C   UNL     1     -22.770  -7.806  -0.066  1.00  0.00     0.000 C 
BRANCH   7   8
HETATM    8  C   UNL     1     -21.820  -8.416   0.955  1.00  0.00     0.000 C 
BRANCH   8   9
HETATM    9  C   UNL     1     -21.246  -9.710   0.402  1.00  0.00     0.000 C 
BRANCH   9  10
HETATM   10  C   UNL     1     -22.337 -10.752   0.181  1.00  0.00     0.004 C 
BRANCH  10  11
HETATM   11  C   UNL     1     -22.245 -11.415  -1.201  1.00  0.00    -0.023 C 
HETATM   12  C   UNL     1     -23.619 -11.948  -1.605  1.00  0.00     0.009 C 
HETATM   13  C   UNL     1     -21.723 -10.455  -2.272  1.00  0.00     0.009 C 
ENDBRANCH  10  11
ENDBRANCH   9  10
ENDBRANCH   8   9
ENDBRANCH   7   8
ENDBRANCH   6   7
ENDBRANCH   5   6
ENDBRANCH   4   5
ENDBRANCH   3   4
ENDBRANCH   2   3
ENDBRANCH   1   2
BRANCH   1  14
HETATM   14  C   UNL     1     -20.466  -5.080  -7.484  1.00  0.00     0.000 C 
BRANCH  14  15
HETATM   15  C   UNL     1     -21.908  -4.586  -7.418  1.00  0.00     0.000 C 
BRANCH  15  16
HETATM   16  C   UNL     1     -22.251  -3.811  -8.684  1.00  0.00     0.009 C 
BRANCH  16  17
HETATM   17  C   UNL     1     -23.713  -3.975  -9.090  1.00  0.00     0.103 C 
BRANCH  17  18
HETATM   18  C   UNL     1     -23.939  -3.465 -10.502  1.00  0.00     0.217 C 
HETATM   19  O   UNL     1     -25.042  -3.149 -10.940  1.00  0.00    -0.274 OA
HETATM   20  N   UNL     1     -22.787  -3.370 -11.250  1.00  0.00    -0.359 N 
HETATM   21  H   UNL     1     -21.918  -3.729 -10.876  1.00  0.00     0.162 HD
BRANCH  20  22
HETATM   22  C   UNL     1     -22.830  -2.919 -12.629  1.00  0.00     0.153 C 
BRANCH  22  23
HETATM   23  C   UNL     1     -22.292  -3.959 -13.628  1.00  0.00     0.132 C 
HETATM   24  C   UNL     1     -23.124  -5.231 -13.572  1.00  0.00     0.041 C 
BRANCH  23  25
HETATM   25  O   UNL     1     -22.383  -3.469 -14.971  1.00  0.00    -0.394 OA
HETATM   26  H   UNL     1     -22.025  -2.566 -14.943  1.00  0.00     0.210 HD
ENDBRANCH  23  25
ENDBRANCH  22  23
ENDBRANCH  20  22
ENDBRANCH  17  18
ENDBRANCH  16  17
ENDBRANCH  15  16
ENDBRANCH  14  15
ENDBRANCH   1  14
TORSDOF 18
BEGIN_RES ARG D 557
REMARK  4 active torsions:
REMARK  status: ('A' for Active; 'I' for Inactive)
REMARK    1  A    between atoms: CA   and  CB  
REMARK    2  A    between atoms: CB   and  CG  
REMARK    3  A    between atoms: CG   and  CD  
REMARK    4  A    between atoms: CD   and  NE  
REMARK       I    between atoms: NE   and  CZ  
REMARK       I    between atoms: CZ   and  NH1 
REMARK       I    between atoms: CZ   and  NH2 
ROOT
ATOM      1  CA  ARG D 557     -26.217   2.705 -17.014  1.00 35.49     0.159 C 
ENDROOT
BRANCH   1   2
ATOM      2  CB  ARG D 557     -26.789   1.319 -17.183  1.00 35.49     0.034 C 
BRANCH   2   3
ATOM      3  CG  ARG D 557     -26.012   0.210 -16.617  1.00 35.49     0.027 C 
BRANCH   3   4
ATOM      4  CD  ARG D 557     -26.862  -0.945 -16.250  1.00 35.49     0.116 C 
BRANCH   4   5
ATOM      5  NE  ARG D 557     -26.396  -1.604 -15.058  1.00 35.49    -0.212 N 
ATOM      6  CZ  ARG D 557     -26.414  -2.900 -14.840  1.00 35.49     0.666 C 
ATOM      7  NH1 ARG D 557     -26.892  -3.761 -15.719  1.00 35.49    -0.235 N 
ATOM      8  NH2 ARG D 557     -25.930  -3.325 -13.709  1.00 35.49    -0.235 N 
ATOM      9  HH  ARG D 557     -27.213  -3.503 -16.471  1.00 35.49     0.174 HD
ATOM     10  HH  ARG D 557     -26.875  -4.595 -15.523  1.00 35.49     0.174 HD
ATOM     11  HH  ARG D 557     -25.622  -2.747 -13.163  1.00 35.49     0.174 HD
ATOM     12  HH  ARG D 557     -25.921  -4.155 -13.534  1.00 35.49     0.174 HD
ATOM     13  HE  ARG D 557     -26.138  -1.120 -14.408  1.00 35.49     0.178 HD
ENDBRANCH   4   5
ENDBRANCH   3   4
ENDBRANCH   2   3
ENDBRANCH   1   2
END_RES ARG D 557
BEGIN_RES GLU D 570
REMARK  3 active torsions:
REMARK  status: ('A' for Active; 'I' for Inactive)
REMARK    5  A    between atoms: CA   and  CB  
REMARK    6  A    between atoms: CB   and  CG  
REMARK    7  A    between atoms: CG   and  CD  
ROOT
ATOM     14  CA  GLU D 570     -18.033  -6.348 -13.375  1.00 32.92     0.160 C 
ENDROOT
BRANCH  14  15
ATOM     15  CB  GLU D 570     -19.500  -6.345 -13.794  1.00 32.92     0.043 C 
BRANCH  15  16
ATOM     16  CG  GLU D 570     -19.798  -6.190 -15.241  1.00 32.92     0.100 C 
BRANCH  16  17
ATOM     17  CD  GLU D 570     -20.796  -7.204 -15.750  1.00 32.92     0.185 C 
ATOM     18  OE1 GLU D 570     -20.673  -8.396 -15.410  1.00 32.92    -0.647 OA
ATOM     19  OE2 GLU D 570     -21.700  -6.805 -16.510  1.00 32.92    -0.647 OA
ENDBRANCH  16  17
ENDBRANCH  15  16
ENDBRANCH  14  15
END_RES GLU D 570
ENDMDL
