MODEL 1
REMARK VINA RESULT:      -6.5      0.000      0.000
REMARK  12 active torsions:
REMARK  status: ('A' for Active; 'I' for Inactive)
REMARK    1  A    between atoms: C_2  and  O_3 
REMARK    2  A    between atoms: O_3  and  C_4 
REMARK    3  A    between atoms: C_4  and  C_6 
REMARK    4  A    between atoms: C_6  and  C_7 
REMARK    5  A    between atoms: C_7  and  C_8 
REMARK    6  A    between atoms: C_7  and  C_14 
REMARK    7  A    between atoms: C_7  and  O_19 
REMARK    8  A    between atoms: C_8  and  C_9 
REMARK    9  A    between atoms: C_9  and  O_11 
REMARK   10  A    between atoms: O_11  and  C_12 
REMARK   11  A    between atoms: C_14  and  O_16 
REMARK   12  A    between atoms: O_16  and  C_17 
ROOT
HETATM    1  C   UNL     1     -34.848  -1.954 -11.560  1.00  0.00     0.162 C 
ENDROOT
BRANCH   1   2
HETATM    2  C   UNL     1     -34.827  -0.639 -12.366  1.00  0.00     0.160 C 
BRANCH   2   3
HETATM    3  C   UNL     1     -35.785  -0.643 -13.520  1.00  0.00     0.262 C 
HETATM    4  O   UNL     1     -36.999  -0.742 -13.421  1.00  0.00    -0.265 OA
BRANCH   3   5
HETATM    5  O   UNL     1     -35.091  -0.551 -14.686  1.00  0.00    -0.322 OA
BRANCH   5   6
HETATM    6  C   UNL     1     -35.827  -0.044 -15.806  1.00  0.00     0.174 C 
HETATM    7  C   UNL     1     -35.908  -1.157 -16.833  1.00  0.00     0.034 C 
ENDBRANCH   5   6
ENDBRANCH   3   5
ENDBRANCH   2   3
ENDBRANCH   1   2
BRANCH   1   8
HETATM    8  C   UNL     1     -33.528  -2.407 -10.916  1.00  0.00     0.160 C 
BRANCH   8   9
HETATM    9  C   UNL     1     -33.164  -3.826 -11.243  1.00  0.00     0.262 C 
HETATM   10  O   UNL     1     -32.435  -4.167 -12.163  1.00  0.00    -0.265 OA
BRANCH   9  11
HETATM   11  O   UNL     1     -33.862  -4.671 -10.441  1.00  0.00    -0.322 OA
BRANCH  11  12
HETATM   12  C   UNL     1     -33.977  -6.020 -10.923  1.00  0.00     0.174 C 
HETATM   13  C   UNL     1     -34.762  -6.804  -9.888  1.00  0.00     0.034 C 
ENDBRANCH  11  12
ENDBRANCH   9  11
ENDBRANCH   8   9
ENDBRANCH   1   8
BRANCH   1  14
HETATM   14  C   UNL     1     -35.936  -1.908 -10.469  1.00  0.00     0.294 C 
HETATM   15  O   UNL     1     -36.870  -2.699 -10.389  1.00  0.00    -0.262 OA
BRANCH  14  16
HETATM   16  O   UNL     1     -35.806  -0.784  -9.710  1.00  0.00    -0.319 OA
BRANCH  16  17
HETATM   17  C   UNL     1     -37.002  -0.327  -9.072  1.00  0.00     0.174 C 
HETATM   18  C   UNL     1     -36.589   0.527  -7.887  1.00  0.00     0.034 C 
ENDBRANCH  16  17
ENDBRANCH  14  16
ENDBRANCH   1  14
BRANCH   1  19
HETATM   19  O   UNL     1     -35.282  -3.009 -12.458  1.00  0.00    -0.379 OA
HETATM   20  H   UNL     1     -35.585  -3.761 -11.901  1.00  0.00     0.211 HD
ENDBRANCH   1  19
TORSDOF 12
BEGIN_RES ARG D 557
REMARK  4 active torsions:
REMARK  status: ('A' for Active; 'I' for Inactive)
REMARK    1  A    between atoms: CA   and  CB  
REMARK    2  A    between atoms: CB   and  CG  
REMARK    3  A    between atoms: CG   and  CD  
REMARK    4  A    between atoms: CD   and  NE  
REMARK       I    between atoms: NE   and  CZ  
REMARK       I    between atoms: CZ   and  NH1 
REMARK       I    between atoms: CZ   and  NH2 
ROOT
ATOM      1  CA  ARG D 557     -26.217   2.705 -17.014  1.00 35.49     0.159 C 
ENDROOT
BRANCH   1   2
ATOM      2  CB  ARG D 557     -26.789   1.319 -17.183  1.00 35.49     0.034 C 
BRANCH   2   3
ATOM      3  CG  ARG D 557     -25.861   0.195 -17.009  1.00 35.49     0.027 C 
BRANCH   3   4
ATOM      4  CD  ARG D 557     -26.272  -0.713 -15.914  1.00 35.49     0.116 C 
BRANCH   4   5
ATOM      5  NE  ARG D 557     -25.225  -0.905 -14.946  1.00 35.49    -0.212 N 
ATOM      6  CZ  ARG D 557     -24.928  -2.039 -14.352  1.00 35.49     0.666 C 
ATOM      7  NH1 ARG D 557     -25.594  -3.156 -14.580  1.00 35.49    -0.235 N 
ATOM      8  NH2 ARG D 557     -23.930  -2.035 -13.516  1.00 35.49    -0.235 N 
ATOM      9  HH  ARG D 557     -26.253  -3.182 -15.127  1.00 35.49     0.174 HD
ATOM     10  HH  ARG D 557     -25.354  -3.865 -14.165  1.00 35.49     0.174 HD
ATOM     11  HH  ARG D 557     -23.513  -1.301 -13.394  1.00 35.49     0.174 HD
ATOM     12  HH  ARG D 557     -23.706  -2.748 -13.116  1.00 35.49     0.174 HD
ATOM     13  HE  ARG D 557     -24.791  -0.222 -14.686  1.00 35.49     0.178 HD
ENDBRANCH   4   5
ENDBRANCH   3   4
ENDBRANCH   2   3
ENDBRANCH   1   2
END_RES ARG D 557
BEGIN_RES GLU D 570
REMARK  3 active torsions:
REMARK  status: ('A' for Active; 'I' for Inactive)
REMARK    5  A    between atoms: CA   and  CB  
REMARK    6  A    between atoms: CB   and  CG  
REMARK    7  A    between atoms: CG   and  CD  
ROOT
ATOM     14  CA  GLU D 570     -18.033  -6.348 -13.375  1.00 32.92     0.160 C 
ENDROOT
BRANCH  14  15
ATOM     15  CB  GLU D 570     -19.500  -6.345 -13.794  1.00 32.92     0.043 C 
BRANCH  15  16
ATOM     16  CG  GLU D 570     -20.449  -5.563 -12.960  1.00 32.92     0.100 C 
BRANCH  16  17
ATOM     17  CD  GLU D 570     -21.671  -5.111 -13.724  1.00 32.92     0.185 C 
ATOM     18  OE1 GLU D 570     -21.633  -5.089 -14.969  1.00 32.92    -0.647 OA
ATOM     19  OE2 GLU D 570     -22.673  -4.759 -13.070  1.00 32.92    -0.647 OA
ENDBRANCH  16  17
ENDBRANCH  15  16
ENDBRANCH  14  15
END_RES GLU D 570
ENDMDL
MODEL 2
REMARK VINA RESULT:      -6.5      1.674      2.062
REMARK  12 active torsions:
REMARK  status: ('A' for Active; 'I' for Inactive)
REMARK    1  A    between atoms: C_2  and  O_3 
REMARK    2  A    between atoms: O_3  and  C_4 
REMARK    3  A    between atoms: C_4  and  C_6 
REMARK    4  A    between atoms: C_6  and  C_7 
REMARK    5  A    between atoms: C_7  and  C_8 
REMARK    6  A    between atoms: C_7  and  C_14 
REMARK    7  A    between atoms: C_7  and  O_19 
REMARK    8  A    between atoms: C_8  and  C_9 
REMARK    9  A    between atoms: C_9  and  O_11 
REMARK   10  A    between atoms: O_11  and  C_12 
REMARK   11  A    between atoms: C_14  and  O_16 
REMARK   12  A    between atoms: O_16  and  C_17 
ROOT
HETATM    1  C   UNL     1     -34.835  -1.968 -11.580  1.00  0.00     0.162 C 
ENDROOT
BRANCH   1   2
HETATM    2  C   UNL     1     -34.789  -0.674 -12.417  1.00  0.00     0.160 C 
BRANCH   2   3
HETATM    3  C   UNL     1     -35.750  -0.686 -13.568  1.00  0.00     0.262 C 
HETATM    4  O   UNL     1     -36.953  -0.884 -13.472  1.00  0.00    -0.265 OA
BRANCH   3   5
HETATM    5  O   UNL     1     -35.073  -0.472 -14.728  1.00  0.00    -0.322 OA
BRANCH   5   6
HETATM    6  C   UNL     1     -35.850   0.050 -15.812  1.00  0.00     0.174 C 
HETATM    7  C   UNL     1     -35.829   1.562 -15.695  1.00  0.00     0.034 C 
ENDBRANCH   5   6
ENDBRANCH   3   5
ENDBRANCH   2   3
ENDBRANCH   1   2
BRANCH   1   8
HETATM    8  C   UNL     1     -33.526  -2.424 -10.914  1.00  0.00     0.160 C 
BRANCH   8   9
HETATM    9  C   UNL     1     -33.161  -3.845 -11.234  1.00  0.00     0.262 C 
HETATM   10  O   UNL     1     -32.423  -4.189 -12.146  1.00  0.00    -0.265 OA
BRANCH   9  11
HETATM   11  O   UNL     1     -33.868  -4.687 -10.436  1.00  0.00    -0.322 OA
BRANCH  11  12
HETATM   12  C   UNL     1     -33.982  -6.036 -10.917  1.00  0.00     0.174 C 
HETATM   13  C   UNL     1     -34.776  -6.817  -9.886  1.00  0.00     0.034 C 
ENDBRANCH  11  12
ENDBRANCH   9  11
ENDBRANCH   8   9
ENDBRANCH   1   8
BRANCH   1  14
HETATM   14  C   UNL     1     -35.930  -1.880 -10.499  1.00  0.00     0.294 C 
HETATM   15  O   UNL     1     -36.865  -2.666 -10.395  1.00  0.00    -0.262 OA
BRANCH  14  16
HETATM   16  O   UNL     1     -35.804  -0.727  -9.782  1.00  0.00    -0.319 OA
BRANCH  16  17
HETATM   17  C   UNL     1     -36.968  -0.318  -9.060  1.00  0.00     0.174 C 
HETATM   18  C   UNL     1     -36.506   0.535  -7.893  1.00  0.00     0.034 C 
ENDBRANCH  16  17
ENDBRANCH  14  16
ENDBRANCH   1  14
BRANCH   1  19
HETATM   19  O   UNL     1     -35.277  -3.039 -12.454  1.00  0.00    -0.379 OA
HETATM   20  H   UNL     1     -34.472  -3.454 -12.840  1.00  0.00     0.211 HD
ENDBRANCH   1  19
TORSDOF 12
BEGIN_RES ARG D 557
REMARK  4 active torsions:
REMARK  status: ('A' for Active; 'I' for Inactive)
REMARK    1  A    between atoms: CA   and  CB  
REMARK    2  A    between atoms: CB   and  CG  
REMARK    3  A    between atoms: CG   and  CD  
REMARK    4  A    between atoms: CD   and  NE  
REMARK       I    between atoms: NE   and  CZ  
REMARK       I    between atoms: CZ   and  NH1 
REMARK       I    between atoms: CZ   and  NH2 
ROOT
ATOM      1  CA  ARG D 557     -26.217   2.705 -17.014  1.00 35.49     0.159 C 
ENDROOT
BRANCH   1   2
ATOM      2  CB  ARG D 557     -26.789   1.319 -17.183  1.00 35.49     0.034 C 
BRANCH   2   3
ATOM      3  CG  ARG D 557     -28.230   1.227 -17.447  1.00 35.49     0.027 C 
BRANCH   3   4
ATOM      4  CD  ARG D 557     -28.918   0.312 -16.507  1.00 35.49     0.116 C 
BRANCH   4   5
ATOM      5  NE  ARG D 557     -29.313  -0.919 -17.140  1.00 35.49    -0.212 N 
ATOM      6  CZ  ARG D 557     -28.687  -2.070 -17.037  1.00 35.49     0.666 C 
ATOM      7  NH1 ARG D 557     -27.583  -2.217 -16.328  1.00 35.49    -0.235 N 
ATOM      8  NH2 ARG D 557     -29.200  -3.090 -17.663  1.00 35.49    -0.235 N 
ATOM      9  HH  ARG D 557     -27.230  -1.560 -15.906  1.00 35.49     0.174 HD
ATOM     10  HH  ARG D 557     -27.221  -2.992 -16.296  1.00 35.49     0.174 HD
ATOM     11  HH  ARG D 557     -29.917  -2.967 -18.108  1.00 35.49     0.174 HD
ATOM     12  HH  ARG D 557     -28.827  -3.850 -17.618  1.00 35.49     0.174 HD
ATOM     13  HE  ARG D 557     -29.973  -0.899 -17.675  1.00 35.49     0.178 HD
ENDBRANCH   4   5
ENDBRANCH   3   4
ENDBRANCH   2   3
ENDBRANCH   1   2
END_RES ARG D 557
BEGIN_RES GLU D 570
REMARK  3 active torsions:
REMARK  status: ('A' for Active; 'I' for Inactive)
REMARK    5  A    between atoms: CA   and  CB  
REMARK    6  A    between atoms: CB   and  CG  
REMARK    7  A    between atoms: CG   and  CD  
ROOT
ATOM     14  CA  GLU D 570     -18.033  -6.348 -13.375  1.00 32.92     0.160 C 
ENDROOT
BRANCH  14  15
ATOM     15  CB  GLU D 570     -19.500  -6.345 -13.794  1.00 32.92     0.043 C 
BRANCH  15  16
ATOM     16  CG  GLU D 570     -20.440  -5.521 -12.990  1.00 32.92     0.100 C 
BRANCH  16  17
ATOM     17  CD  GLU D 570     -21.747  -5.258 -13.700  1.00 32.92     0.185 C 
ATOM     18  OE1 GLU D 570     -22.214  -6.133 -14.454  1.00 32.92    -0.647 OA
ATOM     19  OE2 GLU D 570     -22.302  -4.157 -13.513  1.00 32.92    -0.647 OA
ENDBRANCH  16  17
ENDBRANCH  15  16
ENDBRANCH  14  15
END_RES GLU D 570
ENDMDL
MODEL 3
REMARK VINA RESULT:      -6.1      7.023     10.319
REMARK  12 active torsions:
REMARK  status: ('A' for Active; 'I' for Inactive)
REMARK    1  A    between atoms: C_2  and  O_3 
REMARK    2  A    between atoms: O_3  and  C_4 
REMARK    3  A    between atoms: C_4  and  C_6 
REMARK    4  A    between atoms: C_6  and  C_7 
REMARK    5  A    between atoms: C_7  and  C_8 
REMARK    6  A    between atoms: C_7  and  C_14 
REMARK    7  A    between atoms: C_7  and  O_19 
REMARK    8  A    between atoms: C_8  and  C_9 
REMARK    9  A    between atoms: C_9  and  O_11 
REMARK   10  A    between atoms: O_11  and  C_12 
REMARK   11  A    between atoms: C_14  and  O_16 
REMARK   12  A    between atoms: O_16  and  C_17 
ROOT
HETATM    1  C   UNL     1     -25.902  -6.432 -16.117  1.00  0.00     0.162 C 
ENDROOT
BRANCH   1   2
HETATM    2  C   UNL     1     -25.309  -5.227 -15.359  1.00  0.00     0.160 C 
BRANCH   2   3
HETATM    3  C   UNL     1     -24.038  -5.557 -14.635  1.00  0.00     0.262 C 
HETATM    4  O   UNL     1     -23.932  -6.404 -13.760  1.00  0.00    -0.265 OA
BRANCH   3   5
HETATM    5  O   UNL     1     -23.038  -4.750 -15.082  1.00  0.00    -0.322 OA
BRANCH   5   6
HETATM    6  C   UNL     1     -22.611  -3.731 -14.170  1.00  0.00     0.174 C 
HETATM    7  C   UNL     1     -22.961  -2.394 -14.793  1.00  0.00     0.034 C 
ENDBRANCH   5   6
ENDBRANCH   3   5
ENDBRANCH   2   3
ENDBRANCH   1   2
BRANCH   1   8
HETATM    8  C   UNL     1     -27.061  -6.155 -17.088  1.00  0.00     0.160 C 
BRANCH   8   9
HETATM    9  C   UNL     1     -28.410  -6.196 -16.431  1.00  0.00     0.262 C 
HETATM   10  O   UNL     1     -28.846  -5.342 -15.673  1.00  0.00    -0.265 OA
BRANCH   9  11
HETATM   11  O   UNL     1     -29.015  -7.380 -16.712  1.00  0.00    -0.322 OA
BRANCH  11  12
HETATM   12  C   UNL     1     -29.774  -7.406 -17.932  1.00  0.00     0.174 C 
HETATM   13  C   UNL     1     -31.188  -6.974 -17.594  1.00  0.00     0.034 C 
ENDBRANCH  11  12
ENDBRANCH   9  11
ENDBRANCH   8   9
ENDBRANCH   1   8
BRANCH   1  14
HETATM   14  C   UNL     1     -24.798  -7.195 -16.876  1.00  0.00     0.294 C 
HETATM   15  O   UNL     1     -24.239  -8.202 -16.455  1.00  0.00    -0.262 OA
BRANCH  14  16
HETATM   16  O   UNL     1     -24.425  -6.511 -17.993  1.00  0.00    -0.319 OA
BRANCH  16  17
HETATM   17  C   UNL     1     -24.186  -7.309 -19.156  1.00  0.00     0.174 C 
HETATM   18  C   UNL     1     -25.193  -6.891 -20.211  1.00  0.00     0.034 C 
ENDBRANCH  16  17
ENDBRANCH  14  16
ENDBRANCH   1  14
BRANCH   1  19
HETATM   19  O   UNL     1     -26.379  -7.379 -15.126  1.00  0.00    -0.379 OA
HETATM   20  H   UNL     1     -27.354  -7.454 -15.237  1.00  0.00     0.211 HD
ENDBRANCH   1  19
TORSDOF 12
BEGIN_RES ARG D 557
REMARK  4 active torsions:
REMARK  status: ('A' for Active; 'I' for Inactive)
REMARK    1  A    between atoms: CA   and  CB  
REMARK    2  A    between atoms: CB   and  CG  
REMARK    3  A    between atoms: CG   and  CD  
REMARK    4  A    between atoms: CD   and  NE  
REMARK       I    between atoms: NE   and  CZ  
REMARK       I    between atoms: CZ   and  NH1 
REMARK       I    between atoms: CZ   and  NH2 
ROOT
ATOM      1  CA  ARG D 557     -26.217   2.705 -17.014  1.00 35.49     0.159 C 
ENDROOT
BRANCH   1   2
ATOM      2  CB  ARG D 557     -26.789   1.319 -17.183  1.00 35.49     0.034 C 
BRANCH   2   3
ATOM      3  CG  ARG D 557     -28.248   1.217 -17.312  1.00 35.49     0.027 C 
BRANCH   3   4
ATOM      4  CD  ARG D 557     -28.824   0.197 -16.406  1.00 35.49     0.116 C 
BRANCH   4   5
ATOM      5  NE  ARG D 557     -29.298  -0.958 -17.123  1.00 35.49    -0.212 N 
ATOM      6  CZ  ARG D 557     -28.762  -2.158 -17.085  1.00 35.49     0.666 C 
ATOM      7  NH1 ARG D 557     -27.687  -2.432 -16.369  1.00 35.49    -0.235 N 
ATOM      8  NH2 ARG D 557     -29.337  -3.094 -17.782  1.00 35.49    -0.235 N 
ATOM      9  HH  ARG D 557     -27.294  -1.832 -15.901  1.00 35.49     0.174 HD
ATOM     10  HH  ARG D 557     -27.384  -3.234 -16.381  1.00 35.49     0.174 HD
ATOM     11  HH  ARG D 557     -30.035  -2.889 -18.229  1.00 35.49     0.174 HD
ATOM     12  HH  ARG D 557     -29.023  -3.881 -17.780  1.00 35.49     0.174 HD
ATOM     13  HE  ARG D 557     -29.944  -0.854 -17.665  1.00 35.49     0.178 HD
ENDBRANCH   4   5
ENDBRANCH   3   4
ENDBRANCH   2   3
ENDBRANCH   1   2
END_RES ARG D 557
BEGIN_RES GLU D 570
REMARK  3 active torsions:
REMARK  status: ('A' for Active; 'I' for Inactive)
REMARK    5  A    between atoms: CA   and  CB  
REMARK    6  A    between atoms: CB   and  CG  
REMARK    7  A    between atoms: CG   and  CD  
ROOT
ATOM     14  CA  GLU D 570     -18.033  -6.348 -13.375  1.00 32.92     0.160 C 
ENDROOT
BRANCH  14  15
ATOM     15  CB  GLU D 570     -19.500  -6.345 -13.794  1.00 32.92     0.043 C 
BRANCH  15  16
ATOM     16  CG  GLU D 570     -19.802  -6.103 -15.229  1.00 32.92     0.100 C 
BRANCH  16  17
ATOM     17  CD  GLU D 570     -20.647  -7.193 -15.845  1.00 32.92     0.185 C 
ATOM     18  OE1 GLU D 570     -21.236  -6.967 -16.919  1.00 32.92    -0.647 OA
ATOM     19  OE2 GLU D 570     -20.734  -8.279 -15.238  1.00 32.92    -0.647 OA
ENDBRANCH  16  17
ENDBRANCH  15  16
ENDBRANCH  14  15
END_RES GLU D 570
ENDMDL
MODEL 4
REMARK VINA RESULT:      -6.1      7.685     10.922
REMARK  12 active torsions:
REMARK  status: ('A' for Active; 'I' for Inactive)
REMARK    1  A    between atoms: C_2  and  O_3 
REMARK    2  A    between atoms: O_3  and  C_4 
REMARK    3  A    between atoms: C_4  and  C_6 
REMARK    4  A    between atoms: C_6  and  C_7 
REMARK    5  A    between atoms: C_7  and  C_8 
REMARK    6  A    between atoms: C_7  and  C_14 
REMARK    7  A    between atoms: C_7  and  O_19 
REMARK    8  A    between atoms: C_8  and  C_9 
REMARK    9  A    between atoms: C_9  and  O_11 
REMARK   10  A    between atoms: O_11  and  C_12 
REMARK   11  A    between atoms: C_14  and  O_16 
REMARK   12  A    between atoms: O_16  and  C_17 
ROOT
HETATM    1  C   UNL     1     -23.696  -4.000 -12.219  1.00  0.00     0.162 C 
ENDROOT
BRANCH   1   2
HETATM    2  C   UNL     1     -24.033  -4.644 -10.858  1.00  0.00     0.160 C 
BRANCH   2   3
HETATM    3  C   UNL     1     -24.466  -3.644  -9.828  1.00  0.00     0.262 C 
HETATM    4  O   UNL     1     -25.594  -3.181  -9.735  1.00  0.00    -0.265 OA
BRANCH   3   5
HETATM    5  O   UNL     1     -23.408  -3.316  -9.039  1.00  0.00    -0.322 OA
BRANCH   5   6
HETATM    6  C   UNL     1     -22.962  -4.341  -8.144  1.00  0.00     0.174 C 
HETATM    7  C   UNL     1     -21.758  -3.798  -7.400  1.00  0.00     0.034 C 
ENDBRANCH   5   6
ENDBRANCH   3   5
ENDBRANCH   2   3
ENDBRANCH   1   2
BRANCH   1   8
HETATM    8  C   UNL     1     -24.799  -3.173 -12.900  1.00  0.00     0.160 C 
BRANCH   8   9
HETATM    9  C   UNL     1     -24.844  -3.356 -14.389  1.00  0.00     0.262 C 
HETATM   10  O   UNL     1     -25.389  -4.287 -14.964  1.00  0.00    -0.265 OA
BRANCH   9  11
HETATM   11  O   UNL     1     -24.088  -2.399 -14.987  1.00  0.00    -0.322 OA
BRANCH  11  12
HETATM   12  C   UNL     1     -24.589  -1.057 -14.868  1.00  0.00     0.174 C 
HETATM   13  C   UNL     1     -23.680  -0.161 -15.688  1.00  0.00     0.034 C 
ENDBRANCH  11  12
ENDBRANCH   9  11
ENDBRANCH   8   9
ENDBRANCH   1   8
BRANCH   1  14
HETATM   14  C   UNL     1     -22.427  -3.131 -12.112  1.00  0.00     0.294 C 
HETATM   15  O   UNL     1     -22.414  -1.910 -12.218  1.00  0.00    -0.262 OA
BRANCH  14  16
HETATM   16  O   UNL     1     -21.315  -3.915 -12.044  1.00  0.00    -0.319 OA
BRANCH  16  17
HETATM   17  C   UNL     1     -20.397  -3.595 -10.995  1.00  0.00     0.174 C 
HETATM   18  C   UNL     1     -19.965  -4.900 -10.351  1.00  0.00     0.034 C 
ENDBRANCH  16  17
ENDBRANCH  14  16
ENDBRANCH   1  14
BRANCH   1  19
HETATM   19  O   UNL     1     -23.326  -5.068 -13.128  1.00  0.00    -0.379 OA
HETATM   20  H   UNL     1     -22.349  -5.169 -13.081  1.00  0.00     0.211 HD
ENDBRANCH   1  19
TORSDOF 12
BEGIN_RES ARG D 557
REMARK  4 active torsions:
REMARK  status: ('A' for Active; 'I' for Inactive)
REMARK    1  A    between atoms: CA   and  CB  
REMARK    2  A    between atoms: CB   and  CG  
REMARK    3  A    between atoms: CG   and  CD  
REMARK    4  A    between atoms: CD   and  NE  
REMARK       I    between atoms: NE   and  CZ  
REMARK       I    between atoms: CZ   and  NH1 
REMARK       I    between atoms: CZ   and  NH2 
ROOT
ATOM      1  CA  ARG D 557     -26.217   2.705 -17.014  1.00 35.49     0.159 C 
ENDROOT
BRANCH   1   2
ATOM      2  CB  ARG D 557     -26.789   1.319 -17.183  1.00 35.49     0.034 C 
BRANCH   2   3
ATOM      3  CG  ARG D 557     -28.240   1.223 -17.387  1.00 35.49     0.027 C 
BRANCH   3   4
ATOM      4  CD  ARG D 557     -28.877   0.261 -16.459  1.00 35.49     0.116 C 
BRANCH   4   5
ATOM      5  NE  ARG D 557     -29.297  -0.942 -17.130  1.00 35.49    -0.212 N 
ATOM      6  CZ  ARG D 557     -28.701  -2.111 -17.055  1.00 35.49     0.666 C 
ATOM      7  NH1 ARG D 557     -27.607  -2.305 -16.341  1.00 35.49    -0.235 N 
ATOM      8  NH2 ARG D 557     -29.233  -3.099 -17.714  1.00 35.49    -0.235 N 
ATOM      9  HH  ARG D 557     -27.241  -1.669 -15.898  1.00 35.49     0.174 HD
ATOM     10  HH  ARG D 557     -27.264  -3.089 -16.328  1.00 35.49     0.174 HD
ATOM     11  HH  ARG D 557     -29.943  -2.946 -18.160  1.00 35.49     0.174 HD
ATOM     12  HH  ARG D 557     -28.879  -3.869 -17.686  1.00 35.49     0.174 HD
ATOM     13  HE  ARG D 557     -29.952  -0.890 -17.669  1.00 35.49     0.178 HD
ENDBRANCH   4   5
ENDBRANCH   3   4
ENDBRANCH   2   3
ENDBRANCH   1   2
END_RES ARG D 557
BEGIN_RES GLU D 570
REMARK  3 active torsions:
REMARK  status: ('A' for Active; 'I' for Inactive)
REMARK    5  A    between atoms: CA   and  CB  
REMARK    6  A    between atoms: CB   and  CG  
REMARK    7  A    between atoms: CG   and  CD  
ROOT
ATOM     14  CA  GLU D 570     -18.033  -6.348 -13.375  1.00 32.92     0.160 C 
ENDROOT
BRANCH  14  15
ATOM     15  CB  GLU D 570     -19.500  -6.345 -13.794  1.00 32.92     0.043 C 
BRANCH  15  16
ATOM     16  CG  GLU D 570     -19.815  -6.755 -15.187  1.00 32.92     0.100 C 
BRANCH  16  17
ATOM     17  CD  GLU D 570     -20.665  -5.745 -15.921  1.00 32.92     0.185 C 
ATOM     18  OE1 GLU D 570     -20.598  -5.687 -17.164  1.00 32.92    -0.647 OA
ATOM     19  OE2 GLU D 570     -21.394  -4.993 -15.245  1.00 32.92    -0.647 OA
ENDBRANCH  16  17
ENDBRANCH  15  16
ENDBRANCH  14  15
END_RES GLU D 570
ENDMDL
MODEL 5
REMARK VINA RESULT:      -6.0      8.416     11.133
REMARK  12 active torsions:
REMARK  status: ('A' for Active; 'I' for Inactive)
REMARK    1  A    between atoms: C_2  and  O_3 
REMARK    2  A    between atoms: O_3  and  C_4 
REMARK    3  A    between atoms: C_4  and  C_6 
REMARK    4  A    between atoms: C_6  and  C_7 
REMARK    5  A    between atoms: C_7  and  C_8 
REMARK    6  A    between atoms: C_7  and  C_14 
REMARK    7  A    between atoms: C_7  and  O_19 
REMARK    8  A    between atoms: C_8  and  C_9 
REMARK    9  A    between atoms: C_9  and  O_11 
REMARK   10  A    between atoms: O_11  and  C_12 
REMARK   11  A    between atoms: C_14  and  O_16 
REMARK   12  A    between atoms: O_16  and  C_17 
ROOT
HETATM    1  C   UNL     1     -22.495  -3.423 -12.232  1.00  0.00     0.162 C 
ENDROOT
BRANCH   1   2
HETATM    2  C   UNL     1     -21.336  -2.850 -11.392  1.00  0.00     0.160 C 
BRANCH   2   3
HETATM    3  C   UNL     1     -20.581  -3.905 -10.640  1.00  0.00     0.262 C 
HETATM    4  O   UNL     1     -19.906  -4.785 -11.156  1.00  0.00    -0.265 OA
BRANCH   3   5
HETATM    5  O   UNL     1     -20.788  -3.747  -9.305  1.00  0.00    -0.322 OA
BRANCH   5   6
HETATM    6  C   UNL     1     -20.074  -4.655  -8.456  1.00  0.00     0.174 C 
HETATM    7  C   UNL     1     -20.431  -4.308  -7.024  1.00  0.00     0.034 C 
ENDBRANCH   5   6
ENDBRANCH   3   5
ENDBRANCH   2   3
ENDBRANCH   1   2
BRANCH   1   8
HETATM    8  C   UNL     1     -22.137  -4.433 -13.334  1.00  0.00     0.160 C 
BRANCH   8   9
HETATM    9  C   UNL     1     -22.725  -4.088 -14.671  1.00  0.00     0.262 C 
HETATM   10  O   UNL     1     -22.291  -3.231 -15.427  1.00  0.00    -0.265 OA
BRANCH   9  11
HETATM   11  O   UNL     1     -23.877  -4.785 -14.854  1.00  0.00    -0.322 OA
BRANCH  11  12
HETATM   12  C   UNL     1     -23.803  -6.185 -14.538  1.00  0.00     0.174 C 
HETATM   13  C   UNL     1     -24.254  -6.950 -15.768  1.00  0.00     0.034 C 
ENDBRANCH  11  12
ENDBRANCH   9  11
ENDBRANCH   8   9
ENDBRANCH   1   8
BRANCH   1  14
HETATM   14  C   UNL     1     -23.570  -4.050 -11.322  1.00  0.00     0.294 C 
HETATM   15  O   UNL     1     -23.753  -5.256 -11.197  1.00  0.00    -0.262 OA
BRANCH  14  16
HETATM   16  O   UNL     1     -24.383  -3.086 -10.806  1.00  0.00    -0.319 OA
BRANCH  16  17
HETATM   17  C   UNL     1     -24.987  -3.395  -9.547  1.00  0.00     0.174 C 
HETATM   18  C   UNL     1     -23.872  -3.752  -8.581  1.00  0.00     0.034 C 
ENDBRANCH  16  17
ENDBRANCH  14  16
ENDBRANCH   1  14
BRANCH   1  19
HETATM   19  O   UNL     1     -23.169  -2.304 -12.867  1.00  0.00    -0.379 OA
HETATM   20  H   UNL     1     -24.136  -2.480 -12.822  1.00  0.00     0.211 HD
ENDBRANCH   1  19
TORSDOF 12
BEGIN_RES ARG D 557
REMARK  4 active torsions:
REMARK  status: ('A' for Active; 'I' for Inactive)
REMARK    1  A    between atoms: CA   and  CB  
REMARK    2  A    between atoms: CB   and  CG  
REMARK    3  A    between atoms: CG   and  CD  
REMARK    4  A    between atoms: CD   and  NE  
REMARK       I    between atoms: NE   and  CZ  
REMARK       I    between atoms: CZ   and  NH1 
REMARK       I    between atoms: CZ   and  NH2 
ROOT
ATOM      1  CA  ARG D 557     -26.217   2.705 -17.014  1.00 35.49     0.159 C 
ENDROOT
BRANCH   1   2
ATOM      2  CB  ARG D 557     -26.789   1.319 -17.183  1.00 35.49     0.034 C 
BRANCH   2   3
ATOM      3  CG  ARG D 557     -25.984   0.205 -16.669  1.00 35.49     0.027 C 
BRANCH   3   4
ATOM      4  CD  ARG D 557     -26.815  -0.949 -16.254  1.00 35.49     0.116 C 
BRANCH   4   5
ATOM      5  NE  ARG D 557     -26.373  -1.517 -15.008  1.00 35.49    -0.212 N 
ATOM      6  CZ  ARG D 557     -26.349  -2.797 -14.714  1.00 35.49     0.666 C 
ATOM      7  NH1 ARG D 557     -26.757  -3.727 -15.557  1.00 35.49    -0.235 N 
ATOM      8  NH2 ARG D 557     -25.895  -3.135 -13.542  1.00 35.49    -0.235 N 
ATOM      9  HH  ARG D 557     -27.058  -3.527 -16.335  1.00 35.49     0.174 HD
ATOM     10  HH  ARG D 557     -26.716  -4.546 -15.311  1.00 35.49     0.174 HD
ATOM     11  HH  ARG D 557     -25.631  -2.514 -13.020  1.00 35.49     0.174 HD
ATOM     12  HH  ARG D 557     -25.861  -3.952 -13.317  1.00 35.49     0.174 HD
ATOM     13  HE  ARG D 557     -26.160  -0.984 -14.380  1.00 35.49     0.178 HD
ENDBRANCH   4   5
ENDBRANCH   3   4
ENDBRANCH   2   3
ENDBRANCH   1   2
END_RES ARG D 557
BEGIN_RES GLU D 570
REMARK  3 active torsions:
REMARK  status: ('A' for Active; 'I' for Inactive)
REMARK    5  A    between atoms: CA   and  CB  
REMARK    6  A    between atoms: CB   and  CG  
REMARK    7  A    between atoms: CG   and  CD  
ROOT
ATOM     14  CA  GLU D 570     -18.033  -6.348 -13.375  1.00 32.92     0.160 C 
ENDROOT
BRANCH  14  15
ATOM     15  CB  GLU D 570     -19.500  -6.345 -13.794  1.00 32.92     0.043 C 
BRANCH  15  16
ATOM     16  CG  GLU D 570     -20.089  -7.636 -14.235  1.00 32.92     0.100 C 
BRANCH  16  17
ATOM     17  CD  GLU D 570     -20.564  -7.608 -15.668  1.00 32.92     0.185 C 
ATOM     18  OE1 GLU D 570     -20.831  -8.683 -16.239  1.00 32.92    -0.647 OA
ATOM     19  OE2 GLU D 570     -20.655  -6.500 -16.233  1.00 32.92    -0.647 OA
ENDBRANCH  16  17
ENDBRANCH  15  16
ENDBRANCH  14  15
END_RES GLU D 570
ENDMDL
MODEL 6
REMARK VINA RESULT:      -6.0      7.605     10.642
REMARK  12 active torsions:
REMARK  status: ('A' for Active; 'I' for Inactive)
REMARK    1  A    between atoms: C_2  and  O_3 
REMARK    2  A    between atoms: O_3  and  C_4 
REMARK    3  A    between atoms: C_4  and  C_6 
REMARK    4  A    between atoms: C_6  and  C_7 
REMARK    5  A    between atoms: C_7  and  C_8 
REMARK    6  A    between atoms: C_7  and  C_14 
REMARK    7  A    between atoms: C_7  and  O_19 
REMARK    8  A    between atoms: C_8  and  C_9 
REMARK    9  A    between atoms: C_9  and  O_11 
REMARK   10  A    between atoms: O_11  and  C_12 
REMARK   11  A    between atoms: C_14  and  O_16 
REMARK   12  A    between atoms: O_16  and  C_17 
ROOT
HETATM    1  C   UNL     1     -23.497  -3.545 -13.017  1.00  0.00     0.162 C 
ENDROOT
BRANCH   1   2
HETATM    2  C   UNL     1     -23.433  -2.902 -11.617  1.00  0.00     0.160 C 
BRANCH   2   3
HETATM    3  C   UNL     1     -22.259  -3.370 -10.810  1.00  0.00     0.262 C 
HETATM    4  O   UNL     1     -21.091  -3.293 -11.165  1.00  0.00    -0.265 OA
BRANCH   3   5
HETATM    5  O   UNL     1     -22.697  -3.915  -9.643  1.00  0.00    -0.322 OA
BRANCH   5   6
HETATM    6  C   UNL     1     -21.692  -4.542  -8.837  1.00  0.00     0.174 C 
HETATM    7  C   UNL     1     -21.585  -3.746  -7.551  1.00  0.00     0.034 C 
ENDBRANCH   5   6
ENDBRANCH   3   5
ENDBRANCH   2   3
ENDBRANCH   1   2
BRANCH   1   8
HETATM    8  C   UNL     1     -23.523  -5.081 -13.088  1.00  0.00     0.160 C 
BRANCH   8   9
HETATM    9  C   UNL     1     -23.542  -5.611 -14.492  1.00  0.00     0.262 C 
HETATM   10  O   UNL     1     -22.936  -5.121 -15.434  1.00  0.00    -0.265 OA
BRANCH   9  11
HETATM   11  O   UNL     1     -24.428  -6.638 -14.578  1.00  0.00    -0.322 OA
BRANCH  11  12
HETATM   12  C   UNL     1     -24.890  -6.939 -15.905  1.00  0.00     0.174 C 
HETATM   13  C   UNL     1     -26.342  -6.506 -15.986  1.00  0.00     0.034 C 
ENDBRANCH  11  12
ENDBRANCH   9  11
ENDBRANCH   8   9
ENDBRANCH   1   8
BRANCH   1  14
HETATM   14  C   UNL     1     -24.696  -2.998 -13.815  1.00  0.00     0.294 C 
HETATM   15  O   UNL     1     -25.867  -3.290 -13.593  1.00  0.00    -0.262 OA
BRANCH  14  16
HETATM   16  O   UNL     1     -24.268  -2.277 -14.889  1.00  0.00    -0.319 OA
BRANCH  16  17
HETATM   17  C   UNL     1     -24.786  -0.947 -14.987  1.00  0.00     0.174 C 
HETATM   18  C   UNL     1     -23.730  -0.096 -15.669  1.00  0.00     0.034 C 
ENDBRANCH  16  17
ENDBRANCH  14  16
ENDBRANCH   1  14
BRANCH   1  19
HETATM   19  O   UNL     1     -22.334  -3.093 -13.759  1.00  0.00    -0.379 OA
HETATM   20  H   UNL     1     -21.576  -3.070 -13.131  1.00  0.00     0.211 HD
ENDBRANCH   1  19
TORSDOF 12
BEGIN_RES ARG D 557
REMARK  4 active torsions:
REMARK  status: ('A' for Active; 'I' for Inactive)
REMARK    1  A    between atoms: CA   and  CB  
REMARK    2  A    between atoms: CB   and  CG  
REMARK    3  A    between atoms: CG   and  CD  
REMARK    4  A    between atoms: CD   and  NE  
REMARK       I    between atoms: NE   and  CZ  
REMARK       I    between atoms: CZ   and  NH1 
REMARK       I    between atoms: CZ   and  NH2 
ROOT
ATOM      1  CA  ARG D 557     -26.217   2.705 -17.014  1.00 35.49     0.159 C 
ENDROOT
BRANCH   1   2
ATOM      2  CB  ARG D 557     -26.789   1.319 -17.183  1.00 35.49     0.034 C 
BRANCH   2   3
ATOM      3  CG  ARG D 557     -28.229   1.227 -17.452  1.00 35.49     0.027 C 
BRANCH   3   4
ATOM      4  CD  ARG D 557     -28.918   0.301 -16.523  1.00 35.49     0.116 C 
BRANCH   4   5
ATOM      5  NE  ARG D 557     -28.120  -0.858 -16.222  1.00 35.49    -0.212 N 
ATOM      6  CZ  ARG D 557     -28.326  -2.072 -16.681  1.00 35.49     0.666 C 
ATOM      7  NH1 ARG D 557     -29.332  -2.366 -17.484  1.00 35.49    -0.235 N 
ATOM      8  NH2 ARG D 557     -27.488  -3.000 -16.319  1.00 35.49    -0.235 N 
ATOM      9  HH  ARG D 557     -29.894  -1.771 -17.736  1.00 35.49     0.174 HD
ATOM     10  HH  ARG D 557     -29.415  -3.175 -17.753  1.00 35.49     0.174 HD
ATOM     11  HH  ARG D 557     -26.844  -2.780 -15.806  1.00 35.49     0.174 HD
ATOM     12  HH  ARG D 557     -27.586  -3.795 -16.598  1.00 35.49     0.174 HD
ATOM     13  HE  ARG D 557     -27.493  -0.774 -15.654  1.00 35.49     0.178 HD
ENDBRANCH   4   5
ENDBRANCH   3   4
ENDBRANCH   2   3
ENDBRANCH   1   2
END_RES ARG D 557
BEGIN_RES GLU D 570
REMARK  3 active torsions:
REMARK  status: ('A' for Active; 'I' for Inactive)
REMARK    5  A    between atoms: CA   and  CB  
REMARK    6  A    between atoms: CB   and  CG  
REMARK    7  A    between atoms: CG   and  CD  
ROOT
ATOM     14  CA  GLU D 570     -18.033  -6.348 -13.375  1.00 32.92     0.160 C 
ENDROOT
BRANCH  14  15
ATOM     15  CB  GLU D 570     -19.500  -6.345 -13.794  1.00 32.92     0.043 C 
BRANCH  15  16
ATOM     16  CG  GLU D 570     -19.796  -6.389 -15.249  1.00 32.92     0.100 C 
BRANCH  16  17
ATOM     17  CD  GLU D 570     -20.584  -7.613 -15.654  1.00 32.92     0.185 C 
ATOM     18  OE1 GLU D 570     -21.274  -7.574 -16.690  1.00 32.92    -0.647 OA
ATOM     19  OE2 GLU D 570     -20.523  -8.617 -14.917  1.00 32.92    -0.647 OA
ENDBRANCH  16  17
ENDBRANCH  15  16
ENDBRANCH  14  15
END_RES GLU D 570
ENDMDL
MODEL 7
REMARK VINA RESULT:      -6.0      1.939      4.468
REMARK  12 active torsions:
REMARK  status: ('A' for Active; 'I' for Inactive)
REMARK    1  A    between atoms: C_2  and  O_3 
REMARK    2  A    between atoms: O_3  and  C_4 
REMARK    3  A    between atoms: C_4  and  C_6 
REMARK    4  A    between atoms: C_6  and  C_7 
REMARK    5  A    between atoms: C_7  and  C_8 
REMARK    6  A    between atoms: C_7  and  C_14 
REMARK    7  A    between atoms: C_7  and  O_19 
REMARK    8  A    between atoms: C_8  and  C_9 
REMARK    9  A    between atoms: C_9  and  O_11 
REMARK   10  A    between atoms: O_11  and  C_12 
REMARK   11  A    between atoms: C_14  and  O_16 
REMARK   12  A    between atoms: O_16  and  C_17 
ROOT
HETATM    1  C   UNL     1     -35.105  -1.853 -10.903  1.00  0.00     0.162 C 
ENDROOT
BRANCH   1   2
HETATM    2  C   UNL     1     -35.195  -3.387 -11.032  1.00  0.00     0.160 C 
BRANCH   2   3
HETATM    3  C   UNL     1     -33.864  -4.065 -10.899  1.00  0.00     0.262 C 
HETATM    4  O   UNL     1     -32.824  -3.669 -11.405  1.00  0.00    -0.265 OA
BRANCH   3   5
HETATM    5  O   UNL     1     -34.002  -5.197 -10.157  1.00  0.00    -0.322 OA
BRANCH   5   6
HETATM    6  C   UNL     1     -34.383  -6.371 -10.884  1.00  0.00     0.174 C 
HETATM    7  C   UNL     1     -34.864  -7.392  -9.871  1.00  0.00     0.034 C 
ENDBRANCH   5   6
ENDBRANCH   3   5
ENDBRANCH   2   3
ENDBRANCH   1   2
BRANCH   1   8
HETATM    8  C   UNL     1     -34.764  -1.057 -12.174  1.00  0.00     0.160 C 
BRANCH   8   9
HETATM    9  C   UNL     1     -35.254  -1.711 -13.434  1.00  0.00     0.262 C 
HETATM   10  O   UNL     1     -34.632  -2.543 -14.079  1.00  0.00    -0.265 OA
BRANCH   9  11
HETATM   11  O   UNL     1     -36.433  -1.149 -13.808  1.00  0.00    -0.322 OA
BRANCH  11  12
HETATM   12  C   UNL     1     -36.415   0.282 -13.941  1.00  0.00     0.174 C 
HETATM   13  C   UNL     1     -35.873   0.601 -15.321  1.00  0.00     0.034 C 
ENDBRANCH  11  12
ENDBRANCH   9  11
ENDBRANCH   8   9
ENDBRANCH   1   8
BRANCH   1  14
HETATM   14  C   UNL     1     -36.401  -1.279 -10.299  1.00  0.00     0.294 C 
HETATM   15  O   UNL     1     -37.518  -1.438 -10.780  1.00  0.00    -0.262 OA
BRANCH  14  16
HETATM   16  O   UNL     1     -36.117  -0.447  -9.258  1.00  0.00    -0.319 OA
BRANCH  16  17
HETATM   17  C   UNL     1     -37.237  -0.046  -8.464  1.00  0.00     0.174 C 
HETATM   18  C   UNL     1     -36.704   0.774  -7.303  1.00  0.00     0.034 C 
ENDBRANCH  16  17
ENDBRANCH  14  16
ENDBRANCH   1  14
BRANCH   1  19
HETATM   19  O   UNL     1     -34.084  -1.556  -9.915  1.00  0.00    -0.379 OA
HETATM   20  H   UNL     1     -33.465  -0.907 -10.318  1.00  0.00     0.211 HD
ENDBRANCH   1  19
TORSDOF 12
BEGIN_RES ARG D 557
REMARK  4 active torsions:
REMARK  status: ('A' for Active; 'I' for Inactive)
REMARK    1  A    between atoms: CA   and  CB  
REMARK    2  A    between atoms: CB   and  CG  
REMARK    3  A    between atoms: CG   and  CD  
REMARK    4  A    between atoms: CD   and  NE  
REMARK       I    between atoms: NE   and  CZ  
REMARK       I    between atoms: CZ   and  NH1 
REMARK       I    between atoms: CZ   and  NH2 
ROOT
ATOM      1  CA  ARG D 557     -26.217   2.705 -17.014  1.00 35.49     0.159 C 
ENDROOT
BRANCH   1   2
ATOM      2  CB  ARG D 557     -26.789   1.319 -17.183  1.00 35.49     0.034 C 
BRANCH   2   3
ATOM      3  CG  ARG D 557     -28.158   1.105 -16.698  1.00 35.49     0.027 C 
BRANCH   3   4
ATOM      4  CD  ARG D 557     -28.791  -0.089 -17.303  1.00 35.49     0.116 C 
BRANCH   4   5
ATOM      5  NE  ARG D 557     -28.179  -1.312 -16.856  1.00 35.49    -0.212 N 
ATOM      6  CZ  ARG D 557     -28.663  -2.521 -17.031  1.00 35.49     0.666 C 
ATOM      7  NH1 ARG D 557     -29.810  -2.744 -17.644  1.00 35.49    -0.235 N 
ATOM      8  NH2 ARG D 557     -27.961  -3.520 -16.578  1.00 35.49    -0.235 N 
ATOM      9  HH  ARG D 557     -30.287  -2.103 -17.952  1.00 35.49     0.174 HD
ATOM     10  HH  ARG D 557     -30.074  -3.555 -17.731  1.00 35.49     0.174 HD
ATOM     11  HH  ARG D 557     -27.220  -3.346 -16.192  1.00 35.49     0.174 HD
ATOM     12  HH  ARG D 557     -28.239  -4.315 -16.675  1.00 35.49     0.174 HD
ATOM     13  HE  ARG D 557     -27.471  -1.257 -16.387  1.00 35.49     0.178 HD
ENDBRANCH   4   5
ENDBRANCH   3   4
ENDBRANCH   2   3
ENDBRANCH   1   2
END_RES ARG D 557
BEGIN_RES GLU D 570
REMARK  3 active torsions:
REMARK  status: ('A' for Active; 'I' for Inactive)
REMARK    5  A    between atoms: CA   and  CB  
REMARK    6  A    between atoms: CB   and  CG  
REMARK    7  A    between atoms: CG   and  CD  
ROOT
ATOM     14  CA  GLU D 570     -18.033  -6.348 -13.375  1.00 32.92     0.160 C 
ENDROOT
BRANCH  14  15
ATOM     15  CB  GLU D 570     -19.500  -6.345 -13.794  1.00 32.92     0.043 C 
BRANCH  15  16
ATOM     16  CG  GLU D 570     -20.446  -5.552 -12.967  1.00 32.92     0.100 C 
BRANCH  16  17
ATOM     17  CD  GLU D 570     -21.698  -5.159 -13.717  1.00 32.92     0.185 C 
ATOM     18  OE1 GLU D 570     -21.741  -5.325 -14.951  1.00 32.92    -0.647 OA
ATOM     19  OE2 GLU D 570     -22.639  -4.664 -13.066  1.00 32.92    -0.647 OA
ENDBRANCH  16  17
ENDBRANCH  15  16
ENDBRANCH  14  15
END_RES GLU D 570
ENDMDL
MODEL 8
REMARK VINA RESULT:      -6.0      6.898      9.907
REMARK  12 active torsions:
REMARK  status: ('A' for Active; 'I' for Inactive)
REMARK    1  A    between atoms: C_2  and  O_3 
REMARK    2  A    between atoms: O_3  and  C_4 
REMARK    3  A    between atoms: C_4  and  C_6 
REMARK    4  A    between atoms: C_6  and  C_7 
REMARK    5  A    between atoms: C_7  and  C_8 
REMARK    6  A    between atoms: C_7  and  C_14 
REMARK    7  A    between atoms: C_7  and  O_19 
REMARK    8  A    between atoms: C_8  and  C_9 
REMARK    9  A    between atoms: C_9  and  O_11 
REMARK   10  A    between atoms: O_11  and  C_12 
REMARK   11  A    between atoms: C_14  and  O_16 
REMARK   12  A    between atoms: O_16  and  C_17 
ROOT
HETATM    1  C   UNL     1     -25.912  -6.214 -15.854  1.00  0.00     0.162 C 
ENDROOT
BRANCH   1   2
HETATM    2  C   UNL     1     -27.228  -6.957 -15.545  1.00  0.00     0.160 C 
BRANCH   2   3
HETATM    3  C   UNL     1     -28.448  -6.161 -15.904  1.00  0.00     0.262 C 
HETATM    4  O   UNL     1     -29.059  -5.434 -15.134  1.00  0.00    -0.265 OA
BRANCH   3   5
HETATM    5  O   UNL     1     -28.781  -6.399 -17.200  1.00  0.00    -0.322 OA
BRANCH   5   6
HETATM    6  C   UNL     1     -29.651  -7.516 -17.422  1.00  0.00     0.174 C 
HETATM    7  C   UNL     1     -31.062  -6.973 -17.533  1.00  0.00     0.034 C 
ENDBRANCH   5   6
ENDBRANCH   3   5
ENDBRANCH   2   3
ENDBRANCH   1   2
BRANCH   1   8
HETATM    8  C   UNL     1     -25.042  -5.794 -14.658  1.00  0.00     0.160 C 
BRANCH   8   9
HETATM    9  C   UNL     1     -24.815  -4.312 -14.580  1.00  0.00     0.262 C 
HETATM   10  O   UNL     1     -25.670  -3.486 -14.293  1.00  0.00    -0.265 OA
BRANCH   9  11
HETATM   11  O   UNL     1     -23.554  -4.024 -14.995  1.00  0.00    -0.322 OA
BRANCH  11  12
HETATM   12  C   UNL     1     -22.839  -3.084 -14.176  1.00  0.00     0.174 C 
HETATM   13  C   UNL     1     -22.366  -3.828 -12.942  1.00  0.00     0.034 C 
ENDBRANCH  11  12
ENDBRANCH   9  11
ENDBRANCH   8   9
ENDBRANCH   1   8
BRANCH   1  14
HETATM   14  C   UNL     1     -25.042  -7.029 -16.830  1.00  0.00     0.294 C 
HETATM   15  O   UNL     1     -24.253  -7.904 -16.489  1.00  0.00    -0.262 OA
BRANCH  14  16
HETATM   16  O   UNL     1     -25.153  -6.537 -18.096  1.00  0.00    -0.319 OA
BRANCH  16  17
HETATM   17  C   UNL     1     -24.286  -7.128 -19.067  1.00  0.00     0.174 C 
HETATM   18  C   UNL     1     -25.039  -7.176 -20.384  1.00  0.00     0.034 C 
ENDBRANCH  16  17
ENDBRANCH  14  16
ENDBRANCH   1  14
BRANCH   1  19
HETATM   19  O   UNL     1     -26.252  -5.011 -16.591  1.00  0.00    -0.379 OA
HETATM   20  H   UNL     1     -26.117  -4.248 -15.986  1.00  0.00     0.211 HD
ENDBRANCH   1  19
TORSDOF 12
BEGIN_RES ARG D 557
REMARK  4 active torsions:
REMARK  status: ('A' for Active; 'I' for Inactive)
REMARK    1  A    between atoms: CA   and  CB  
REMARK    2  A    between atoms: CB   and  CG  
REMARK    3  A    between atoms: CG   and  CD  
REMARK    4  A    between atoms: CD   and  NE  
REMARK       I    between atoms: NE   and  CZ  
REMARK       I    between atoms: CZ   and  NH1 
REMARK       I    between atoms: CZ   and  NH2 
ROOT
ATOM      1  CA  ARG D 557     -26.217   2.705 -17.014  1.00 35.49     0.159 C 
ENDROOT
BRANCH   1   2
ATOM      2  CB  ARG D 557     -26.789   1.319 -17.183  1.00 35.49     0.034 C 
BRANCH   2   3
ATOM      3  CG  ARG D 557     -28.238   1.224 -17.400  1.00 35.49     0.027 C 
BRANCH   3   4
ATOM      4  CD  ARG D 557     -28.886   0.269 -16.472  1.00 35.49     0.116 C 
BRANCH   4   5
ATOM      5  NE  ARG D 557     -29.171  -0.992 -17.105  1.00 35.49    -0.212 N 
ATOM      6  CZ  ARG D 557     -28.485  -2.103 -16.948  1.00 35.49     0.666 C 
ATOM      7  NH1 ARG D 557     -27.416  -2.173 -16.176  1.00 35.49    -0.235 N 
ATOM      8  NH2 ARG D 557     -28.900  -3.159 -17.584  1.00 35.49    -0.235 N 
ATOM      9  HH  ARG D 557     -27.126  -1.490 -15.747  1.00 35.49     0.174 HD
ATOM     10  HH  ARG D 557     -27.010  -2.925 -16.110  1.00 35.49     0.174 HD
ATOM     11  HH  ARG D 557     -29.598  -3.086 -18.069  1.00 35.49     0.174 HD
ATOM     12  HH  ARG D 557     -28.486  -3.895 -17.504  1.00 35.49     0.174 HD
ATOM     13  HE  ARG D 557     -29.800  -1.020 -17.676  1.00 35.49     0.178 HD
ENDBRANCH   4   5
ENDBRANCH   3   4
ENDBRANCH   2   3
ENDBRANCH   1   2
END_RES ARG D 557
BEGIN_RES GLU D 570
REMARK  3 active torsions:
REMARK  status: ('A' for Active; 'I' for Inactive)
REMARK    5  A    between atoms: CA   and  CB  
REMARK    6  A    between atoms: CB   and  CG  
REMARK    7  A    between atoms: CG   and  CD  
ROOT
ATOM     14  CA  GLU D 570     -18.033  -6.348 -13.375  1.00 32.92     0.160 C 
ENDROOT
BRANCH  14  15
ATOM     15  CB  GLU D 570     -19.500  -6.345 -13.794  1.00 32.92     0.043 C 
BRANCH  15  16
ATOM     16  CG  GLU D 570     -20.102  -7.645 -14.188  1.00 32.92     0.100 C 
BRANCH  16  17
ATOM     17  CD  GLU D 570     -20.756  -7.603 -15.549  1.00 32.92     0.185 C 
ATOM     18  OE1 GLU D 570     -21.279  -6.541 -15.937  1.00 32.92    -0.647 OA
ATOM     19  OE2 GLU D 570     -20.760  -8.649 -16.228  1.00 32.92    -0.647 OA
ENDBRANCH  16  17
ENDBRANCH  15  16
ENDBRANCH  14  15
END_RES GLU D 570
ENDMDL
MODEL 9
REMARK VINA RESULT:      -5.9      7.577     10.146
REMARK  12 active torsions:
REMARK  status: ('A' for Active; 'I' for Inactive)
REMARK    1  A    between atoms: C_2  and  O_3 
REMARK    2  A    between atoms: O_3  and  C_4 
REMARK    3  A    between atoms: C_4  and  C_6 
REMARK    4  A    between atoms: C_6  and  C_7 
REMARK    5  A    between atoms: C_7  and  C_8 
REMARK    6  A    between atoms: C_7  and  C_14 
REMARK    7  A    between atoms: C_7  and  O_19 
REMARK    8  A    between atoms: C_8  and  C_9 
REMARK    9  A    between atoms: C_9  and  O_11 
REMARK   10  A    between atoms: O_11  and  C_12 
REMARK   11  A    between atoms: C_14  and  O_16 
REMARK   12  A    between atoms: O_16  and  C_17 
ROOT
HETATM    1  C   UNL     1     -25.910  -6.654 -16.326  1.00  0.00     0.162 C 
ENDROOT
BRANCH   1   2
HETATM    2  C   UNL     1     -25.812  -6.462 -17.853  1.00  0.00     0.160 C 
BRANCH   2   3
HETATM    3  C   UNL     1     -24.509  -6.938 -18.422  1.00  0.00     0.262 C 
HETATM    4  O   UNL     1     -23.415  -6.768 -17.902  1.00  0.00    -0.265 OA
BRANCH   3   5
HETATM    5  O   UNL     1     -24.732  -7.558 -19.612  1.00  0.00    -0.322 OA
BRANCH   5   6
HETATM    6  C   UNL     1     -25.783  -7.003 -20.412  1.00  0.00     0.174 C 
HETATM    7  C   UNL     1     -26.427  -8.149 -21.168  1.00  0.00     0.034 C 
ENDBRANCH   5   6
ENDBRANCH   3   5
ENDBRANCH   2   3
ENDBRANCH   1   2
BRANCH   1   8
HETATM    8  C   UNL     1     -25.418  -5.501 -15.437  1.00  0.00     0.160 C 
BRANCH   8   9
HETATM    9  C   UNL     1     -24.093  -5.774 -14.787  1.00  0.00     0.262 C 
HETATM   10  O   UNL     1     -23.904  -6.592 -13.899  1.00  0.00    -0.265 OA
BRANCH   9  11
HETATM   11  O   UNL     1     -23.169  -4.892 -15.251  1.00  0.00    -0.322 OA
BRANCH  11  12
HETATM   12  C   UNL     1     -22.593  -4.028 -14.258  1.00  0.00     0.174 C 
HETATM   13  C   UNL     1     -22.957  -2.604 -14.632  1.00  0.00     0.034 C 
ENDBRANCH  11  12
ENDBRANCH   9  11
ENDBRANCH   8   9
ENDBRANCH   1   8
BRANCH   1  14
HETATM   14  C   UNL     1     -27.350  -7.013 -15.913  1.00  0.00     0.294 C 
HETATM   15  O   UNL     1     -27.638  -7.759 -14.984  1.00  0.00    -0.262 OA
BRANCH  14  16
HETATM   16  O   UNL     1     -28.245  -6.516 -16.813  1.00  0.00    -0.319 OA
BRANCH  16  17
HETATM   17  C   UNL     1     -29.395  -7.331 -17.056  1.00  0.00     0.174 C 
HETATM   18  C   UNL     1     -30.588  -6.405 -17.201  1.00  0.00     0.034 C 
ENDBRANCH  16  17
ENDBRANCH  14  16
ENDBRANCH   1  14
BRANCH   1  19
HETATM   19  O   UNL     1     -25.133  -7.832 -15.984  1.00  0.00    -0.379 OA
HETATM   20  H   UNL     1     -25.097  -7.884 -15.002  1.00  0.00     0.211 HD
ENDBRANCH   1  19
TORSDOF 12
BEGIN_RES ARG D 557
REMARK  4 active torsions:
REMARK  status: ('A' for Active; 'I' for Inactive)
REMARK    1  A    between atoms: CA   and  CB  
REMARK    2  A    between atoms: CB   and  CG  
REMARK    3  A    between atoms: CG   and  CD  
REMARK    4  A    between atoms: CD   and  NE  
REMARK       I    between atoms: NE   and  CZ  
REMARK       I    between atoms: CZ   and  NH1 
REMARK       I    between atoms: CZ   and  NH2 
ROOT
ATOM      1  CA  ARG D 557     -26.217   2.705 -17.014  1.00 35.49     0.159 C 
ENDROOT
BRANCH   1   2
ATOM      2  CB  ARG D 557     -26.789   1.319 -17.183  1.00 35.49     0.034 C 
BRANCH   2   3
ATOM      3  CG  ARG D 557     -28.148   1.099 -16.674  1.00 35.49     0.027 C 
BRANCH   3   4
ATOM      4  CD  ARG D 557     -28.811  -0.059 -17.318  1.00 35.49     0.116 C 
BRANCH   4   5
ATOM      5  NE  ARG D 557     -28.234  -1.311 -16.908  1.00 35.49    -0.212 N 
ATOM      6  CZ  ARG D 557     -28.768  -2.499 -17.087  1.00 35.49     0.666 C 
ATOM      7  NH1 ARG D 557     -29.940  -2.668 -17.670  1.00 35.49    -0.235 N 
ATOM      8  NH2 ARG D 557     -28.093  -3.530 -16.669  1.00 35.49    -0.235 N 
ATOM      9  HH  ARG D 557     -30.401  -2.004 -17.955  1.00 35.49     0.174 HD
ATOM     10  HH  ARG D 557     -30.238  -3.466 -17.762  1.00 35.49     0.174 HD
ATOM     11  HH  ARG D 557     -27.336  -3.391 -16.303  1.00 35.49     0.174 HD
ATOM     12  HH  ARG D 557     -28.404  -4.312 -16.771  1.00 35.49     0.174 HD
ATOM     13  HE  ARG D 557     -27.512  -1.291 -16.459  1.00 35.49     0.178 HD
ENDBRANCH   4   5
ENDBRANCH   3   4
ENDBRANCH   2   3
ENDBRANCH   1   2
END_RES ARG D 557
BEGIN_RES GLU D 570
REMARK  3 active torsions:
REMARK  status: ('A' for Active; 'I' for Inactive)
REMARK    5  A    between atoms: CA   and  CB  
REMARK    6  A    between atoms: CB   and  CG  
REMARK    7  A    between atoms: CG   and  CD  
ROOT
ATOM     14  CA  GLU D 570     -18.033  -6.348 -13.375  1.00 32.92     0.160 C 
ENDROOT
BRANCH  14  15
ATOM     15  CB  GLU D 570     -19.500  -6.345 -13.794  1.00 32.92     0.043 C 
BRANCH  15  16
ATOM     16  CG  GLU D 570     -20.088  -7.636 -14.237  1.00 32.92     0.100 C 
BRANCH  16  17
ATOM     17  CD  GLU D 570     -20.695  -7.563 -15.619  1.00 32.92     0.185 C 
ATOM     18  OE1 GLU D 570     -20.525  -6.535 -16.301  1.00 32.92    -0.647 OA
ATOM     19  OE2 GLU D 570     -21.361  -8.539 -16.017  1.00 32.92    -0.647 OA
ENDBRANCH  16  17
ENDBRANCH  15  16
ENDBRANCH  14  15
END_RES GLU D 570
ENDMDL
