MODEL 1
REMARK VINA RESULT:      -6.2      0.000      0.000
REMARK  17 active torsions:
REMARK  status: ('A' for Active; 'I' for Inactive)
REMARK    1  A    between atoms: C_2  and  C_3 
REMARK    2  A    between atoms: C_3  and  C_4 
REMARK    3  A    between atoms: C_4  and  C_5 
REMARK    4  A    between atoms: C_5  and  C_6 
REMARK    5  A    between atoms: C_6  and  C_7 
REMARK    6  A    between atoms: C_7  and  C_8 
REMARK    7  A    between atoms: C_8  and  C_9 
REMARK    8  A    between atoms: C_9  and  C_10 
REMARK    9  A    between atoms: C_10  and  C_11 
REMARK   10  A    between atoms: C_11  and  C_12 
REMARK   11  A    between atoms: C_12  and  O_13 
REMARK   12  A    between atoms: O_13  and  C_14 
REMARK   13  A    between atoms: C_14  and  C_15 
REMARK   14  A    between atoms: C_15  and  O_16 
REMARK   15  A    between atoms: O_16  and  C_17 
REMARK   16  A    between atoms: C_17  and  C_18 
REMARK   17  A    between atoms: C_18  and  O_19 
ROOT
HETATM    1  C   UNL     1     -20.170  -4.658  -7.604  1.00  0.00     0.002 C 
ENDROOT
BRANCH   1   2
HETATM    2  C   UNL     1     -19.883  -5.011  -6.150  1.00  0.00     0.000 C 
BRANCH   2   3
HETATM    3  C   UNL     1     -20.417  -6.404  -5.828  1.00  0.00     0.000 C 
BRANCH   3   4
HETATM    4  C   UNL     1     -21.656  -6.324  -4.946  1.00  0.00     0.000 C 
BRANCH   4   5
HETATM    5  C   UNL     1     -21.387  -6.942  -3.578  1.00  0.00     0.000 C 
BRANCH   5   6
HETATM    6  C   UNL     1     -21.813  -5.993  -2.464  1.00  0.00     0.000 C 
BRANCH   6   7
HETATM    7  C   UNL     1     -22.285  -6.768  -1.237  1.00  0.00     0.000 C 
BRANCH   7   8
HETATM    8  C   UNL     1     -21.704  -8.178  -1.233  1.00  0.00    -0.000 C 
BRANCH   8   9
HETATM    9  C   UNL     1     -22.361  -9.043  -0.160  1.00  0.00    -0.005 C 
HETATM   10  C   UNL     1     -23.250  -8.207   0.745  1.00  0.00     0.005 C 
ENDBRANCH   8   9
ENDBRANCH   7   8
ENDBRANCH   6   7
ENDBRANCH   5   6
ENDBRANCH   4   5
ENDBRANCH   3   4
ENDBRANCH   2   3
ENDBRANCH   1   2
BRANCH   1  11
HETATM   11  C   UNL     1     -21.525  -3.978  -7.755  1.00  0.00     0.026 C 
BRANCH  11  12
HETATM   12  C   UNL     1     -22.167  -4.364  -9.078  1.00  0.00     0.167 C 
BRANCH  12  13
HETATM   13  O   UNL     1     -23.537  -3.977  -9.052  1.00  0.00    -0.389 OA
BRANCH  13  14
HETATM   14  C   UNL     1     -23.937  -3.419 -10.302  1.00  0.00     0.193 C 
BRANCH  14  15
HETATM   15  C   UNL     1     -23.500  -4.350 -11.422  1.00  0.00     0.193 C 
BRANCH  15  16
HETATM   16  O   UNL     1     -23.967  -3.835 -12.665  1.00  0.00    -0.387 OA
BRANCH  16  17
HETATM   17  C   UNL     1     -23.304  -2.608 -12.993  1.00  0.00     0.193 C 
BRANCH  17  18
HETATM   18  C   UNL     1     -23.578  -2.318 -14.461  1.00  0.00     0.190 C 
BRANCH  18  19
HETATM   19  O   UNL     1     -22.410  -2.603 -15.229  1.00  0.00    -0.399 OA
HETATM   20  H   UNL     1     -22.021  -1.726 -15.424  1.00  0.00     0.209 HD
ENDBRANCH  18  19
ENDBRANCH  17  18
ENDBRANCH  16  17
ENDBRANCH  15  16
ENDBRANCH  14  15
ENDBRANCH  13  14
ENDBRANCH  12  13
ENDBRANCH  11  12
ENDBRANCH   1  11
TORSDOF 17
BEGIN_RES ARG D 557
REMARK  4 active torsions:
REMARK  status: ('A' for Active; 'I' for Inactive)
REMARK    1  A    between atoms: CA   and  CB  
REMARK    2  A    between atoms: CB   and  CG  
REMARK    3  A    between atoms: CG   and  CD  
REMARK    4  A    between atoms: CD   and  NE  
REMARK       I    between atoms: NE   and  CZ  
REMARK       I    between atoms: CZ   and  NH1 
REMARK       I    between atoms: CZ   and  NH2 
ROOT
ATOM      1  CA  ARG D 557     -26.217   2.705 -17.014  1.00 35.49     0.159 C 
ENDROOT
BRANCH   1   2
ATOM      2  CB  ARG D 557     -26.789   1.319 -17.183  1.00 35.49     0.034 C 
BRANCH   2   3
ATOM      3  CG  ARG D 557     -28.239   1.223 -17.388  1.00 35.49     0.027 C 
BRANCH   3   4
ATOM      4  CD  ARG D 557     -28.881   0.277 -16.447  1.00 35.49     0.116 C 
BRANCH   4   5
ATOM      5  NE  ARG D 557     -29.266  -0.951 -17.092  1.00 35.49    -0.212 N 
ATOM      6  CZ  ARG D 557     -28.626  -2.096 -17.008  1.00 35.49     0.666 C 
ATOM      7  NH1 ARG D 557     -27.515  -2.237 -16.310  1.00 35.49    -0.235 N 
ATOM      8  NH2 ARG D 557     -29.132  -3.114 -17.642  1.00 35.49    -0.235 N 
ATOM      9  HH  ARG D 557     -27.166  -1.581 -15.883  1.00 35.49     0.174 HD
ATOM     10  HH  ARG D 557     -27.142  -3.009 -16.290  1.00 35.49     0.174 HD
ATOM     11  HH  ARG D 557     -29.855  -2.994 -18.079  1.00 35.49     0.174 HD
ATOM     12  HH  ARG D 557     -28.749  -3.870 -17.609  1.00 35.49     0.174 HD
ATOM     13  HE  ARG D 557     -29.932  -0.933 -17.621  1.00 35.49     0.178 HD
ENDBRANCH   4   5
ENDBRANCH   3   4
ENDBRANCH   2   3
ENDBRANCH   1   2
END_RES ARG D 557
BEGIN_RES GLU D 570
REMARK  3 active torsions:
REMARK  status: ('A' for Active; 'I' for Inactive)
REMARK    5  A    between atoms: CA   and  CB  
REMARK    6  A    between atoms: CB   and  CG  
REMARK    7  A    between atoms: CG   and  CD  
ROOT
ATOM     14  CA  GLU D 570     -18.033  -6.348 -13.375  1.00 32.92     0.160 C 
ENDROOT
BRANCH  14  15
ATOM     15  CB  GLU D 570     -19.500  -6.345 -13.794  1.00 32.92     0.043 C 
BRANCH  15  16
ATOM     16  CG  GLU D 570     -19.797  -6.244 -15.246  1.00 32.92     0.100 C 
BRANCH  16  17
ATOM     17  CD  GLU D 570     -21.134  -5.601 -15.531  1.00 32.92     0.185 C 
ATOM     18  OE1 GLU D 570     -21.357  -5.149 -16.671  1.00 32.92    -0.647 OA
ATOM     19  OE2 GLU D 570     -21.961  -5.534 -14.601  1.00 32.92    -0.647 OA
ENDBRANCH  16  17
ENDBRANCH  15  16
ENDBRANCH  14  15
END_RES GLU D 570
ENDMDL
MODEL 2
REMARK VINA RESULT:      -6.1      1.418      2.165
REMARK  17 active torsions:
REMARK  status: ('A' for Active; 'I' for Inactive)
REMARK    1  A    between atoms: C_2  and  C_3 
REMARK    2  A    between atoms: C_3  and  C_4 
REMARK    3  A    between atoms: C_4  and  C_5 
REMARK    4  A    between atoms: C_5  and  C_6 
REMARK    5  A    between atoms: C_6  and  C_7 
REMARK    6  A    between atoms: C_7  and  C_8 
REMARK    7  A    between atoms: C_8  and  C_9 
REMARK    8  A    between atoms: C_9  and  C_10 
REMARK    9  A    between atoms: C_10  and  C_11 
REMARK   10  A    between atoms: C_11  and  C_12 
REMARK   11  A    between atoms: C_12  and  O_13 
REMARK   12  A    between atoms: O_13  and  C_14 
REMARK   13  A    between atoms: C_14  and  C_15 
REMARK   14  A    between atoms: C_15  and  O_16 
REMARK   15  A    between atoms: O_16  and  C_17 
REMARK   16  A    between atoms: C_17  and  C_18 
REMARK   17  A    between atoms: C_18  and  O_19 
ROOT
HETATM    1  C   UNL     1     -22.282  -3.889  -9.046  1.00  0.00     0.002 C 
ENDROOT
BRANCH   1   2
HETATM    2  C   UNL     1     -22.182  -3.873  -7.526  1.00  0.00     0.000 C 
BRANCH   2   3
HETATM    3  C   UNL     1     -20.762  -4.215  -7.085  1.00  0.00     0.000 C 
BRANCH   3   4
HETATM    4  C   UNL     1     -20.773  -5.136  -5.872  1.00  0.00     0.000 C 
BRANCH   4   5
HETATM    5  C   UNL     1     -22.039  -5.987  -5.851  1.00  0.00     0.000 C 
BRANCH   5   6
HETATM    6  C   UNL     1     -22.145  -6.763  -4.544  1.00  0.00     0.000 C 
BRANCH   6   7
HETATM    7  C   UNL     1     -21.306  -6.110  -3.450  1.00  0.00     0.000 C 
BRANCH   7   8
HETATM    8  C   UNL     1     -22.060  -6.101  -2.124  1.00  0.00    -0.000 C 
BRANCH   8   9
HETATM    9  C   UNL     1     -21.897  -7.429  -1.388  1.00  0.00    -0.005 C 
HETATM   10  C   UNL     1     -20.479  -7.957  -1.523  1.00  0.00     0.005 C 
ENDBRANCH   8   9
ENDBRANCH   7   8
ENDBRANCH   6   7
ENDBRANCH   5   6
ENDBRANCH   4   5
ENDBRANCH   3   4
ENDBRANCH   2   3
ENDBRANCH   1   2
BRANCH   1  11
HETATM   11  C   UNL     1     -20.970  -4.325  -9.686  1.00  0.00     0.026 C 
BRANCH  11  12
HETATM   12  C   UNL     1     -20.944  -3.938 -11.157  1.00  0.00     0.167 C 
BRANCH  12  13
HETATM   13  O   UNL     1     -22.282  -3.723 -11.596  1.00  0.00    -0.389 OA
BRANCH  13  14
HETATM   14  C   UNL     1     -22.629  -4.625 -12.646  1.00  0.00     0.193 C 
BRANCH  14  15
HETATM   15  C   UNL     1     -22.571  -3.884 -13.973  1.00  0.00     0.193 C 
BRANCH  15  16
HETATM   16  O   UNL     1     -23.852  -3.941 -14.593  1.00  0.00    -0.387 OA
BRANCH  16  17
HETATM   17  C   UNL     1     -24.676  -2.848 -14.169  1.00  0.00     0.193 C 
BRANCH  17  18
HETATM   18  C   UNL     1     -24.032  -1.566 -14.674  1.00  0.00     0.190 C 
BRANCH  18  19
HETATM   19  O   UNL     1     -25.019  -0.538 -14.757  1.00  0.00    -0.399 OA
HETATM   20  H   UNL     1     -25.597  -0.686 -13.982  1.00  0.00     0.209 HD
ENDBRANCH  18  19
ENDBRANCH  17  18
ENDBRANCH  16  17
ENDBRANCH  15  16
ENDBRANCH  14  15
ENDBRANCH  13  14
ENDBRANCH  12  13
ENDBRANCH  11  12
ENDBRANCH   1  11
TORSDOF 17
BEGIN_RES ARG D 557
REMARK  4 active torsions:
REMARK  status: ('A' for Active; 'I' for Inactive)
REMARK    1  A    between atoms: CA   and  CB  
REMARK    2  A    between atoms: CB   and  CG  
REMARK    3  A    between atoms: CG   and  CD  
REMARK    4  A    between atoms: CD   and  NE  
REMARK       I    between atoms: NE   and  CZ  
REMARK       I    between atoms: CZ   and  NH1 
REMARK       I    between atoms: CZ   and  NH2 
ROOT
ATOM      1  CA  ARG D 557     -26.217   2.705 -17.014  1.00 35.49     0.159 C 
ENDROOT
BRANCH   1   2
ATOM      2  CB  ARG D 557     -26.789   1.319 -17.183  1.00 35.49     0.034 C 
BRANCH   2   3
ATOM      3  CG  ARG D 557     -28.225   1.228 -17.476  1.00 35.49     0.027 C 
BRANCH   3   4
ATOM      4  CD  ARG D 557     -28.937   0.332 -16.536  1.00 35.49     0.116 C 
BRANCH   4   5
ATOM      5  NE  ARG D 557     -29.279  -0.928 -17.141  1.00 35.49    -0.212 N 
ATOM      6  CZ  ARG D 557     -28.606  -2.050 -17.013  1.00 35.49     0.666 C 
ATOM      7  NH1 ARG D 557     -27.499  -2.135 -16.300  1.00 35.49    -0.235 N 
ATOM      8  NH2 ARG D 557     -29.075  -3.103 -17.616  1.00 35.49    -0.235 N 
ATOM      9  HH  ARG D 557     -27.173  -1.455 -15.892  1.00 35.49     0.174 HD
ATOM     10  HH  ARG D 557     -27.104  -2.894 -16.250  1.00 35.49     0.174 HD
ATOM     11  HH  ARG D 557     -29.797  -3.020 -18.064  1.00 35.49     0.174 HD
ATOM     12  HH  ARG D 557     -28.671  -3.846 -17.553  1.00 35.49     0.174 HD
ATOM     13  HE  ARG D 557     -29.939  -0.947 -17.677  1.00 35.49     0.178 HD
ENDBRANCH   4   5
ENDBRANCH   3   4
ENDBRANCH   2   3
ENDBRANCH   1   2
END_RES ARG D 557
BEGIN_RES GLU D 570
REMARK  3 active torsions:
REMARK  status: ('A' for Active; 'I' for Inactive)
REMARK    5  A    between atoms: CA   and  CB  
REMARK    6  A    between atoms: CB   and  CG  
REMARK    7  A    between atoms: CG   and  CD  
ROOT
ATOM     14  CA  GLU D 570     -18.033  -6.348 -13.375  1.00 32.92     0.160 C 
ENDROOT
BRANCH  14  15
ATOM     15  CB  GLU D 570     -19.500  -6.345 -13.794  1.00 32.92     0.043 C 
BRANCH  15  16
ATOM     16  CG  GLU D 570     -20.036  -7.581 -14.420  1.00 32.92     0.100 C 
BRANCH  16  17
ATOM     17  CD  GLU D 570     -20.777  -7.316 -15.709  1.00 32.92     0.185 C 
ATOM     18  OE1 GLU D 570     -20.528  -6.275 -16.347  1.00 32.92    -0.647 OA
ATOM     19  OE2 GLU D 570     -21.627  -8.150 -16.077  1.00 32.92    -0.647 OA
ENDBRANCH  16  17
ENDBRANCH  15  16
ENDBRANCH  14  15
END_RES GLU D 570
ENDMDL
MODEL 3
REMARK VINA RESULT:      -6.1      3.094      6.131
REMARK  17 active torsions:
REMARK  status: ('A' for Active; 'I' for Inactive)
REMARK    1  A    between atoms: C_2  and  C_3 
REMARK    2  A    between atoms: C_3  and  C_4 
REMARK    3  A    between atoms: C_4  and  C_5 
REMARK    4  A    between atoms: C_5  and  C_6 
REMARK    5  A    between atoms: C_6  and  C_7 
REMARK    6  A    between atoms: C_7  and  C_8 
REMARK    7  A    between atoms: C_8  and  C_9 
REMARK    8  A    between atoms: C_9  and  C_10 
REMARK    9  A    between atoms: C_10  and  C_11 
REMARK   10  A    between atoms: C_11  and  C_12 
REMARK   11  A    between atoms: C_12  and  O_13 
REMARK   12  A    between atoms: O_13  and  C_14 
REMARK   13  A    between atoms: C_14  and  C_15 
REMARK   14  A    between atoms: C_15  and  O_16 
REMARK   15  A    between atoms: O_16  and  C_17 
REMARK   16  A    between atoms: C_17  and  C_18 
REMARK   17  A    between atoms: C_18  and  O_19 
ROOT
HETATM    1  C   UNL     1     -22.620  -4.669 -14.006  1.00  0.00     0.002 C 
ENDROOT
BRANCH   1   2
HETATM    2  C   UNL     1     -23.081  -3.361 -13.377  1.00  0.00     0.000 C 
BRANCH   2   3
HETATM    3  C   UNL     1     -22.854  -3.391 -11.868  1.00  0.00     0.000 C 
BRANCH   3   4
HETATM    4  C   UNL     1     -24.168  -3.233 -11.115  1.00  0.00     0.000 C 
BRANCH   4   5
HETATM    5  C   UNL     1     -23.997  -3.607  -9.645  1.00  0.00     0.000 C 
BRANCH   5   6
HETATM    6  C   UNL     1     -22.565  -4.045  -9.364  1.00  0.00     0.000 C 
BRANCH   6   7
HETATM    7  C   UNL     1     -22.300  -4.119  -7.863  1.00  0.00     0.000 C 
BRANCH   7   8
HETATM    8  C   UNL     1     -20.833  -3.829  -7.559  1.00  0.00    -0.000 C 
BRANCH   8   9
HETATM    9  C   UNL     1     -20.371  -4.578  -6.311  1.00  0.00    -0.005 C 
HETATM   10  C   UNL     1     -21.419  -5.579  -5.855  1.00  0.00     0.005 C 
ENDBRANCH   8   9
ENDBRANCH   7   8
ENDBRANCH   6   7
ENDBRANCH   5   6
ENDBRANCH   4   5
ENDBRANCH   3   4
ENDBRANCH   2   3
ENDBRANCH   1   2
BRANCH   1  11
HETATM   11  C   UNL     1     -23.631  -5.785 -13.776  1.00  0.00     0.026 C 
BRANCH  11  12
HETATM   12  C   UNL     1     -24.110  -6.349 -15.105  1.00  0.00     0.167 C 
BRANCH  12  13
HETATM   13  O   UNL     1     -25.213  -5.571 -15.560  1.00  0.00    -0.389 OA
BRANCH  13  14
HETATM   14  C   UNL     1     -26.317  -6.403 -15.910  1.00  0.00     0.193 C 
BRANCH  14  15
HETATM   15  C   UNL     1     -26.795  -6.029 -17.305  1.00  0.00     0.193 C 
BRANCH  15  16
HETATM   16  O   UNL     1     -28.141  -5.570 -17.229  1.00  0.00    -0.387 OA
BRANCH  16  17
HETATM   17  C   UNL     1     -28.974  -6.267 -18.163  1.00  0.00     0.193 C 
BRANCH  17  18
HETATM   18  C   UNL     1     -29.900  -7.171 -17.364  1.00  0.00     0.190 C 
BRANCH  18  19
HETATM   19  O   UNL     1     -29.306  -8.461 -17.226  1.00  0.00    -0.399 OA
HETATM   20  H   UNL     1     -29.807  -9.032 -17.843  1.00  0.00     0.209 HD
ENDBRANCH  18  19
ENDBRANCH  17  18
ENDBRANCH  16  17
ENDBRANCH  15  16
ENDBRANCH  14  15
ENDBRANCH  13  14
ENDBRANCH  12  13
ENDBRANCH  11  12
ENDBRANCH   1  11
TORSDOF 17
BEGIN_RES ARG D 557
REMARK  4 active torsions:
REMARK  status: ('A' for Active; 'I' for Inactive)
REMARK    1  A    between atoms: CA   and  CB  
REMARK    2  A    between atoms: CB   and  CG  
REMARK    3  A    between atoms: CG   and  CD  
REMARK    4  A    between atoms: CD   and  NE  
REMARK       I    between atoms: NE   and  CZ  
REMARK       I    between atoms: CZ   and  NH1 
REMARK       I    between atoms: CZ   and  NH2 
ROOT
ATOM      1  CA  ARG D 557     -26.217   2.705 -17.014  1.00 35.49     0.159 C 
ENDROOT
BRANCH   1   2
ATOM      2  CB  ARG D 557     -26.789   1.319 -17.183  1.00 35.49     0.034 C 
BRANCH   2   3
ATOM      3  CG  ARG D 557     -28.236   1.225 -17.410  1.00 35.49     0.027 C 
BRANCH   3   4
ATOM      4  CD  ARG D 557     -28.877   0.205 -16.549  1.00 35.49     0.116 C 
BRANCH   4   5
ATOM      5  NE  ARG D 557     -27.950  -0.813 -16.131  1.00 35.49    -0.212 N 
ATOM      6  CZ  ARG D 557     -27.974  -2.073 -16.502  1.00 35.49     0.666 C 
ATOM      7  NH1 ARG D 557     -28.895  -2.556 -17.315  1.00 35.49    -0.235 N 
ATOM      8  NH2 ARG D 557     -27.039  -2.853 -16.040  1.00 35.49    -0.235 N 
ATOM      9  HH  ARG D 557     -29.518  -2.061 -17.632  1.00 35.49     0.174 HD
ATOM     10  HH  ARG D 557     -28.859  -3.386 -17.524  1.00 35.49     0.174 HD
ATOM     11  HH  ARG D 557     -26.453  -2.512 -15.522  1.00 35.49     0.174 HD
ATOM     12  HH  ARG D 557     -27.020  -3.671 -16.260  1.00 35.49     0.174 HD
ATOM     13  HE  ARG D 557     -27.365  -0.606 -15.549  1.00 35.49     0.178 HD
ENDBRANCH   4   5
ENDBRANCH   3   4
ENDBRANCH   2   3
ENDBRANCH   1   2
END_RES ARG D 557
BEGIN_RES GLU D 570
REMARK  3 active torsions:
REMARK  status: ('A' for Active; 'I' for Inactive)
REMARK    5  A    between atoms: CA   and  CB  
REMARK    6  A    between atoms: CB   and  CG  
REMARK    7  A    between atoms: CG   and  CD  
ROOT
ATOM     14  CA  GLU D 570     -18.033  -6.348 -13.375  1.00 32.92     0.160 C 
ENDROOT
BRANCH  14  15
ATOM     15  CB  GLU D 570     -19.500  -6.345 -13.794  1.00 32.92     0.043 C 
BRANCH  15  16
ATOM     16  CG  GLU D 570     -20.089  -7.637 -14.232  1.00 32.92     0.100 C 
BRANCH  16  17
ATOM     17  CD  GLU D 570     -20.681  -7.573 -15.621  1.00 32.92     0.185 C 
ATOM     18  OE1 GLU D 570     -21.247  -8.582 -16.084  1.00 32.92    -0.647 OA
ATOM     19  OE2 GLU D 570     -20.563  -6.509 -16.259  1.00 32.92    -0.647 OA
ENDBRANCH  16  17
ENDBRANCH  15  16
ENDBRANCH  14  15
END_RES GLU D 570
ENDMDL
MODEL 4
REMARK VINA RESULT:      -6.1      7.619     11.557
REMARK  17 active torsions:
REMARK  status: ('A' for Active; 'I' for Inactive)
REMARK    1  A    between atoms: C_2  and  C_3 
REMARK    2  A    between atoms: C_3  and  C_4 
REMARK    3  A    between atoms: C_4  and  C_5 
REMARK    4  A    between atoms: C_5  and  C_6 
REMARK    5  A    between atoms: C_6  and  C_7 
REMARK    6  A    between atoms: C_7  and  C_8 
REMARK    7  A    between atoms: C_8  and  C_9 
REMARK    8  A    between atoms: C_9  and  C_10 
REMARK    9  A    between atoms: C_10  and  C_11 
REMARK   10  A    between atoms: C_11  and  C_12 
REMARK   11  A    between atoms: C_12  and  O_13 
REMARK   12  A    between atoms: O_13  and  C_14 
REMARK   13  A    between atoms: C_14  and  C_15 
REMARK   14  A    between atoms: C_15  and  O_16 
REMARK   15  A    between atoms: O_16  and  C_17 
REMARK   16  A    between atoms: C_17  and  C_18 
REMARK   17  A    between atoms: C_18  and  O_19 
ROOT
HETATM    1  C   UNL     1     -35.091  -1.038 -12.921  1.00  0.00     0.002 C 
ENDROOT
BRANCH   1   2
HETATM    2  C   UNL     1     -35.787  -1.289 -11.589  1.00  0.00     0.000 C 
BRANCH   2   3
HETATM    3  C   UNL     1     -35.129  -2.456 -10.860  1.00  0.00     0.000 C 
BRANCH   3   4
HETATM    4  C   UNL     1     -33.618  -2.275 -10.789  1.00  0.00     0.000 C 
BRANCH   4   5
HETATM    5  C   UNL     1     -32.900  -3.540 -11.249  1.00  0.00     0.000 C 
BRANCH   5   6
HETATM    6  C   UNL     1     -33.877  -4.505 -11.909  1.00  0.00     0.000 C 
BRANCH   6   7
HETATM    7  C   UNL     1     -33.823  -5.877 -11.245  1.00  0.00     0.000 C 
BRANCH   7   8
HETATM    8  C   UNL     1     -34.767  -5.934 -10.047  1.00  0.00    -0.000 C 
BRANCH   8   9
HETATM    9  C   UNL     1     -34.878  -7.355  -9.500  1.00  0.00    -0.005 C 
HETATM   10  C   UNL     1     -33.953  -8.301 -10.246  1.00  0.00     0.005 C 
ENDBRANCH   8   9
ENDBRANCH   7   8
ENDBRANCH   6   7
ENDBRANCH   5   6
ENDBRANCH   4   5
ENDBRANCH   3   4
ENDBRANCH   2   3
ENDBRANCH   1   2
BRANCH   1  11
HETATM   11  C   UNL     1     -34.747   0.435 -13.101  1.00  0.00     0.026 C 
BRANCH  11  12
HETATM   12  C   UNL     1     -35.006   0.868 -14.537  1.00  0.00     0.167 C 
BRANCH  12  13
HETATM   13  O   UNL     1     -34.695  -0.218 -15.404  1.00  0.00    -0.389 OA
BRANCH  13  14
HETATM   14  C   UNL     1     -35.776  -0.491 -16.293  1.00  0.00     0.193 C 
BRANCH  14  15
HETATM   15  C   UNL     1     -35.539  -1.836 -16.962  1.00  0.00     0.193 C 
BRANCH  15  16
HETATM   16  O   UNL     1     -34.149  -2.145 -16.907  1.00  0.00    -0.387 OA
BRANCH  16  17
HETATM   17  C   UNL     1     -33.940  -3.474 -16.414  1.00  0.00     0.193 C 
BRANCH  17  18
HETATM   18  C   UNL     1     -32.664  -4.003 -17.052  1.00  0.00     0.190 C 
BRANCH  18  19
HETATM   19  O   UNL     1     -31.968  -2.930 -17.684  1.00  0.00    -0.399 OA
HETATM   20  H   UNL     1     -31.506  -3.345 -18.441  1.00  0.00     0.209 HD
ENDBRANCH  18  19
ENDBRANCH  17  18
ENDBRANCH  16  17
ENDBRANCH  15  16
ENDBRANCH  14  15
ENDBRANCH  13  14
ENDBRANCH  12  13
ENDBRANCH  11  12
ENDBRANCH   1  11
TORSDOF 17
BEGIN_RES ARG D 557
REMARK  4 active torsions:
REMARK  status: ('A' for Active; 'I' for Inactive)
REMARK    1  A    between atoms: CA   and  CB  
REMARK    2  A    between atoms: CB   and  CG  
REMARK    3  A    between atoms: CG   and  CD  
REMARK    4  A    between atoms: CD   and  NE  
REMARK       I    between atoms: NE   and  CZ  
REMARK       I    between atoms: CZ   and  NH1 
REMARK       I    between atoms: CZ   and  NH2 
ROOT
ATOM      1  CA  ARG D 557     -26.217   2.705 -17.014  1.00 35.49     0.159 C 
ENDROOT
BRANCH   1   2
ATOM      2  CB  ARG D 557     -26.789   1.319 -17.183  1.00 35.49     0.034 C 
BRANCH   2   3
ATOM      3  CG  ARG D 557     -28.236   1.225 -17.409  1.00 35.49     0.027 C 
BRANCH   3   4
ATOM      4  CD  ARG D 557     -28.892   0.274 -16.482  1.00 35.49     0.116 C 
BRANCH   4   5
ATOM      5  NE  ARG D 557     -29.241  -0.963 -17.130  1.00 35.49    -0.212 N 
ATOM      6  CZ  ARG D 557     -28.584  -2.096 -17.026  1.00 35.49     0.666 C 
ATOM      7  NH1 ARG D 557     -27.488  -2.217 -16.299  1.00 35.49    -0.235 N 
ATOM      8  NH2 ARG D 557     -29.057  -3.125 -17.667  1.00 35.49    -0.235 N 
ATOM      9  HH  ARG D 557     -27.161  -1.554 -15.867  1.00 35.49     0.174 HD
ATOM     10  HH  ARG D 557     -27.104  -2.982 -16.266  1.00 35.49     0.174 HD
ATOM     11  HH  ARG D 557     -29.770  -3.019 -18.123  1.00 35.49     0.174 HD
ATOM     12  HH  ARG D 557     -28.663  -3.874 -17.621  1.00 35.49     0.174 HD
ATOM     13  HE  ARG D 557     -29.893  -0.957 -17.676  1.00 35.49     0.178 HD
ENDBRANCH   4   5
ENDBRANCH   3   4
ENDBRANCH   2   3
ENDBRANCH   1   2
END_RES ARG D 557
BEGIN_RES GLU D 570
REMARK  3 active torsions:
REMARK  status: ('A' for Active; 'I' for Inactive)
REMARK    5  A    between atoms: CA   and  CB  
REMARK    6  A    between atoms: CB   and  CG  
REMARK    7  A    between atoms: CG   and  CD  
ROOT
ATOM     14  CA  GLU D 570     -18.033  -6.348 -13.375  1.00 32.92     0.160 C 
ENDROOT
BRANCH  14  15
ATOM     15  CB  GLU D 570     -19.500  -6.345 -13.794  1.00 32.92     0.043 C 
BRANCH  15  16
ATOM     16  CG  GLU D 570     -20.097  -7.642 -14.204  1.00 32.92     0.100 C 
BRANCH  16  17
ATOM     17  CD  GLU D 570     -20.803  -7.570 -15.538  1.00 32.92     0.185 C 
ATOM     18  OE1 GLU D 570     -20.834  -8.584 -16.262  1.00 32.92    -0.647 OA
ATOM     19  OE2 GLU D 570     -21.316  -6.483 -15.871  1.00 32.92    -0.647 OA
ENDBRANCH  16  17
ENDBRANCH  15  16
ENDBRANCH  14  15
END_RES GLU D 570
ENDMDL
MODEL 5
REMARK VINA RESULT:      -6.1      1.737      2.733
REMARK  17 active torsions:
REMARK  status: ('A' for Active; 'I' for Inactive)
REMARK    1  A    between atoms: C_2  and  C_3 
REMARK    2  A    between atoms: C_3  and  C_4 
REMARK    3  A    between atoms: C_4  and  C_5 
REMARK    4  A    between atoms: C_5  and  C_6 
REMARK    5  A    between atoms: C_6  and  C_7 
REMARK    6  A    between atoms: C_7  and  C_8 
REMARK    7  A    between atoms: C_8  and  C_9 
REMARK    8  A    between atoms: C_9  and  C_10 
REMARK    9  A    between atoms: C_10  and  C_11 
REMARK   10  A    between atoms: C_11  and  C_12 
REMARK   11  A    between atoms: C_12  and  O_13 
REMARK   12  A    between atoms: O_13  and  C_14 
REMARK   13  A    between atoms: C_14  and  C_15 
REMARK   14  A    between atoms: C_15  and  O_16 
REMARK   15  A    between atoms: O_16  and  C_17 
REMARK   16  A    between atoms: C_17  and  C_18 
REMARK   17  A    between atoms: C_18  and  O_19 
ROOT
HETATM    1  C   UNL     1     -19.687  -4.704  -6.606  1.00  0.00     0.002 C 
ENDROOT
BRANCH   1   2
HETATM    2  C   UNL     1     -20.571  -5.164  -5.455  1.00  0.00     0.000 C 
BRANCH   2   3
HETATM    3  C   UNL     1     -21.149  -6.545  -5.749  1.00  0.00     0.000 C 
BRANCH   3   4
HETATM    4  C   UNL     1     -21.848  -7.118  -4.523  1.00  0.00     0.000 C 
BRANCH   4   5
HETATM    5  C   UNL     1     -21.519  -6.296  -3.280  1.00  0.00     0.000 C 
BRANCH   5   6
HETATM    6  C   UNL     1     -21.340  -7.201  -2.067  1.00  0.00     0.000 C 
BRANCH   6   7
HETATM    7  C   UNL     1     -22.313  -6.823  -0.955  1.00  0.00     0.000 C 
BRANCH   7   8
HETATM    8  C   UNL     1     -22.176  -7.776   0.229  1.00  0.00    -0.000 C 
BRANCH   8   9
HETATM    9  C   UNL     1     -23.069  -9.002   0.057  1.00  0.00    -0.005 C 
HETATM   10  C   UNL     1     -22.242 -10.272  -0.039  1.00  0.00     0.005 C 
ENDBRANCH   8   9
ENDBRANCH   7   8
ENDBRANCH   6   7
ENDBRANCH   5   6
ENDBRANCH   4   5
ENDBRANCH   3   4
ENDBRANCH   2   3
ENDBRANCH   1   2
BRANCH   1  11
HETATM   11  C   UNL     1     -20.056  -5.407  -7.907  1.00  0.00     0.026 C 
BRANCH  11  12
HETATM   12  C   UNL     1     -20.681  -4.422  -8.883  1.00  0.00     0.167 C 
BRANCH  12  13
HETATM   13  O   UNL     1     -20.116  -4.635 -10.172  1.00  0.00    -0.389 OA
BRANCH  13  14
HETATM   14  C   UNL     1     -20.670  -3.736 -11.130  1.00  0.00     0.193 C 
BRANCH  14  15
HETATM   15  C   UNL     1     -21.883  -4.386 -11.776  1.00  0.00     0.193 C 
BRANCH  15  16
HETATM   16  O   UNL     1     -23.043  -3.618 -11.469  1.00  0.00    -0.387 OA
BRANCH  16  17
HETATM   17  C   UNL     1     -23.950  -4.366 -10.649  1.00  0.00     0.193 C 
BRANCH  17  18
HETATM   18  C   UNL     1     -24.527  -3.409  -9.617  1.00  0.00     0.190 C 
BRANCH  18  19
HETATM   19  O   UNL     1     -24.147  -3.833  -8.308  1.00  0.00    -0.399 OA
HETATM   20  H   UNL     1     -24.668  -3.268  -7.703  1.00  0.00     0.209 HD
ENDBRANCH  18  19
ENDBRANCH  17  18
ENDBRANCH  16  17
ENDBRANCH  15  16
ENDBRANCH  14  15
ENDBRANCH  13  14
ENDBRANCH  12  13
ENDBRANCH  11  12
ENDBRANCH   1  11
TORSDOF 17
BEGIN_RES ARG D 557
REMARK  4 active torsions:
REMARK  status: ('A' for Active; 'I' for Inactive)
REMARK    1  A    between atoms: CA   and  CB  
REMARK    2  A    between atoms: CB   and  CG  
REMARK    3  A    between atoms: CG   and  CD  
REMARK    4  A    between atoms: CD   and  NE  
REMARK       I    between atoms: NE   and  CZ  
REMARK       I    between atoms: CZ   and  NH1 
REMARK       I    between atoms: CZ   and  NH2 
ROOT
ATOM      1  CA  ARG D 557     -26.217   2.705 -17.014  1.00 35.49     0.159 C 
ENDROOT
BRANCH   1   2
ATOM      2  CB  ARG D 557     -26.789   1.319 -17.183  1.00 35.49     0.034 C 
BRANCH   2   3
ATOM      3  CG  ARG D 557     -25.934   0.197 -16.776  1.00 35.49     0.027 C 
BRANCH   3   4
ATOM      4  CD  ARG D 557     -26.696  -0.877 -16.099  1.00 35.49     0.116 C 
BRANCH   4   5
ATOM      5  NE  ARG D 557     -25.981  -1.424 -14.977  1.00 35.49    -0.212 N 
ATOM      6  CZ  ARG D 557     -25.956  -2.690 -14.625  1.00 35.49     0.666 C 
ATOM      7  NH1 ARG D 557     -26.620  -3.622 -15.284  1.00 35.49    -0.235 N 
ATOM      8  NH2 ARG D 557     -25.236  -3.012 -13.590  1.00 35.49    -0.235 N 
ATOM      9  HH  ARG D 557     -27.099  -3.433 -15.969  1.00 35.49     0.174 HD
ATOM     10  HH  ARG D 557     -26.564  -4.432 -15.010  1.00 35.49     0.174 HD
ATOM     11  HH  ARG D 557     -24.812  -2.390 -13.189  1.00 35.49     0.174 HD
ATOM     12  HH  ARG D 557     -25.192  -3.820 -13.336  1.00 35.49     0.174 HD
ATOM     13  HE  ARG D 557     -25.584  -0.884 -14.454  1.00 35.49     0.178 HD
ENDBRANCH   4   5
ENDBRANCH   3   4
ENDBRANCH   2   3
ENDBRANCH   1   2
END_RES ARG D 557
BEGIN_RES GLU D 570
REMARK  3 active torsions:
REMARK  status: ('A' for Active; 'I' for Inactive)
REMARK    5  A    between atoms: CA   and  CB  
REMARK    6  A    between atoms: CB   and  CG  
REMARK    7  A    between atoms: CG   and  CD  
ROOT
ATOM     14  CA  GLU D 570     -18.033  -6.348 -13.375  1.00 32.92     0.160 C 
ENDROOT
BRANCH  14  15
ATOM     15  CB  GLU D 570     -19.500  -6.345 -13.794  1.00 32.92     0.043 C 
BRANCH  15  16
ATOM     16  CG  GLU D 570     -19.810  -5.970 -15.198  1.00 32.92     0.100 C 
BRANCH  16  17
ATOM     17  CD  GLU D 570     -21.282  -5.715 -15.428  1.00 32.92     0.185 C 
ATOM     18  OE1 GLU D 570     -21.623  -4.849 -16.256  1.00 32.92    -0.647 OA
ATOM     19  OE2 GLU D 570     -22.101  -6.378 -14.762  1.00 32.92    -0.647 OA
ENDBRANCH  16  17
ENDBRANCH  15  16
ENDBRANCH  14  15
END_RES GLU D 570
ENDMDL
MODEL 6
REMARK VINA RESULT:      -6.0      2.253      3.658
REMARK  17 active torsions:
REMARK  status: ('A' for Active; 'I' for Inactive)
REMARK    1  A    between atoms: C_2  and  C_3 
REMARK    2  A    between atoms: C_3  and  C_4 
REMARK    3  A    between atoms: C_4  and  C_5 
REMARK    4  A    between atoms: C_5  and  C_6 
REMARK    5  A    between atoms: C_6  and  C_7 
REMARK    6  A    between atoms: C_7  and  C_8 
REMARK    7  A    between atoms: C_8  and  C_9 
REMARK    8  A    between atoms: C_9  and  C_10 
REMARK    9  A    between atoms: C_10  and  C_11 
REMARK   10  A    between atoms: C_11  and  C_12 
REMARK   11  A    between atoms: C_12  and  O_13 
REMARK   12  A    between atoms: O_13  and  C_14 
REMARK   13  A    between atoms: C_14  and  C_15 
REMARK   14  A    between atoms: C_15  and  O_16 
REMARK   15  A    between atoms: O_16  and  C_17 
REMARK   16  A    between atoms: C_17  and  C_18 
REMARK   17  A    between atoms: C_18  and  O_19 
ROOT
HETATM    1  C   UNL     1     -20.723  -6.680  -5.979  1.00  0.00     0.002 C 
ENDROOT
BRANCH   1   2
HETATM    2  C   UNL     1     -21.051  -7.513  -4.747  1.00  0.00     0.000 C 
BRANCH   2   3
HETATM    3  C   UNL     1     -21.751  -6.654  -3.698  1.00  0.00     0.000 C 
BRANCH   3   4
HETATM    4  C   UNL     1     -21.239  -6.974  -2.300  1.00  0.00     0.000 C 
BRANCH   4   5
HETATM    5  C   UNL     1     -22.326  -6.731  -1.257  1.00  0.00     0.000 C 
BRANCH   5   6
HETATM    6  C   UNL     1     -22.069  -7.565  -0.007  1.00  0.00     0.000 C 
BRANCH   6   7
HETATM    7  C   UNL     1     -23.130  -8.650   0.153  1.00  0.00     0.000 C 
BRANCH   7   8
HETATM    8  C   UNL     1     -22.524 -10.033  -0.070  1.00  0.00    -0.000 C 
BRANCH   8   9
HETATM    9  C   UNL     1     -23.202 -10.749  -1.235  1.00  0.00    -0.005 C 
HETATM   10  C   UNL     1     -22.430 -10.541  -2.527  1.00  0.00     0.005 C 
ENDBRANCH   8   9
ENDBRANCH   7   8
ENDBRANCH   6   7
ENDBRANCH   5   6
ENDBRANCH   4   5
ENDBRANCH   3   4
ENDBRANCH   2   3
ENDBRANCH   1   2
BRANCH   1  11
HETATM   11  C   UNL     1     -20.408  -5.237  -5.608  1.00  0.00     0.026 C 
BRANCH  11  12
HETATM   12  C   UNL     1     -20.857  -4.295  -6.715  1.00  0.00     0.167 C 
BRANCH  12  13
HETATM   13  O   UNL     1     -19.762  -4.076  -7.600  1.00  0.00    -0.389 OA
BRANCH  13  14
HETATM   14  C   UNL     1     -20.084  -4.491  -8.926  1.00  0.00     0.193 C 
BRANCH  14  15
HETATM   15  C   UNL     1     -21.594  -4.449  -9.105  1.00  0.00     0.193 C 
BRANCH  15  16
HETATM   16  O   UNL     1     -21.900  -3.778 -10.324  1.00  0.00    -0.387 OA
BRANCH  16  17
HETATM   17  C   UNL     1     -23.270  -3.358 -10.347  1.00  0.00     0.193 C 
BRANCH  17  18
HETATM   18  C   UNL     1     -23.958  -3.977  -9.140  1.00  0.00     0.190 C 
BRANCH  18  19
HETATM   19  O   UNL     1     -25.203  -4.547  -9.542  1.00  0.00    -0.399 OA
HETATM   20  H   UNL     1     -25.293  -4.308 -10.487  1.00  0.00     0.209 HD
ENDBRANCH  18  19
ENDBRANCH  17  18
ENDBRANCH  16  17
ENDBRANCH  15  16
ENDBRANCH  14  15
ENDBRANCH  13  14
ENDBRANCH  12  13
ENDBRANCH  11  12
ENDBRANCH   1  11
TORSDOF 17
BEGIN_RES ARG D 557
REMARK  4 active torsions:
REMARK  status: ('A' for Active; 'I' for Inactive)
REMARK    1  A    between atoms: CA   and  CB  
REMARK    2  A    between atoms: CB   and  CG  
REMARK    3  A    between atoms: CG   and  CD  
REMARK    4  A    between atoms: CD   and  NE  
REMARK       I    between atoms: NE   and  CZ  
REMARK       I    between atoms: CZ   and  NH1 
REMARK       I    between atoms: CZ   and  NH2 
ROOT
ATOM      1  CA  ARG D 557     -26.217   2.705 -17.014  1.00 35.49     0.159 C 
ENDROOT
BRANCH   1   2
ATOM      2  CB  ARG D 557     -26.789   1.319 -17.183  1.00 35.49     0.034 C 
BRANCH   2   3
ATOM      3  CG  ARG D 557     -25.837   0.202 -17.145  1.00 35.49     0.027 C 
BRANCH   3   4
ATOM      4  CD  ARG D 557     -24.747   0.423 -16.168  1.00 35.49     0.116 C 
BRANCH   4   5
ATOM      5  NE  ARG D 557     -24.874  -0.424 -15.012  1.00 35.49    -0.212 N 
ATOM      6  CZ  ARG D 557     -24.054  -1.394 -14.676  1.00 35.49     0.666 C 
ATOM      7  NH1 ARG D 557     -22.996  -1.711 -15.400  1.00 35.49    -0.235 N 
ATOM      8  NH2 ARG D 557     -24.313  -2.047 -13.580  1.00 35.49    -0.235 N 
ATOM      9  HH  ARG D 557     -22.806  -1.293 -16.123  1.00 35.49     0.174 HD
ATOM     10  HH  ARG D 557     -22.495  -2.351 -15.129  1.00 35.49     0.174 HD
ATOM     11  HH  ARG D 557     -24.998  -1.815 -13.129  1.00 35.49     0.174 HD
ATOM     12  HH  ARG D 557     -23.804  -2.677 -13.328  1.00 35.49     0.174 HD
ATOM     13  HE  ARG D 557     -25.568  -0.337 -14.528  1.00 35.49     0.178 HD
ENDBRANCH   4   5
ENDBRANCH   3   4
ENDBRANCH   2   3
ENDBRANCH   1   2
END_RES ARG D 557
BEGIN_RES GLU D 570
REMARK  3 active torsions:
REMARK  status: ('A' for Active; 'I' for Inactive)
REMARK    5  A    between atoms: CA   and  CB  
REMARK    6  A    between atoms: CB   and  CG  
REMARK    7  A    between atoms: CG   and  CD  
ROOT
ATOM     14  CA  GLU D 570     -18.033  -6.348 -13.375  1.00 32.92     0.160 C 
ENDROOT
BRANCH  14  15
ATOM     15  CB  GLU D 570     -19.500  -6.345 -13.794  1.00 32.92     0.043 C 
BRANCH  15  16
ATOM     16  CG  GLU D 570     -20.442  -5.529 -12.984  1.00 32.92     0.100 C 
BRANCH  16  17
ATOM     17  CD  GLU D 570     -21.736  -5.233 -13.706  1.00 32.92     0.185 C 
ATOM     18  OE1 GLU D 570     -22.221  -4.088 -13.633  1.00 32.92    -0.647 OA
ATOM     19  OE2 GLU D 570     -22.279  -6.161 -14.336  1.00 32.92    -0.647 OA
ENDBRANCH  16  17
ENDBRANCH  15  16
ENDBRANCH  14  15
END_RES GLU D 570
ENDMDL
MODEL 7
REMARK VINA RESULT:      -6.0      6.642     11.763
REMARK  17 active torsions:
REMARK  status: ('A' for Active; 'I' for Inactive)
REMARK    1  A    between atoms: C_2  and  C_3 
REMARK    2  A    between atoms: C_3  and  C_4 
REMARK    3  A    between atoms: C_4  and  C_5 
REMARK    4  A    between atoms: C_5  and  C_6 
REMARK    5  A    between atoms: C_6  and  C_7 
REMARK    6  A    between atoms: C_7  and  C_8 
REMARK    7  A    between atoms: C_8  and  C_9 
REMARK    8  A    between atoms: C_9  and  C_10 
REMARK    9  A    between atoms: C_10  and  C_11 
REMARK   10  A    between atoms: C_11  and  C_12 
REMARK   11  A    between atoms: C_12  and  O_13 
REMARK   12  A    between atoms: O_13  and  C_14 
REMARK   13  A    between atoms: C_14  and  C_15 
REMARK   14  A    between atoms: C_15  and  O_16 
REMARK   15  A    between atoms: O_16  and  C_17 
REMARK   16  A    between atoms: C_17  and  C_18 
REMARK   17  A    between atoms: C_18  and  O_19 
ROOT
HETATM    1  C   UNL     1     -35.815  -0.785 -14.908  1.00  0.00     0.002 C 
ENDROOT
BRANCH   1   2
HETATM    2  C   UNL     1     -35.157   0.432 -14.271  1.00  0.00     0.000 C 
BRANCH   2   3
HETATM    3  C   UNL     1     -34.740   0.118 -12.837  1.00  0.00     0.000 C 
BRANCH   3   4
HETATM    4  C   UNL     1     -34.833  -1.376 -12.555  1.00  0.00     0.000 C 
BRANCH   4   5
HETATM    5  C   UNL     1     -34.708  -1.652 -11.060  1.00  0.00     0.000 C 
BRANCH   5   6
HETATM    6  C   UNL     1     -33.366  -2.301 -10.742  1.00  0.00     0.000 C 
BRANCH   6   7
HETATM    7  C   UNL     1     -33.285  -3.707 -11.329  1.00  0.00     0.000 C 
BRANCH   7   8
HETATM    8  C   UNL     1     -33.928  -4.722 -10.388  1.00  0.00    -0.000 C 
BRANCH   8   9
HETATM    9  C   UNL     1     -34.176  -6.051 -11.096  1.00  0.00    -0.005 C 
HETATM   10  C   UNL     1     -34.712  -7.093 -10.130  1.00  0.00     0.005 C 
ENDBRANCH   8   9
ENDBRANCH   7   8
ENDBRANCH   6   7
ENDBRANCH   5   6
ENDBRANCH   4   5
ENDBRANCH   3   4
ENDBRANCH   2   3
ENDBRANCH   1   2
BRANCH   1  11
HETATM   11  C   UNL     1     -35.689  -0.757 -16.426  1.00  0.00     0.026 C 
BRANCH  11  12
HETATM   12  C   UNL     1     -34.994  -2.015 -16.923  1.00  0.00     0.167 C 
BRANCH  12  13
HETATM   13  O   UNL     1     -34.705  -2.849 -15.805  1.00  0.00    -0.389 OA
BRANCH  13  14
HETATM   14  C   UNL     1     -33.887  -3.954 -16.187  1.00  0.00     0.193 C 
BRANCH  14  15
HETATM   15  C   UNL     1     -33.089  -3.574 -17.424  1.00  0.00     0.193 C 
BRANCH  15  16
HETATM   16  O   UNL     1     -31.741  -3.307 -17.045  1.00  0.00    -0.387 OA
BRANCH  16  17
HETATM   17  C   UNL     1     -30.952  -4.502 -17.086  1.00  0.00     0.193 C 
BRANCH  17  18
HETATM   18  C   UNL     1     -29.804  -4.258 -18.054  1.00  0.00     0.190 C 
BRANCH  18  19
HETATM   19  O   UNL     1     -29.200  -2.997 -17.769  1.00  0.00    -0.399 OA
HETATM   20  H   UNL     1     -28.606  -2.828 -18.529  1.00  0.00     0.209 HD
ENDBRANCH  18  19
ENDBRANCH  17  18
ENDBRANCH  16  17
ENDBRANCH  15  16
ENDBRANCH  14  15
ENDBRANCH  13  14
ENDBRANCH  12  13
ENDBRANCH  11  12
ENDBRANCH   1  11
TORSDOF 17
BEGIN_RES ARG D 557
REMARK  4 active torsions:
REMARK  status: ('A' for Active; 'I' for Inactive)
REMARK    1  A    between atoms: CA   and  CB  
REMARK    2  A    between atoms: CB   and  CG  
REMARK    3  A    between atoms: CG   and  CD  
REMARK    4  A    between atoms: CD   and  NE  
REMARK       I    between atoms: NE   and  CZ  
REMARK       I    between atoms: CZ   and  NH1 
REMARK       I    between atoms: CZ   and  NH2 
ROOT
ATOM      1  CA  ARG D 557     -26.217   2.705 -17.014  1.00 35.49     0.159 C 
ENDROOT
BRANCH   1   2
ATOM      2  CB  ARG D 557     -26.789   1.319 -17.183  1.00 35.49     0.034 C 
BRANCH   2   3
ATOM      3  CG  ARG D 557     -25.862   0.195 -17.003  1.00 35.49     0.027 C 
BRANCH   3   4
ATOM      4  CD  ARG D 557     -26.258  -0.689 -15.883  1.00 35.49     0.116 C 
BRANCH   4   5
ATOM      5  NE  ARG D 557     -25.176  -0.914 -14.961  1.00 35.49    -0.212 N 
ATOM      6  CZ  ARG D 557     -24.890  -2.056 -14.376  1.00 35.49     0.666 C 
ATOM      7  NH1 ARG D 557     -25.602  -3.150 -14.571  1.00 35.49    -0.235 N 
ATOM      8  NH2 ARG D 557     -23.858  -2.082 -13.584  1.00 35.49    -0.235 N 
ATOM      9  HH  ARG D 557     -26.284  -3.156 -15.089  1.00 35.49     0.174 HD
ATOM     10  HH  ARG D 557     -25.367  -3.867 -14.164  1.00 35.49     0.174 HD
ATOM     11  HH  ARG D 557     -23.412  -1.362 -13.483  1.00 35.49     0.174 HD
ATOM     12  HH  ARG D 557     -23.640  -2.802 -13.192  1.00 35.49     0.174 HD
ATOM     13  HE  ARG D 557     -24.709  -0.244 -14.722  1.00 35.49     0.178 HD
ENDBRANCH   4   5
ENDBRANCH   3   4
ENDBRANCH   2   3
ENDBRANCH   1   2
END_RES ARG D 557
BEGIN_RES GLU D 570
REMARK  3 active torsions:
REMARK  status: ('A' for Active; 'I' for Inactive)
REMARK    5  A    between atoms: CA   and  CB  
REMARK    6  A    between atoms: CB   and  CG  
REMARK    7  A    between atoms: CG   and  CD  
ROOT
ATOM     14  CA  GLU D 570     -18.033  -6.348 -13.375  1.00 32.92     0.160 C 
ENDROOT
BRANCH  14  15
ATOM     15  CB  GLU D 570     -19.500  -6.345 -13.794  1.00 32.92     0.043 C 
BRANCH  15  16
ATOM     16  CG  GLU D 570     -20.434  -5.497 -13.010  1.00 32.92     0.100 C 
BRANCH  16  17
ATOM     17  CD  GLU D 570     -21.692  -5.146 -13.770  1.00 32.92     0.185 C 
ATOM     18  OE1 GLU D 570     -21.630  -4.997 -15.006  1.00 32.92    -0.647 OA
ATOM     19  OE2 GLU D 570     -22.747  -5.003 -13.122  1.00 32.92    -0.647 OA
ENDBRANCH  16  17
ENDBRANCH  15  16
ENDBRANCH  14  15
END_RES GLU D 570
ENDMDL
MODEL 8
REMARK VINA RESULT:      -5.9      1.343      2.223
REMARK  17 active torsions:
REMARK  status: ('A' for Active; 'I' for Inactive)
REMARK    1  A    between atoms: C_2  and  C_3 
REMARK    2  A    between atoms: C_3  and  C_4 
REMARK    3  A    between atoms: C_4  and  C_5 
REMARK    4  A    between atoms: C_5  and  C_6 
REMARK    5  A    between atoms: C_6  and  C_7 
REMARK    6  A    between atoms: C_7  and  C_8 
REMARK    7  A    between atoms: C_8  and  C_9 
REMARK    8  A    between atoms: C_9  and  C_10 
REMARK    9  A    between atoms: C_10  and  C_11 
REMARK   10  A    between atoms: C_11  and  C_12 
REMARK   11  A    between atoms: C_12  and  O_13 
REMARK   12  A    between atoms: O_13  and  C_14 
REMARK   13  A    between atoms: C_14  and  C_15 
REMARK   14  A    between atoms: C_15  and  O_16 
REMARK   15  A    between atoms: O_16  and  C_17 
REMARK   16  A    between atoms: C_17  and  C_18 
REMARK   17  A    between atoms: C_18  and  O_19 
ROOT
HETATM    1  C   UNL     1     -20.098  -4.773  -6.169  1.00  0.00     0.002 C 
ENDROOT
BRANCH   1   2
HETATM    2  C   UNL     1     -20.405  -6.260  -6.044  1.00  0.00     0.000 C 
BRANCH   2   3
HETATM    3  C   UNL     1     -21.790  -6.464  -5.438  1.00  0.00     0.000 C 
BRANCH   3   4
HETATM    4  C   UNL     1     -21.811  -7.679  -4.519  1.00  0.00     0.000 C 
BRANCH   4   5
HETATM    5  C   UNL     1     -20.420  -7.954  -3.955  1.00  0.00     0.000 C 
BRANCH   5   6
HETATM    6  C   UNL     1     -20.421  -7.838  -2.436  1.00  0.00     0.000 C 
BRANCH   6   7
HETATM    7  C   UNL     1     -21.766  -8.269  -1.856  1.00  0.00     0.000 C 
BRANCH   7   8
HETATM    8  C   UNL     1     -22.243  -7.273  -0.803  1.00  0.00    -0.000 C 
BRANCH   8   9
HETATM    9  C   UNL     1     -22.577  -7.977   0.509  1.00  0.00    -0.005 C 
HETATM   10  C   UNL     1     -21.320  -8.492   1.189  1.00  0.00     0.005 C 
ENDBRANCH   8   9
ENDBRANCH   7   8
ENDBRANCH   6   7
ENDBRANCH   5   6
ENDBRANCH   4   5
ENDBRANCH   3   4
ENDBRANCH   2   3
ENDBRANCH   1   2
BRANCH   1  11
HETATM   11  C   UNL     1     -19.598  -4.422  -7.564  1.00  0.00     0.026 C 
BRANCH  11  12
HETATM   12  C   UNL     1     -20.694  -4.655  -8.593  1.00  0.00     0.167 C 
BRANCH  12  13
HETATM   13  O   UNL     1     -20.096  -4.767  -9.881  1.00  0.00    -0.389 OA
BRANCH  13  14
HETATM   14  C   UNL     1     -20.628  -3.795 -10.779  1.00  0.00     0.193 C 
BRANCH  14  15
HETATM   15  C   UNL     1     -22.108  -3.608 -10.487  1.00  0.00     0.193 C 
BRANCH  15  16
HETATM   16  O   UNL     1     -22.770  -3.196 -11.679  1.00  0.00    -0.387 OA
BRANCH  16  17
HETATM   17  C   UNL     1     -24.193  -3.217 -11.509  1.00  0.00     0.193 C 
BRANCH  17  18
HETATM   18  C   UNL     1     -24.475  -3.632 -10.073  1.00  0.00     0.190 C 
BRANCH  18  19
HETATM   19  O   UNL     1     -25.788  -3.211  -9.704  1.00  0.00    -0.399 OA
HETATM   20  H   UNL     1     -26.387  -3.743 -10.267  1.00  0.00     0.209 HD
ENDBRANCH  18  19
ENDBRANCH  17  18
ENDBRANCH  16  17
ENDBRANCH  15  16
ENDBRANCH  14  15
ENDBRANCH  13  14
ENDBRANCH  12  13
ENDBRANCH  11  12
ENDBRANCH   1  11
TORSDOF 17
BEGIN_RES ARG D 557
REMARK  4 active torsions:
REMARK  status: ('A' for Active; 'I' for Inactive)
REMARK    1  A    between atoms: CA   and  CB  
REMARK    2  A    between atoms: CB   and  CG  
REMARK    3  A    between atoms: CG   and  CD  
REMARK    4  A    between atoms: CD   and  NE  
REMARK       I    between atoms: NE   and  CZ  
REMARK       I    between atoms: CZ   and  NH1 
REMARK       I    between atoms: CZ   and  NH2 
ROOT
ATOM      1  CA  ARG D 557     -26.217   2.705 -17.014  1.00 35.49     0.159 C 
ENDROOT
BRANCH   1   2
ATOM      2  CB  ARG D 557     -26.789   1.319 -17.183  1.00 35.49     0.034 C 
BRANCH   2   3
ATOM      3  CG  ARG D 557     -28.146   1.097 -16.669  1.00 35.49     0.027 C 
BRANCH   3   4
ATOM      4  CD  ARG D 557     -28.827  -0.032 -17.343  1.00 35.49     0.116 C 
BRANCH   4   5
ATOM      5  NE  ARG D 557     -28.251  -1.302 -16.987  1.00 35.49    -0.212 N 
ATOM      6  CZ  ARG D 557     -28.851  -2.469 -17.073  1.00 35.49     0.666 C 
ATOM      7  NH1 ARG D 557     -30.095  -2.597 -17.496  1.00 35.49    -0.235 N 
ATOM      8  NH2 ARG D 557     -28.169  -3.521 -16.726  1.00 35.49    -0.235 N 
ATOM      9  HH  ARG D 557     -30.562  -1.918 -17.731  1.00 35.49     0.174 HD
ATOM     10  HH  ARG D 557     -30.433  -3.383 -17.533  1.00 35.49     0.174 HD
ATOM     11  HH  ARG D 557     -27.365  -3.409 -16.464  1.00 35.49     0.174 HD
ATOM     12  HH  ARG D 557     -28.521  -4.292 -16.772  1.00 35.49     0.174 HD
ATOM     13  HE  ARG D 557     -27.477  -1.305 -16.636  1.00 35.49     0.178 HD
ENDBRANCH   4   5
ENDBRANCH   3   4
ENDBRANCH   2   3
ENDBRANCH   1   2
END_RES ARG D 557
BEGIN_RES GLU D 570
REMARK  3 active torsions:
REMARK  status: ('A' for Active; 'I' for Inactive)
REMARK    5  A    between atoms: CA   and  CB  
REMARK    6  A    between atoms: CB   and  CG  
REMARK    7  A    between atoms: CG   and  CD  
ROOT
ATOM     14  CA  GLU D 570     -18.033  -6.348 -13.375  1.00 32.92     0.160 C 
ENDROOT
BRANCH  14  15
ATOM     15  CB  GLU D 570     -19.500  -6.345 -13.794  1.00 32.92     0.043 C 
BRANCH  15  16
ATOM     16  CG  GLU D 570     -19.807  -6.012 -15.209  1.00 32.92     0.100 C 
BRANCH  16  17
ATOM     17  CD  GLU D 570     -21.139  -5.318 -15.376  1.00 32.92     0.185 C 
ATOM     18  OE1 GLU D 570     -21.536  -5.038 -16.523  1.00 32.92    -0.647 OA
ATOM     19  OE2 GLU D 570     -21.784  -5.037 -14.347  1.00 32.92    -0.647 OA
ENDBRANCH  16  17
ENDBRANCH  15  16
ENDBRANCH  14  15
END_RES GLU D 570
ENDMDL
MODEL 9
REMARK VINA RESULT:      -5.8      1.194      2.133
REMARK  17 active torsions:
REMARK  status: ('A' for Active; 'I' for Inactive)
REMARK    1  A    between atoms: C_2  and  C_3 
REMARK    2  A    between atoms: C_3  and  C_4 
REMARK    3  A    between atoms: C_4  and  C_5 
REMARK    4  A    between atoms: C_5  and  C_6 
REMARK    5  A    between atoms: C_6  and  C_7 
REMARK    6  A    between atoms: C_7  and  C_8 
REMARK    7  A    between atoms: C_8  and  C_9 
REMARK    8  A    between atoms: C_9  and  C_10 
REMARK    9  A    between atoms: C_10  and  C_11 
REMARK   10  A    between atoms: C_11  and  C_12 
REMARK   11  A    between atoms: C_12  and  O_13 
REMARK   12  A    between atoms: O_13  and  C_14 
REMARK   13  A    between atoms: C_14  and  C_15 
REMARK   14  A    between atoms: C_15  and  O_16 
REMARK   15  A    between atoms: O_16  and  C_17 
REMARK   16  A    between atoms: C_17  and  C_18 
REMARK   17  A    between atoms: C_18  and  O_19 
ROOT
HETATM    1  C   UNL     1     -20.920  -5.568  -5.151  1.00  0.00     0.002 C 
ENDROOT
BRANCH   1   2
HETATM    2  C   UNL     1     -21.306  -7.036  -5.023  1.00  0.00     0.000 C 
BRANCH   2   3
HETATM    3  C   UNL     1     -21.471  -7.414  -3.554  1.00  0.00     0.000 C 
BRANCH   3   4
HETATM    4  C   UNL     1     -21.563  -6.171  -2.677  1.00  0.00     0.000 C 
BRANCH   4   5
HETATM    5  C   UNL     1     -22.343  -6.467  -1.400  1.00  0.00     0.000 C 
BRANCH   5   6
HETATM    6  C   UNL     1     -21.823  -7.734  -0.731  1.00  0.00     0.000 C 
BRANCH   6   7
HETATM    7  C   UNL     1     -22.867  -8.324   0.211  1.00  0.00     0.000 C 
BRANCH   7   8
HETATM    8  C   UNL     1     -23.180  -9.769  -0.166  1.00  0.00    -0.000 C 
BRANCH   8   9
HETATM    9  C   UNL     1     -22.234 -10.271  -1.254  1.00  0.00    -0.005 C 
HETATM   10  C   UNL     1     -22.997 -11.000  -2.347  1.00  0.00     0.005 C 
ENDBRANCH   8   9
ENDBRANCH   7   8
ENDBRANCH   6   7
ENDBRANCH   5   6
ENDBRANCH   4   5
ENDBRANCH   3   4
ENDBRANCH   2   3
ENDBRANCH   1   2
BRANCH   1  11
HETATM   11  C   UNL     1     -20.193  -5.296  -6.462  1.00  0.00     0.026 C 
BRANCH  11  12
HETATM   12  C   UNL     1     -21.149  -5.435  -7.637  1.00  0.00     0.167 C 
BRANCH  12  13
HETATM   13  O   UNL     1     -22.015  -4.305  -7.657  1.00  0.00    -0.389 OA
BRANCH  13  14
HETATM   14  C   UNL     1     -22.343  -3.934  -8.994  1.00  0.00     0.193 C 
BRANCH  14  15
HETATM   15  C   UNL     1     -23.809  -4.250  -9.250  1.00  0.00     0.193 C 
BRANCH  15  16
HETATM   16  O   UNL     1     -24.023  -4.359 -10.654  1.00  0.00    -0.387 OA
BRANCH  16  17
HETATM   17  C   UNL     1     -23.956  -3.074 -11.285  1.00  0.00     0.193 C 
BRANCH  17  18
HETATM   18  C   UNL     1     -23.574  -3.298 -12.740  1.00  0.00     0.190 C 
BRANCH  18  19
HETATM   19  O   UNL     1     -22.159  -3.175 -12.885  1.00  0.00    -0.399 OA
HETATM   20  H   UNL     1     -21.812  -4.070 -12.695  1.00  0.00     0.209 HD
ENDBRANCH  18  19
ENDBRANCH  17  18
ENDBRANCH  16  17
ENDBRANCH  15  16
ENDBRANCH  14  15
ENDBRANCH  13  14
ENDBRANCH  12  13
ENDBRANCH  11  12
ENDBRANCH   1  11
TORSDOF 17
BEGIN_RES ARG D 557
REMARK  4 active torsions:
REMARK  status: ('A' for Active; 'I' for Inactive)
REMARK    1  A    between atoms: CA   and  CB  
REMARK    2  A    between atoms: CB   and  CG  
REMARK    3  A    between atoms: CG   and  CD  
REMARK    4  A    between atoms: CD   and  NE  
REMARK       I    between atoms: NE   and  CZ  
REMARK       I    between atoms: CZ   and  NH1 
REMARK       I    between atoms: CZ   and  NH2 
ROOT
ATOM      1  CA  ARG D 557     -26.217   2.705 -17.014  1.00 35.49     0.159 C 
ENDROOT
BRANCH   1   2
ATOM      2  CB  ARG D 557     -26.789   1.319 -17.183  1.00 35.49     0.034 C 
BRANCH   2   3
ATOM      3  CG  ARG D 557     -28.204   1.142 -16.836  1.00 35.49     0.027 C 
BRANCH   3   4
ATOM      4  CD  ARG D 557     -28.581  -0.285 -16.715  1.00 35.49     0.116 C 
BRANCH   4   5
ATOM      5  NE  ARG D 557     -27.588  -1.050 -16.008  1.00 35.49    -0.212 N 
ATOM      6  CZ  ARG D 557     -27.425  -2.352 -16.081  1.00 35.49     0.666 C 
ATOM      7  NH1 ARG D 557     -28.195  -3.122 -16.827  1.00 35.49    -0.235 N 
ATOM      8  NH2 ARG D 557     -26.458  -2.876 -15.386  1.00 35.49    -0.235 N 
ATOM      9  HH  ARG D 557     -28.837  -2.798 -17.295  1.00 35.49     0.174 HD
ATOM     10  HH  ARG D 557     -28.041  -3.965 -16.838  1.00 35.49     0.174 HD
ATOM     11  HH  ARG D 557     -25.972  -2.354 -14.919  1.00 35.49     0.174 HD
ATOM     12  HH  ARG D 557     -26.320  -3.713 -15.411  1.00 35.49     0.174 HD
ATOM     13  HE  ARG D 557     -27.094  -0.643 -15.447  1.00 35.49     0.178 HD
ENDBRANCH   4   5
ENDBRANCH   3   4
ENDBRANCH   2   3
ENDBRANCH   1   2
END_RES ARG D 557
BEGIN_RES GLU D 570
REMARK  3 active torsions:
REMARK  status: ('A' for Active; 'I' for Inactive)
REMARK    5  A    between atoms: CA   and  CB  
REMARK    6  A    between atoms: CB   and  CG  
REMARK    7  A    between atoms: CG   and  CD  
ROOT
ATOM     14  CA  GLU D 570     -18.033  -6.348 -13.375  1.00 32.92     0.160 C 
ENDROOT
BRANCH  14  15
ATOM     15  CB  GLU D 570     -19.500  -6.345 -13.794  1.00 32.92     0.043 C 
BRANCH  15  16
ATOM     16  CG  GLU D 570     -19.796  -6.316 -15.250  1.00 32.92     0.100 C 
BRANCH  16  17
ATOM     17  CD  GLU D 570     -21.117  -5.657 -15.570  1.00 32.92     0.185 C 
ATOM     18  OE1 GLU D 570     -21.317  -5.229 -16.723  1.00 32.92    -0.647 OA
ATOM     19  OE2 GLU D 570     -21.956  -5.552 -14.653  1.00 32.92    -0.647 OA
ENDBRANCH  16  17
ENDBRANCH  15  16
ENDBRANCH  14  15
END_RES GLU D 570
ENDMDL
