MODEL 1
REMARK VINA RESULT:      -5.8      0.000      0.000
REMARK WARNING: 32 MAX_TORS EXCEEDED!!!
REMARK  62 active torsions:
REMARK  status: ('A' for Active; 'I' for Inactive)
REMARK    1  A    between atoms: C_2  and  C_3 
REMARK    2  A    between atoms: C_3  and  C_4 
REMARK    3  A    between atoms: C_4  and  C_5 
REMARK    4  A    between atoms: C_5  and  C_6 
REMARK    5  A    between atoms: C_6  and  C_7 
REMARK    6  A    between atoms: C_7  and  C_8 
REMARK    7  A    between atoms: C_8  and  C_9 
REMARK    8  A    between atoms: C_9  and  C_10 
REMARK    9  A    between atoms: C_9  and  C_16 
REMARK   10  A    between atoms: C_10  and  C_11 
REMARK   11  A    between atoms: C_11  and  C_12 
REMARK   12  A    between atoms: C_12  and  C_13 
REMARK   13  A    between atoms: C_13  and  C_14 
REMARK   14  A    between atoms: C_16  and  O_18 
REMARK   15  A    between atoms: O_18  and  C_19 
REMARK   16  A    between atoms: C_19  and  C_20 
REMARK   17  A    between atoms: C_20  and  C_21 
REMARK   18  A    between atoms: C_20  and  O_63 
REMARK   19  A    between atoms: C_22  and  O_45 
REMARK   20  A    between atoms: C_23  and  O_27 
REMARK   21  A    between atoms: O_27  and  C_28 
REMARK   22  A    between atoms: C_28  and  C_30 
REMARK   23  A    between atoms: C_30  and  C_31 
REMARK   24  A    between atoms: C_30  and  C_37 
REMARK   25  A    between atoms: C_31  and  C_32 
REMARK   26  A    between atoms: C_32  and  C_33 
REMARK   27  A    between atoms: C_33  and  C_34 
REMARK   28  A    between atoms: C_34  and  C_35 
REMARK   29  A    between atoms: C_37  and  C_38 
REMARK   30  A    between atoms: C_38  and  C_39 
REMARK   31  A    between atoms: C_39  and  C_40 
REMARK   32  A    between atoms: C_40  and  C_41 
REMARK   33  A    between atoms: C_41  and  C_42 
REMARK   34  A    between atoms: C_42  and  C_43 
REMARK   35  A    between atoms: O_45  and  C_46 
REMARK   36  A    between atoms: C_46  and  C_48 
REMARK   37  A    between atoms: C_48  and  C_49 
REMARK   38  A    between atoms: C_48  and  C_55 
REMARK   39  A    between atoms: C_49  and  C_50 
REMARK   40  A    between atoms: C_50  and  C_51 
REMARK   41  A    between atoms: C_51  and  C_52 
REMARK   42  A    between atoms: C_52  and  C_53 
REMARK   43  A    between atoms: C_55  and  C_56 
REMARK   44  A    between atoms: C_56  and  C_57 
REMARK   45  A    between atoms: C_57  and  C_58 
REMARK   46  A    between atoms: C_58  and  C_59 
REMARK   47  A    between atoms: C_59  and  C_60 
REMARK   48  A    between atoms: C_60  and  C_61 
REMARK   49  A    between atoms: O_63  and  C_64 
REMARK   50  A    between atoms: C_64  and  C_66 
REMARK   51  A    between atoms: C_66  and  C_67 
REMARK   52  A    between atoms: C_66  and  C_73 
REMARK   53  A    between atoms: C_67  and  C_68 
REMARK   54  A    between atoms: C_68  and  C_69 
REMARK   55  A    between atoms: C_69  and  C_70 
REMARK   56  A    between atoms: C_70  and  C_71 
REMARK   57  A    between atoms: C_73  and  C_74 
REMARK   58  A    between atoms: C_74  and  C_75 
REMARK   59  A    between atoms: C_75  and  C_76 
REMARK   60  A    between atoms: C_76  and  C_77 
REMARK   61  A    between atoms: C_77  and  C_78 
REMARK   62  A    between atoms: C_78  and  C_79 
ROOT
HETATM    1  C   UNL     1     -18.808  -9.016  -4.876  1.00  0.00     0.224 C 
HETATM    2  C   UNL     1     -18.248 -10.238  -4.197  1.00  0.00     0.129 C 
HETATM    3  C   UNL     1     -18.636 -11.370  -4.863  1.00  0.00     0.186 C 
HETATM    4  C   UNL     1     -19.305 -10.917  -6.097  1.00  0.00     0.321 C 
HETATM    5  O   UNL     1     -19.748 -11.632  -6.955  1.00  0.00    -0.257 OA
HETATM    6  O   UNL     1     -19.336  -9.555  -6.101  1.00  0.00    -0.301 OA
ENDROOT
BRANCH   1   7
HETATM    7  C   UNL     1     -19.936  -8.168  -4.154  1.00  0.00     0.192 C 
BRANCH   7   8
HETATM    8  C   UNL     1     -20.989  -8.992  -3.352  1.00  0.00     0.214 C 
BRANCH   8   9
HETATM    9  O   UNL     1     -20.936  -8.662  -1.922  1.00  0.00    -0.319 OA
BRANCH   9  10
HETATM   10  C   UNL     1     -21.935  -7.924  -1.357  1.00  0.00     0.263 C 
HETATM   11  O   UNL     1     -22.067  -6.724  -1.569  1.00  0.00    -0.265 OA
BRANCH  10  12
HETATM   12  C   UNL     1     -22.793  -8.702  -0.316  1.00  0.00     0.085 C 
BRANCH  12  13
HETATM   13  C   UNL     1     -23.065 -10.152  -0.841  1.00  0.00     0.014 C 
BRANCH  13  14
HETATM   14  C   UNL     1     -23.797 -11.244  -0.016  1.00  0.00     0.001 C 
BRANCH  14  15
HETATM   15  C   UNL     1     -24.089 -12.604  -0.674  1.00  0.00     0.000 C 
BRANCH  15  16
HETATM   16  C   UNL     1     -23.447 -13.763   0.125  1.00  0.00     0.000 C 
BRANCH  16  17
HETATM   17  C   UNL     1     -23.014 -13.341   1.534  1.00  0.00     0.000 C 
BRANCH  17  18
HETATM   18  C   UNL     1     -23.633 -14.252   2.599  1.00  0.00    -0.000 C 
BRANCH  18  19
HETATM   19  C   UNL     1     -22.568 -14.964   3.433  1.00  0.00    -0.005 C 
HETATM   20  C   UNL     1     -23.143 -15.443   4.757  1.00  0.00     0.005 C 
ENDBRANCH  18  19
ENDBRANCH  17  18
ENDBRANCH  16  17
ENDBRANCH  15  16
ENDBRANCH  14  15
ENDBRANCH  13  14
ENDBRANCH  12  13
BRANCH  12  21
HETATM   21  C   UNL     1     -22.315  -8.536   1.155  1.00  0.00     0.014 C 
BRANCH  21  22
HETATM   22  C   UNL     1     -20.920  -8.935   1.686  1.00  0.00     0.001 C 
BRANCH  22  23
HETATM   23  C   UNL     1     -20.376 -10.377   1.667  1.00  0.00     0.000 C 
BRANCH  23  24
HETATM   24  C   UNL     1     -19.585 -10.969   0.483  1.00  0.00    -0.000 C 
BRANCH  24  25
HETATM   25  C   UNL     1     -19.986 -12.304  -0.158  1.00  0.00    -0.005 C 
HETATM   26  C   UNL     1     -20.491 -12.242  -1.594  1.00  0.00     0.005 C 
ENDBRANCH  24  25
ENDBRANCH  23  24
ENDBRANCH  22  23
ENDBRANCH  21  22
ENDBRANCH  12  21
ENDBRANCH  10  12
ENDBRANCH   9  10
ENDBRANCH   8   9
ENDBRANCH   7   8
BRANCH   7  27
HETATM   27  O   UNL     1     -20.604  -7.403  -5.190  1.00  0.00    -0.310 OA
BRANCH  27  28
HETATM   28  C   UNL     1     -20.887  -6.084  -4.952  1.00  0.00     0.263 C 
HETATM   29  O   UNL     1     -21.039  -5.564  -3.851  1.00  0.00    -0.265 OA
BRANCH  28  30
HETATM   30  C   UNL     1     -20.995  -5.316  -6.258  1.00  0.00     0.085 C 
BRANCH  30  31
HETATM   31  C   UNL     1     -19.804  -5.692  -7.133  1.00  0.00     0.014 C 
BRANCH  31  32
HETATM   32  C   UNL     1     -18.994  -4.469  -7.551  1.00  0.00     0.001 C 
BRANCH  32  33
HETATM   33  C   UNL     1     -19.587  -3.807  -8.784  1.00  0.00     0.000 C 
BRANCH  33  34
HETATM   34  C   UNL     1     -19.936  -4.875  -9.815  1.00  0.00    -0.000 C 
BRANCH  34  35
HETATM   35  C   UNL     1     -20.240  -4.252 -11.170  1.00  0.00    -0.005 C 
HETATM   36  C   UNL     1     -20.610  -2.788 -11.015  1.00  0.00     0.005 C 
ENDBRANCH  34  35
ENDBRANCH  33  34
ENDBRANCH  32  33
ENDBRANCH  31  32
ENDBRANCH  30  31
BRANCH  30  37
HETATM   37  C   UNL     1     -22.322  -5.577  -6.975  1.00  0.00     0.014 C 
BRANCH  37  38
HETATM   38  C   UNL     1     -22.863  -4.302  -7.568  1.00  0.00     0.001 C 
BRANCH  38  39
HETATM   39  C   UNL     1     -23.287  -4.538  -8.988  1.00  0.00     0.000 C 
BRANCH  39  40
HETATM   40  C   UNL     1     -24.259  -3.446  -9.326  1.00  0.00     0.000 C 
BRANCH  40  41
HETATM   41  C   UNL     1     -24.336  -3.362 -10.802  1.00  0.00     0.000 C 
BRANCH  41  42
HETATM   42  C   UNL     1     -23.823  -4.658 -11.356  1.00  0.00    -0.000 C 
BRANCH  42  43
HETATM   43  C   UNL     1     -23.486  -4.380 -12.775  1.00  0.00    -0.005 C 
HETATM   44  C   UNL     1     -23.459  -5.683 -13.510  1.00  0.00     0.005 C 
ENDBRANCH  42  43
ENDBRANCH  41  42
ENDBRANCH  40  41
ENDBRANCH  39  40
ENDBRANCH  38  39
ENDBRANCH  37  38
ENDBRANCH  30  37
ENDBRANCH  28  30
ENDBRANCH  27  28
ENDBRANCH   7  27
ENDBRANCH   1   7
BRANCH   2  45
HETATM   45  O   UNL     1     -17.688 -10.206  -2.928  1.00  0.00    -0.277 OA
BRANCH  45  46
HETATM   46  C   UNL     1     -16.300 -10.178  -2.807  1.00  0.00     0.268 C 
HETATM   47  O   UNL     1     -15.660  -9.140  -2.802  1.00  0.00    -0.264 OA
BRANCH  46  48
HETATM   48  C   UNL     1     -15.749 -11.604  -2.664  1.00  0.00     0.086 C 
BRANCH  48  49
HETATM   49  C   UNL     1     -14.634 -11.882  -3.685  1.00  0.00     0.014 C 
BRANCH  49  50
HETATM   50  C   UNL     1     -14.806 -11.486  -5.153  1.00  0.00     0.001 C 
BRANCH  50  51
HETATM   51  C   UNL     1     -13.997 -12.233  -6.210  1.00  0.00     0.000 C 
BRANCH  51  52
HETATM   52  C   UNL     1     -13.385 -13.528  -5.680  1.00  0.00    -0.000 C 
BRANCH  52  53
HETATM   53  C   UNL     1     -13.753 -14.813  -6.435  1.00  0.00    -0.005 C 
HETATM   54  C   UNL     1     -12.698 -15.913  -6.450  1.00  0.00     0.005 C 
ENDBRANCH  52  53
ENDBRANCH  51  52
ENDBRANCH  50  51
ENDBRANCH  49  50
ENDBRANCH  48  49
BRANCH  48  55
HETATM   55  C   UNL     1     -15.261 -12.018  -1.274  1.00  0.00     0.014 C 
BRANCH  55  56
HETATM   56  C   UNL     1     -16.323 -12.005  -0.191  1.00  0.00     0.001 C 
BRANCH  56  57
HETATM   57  C   UNL     1     -15.657 -12.373   1.137  1.00  0.00     0.000 C 
BRANCH  57  58
HETATM   58  C   UNL     1     -15.636 -13.883   1.282  1.00  0.00     0.000 C 
BRANCH  58  59
HETATM   59  C   UNL     1     -17.015 -14.396   1.661  1.00  0.00     0.000 C 
BRANCH  59  60
HETATM   60  C   UNL     1     -16.929 -15.830   2.167  1.00  0.00    -0.000 C 
BRANCH  60  61
HETATM   61  C   UNL     1     -18.306 -16.319   2.597  1.00  0.00    -0.005 C 
HETATM   62  C   UNL     1     -19.401 -15.587   1.851  1.00  0.00     0.005 C 
ENDBRANCH  60  61
ENDBRANCH  59  60
ENDBRANCH  58  59
ENDBRANCH  57  58
ENDBRANCH  56  57
ENDBRANCH  55  56
ENDBRANCH  48  55
ENDBRANCH  46  48
ENDBRANCH  45  46
ENDBRANCH   2  45
BRANCH   3  63
HETATM   63  O   UNL     1     -18.731 -12.713  -4.411  1.00  0.00    -0.270 OA
BRANCH  63  64
HETATM   64  C   UNL     1     -17.870 -13.674  -4.909  1.00  0.00     0.268 C 
HETATM   65  O   UNL     1     -17.271 -13.540  -5.963  1.00  0.00    -0.264 OA
BRANCH  64  66
HETATM   66  C   UNL     1     -17.697 -14.842  -3.922  1.00  0.00     0.086 C 
BRANCH  66  67
HETATM   67  C   UNL     1     -16.252 -15.390  -4.036  1.00  0.00     0.014 C 
BRANCH  67  68
HETATM   68  C   UNL     1     -15.379 -15.360  -2.758  1.00  0.00     0.001 C 
BRANCH  68  69
HETATM   69  C   UNL     1     -13.975 -15.959  -2.886  1.00  0.00     0.000 C 
BRANCH  69  70
HETATM   70  C   UNL     1     -12.856 -14.977  -2.478  1.00  0.00    -0.000 C 
BRANCH  70  71
HETATM   71  C   UNL     1     -12.745 -14.603  -0.995  1.00  0.00    -0.005 C 
HETATM   72  C   UNL     1     -12.663 -15.800  -0.067  1.00  0.00     0.005 C 
ENDBRANCH  70  71
ENDBRANCH  69  70
ENDBRANCH  68  69
ENDBRANCH  67  68
ENDBRANCH  66  67
BRANCH  66  73
HETATM   73  C   UNL     1     -17.932 -14.365  -2.485  1.00  0.00     0.014 C 
BRANCH  73  74
HETATM   74  C   UNL     1     -18.604 -15.372  -1.557  1.00  0.00     0.001 C 
BRANCH  74  75
HETATM   75  C   UNL     1     -19.710 -16.090  -2.352  1.00  0.00     0.000 C 
BRANCH  75  76
HETATM   76  C   UNL     1     -21.084 -15.943  -1.715  1.00  0.00     0.000 C 
BRANCH  76  77
HETATM   77  C   UNL     1     -22.209 -15.741  -2.777  1.00  0.00     0.000 C 
BRANCH  77  78
HETATM   78  C   UNL     1     -21.826 -14.728  -3.872  1.00  0.00    -0.000 C 
BRANCH  78  79
HETATM   79  C   UNL     1     -22.838 -13.791  -4.565  1.00  0.00    -0.005 C 
HETATM   80  C   UNL     1     -22.480 -12.281  -4.661  1.00  0.00     0.005 C 
ENDBRANCH  78  79
ENDBRANCH  77  78
ENDBRANCH  76  77
ENDBRANCH  75  76
ENDBRANCH  74  75
ENDBRANCH  73  74
ENDBRANCH  66  73
ENDBRANCH  64  66
ENDBRANCH  63  64
ENDBRANCH   3  63
TORSDOF 62
BEGIN_RES ARG D 557
REMARK  4 active torsions:
REMARK  status: ('A' for Active; 'I' for Inactive)
REMARK    1  A    between atoms: CA   and  CB  
REMARK    2  A    between atoms: CB   and  CG  
REMARK    3  A    between atoms: CG   and  CD  
REMARK    4  A    between atoms: CD   and  NE  
REMARK       I    between atoms: NE   and  CZ  
REMARK       I    between atoms: CZ   and  NH1 
REMARK       I    between atoms: CZ   and  NH2 
ROOT
ATOM      1  CA  ARG D 557     -26.217   2.705 -17.014  1.00 35.49     0.159 C 
ENDROOT
BRANCH   1   2
ATOM      2  CB  ARG D 557     -26.789   1.319 -17.183  1.00 35.49     0.034 C 
BRANCH   2   3
ATOM      3  CG  ARG D 557     -25.911   0.195 -16.835  1.00 35.49     0.027 C 
BRANCH   3   4
ATOM      4  CD  ARG D 557     -26.546  -0.741 -15.879  1.00 35.49     0.116 C 
BRANCH   4   5
ATOM      5  NE  ARG D 557     -27.457  -1.646 -16.530  1.00 35.49    -0.212 N 
ATOM      6  CZ  ARG D 557     -27.541  -2.939 -16.314  1.00 35.49     0.666 C 
ATOM      7  NH1 ARG D 557     -26.758  -3.567 -15.456  1.00 35.49    -0.235 N 
ATOM      8  NH2 ARG D 557     -28.442  -3.602 -16.980  1.00 35.49    -0.235 N 
ATOM      9  HH  ARG D 557     -26.160  -3.150 -15.005  1.00 35.49     0.174 HD
ATOM     10  HH  ARG D 557     -26.860  -4.412 -15.354  1.00 35.49     0.174 HD
ATOM     11  HH  ARG D 557     -28.938  -3.169 -17.522  1.00 35.49     0.174 HD
ATOM     12  HH  ARG D 557     -28.528  -4.437 -16.864  1.00 35.49     0.174 HD
ATOM     13  HE  ARG D 557     -27.949  -1.338 -17.151  1.00 35.49     0.178 HD
ENDBRANCH   4   5
ENDBRANCH   3   4
ENDBRANCH   2   3
ENDBRANCH   1   2
END_RES ARG D 557
BEGIN_RES GLU D 570
REMARK  3 active torsions:
REMARK  status: ('A' for Active; 'I' for Inactive)
REMARK    5  A    between atoms: CA   and  CB  
REMARK    6  A    between atoms: CB   and  CG  
REMARK    7  A    between atoms: CG   and  CD  
ROOT
ATOM     14  CA  GLU D 570     -18.033  -6.348 -13.375  1.00 32.92     0.160 C 
ENDROOT
BRANCH  14  15
ATOM     15  CB  GLU D 570     -19.500  -6.345 -13.794  1.00 32.92     0.043 C 
BRANCH  15  16
ATOM     16  CG  GLU D 570     -20.003  -7.532 -14.533  1.00 32.92     0.100 C 
BRANCH  16  17
ATOM     17  CD  GLU D 570     -20.822  -7.166 -15.749  1.00 32.92     0.185 C 
ATOM     18  OE1 GLU D 570     -20.453  -6.213 -16.462  1.00 32.92    -0.647 OA
ATOM     19  OE2 GLU D 570     -21.853  -7.827 -15.980  1.00 32.92    -0.647 OA
ENDBRANCH  16  17
ENDBRANCH  15  16
ENDBRANCH  14  15
END_RES GLU D 570
ENDMDL
MODEL 2
REMARK VINA RESULT:      -5.8      2.056      8.675
REMARK WARNING: 32 MAX_TORS EXCEEDED!!!
REMARK  62 active torsions:
REMARK  status: ('A' for Active; 'I' for Inactive)
REMARK    1  A    between atoms: C_2  and  C_3 
REMARK    2  A    between atoms: C_3  and  C_4 
REMARK    3  A    between atoms: C_4  and  C_5 
REMARK    4  A    between atoms: C_5  and  C_6 
REMARK    5  A    between atoms: C_6  and  C_7 
REMARK    6  A    between atoms: C_7  and  C_8 
REMARK    7  A    between atoms: C_8  and  C_9 
REMARK    8  A    between atoms: C_9  and  C_10 
REMARK    9  A    between atoms: C_9  and  C_16 
REMARK   10  A    between atoms: C_10  and  C_11 
REMARK   11  A    between atoms: C_11  and  C_12 
REMARK   12  A    between atoms: C_12  and  C_13 
REMARK   13  A    between atoms: C_13  and  C_14 
REMARK   14  A    between atoms: C_16  and  O_18 
REMARK   15  A    between atoms: O_18  and  C_19 
REMARK   16  A    between atoms: C_19  and  C_20 
REMARK   17  A    between atoms: C_20  and  C_21 
REMARK   18  A    between atoms: C_20  and  O_63 
REMARK   19  A    between atoms: C_22  and  O_45 
REMARK   20  A    between atoms: C_23  and  O_27 
REMARK   21  A    between atoms: O_27  and  C_28 
REMARK   22  A    between atoms: C_28  and  C_30 
REMARK   23  A    between atoms: C_30  and  C_31 
REMARK   24  A    between atoms: C_30  and  C_37 
REMARK   25  A    between atoms: C_31  and  C_32 
REMARK   26  A    between atoms: C_32  and  C_33 
REMARK   27  A    between atoms: C_33  and  C_34 
REMARK   28  A    between atoms: C_34  and  C_35 
REMARK   29  A    between atoms: C_37  and  C_38 
REMARK   30  A    between atoms: C_38  and  C_39 
REMARK   31  A    between atoms: C_39  and  C_40 
REMARK   32  A    between atoms: C_40  and  C_41 
REMARK   33  A    between atoms: C_41  and  C_42 
REMARK   34  A    between atoms: C_42  and  C_43 
REMARK   35  A    between atoms: O_45  and  C_46 
REMARK   36  A    between atoms: C_46  and  C_48 
REMARK   37  A    between atoms: C_48  and  C_49 
REMARK   38  A    between atoms: C_48  and  C_55 
REMARK   39  A    between atoms: C_49  and  C_50 
REMARK   40  A    between atoms: C_50  and  C_51 
REMARK   41  A    between atoms: C_51  and  C_52 
REMARK   42  A    between atoms: C_52  and  C_53 
REMARK   43  A    between atoms: C_55  and  C_56 
REMARK   44  A    between atoms: C_56  and  C_57 
REMARK   45  A    between atoms: C_57  and  C_58 
REMARK   46  A    between atoms: C_58  and  C_59 
REMARK   47  A    between atoms: C_59  and  C_60 
REMARK   48  A    between atoms: C_60  and  C_61 
REMARK   49  A    between atoms: O_63  and  C_64 
REMARK   50  A    between atoms: C_64  and  C_66 
REMARK   51  A    between atoms: C_66  and  C_67 
REMARK   52  A    between atoms: C_66  and  C_73 
REMARK   53  A    between atoms: C_67  and  C_68 
REMARK   54  A    between atoms: C_68  and  C_69 
REMARK   55  A    between atoms: C_69  and  C_70 
REMARK   56  A    between atoms: C_70  and  C_71 
REMARK   57  A    between atoms: C_73  and  C_74 
REMARK   58  A    between atoms: C_74  and  C_75 
REMARK   59  A    between atoms: C_75  and  C_76 
REMARK   60  A    between atoms: C_76  and  C_77 
REMARK   61  A    between atoms: C_77  and  C_78 
REMARK   62  A    between atoms: C_78  and  C_79 
ROOT
HETATM    1  C   UNL     1     -18.057 -10.281  -2.600  1.00  0.00     0.224 C 
HETATM    2  C   UNL     1     -19.212 -10.592  -3.515  1.00  0.00     0.129 C 
HETATM    3  C   UNL     1     -20.017 -11.548  -2.953  1.00  0.00     0.186 C 
HETATM    4  C   UNL     1     -19.517 -11.757  -1.581  1.00  0.00     0.321 C 
HETATM    5  O   UNL     1     -19.998 -12.500  -0.768  1.00  0.00    -0.257 OA
HETATM    6  O   UNL     1     -18.422 -10.969  -1.391  1.00  0.00    -0.301 OA
ENDROOT
BRANCH   1   7
HETATM    7  C   UNL     1     -16.590 -10.712  -3.019  1.00  0.00     0.192 C 
BRANCH   7   8
HETATM    8  C   UNL     1     -15.567 -10.844  -1.850  1.00  0.00     0.214 C 
BRANCH   8   9
HETATM    9  O   UNL     1     -15.522 -12.221  -1.343  1.00  0.00    -0.319 OA
BRANCH   9  10
HETATM   10  C   UNL     1     -15.690 -12.461  -0.009  1.00  0.00     0.263 C 
HETATM   11  O   UNL     1     -15.506 -11.600   0.843  1.00  0.00    -0.265 OA
BRANCH  10  12
HETATM   12  C   UNL     1     -15.988 -13.949   0.339  1.00  0.00     0.085 C 
BRANCH  12  13
HETATM   13  C   UNL     1     -14.708 -14.813   0.084  1.00  0.00     0.014 C 
BRANCH  13  14
HETATM   14  C   UNL     1     -13.347 -14.566   0.788  1.00  0.00     0.001 C 
BRANCH  14  15
HETATM   15  C   UNL     1     -12.250 -15.641   0.687  1.00  0.00     0.000 C 
BRANCH  15  16
HETATM   16  C   UNL     1     -10.840 -15.004   0.666  1.00  0.00     0.000 C 
BRANCH  16  17
HETATM   17  C   UNL     1     -10.868 -13.497   0.953  1.00  0.00     0.000 C 
BRANCH  17  18
HETATM   18  C   UNL     1      -9.779 -13.106   1.958  1.00  0.00    -0.000 C 
BRANCH  18  19
HETATM   19  C   UNL     1      -9.446 -14.250   2.916  1.00  0.00    -0.005 C 
HETATM   20  C   UNL     1      -9.039 -13.718   4.280  1.00  0.00     0.005 C 
ENDBRANCH  18  19
ENDBRANCH  17  18
ENDBRANCH  16  17
ENDBRANCH  15  16
ENDBRANCH  14  15
ENDBRANCH  13  14
ENDBRANCH  12  13
BRANCH  12  21
HETATM   21  C   UNL     1     -16.749 -14.150   1.681  1.00  0.00     0.014 C 
BRANCH  21  22
HETATM   22  C   UNL     1     -16.975 -15.511   2.377  1.00  0.00     0.001 C 
BRANCH  22  23
HETATM   23  C   UNL     1     -18.350 -16.203   2.481  1.00  0.00     0.000 C 
BRANCH  23  24
HETATM   24  C   UNL     1     -19.581 -15.767   1.662  1.00  0.00    -0.000 C 
BRANCH  24  25
HETATM   25  C   UNL     1     -19.678 -16.044   0.156  1.00  0.00    -0.005 C 
HETATM   26  C   UNL     1     -20.643 -17.144  -0.269  1.00  0.00     0.005 C 
ENDBRANCH  24  25
ENDBRANCH  23  24
ENDBRANCH  22  23
ENDBRANCH  21  22
ENDBRANCH  12  21
ENDBRANCH  10  12
ENDBRANCH   9  10
ENDBRANCH   8   9
ENDBRANCH   7   8
BRANCH   7  27
HETATM   27  O   UNL     1     -16.122  -9.719  -3.966  1.00  0.00    -0.310 OA
BRANCH  27  28
HETATM   28  C   UNL     1     -15.945 -10.090  -5.273  1.00  0.00     0.263 C 
HETATM   29  O   UNL     1     -15.900  -9.337  -6.240  1.00  0.00    -0.265 OA
BRANCH  28  30
HETATM   30  C   UNL     1     -15.808 -11.599  -5.387  1.00  0.00     0.085 C 
BRANCH  30  31
HETATM   31  C   UNL     1     -16.383 -12.031  -6.731  1.00  0.00     0.014 C 
BRANCH  31  32
HETATM   32  C   UNL     1     -17.617 -12.912  -6.569  1.00  0.00     0.001 C 
BRANCH  32  33
HETATM   33  C   UNL     1     -18.015 -13.556  -7.887  1.00  0.00     0.000 C 
BRANCH  33  34
HETATM   34  C   UNL     1     -19.422 -14.130  -7.767  1.00  0.00    -0.000 C 
BRANCH  34  35
HETATM   35  C   UNL     1     -20.240 -13.369  -6.734  1.00  0.00    -0.005 C 
HETATM   36  C   UNL     1     -21.694 -13.807  -6.774  1.00  0.00     0.005 C 
ENDBRANCH  34  35
ENDBRANCH  33  34
ENDBRANCH  32  33
ENDBRANCH  31  32
ENDBRANCH  30  31
BRANCH  30  37
HETATM   37  C   UNL     1     -14.359 -12.065  -5.221  1.00  0.00     0.014 C 
BRANCH  37  38
HETATM   38  C   UNL     1     -13.840 -12.651  -6.508  1.00  0.00     0.001 C 
BRANCH  38  39
HETATM   39  C   UNL     1     -13.284 -14.021  -6.258  1.00  0.00     0.000 C 
BRANCH  39  40
HETATM   40  C   UNL     1     -14.463 -14.940  -6.135  1.00  0.00     0.000 C 
BRANCH  40  41
HETATM   41  C   UNL     1     -14.346 -15.641  -4.837  1.00  0.00     0.000 C 
BRANCH  41  42
HETATM   42  C   UNL     1     -12.892 -15.682  -4.474  1.00  0.00    -0.000 C 
BRANCH  42  43
HETATM   43  C   UNL     1     -12.843 -15.514  -2.999  1.00  0.00    -0.005 C 
HETATM   44  C   UNL     1     -12.571 -14.073  -2.705  1.00  0.00     0.005 C 
ENDBRANCH  42  43
ENDBRANCH  41  42
ENDBRANCH  40  41
ENDBRANCH  39  40
ENDBRANCH  38  39
ENDBRANCH  37  38
ENDBRANCH  30  37
ENDBRANCH  28  30
ENDBRANCH  27  28
ENDBRANCH   7  27
ENDBRANCH   1   7
BRANCH   2  45
HETATM   45  O   UNL     1     -19.258 -10.184  -4.840  1.00  0.00    -0.277 OA
BRANCH  45  46
HETATM   46  C   UNL     1     -20.378  -9.486  -5.289  1.00  0.00     0.268 C 
HETATM   47  O   UNL     1     -21.260 -10.010  -5.947  1.00  0.00    -0.264 OA
BRANCH  46  48
HETATM   48  C   UNL     1     -20.322  -8.027  -4.815  1.00  0.00     0.086 C 
BRANCH  48  49
HETATM   49  C   UNL     1     -20.852  -7.065  -5.890  1.00  0.00     0.014 C 
BRANCH  49  50
HETATM   50  C   UNL     1     -19.898  -6.124  -6.630  1.00  0.00     0.001 C 
BRANCH  50  51
HETATM   51  C   UNL     1     -20.336  -4.681  -6.868  1.00  0.00     0.000 C 
BRANCH  51  52
HETATM   52  C   UNL     1     -19.688  -4.063  -8.104  1.00  0.00    -0.000 C 
BRANCH  52  53
HETATM   53  C   UNL     1     -20.426  -4.270  -9.435  1.00  0.00    -0.005 C 
HETATM   54  C   UNL     1     -21.923  -4.541  -9.342  1.00  0.00     0.005 C 
ENDBRANCH  52  53
ENDBRANCH  51  52
ENDBRANCH  50  51
ENDBRANCH  49  50
ENDBRANCH  48  49
BRANCH  48  55
HETATM   55  C   UNL     1     -21.008  -7.708  -3.484  1.00  0.00     0.014 C 
BRANCH  55  56
HETATM   56  C   UNL     1     -21.293  -6.238  -3.246  1.00  0.00     0.001 C 
BRANCH  56  57
HETATM   57  C   UNL     1     -22.128  -6.113  -1.969  1.00  0.00     0.000 C 
BRANCH  57  58
HETATM   58  C   UNL     1     -22.395  -7.498  -1.411  1.00  0.00     0.000 C 
BRANCH  58  59
HETATM   59  C   UNL     1     -22.080  -7.538   0.075  1.00  0.00     0.000 C 
BRANCH  59  60
HETATM   60  C   UNL     1     -23.137  -8.340   0.821  1.00  0.00    -0.000 C 
BRANCH  60  61
HETATM   61  C   UNL     1     -23.577  -9.536  -0.015  1.00  0.00    -0.005 C 
HETATM   62  C   UNL     1     -22.639 -10.708   0.177  1.00  0.00     0.005 C 
ENDBRANCH  60  61
ENDBRANCH  59  60
ENDBRANCH  58  59
ENDBRANCH  57  58
ENDBRANCH  56  57
ENDBRANCH  55  56
ENDBRANCH  48  55
ENDBRANCH  46  48
ENDBRANCH  45  46
ENDBRANCH   2  45
BRANCH   3  63
HETATM   63  O   UNL     1     -20.934 -12.446  -3.559  1.00  0.00    -0.270 OA
BRANCH  63  64
HETATM   64  C   UNL     1     -22.283 -12.366  -3.259  1.00  0.00     0.268 C 
HETATM   65  O   UNL     1     -22.917 -11.328  -3.347  1.00  0.00    -0.264 OA
BRANCH  64  66
HETATM   66  C   UNL     1     -22.868 -13.749  -2.921  1.00  0.00     0.086 C 
BRANCH  66  67
HETATM   67  C   UNL     1     -21.705 -14.758  -2.739  1.00  0.00     0.014 C 
BRANCH  67  68
HETATM   68  C   UNL     1     -21.678 -15.985  -3.681  1.00  0.00     0.001 C 
BRANCH  68  69
HETATM   69  C   UNL     1     -20.383 -16.201  -4.471  1.00  0.00     0.000 C 
BRANCH  69  70
HETATM   70  C   UNL     1     -19.144 -16.376  -3.567  1.00  0.00    -0.000 C 
BRANCH  70  71
HETATM   71  C   UNL     1     -17.841 -15.696  -4.008  1.00  0.00    -0.005 C 
HETATM   72  C   UNL     1     -17.607 -14.346  -3.359  1.00  0.00     0.005 C 
ENDBRANCH  70  71
ENDBRANCH  69  70
ENDBRANCH  68  69
ENDBRANCH  67  68
ENDBRANCH  66  67
BRANCH  66  73
HETATM   73  C   UNL     1     -23.673 -13.684  -1.619  1.00  0.00     0.014 C 
BRANCH  73  74
HETATM   74  C   UNL     1     -24.437 -14.951  -1.251  1.00  0.00     0.001 C 
BRANCH  74  75
HETATM   75  C   UNL     1     -24.113 -15.295   0.214  1.00  0.00     0.000 C 
BRANCH  75  76
HETATM   76  C   UNL     1     -22.991 -14.442   0.787  1.00  0.00     0.000 C 
BRANCH  76  77
HETATM   77  C   UNL     1     -23.340 -13.876   2.197  1.00  0.00     0.000 C 
BRANCH  77  78
HETATM   78  C   UNL     1     -22.789 -14.743   3.345  1.00  0.00    -0.000 C 
BRANCH  78  79
HETATM   79  C   UNL     1     -23.653 -15.716   4.175  1.00  0.00    -0.005 C 
HETATM   80  C   UNL     1     -25.157 -15.370   4.365  1.00  0.00     0.005 C 
ENDBRANCH  78  79
ENDBRANCH  77  78
ENDBRANCH  76  77
ENDBRANCH  75  76
ENDBRANCH  74  75
ENDBRANCH  73  74
ENDBRANCH  66  73
ENDBRANCH  64  66
ENDBRANCH  63  64
ENDBRANCH   3  63
TORSDOF 62
BEGIN_RES ARG D 557
REMARK  4 active torsions:
REMARK  status: ('A' for Active; 'I' for Inactive)
REMARK    1  A    between atoms: CA   and  CB  
REMARK    2  A    between atoms: CB   and  CG  
REMARK    3  A    between atoms: CG   and  CD  
REMARK    4  A    between atoms: CD   and  NE  
REMARK       I    between atoms: NE   and  CZ  
REMARK       I    between atoms: CZ   and  NH1 
REMARK       I    between atoms: CZ   and  NH2 
ROOT
ATOM      1  CA  ARG D 557     -26.217   2.705 -17.014  1.00 35.49     0.159 C 
ENDROOT
BRANCH   1   2
ATOM      2  CB  ARG D 557     -26.789   1.319 -17.183  1.00 35.49     0.034 C 
BRANCH   2   3
ATOM      3  CG  ARG D 557     -25.854   0.196 -17.038  1.00 35.49     0.027 C 
BRANCH   3   4
ATOM      4  CD  ARG D 557     -26.214  -0.695 -15.912  1.00 35.49     0.116 C 
BRANCH   4   5
ATOM      5  NE  ARG D 557     -25.127  -0.863 -14.983  1.00 35.49    -0.212 N 
ATOM      6  CZ  ARG D 557     -24.803  -1.981 -14.374  1.00 35.49     0.666 C 
ATOM      7  NH1 ARG D 557     -25.476  -3.104 -14.546  1.00 35.49    -0.235 N 
ATOM      8  NH2 ARG D 557     -23.772  -1.955 -13.580  1.00 35.49    -0.235 N 
ATOM      9  HH  ARG D 557     -26.157  -3.144 -15.066  1.00 35.49     0.174 HD
ATOM     10  HH  ARG D 557     -25.217  -3.803 -14.124  1.00 35.49     0.174 HD
ATOM     11  HH  ARG D 557     -23.352  -1.218 -13.494  1.00 35.49     0.174 HD
ATOM     12  HH  ARG D 557     -23.530  -2.658 -13.172  1.00 35.49     0.174 HD
ATOM     13  HE  ARG D 557     -24.685  -0.172 -14.758  1.00 35.49     0.178 HD
ENDBRANCH   4   5
ENDBRANCH   3   4
ENDBRANCH   2   3
ENDBRANCH   1   2
END_RES ARG D 557
BEGIN_RES GLU D 570
REMARK  3 active torsions:
REMARK  status: ('A' for Active; 'I' for Inactive)
REMARK    5  A    between atoms: CA   and  CB  
REMARK    6  A    between atoms: CB   and  CG  
REMARK    7  A    between atoms: CG   and  CD  
ROOT
ATOM     14  CA  GLU D 570     -18.033  -6.348 -13.375  1.00 32.92     0.160 C 
ENDROOT
BRANCH  14  15
ATOM     15  CB  GLU D 570     -19.500  -6.345 -13.794  1.00 32.92     0.043 C 
BRANCH  15  16
ATOM     16  CG  GLU D 570     -20.446  -5.552 -12.968  1.00 32.92     0.100 C 
BRANCH  16  17
ATOM     17  CD  GLU D 570     -21.659  -5.089 -13.741  1.00 32.92     0.185 C 
ATOM     18  OE1 GLU D 570     -21.568  -4.935 -14.974  1.00 32.92    -0.647 OA
ATOM     19  OE2 GLU D 570     -22.706  -4.860 -13.104  1.00 32.92    -0.647 OA
ENDBRANCH  16  17
ENDBRANCH  15  16
ENDBRANCH  14  15
END_RES GLU D 570
ENDMDL
MODEL 3
REMARK VINA RESULT:      -5.6      1.417      3.213
REMARK WARNING: 32 MAX_TORS EXCEEDED!!!
REMARK  62 active torsions:
REMARK  status: ('A' for Active; 'I' for Inactive)
REMARK    1  A    between atoms: C_2  and  C_3 
REMARK    2  A    between atoms: C_3  and  C_4 
REMARK    3  A    between atoms: C_4  and  C_5 
REMARK    4  A    between atoms: C_5  and  C_6 
REMARK    5  A    between atoms: C_6  and  C_7 
REMARK    6  A    between atoms: C_7  and  C_8 
REMARK    7  A    between atoms: C_8  and  C_9 
REMARK    8  A    between atoms: C_9  and  C_10 
REMARK    9  A    between atoms: C_9  and  C_16 
REMARK   10  A    between atoms: C_10  and  C_11 
REMARK   11  A    between atoms: C_11  and  C_12 
REMARK   12  A    between atoms: C_12  and  C_13 
REMARK   13  A    between atoms: C_13  and  C_14 
REMARK   14  A    between atoms: C_16  and  O_18 
REMARK   15  A    between atoms: O_18  and  C_19 
REMARK   16  A    between atoms: C_19  and  C_20 
REMARK   17  A    between atoms: C_20  and  C_21 
REMARK   18  A    between atoms: C_20  and  O_63 
REMARK   19  A    between atoms: C_22  and  O_45 
REMARK   20  A    between atoms: C_23  and  O_27 
REMARK   21  A    between atoms: O_27  and  C_28 
REMARK   22  A    between atoms: C_28  and  C_30 
REMARK   23  A    between atoms: C_30  and  C_31 
REMARK   24  A    between atoms: C_30  and  C_37 
REMARK   25  A    between atoms: C_31  and  C_32 
REMARK   26  A    between atoms: C_32  and  C_33 
REMARK   27  A    between atoms: C_33  and  C_34 
REMARK   28  A    between atoms: C_34  and  C_35 
REMARK   29  A    between atoms: C_37  and  C_38 
REMARK   30  A    between atoms: C_38  and  C_39 
REMARK   31  A    between atoms: C_39  and  C_40 
REMARK   32  A    between atoms: C_40  and  C_41 
REMARK   33  A    between atoms: C_41  and  C_42 
REMARK   34  A    between atoms: C_42  and  C_43 
REMARK   35  A    between atoms: O_45  and  C_46 
REMARK   36  A    between atoms: C_46  and  C_48 
REMARK   37  A    between atoms: C_48  and  C_49 
REMARK   38  A    between atoms: C_48  and  C_55 
REMARK   39  A    between atoms: C_49  and  C_50 
REMARK   40  A    between atoms: C_50  and  C_51 
REMARK   41  A    between atoms: C_51  and  C_52 
REMARK   42  A    between atoms: C_52  and  C_53 
REMARK   43  A    between atoms: C_55  and  C_56 
REMARK   44  A    between atoms: C_56  and  C_57 
REMARK   45  A    between atoms: C_57  and  C_58 
REMARK   46  A    between atoms: C_58  and  C_59 
REMARK   47  A    between atoms: C_59  and  C_60 
REMARK   48  A    between atoms: C_60  and  C_61 
REMARK   49  A    between atoms: O_63  and  C_64 
REMARK   50  A    between atoms: C_64  and  C_66 
REMARK   51  A    between atoms: C_66  and  C_67 
REMARK   52  A    between atoms: C_66  and  C_73 
REMARK   53  A    between atoms: C_67  and  C_68 
REMARK   54  A    between atoms: C_68  and  C_69 
REMARK   55  A    between atoms: C_69  and  C_70 
REMARK   56  A    between atoms: C_70  and  C_71 
REMARK   57  A    between atoms: C_73  and  C_74 
REMARK   58  A    between atoms: C_74  and  C_75 
REMARK   59  A    between atoms: C_75  and  C_76 
REMARK   60  A    between atoms: C_76  and  C_77 
REMARK   61  A    between atoms: C_77  and  C_78 
REMARK   62  A    between atoms: C_78  and  C_79 
ROOT
HETATM    1  C   UNL     1     -19.966  -9.314  -5.719  1.00  0.00     0.224 C 
HETATM    2  C   UNL     1     -19.008 -10.372  -5.238  1.00  0.00     0.129 C 
HETATM    3  C   UNL     1     -19.617 -11.599  -5.238  1.00  0.00     0.186 C 
HETATM    4  C   UNL     1     -20.927 -11.411  -5.890  1.00  0.00     0.321 C 
HETATM    5  O   UNL     1     -21.732 -12.278  -6.105  1.00  0.00    -0.257 OA
HETATM    6  O   UNL     1     -21.073 -10.093  -6.206  1.00  0.00    -0.301 OA
ENDROOT
BRANCH   1   7
HETATM    7  C   UNL     1     -20.507  -8.228  -4.699  1.00  0.00     0.192 C 
BRANCH   7   8
HETATM    8  C   UNL     1     -21.281  -8.788  -3.467  1.00  0.00     0.214 C 
BRANCH   8   9
HETATM    9  O   UNL     1     -21.207  -7.858  -2.332  1.00  0.00    -0.319 OA
BRANCH   9  10
HETATM   10  C   UNL     1     -21.906  -8.122  -1.190  1.00  0.00     0.263 C 
HETATM   11  O   UNL     1     -22.298  -7.236  -0.438  1.00  0.00    -0.265 OA
BRANCH  10  12
HETATM   12  C   UNL     1     -22.032  -9.637  -0.854  1.00  0.00     0.085 C 
BRANCH  12  13
HETATM   13  C   UNL     1     -20.735 -10.121  -0.122  1.00  0.00     0.014 C 
BRANCH  13  14
HETATM   14  C   UNL     1     -20.736 -11.140   1.048  1.00  0.00     0.001 C 
BRANCH  14  15
HETATM   15  C   UNL     1     -21.041 -12.618   0.748  1.00  0.00     0.000 C 
BRANCH  15  16
HETATM   16  C   UNL     1     -22.177 -13.152   1.654  1.00  0.00     0.000 C 
BRANCH  16  17
HETATM   17  C   UNL     1     -21.965 -14.613   2.069  1.00  0.00     0.000 C 
BRANCH  17  18
HETATM   18  C   UNL     1     -21.138 -15.370   1.025  1.00  0.00    -0.000 C 
BRANCH  18  19
HETATM   19  C   UNL     1     -20.368 -16.539   1.641  1.00  0.00    -0.005 C 
HETATM   20  C   UNL     1     -19.043 -16.072   2.222  1.00  0.00     0.005 C 
ENDBRANCH  18  19
ENDBRANCH  17  18
ENDBRANCH  16  17
ENDBRANCH  15  16
ENDBRANCH  14  15
ENDBRANCH  13  14
ENDBRANCH  12  13
BRANCH  12  21
HETATM   21  C   UNL     1     -23.406 -10.045  -0.250  1.00  0.00     0.014 C 
BRANCH  21  22
HETATM   22  C   UNL     1     -24.202 -11.313  -0.631  1.00  0.00     0.001 C 
BRANCH  22  23
HETATM   23  C   UNL     1     -23.787 -12.279  -1.759  1.00  0.00     0.000 C 
BRANCH  23  24
HETATM   24  C   UNL     1     -23.600 -13.795  -1.550  1.00  0.00    -0.000 C 
BRANCH  24  25
HETATM   25  C   UNL     1     -24.730 -14.669  -0.991  1.00  0.00    -0.005 C 
HETATM   26  C   UNL     1     -24.368 -16.111  -0.657  1.00  0.00     0.005 C 
ENDBRANCH  24  25
ENDBRANCH  23  24
ENDBRANCH  22  23
ENDBRANCH  21  22
ENDBRANCH  12  21
ENDBRANCH  10  12
ENDBRANCH   9  10
ENDBRANCH   8   9
ENDBRANCH   7   8
BRANCH   7  27
HETATM   27  O   UNL     1     -21.373  -7.345  -5.456  1.00  0.00    -0.310 OA
BRANCH  27  28
HETATM   28  C   UNL     1     -21.022  -6.026  -5.575  1.00  0.00     0.263 C 
HETATM   29  O   UNL     1     -20.643  -5.293  -4.668  1.00  0.00    -0.265 OA
BRANCH  28  30
HETATM   30  C   UNL     1     -21.165  -5.562  -7.015  1.00  0.00     0.085 C 
BRANCH  30  31
HETATM   31  C   UNL     1     -21.817  -4.184  -7.011  1.00  0.00     0.014 C 
BRANCH  31  32
HETATM   32  C   UNL     1     -23.171  -4.190  -7.712  1.00  0.00     0.001 C 
BRANCH  32  33
HETATM   33  C   UNL     1     -23.272  -5.330  -8.711  1.00  0.00     0.000 C 
BRANCH  33  34
HETATM   34  C   UNL     1     -24.095  -4.880  -9.913  1.00  0.00    -0.000 C 
BRANCH  34  35
HETATM   35  C   UNL     1     -24.419  -3.395  -9.833  1.00  0.00    -0.005 C 
HETATM   36  C   UNL     1     -25.920  -3.179  -9.748  1.00  0.00     0.005 C 
ENDBRANCH  34  35
ENDBRANCH  33  34
ENDBRANCH  32  33
ENDBRANCH  31  32
ENDBRANCH  30  31
BRANCH  30  37
HETATM   37  C   UNL     1     -19.825  -5.546  -7.755  1.00  0.00     0.014 C 
BRANCH  37  38
HETATM   38  C   UNL     1     -19.734  -4.345  -8.660  1.00  0.00     0.001 C 
BRANCH  38  39
HETATM   39  C   UNL     1     -19.869  -4.773 -10.092  1.00  0.00     0.000 C 
BRANCH  39  40
HETATM   40  C   UNL     1     -20.613  -3.673 -10.792  1.00  0.00     0.000 C 
BRANCH  40  41
HETATM   41  C   UNL     1     -21.378  -4.291 -11.898  1.00  0.00     0.000 C 
BRANCH  41  42
HETATM   42  C   UNL     1     -22.173  -3.206 -12.561  1.00  0.00    -0.000 C 
BRANCH  42  43
HETATM   43  C   UNL     1     -22.719  -3.811 -13.802  1.00  0.00    -0.005 C 
HETATM   44  C   UNL     1     -23.107  -5.223 -13.500  1.00  0.00     0.005 C 
ENDBRANCH  42  43
ENDBRANCH  41  42
ENDBRANCH  40  41
ENDBRANCH  39  40
ENDBRANCH  38  39
ENDBRANCH  37  38
ENDBRANCH  30  37
ENDBRANCH  28  30
ENDBRANCH  27  28
ENDBRANCH   7  27
ENDBRANCH   1   7
BRANCH   2  45
HETATM   45  O   UNL     1     -17.806 -10.074  -4.612  1.00  0.00    -0.277 OA
BRANCH  45  46
HETATM   46  C   UNL     1     -16.616 -10.303  -5.301  1.00  0.00     0.268 C 
HETATM   47  O   UNL     1     -16.140  -9.495  -6.080  1.00  0.00    -0.264 OA
BRANCH  46  48
HETATM   48  C   UNL     1     -16.029 -11.667  -4.910  1.00  0.00     0.086 C 
BRANCH  48  49
HETATM   49  C   UNL     1     -15.639 -12.489  -6.150  1.00  0.00     0.014 C 
BRANCH  49  50
HETATM   50  C   UNL     1     -16.566 -13.587  -6.678  1.00  0.00     0.001 C 
BRANCH  50  51
HETATM   51  C   UNL     1     -16.989 -14.703  -5.727  1.00  0.00     0.000 C 
BRANCH  51  52
HETATM   52  C   UNL     1     -15.877 -15.718  -5.474  1.00  0.00    -0.000 C 
BRANCH  52  53
HETATM   53  C   UNL     1     -14.871 -15.924  -6.616  1.00  0.00    -0.005 C 
HETATM   54  C   UNL     1     -13.397 -15.792  -6.249  1.00  0.00     0.005 C 
ENDBRANCH  52  53
ENDBRANCH  51  52
ENDBRANCH  50  51
ENDBRANCH  49  50
ENDBRANCH  48  49
BRANCH  48  55
HETATM   55  C   UNL     1     -14.849 -11.654  -3.935  1.00  0.00     0.014 C 
BRANCH  55  56
HETATM   56  C   UNL     1     -13.710 -12.588  -4.295  1.00  0.00     0.001 C 
BRANCH  56  57
HETATM   57  C   UNL     1     -13.352 -13.407  -3.052  1.00  0.00     0.000 C 
BRANCH  57  58
HETATM   58  C   UNL     1     -14.478 -14.379  -2.754  1.00  0.00     0.000 C 
BRANCH  58  59
HETATM   59  C   UNL     1     -14.415 -14.832  -1.305  1.00  0.00     0.000 C 
BRANCH  59  60
HETATM   60  C   UNL     1     -13.140 -14.326  -0.645  1.00  0.00    -0.000 C 
BRANCH  60  61
HETATM   61  C   UNL     1     -12.494 -15.440   0.171  1.00  0.00    -0.005 C 
HETATM   62  C   UNL     1     -12.073 -14.940   1.536  1.00  0.00     0.005 C 
ENDBRANCH  60  61
ENDBRANCH  59  60
ENDBRANCH  58  59
ENDBRANCH  57  58
ENDBRANCH  56  57
ENDBRANCH  55  56
ENDBRANCH  48  55
ENDBRANCH  46  48
ENDBRANCH  45  46
ENDBRANCH   2  45
BRANCH   3  63
HETATM   63  O   UNL     1     -19.307 -12.777  -4.510  1.00  0.00    -0.270 OA
BRANCH  63  64
HETATM   64  C   UNL     1     -19.472 -12.806  -3.136  1.00  0.00     0.268 C 
HETATM   65  O   UNL     1     -20.538 -12.565  -2.595  1.00  0.00    -0.264 OA
BRANCH  64  66
HETATM   66  C   UNL     1     -18.192 -13.281  -2.425  1.00  0.00     0.086 C 
BRANCH  66  67
HETATM   67  C   UNL     1     -17.546 -12.077  -1.693  1.00  0.00     0.014 C 
BRANCH  67  68
HETATM   68  C   UNL     1     -17.327 -12.210  -0.167  1.00  0.00     0.001 C 
BRANCH  68  69
HETATM   69  C   UNL     1     -15.913 -11.911   0.340  1.00  0.00     0.000 C 
BRANCH  69  70
HETATM   70  C   UNL     1     -15.592 -12.598   1.685  1.00  0.00    -0.000 C 
BRANCH  70  71
HETATM   71  C   UNL     1     -16.028 -14.058   1.858  1.00  0.00    -0.005 C 
HETATM   72  C   UNL     1     -15.499 -14.708   3.122  1.00  0.00     0.005 C 
ENDBRANCH  70  71
ENDBRANCH  69  70
ENDBRANCH  68  69
ENDBRANCH  67  68
ENDBRANCH  66  67
BRANCH  66  73
HETATM   73  C   UNL     1     -18.526 -14.364  -1.394  1.00  0.00     0.014 C 
BRANCH  73  74
HETATM   74  C   UNL     1     -17.986 -15.756  -1.702  1.00  0.00     0.001 C 
BRANCH  74  75
HETATM   75  C   UNL     1     -18.903 -16.402  -2.757  1.00  0.00     0.000 C 
BRANCH  75  76
HETATM   76  C   UNL     1     -20.377 -16.311  -2.392  1.00  0.00     0.000 C 
BRANCH  76  77
HETATM   77  C   UNL     1     -21.272 -15.976  -3.625  1.00  0.00     0.000 C 
BRANCH  77  78
HETATM   78  C   UNL     1     -22.501 -16.898  -3.742  1.00  0.00    -0.000 C 
BRANCH  78  79
HETATM   79  C   UNL     1     -23.846 -16.459  -4.359  1.00  0.00    -0.005 C 
HETATM   80  C   UNL     1     -23.902 -15.078  -5.072  1.00  0.00     0.005 C 
ENDBRANCH  78  79
ENDBRANCH  77  78
ENDBRANCH  76  77
ENDBRANCH  75  76
ENDBRANCH  74  75
ENDBRANCH  73  74
ENDBRANCH  66  73
ENDBRANCH  64  66
ENDBRANCH  63  64
ENDBRANCH   3  63
TORSDOF 62
BEGIN_RES ARG D 557
REMARK  4 active torsions:
REMARK  status: ('A' for Active; 'I' for Inactive)
REMARK    1  A    between atoms: CA   and  CB  
REMARK    2  A    between atoms: CB   and  CG  
REMARK    3  A    between atoms: CG   and  CD  
REMARK    4  A    between atoms: CD   and  NE  
REMARK       I    between atoms: NE   and  CZ  
REMARK       I    between atoms: CZ   and  NH1 
REMARK       I    between atoms: CZ   and  NH2 
ROOT
ATOM      1  CA  ARG D 557     -26.217   2.705 -17.014  1.00 35.49     0.159 C 
ENDROOT
BRANCH   1   2
ATOM      2  CB  ARG D 557     -26.789   1.319 -17.183  1.00 35.49     0.034 C 
BRANCH   2   3
ATOM      3  CG  ARG D 557     -28.231   1.226 -17.439  1.00 35.49     0.027 C 
BRANCH   3   4
ATOM      4  CD  ARG D 557     -28.913   0.304 -16.502  1.00 35.49     0.116 C 
BRANCH   4   5
ATOM      5  NE  ARG D 557     -29.328  -0.914 -17.146  1.00 35.49    -0.212 N 
ATOM      6  CZ  ARG D 557     -28.723  -2.077 -17.052  1.00 35.49     0.666 C 
ATOM      7  NH1 ARG D 557     -27.623  -2.249 -16.341  1.00 35.49    -0.235 N 
ATOM      8  NH2 ARG D 557     -29.252  -3.082 -17.687  1.00 35.49    -0.235 N 
ATOM      9  HH  ARG D 557     -27.259  -1.602 -15.914  1.00 35.49     0.174 HD
ATOM     10  HH  ARG D 557     -27.274  -3.031 -16.315  1.00 35.49     0.174 HD
ATOM     11  HH  ARG D 557     -29.966  -2.943 -18.132  1.00 35.49     0.174 HD
ATOM     12  HH  ARG D 557     -28.892  -3.849 -17.647  1.00 35.49     0.174 HD
ATOM     13  HE  ARG D 557     -29.987  -0.878 -17.682  1.00 35.49     0.178 HD
ENDBRANCH   4   5
ENDBRANCH   3   4
ENDBRANCH   2   3
ENDBRANCH   1   2
END_RES ARG D 557
BEGIN_RES GLU D 570
REMARK  3 active torsions:
REMARK  status: ('A' for Active; 'I' for Inactive)
REMARK    5  A    between atoms: CA   and  CB  
REMARK    6  A    between atoms: CB   and  CG  
REMARK    7  A    between atoms: CG   and  CD  
ROOT
ATOM     14  CA  GLU D 570     -18.033  -6.348 -13.375  1.00 32.92     0.160 C 
ENDROOT
BRANCH  14  15
ATOM     15  CB  GLU D 570     -19.500  -6.345 -13.794  1.00 32.92     0.043 C 
BRANCH  15  16
ATOM     16  CG  GLU D 570     -20.103  -7.645 -14.185  1.00 32.92     0.100 C 
BRANCH  16  17
ATOM     17  CD  GLU D 570     -20.632  -7.648 -15.600  1.00 32.92     0.185 C 
ATOM     18  OE1 GLU D 570     -20.964  -6.567 -16.124  1.00 32.92    -0.647 OA
ATOM     19  OE2 GLU D 570     -20.733  -8.744 -16.185  1.00 32.92    -0.647 OA
ENDBRANCH  16  17
ENDBRANCH  15  16
ENDBRANCH  14  15
END_RES GLU D 570
ENDMDL
MODEL 4
REMARK VINA RESULT:      -5.6      2.762      7.825
REMARK WARNING: 32 MAX_TORS EXCEEDED!!!
REMARK  62 active torsions:
REMARK  status: ('A' for Active; 'I' for Inactive)
REMARK    1  A    between atoms: C_2  and  C_3 
REMARK    2  A    between atoms: C_3  and  C_4 
REMARK    3  A    between atoms: C_4  and  C_5 
REMARK    4  A    between atoms: C_5  and  C_6 
REMARK    5  A    between atoms: C_6  and  C_7 
REMARK    6  A    between atoms: C_7  and  C_8 
REMARK    7  A    between atoms: C_8  and  C_9 
REMARK    8  A    between atoms: C_9  and  C_10 
REMARK    9  A    between atoms: C_9  and  C_16 
REMARK   10  A    between atoms: C_10  and  C_11 
REMARK   11  A    between atoms: C_11  and  C_12 
REMARK   12  A    between atoms: C_12  and  C_13 
REMARK   13  A    between atoms: C_13  and  C_14 
REMARK   14  A    between atoms: C_16  and  O_18 
REMARK   15  A    between atoms: O_18  and  C_19 
REMARK   16  A    between atoms: C_19  and  C_20 
REMARK   17  A    between atoms: C_20  and  C_21 
REMARK   18  A    between atoms: C_20  and  O_63 
REMARK   19  A    between atoms: C_22  and  O_45 
REMARK   20  A    between atoms: C_23  and  O_27 
REMARK   21  A    between atoms: O_27  and  C_28 
REMARK   22  A    between atoms: C_28  and  C_30 
REMARK   23  A    between atoms: C_30  and  C_31 
REMARK   24  A    between atoms: C_30  and  C_37 
REMARK   25  A    between atoms: C_31  and  C_32 
REMARK   26  A    between atoms: C_32  and  C_33 
REMARK   27  A    between atoms: C_33  and  C_34 
REMARK   28  A    between atoms: C_34  and  C_35 
REMARK   29  A    between atoms: C_37  and  C_38 
REMARK   30  A    between atoms: C_38  and  C_39 
REMARK   31  A    between atoms: C_39  and  C_40 
REMARK   32  A    between atoms: C_40  and  C_41 
REMARK   33  A    between atoms: C_41  and  C_42 
REMARK   34  A    between atoms: C_42  and  C_43 
REMARK   35  A    between atoms: O_45  and  C_46 
REMARK   36  A    between atoms: C_46  and  C_48 
REMARK   37  A    between atoms: C_48  and  C_49 
REMARK   38  A    between atoms: C_48  and  C_55 
REMARK   39  A    between atoms: C_49  and  C_50 
REMARK   40  A    between atoms: C_50  and  C_51 
REMARK   41  A    between atoms: C_51  and  C_52 
REMARK   42  A    between atoms: C_52  and  C_53 
REMARK   43  A    between atoms: C_55  and  C_56 
REMARK   44  A    between atoms: C_56  and  C_57 
REMARK   45  A    between atoms: C_57  and  C_58 
REMARK   46  A    between atoms: C_58  and  C_59 
REMARK   47  A    between atoms: C_59  and  C_60 
REMARK   48  A    between atoms: C_60  and  C_61 
REMARK   49  A    between atoms: O_63  and  C_64 
REMARK   50  A    between atoms: C_64  and  C_66 
REMARK   51  A    between atoms: C_66  and  C_67 
REMARK   52  A    between atoms: C_66  and  C_73 
REMARK   53  A    between atoms: C_67  and  C_68 
REMARK   54  A    between atoms: C_68  and  C_69 
REMARK   55  A    between atoms: C_69  and  C_70 
REMARK   56  A    between atoms: C_70  and  C_71 
REMARK   57  A    between atoms: C_73  and  C_74 
REMARK   58  A    between atoms: C_74  and  C_75 
REMARK   59  A    between atoms: C_75  and  C_76 
REMARK   60  A    between atoms: C_76  and  C_77 
REMARK   61  A    between atoms: C_77  and  C_78 
REMARK   62  A    between atoms: C_78  and  C_79 
ROOT
HETATM    1  C   UNL     1     -19.933 -11.948  -2.911  1.00  0.00     0.224 C 
HETATM    2  C   UNL     1     -21.284 -12.608  -3.003  1.00  0.00     0.129 C 
HETATM    3  C   UNL     1     -21.195 -13.770  -3.723  1.00  0.00     0.186 C 
HETATM    4  C   UNL     1     -19.759 -13.999  -3.966  1.00  0.00     0.321 C 
HETATM    5  O   UNL     1     -19.289 -14.947  -4.537  1.00  0.00    -0.257 OA
HETATM    6  O   UNL     1     -19.055 -12.960  -3.435  1.00  0.00    -0.301 OA
ENDROOT
BRANCH   1   7
HETATM    7  C   UNL     1     -19.674 -10.588  -3.683  1.00  0.00     0.192 C 
BRANCH   7   8
HETATM    8  C   UNL     1     -18.614  -9.642  -3.042  1.00  0.00     0.214 C 
BRANCH   8   9
HETATM    9  O   UNL     1     -17.519  -9.365  -3.981  1.00  0.00    -0.319 OA
BRANCH   9  10
HETATM   10  C   UNL     1     -16.239  -9.711  -3.655  1.00  0.00     0.263 C 
HETATM   11  O   UNL     1     -15.672  -9.274  -2.660  1.00  0.00    -0.265 OA
BRANCH  10  12
HETATM   12  C   UNL     1     -15.522 -10.585  -4.726  1.00  0.00     0.085 C 
BRANCH  12  13
HETATM   13  C   UNL     1     -14.877 -11.834  -4.037  1.00  0.00     0.014 C 
BRANCH  13  14
HETATM   14  C   UNL     1     -13.592 -12.535  -4.552  1.00  0.00     0.001 C 
BRANCH  14  15
HETATM   15  C   UNL     1     -13.690 -13.978  -5.079  1.00  0.00     0.000 C 
BRANCH  15  16
HETATM   16  C   UNL     1     -13.314 -15.002  -3.982  1.00  0.00     0.000 C 
BRANCH  16  17
HETATM   17  C   UNL     1     -12.570 -14.362  -2.804  1.00  0.00     0.000 C 
BRANCH  17  18
HETATM   18  C   UNL     1     -13.348 -14.540  -1.496  1.00  0.00    -0.000 C 
BRANCH  18  19
HETATM   19  C   UNL     1     -12.445 -14.403  -0.270  1.00  0.00    -0.005 C 
HETATM   20  C   UNL     1     -12.468 -15.670   0.569  1.00  0.00     0.005 C 
ENDBRANCH  18  19
ENDBRANCH  17  18
ENDBRANCH  16  17
ENDBRANCH  15  16
ENDBRANCH  14  15
ENDBRANCH  13  14
ENDBRANCH  12  13
BRANCH  12  21
HETATM   21  C   UNL     1     -16.352 -10.814  -6.022  1.00  0.00     0.014 C 
BRANCH  21  22
HETATM   22  C   UNL     1     -17.221 -12.059  -6.310  1.00  0.00     0.001 C 
BRANCH  22  23
HETATM   23  C   UNL     1     -18.525 -12.022  -7.133  1.00  0.00     0.000 C 
BRANCH  23  24
HETATM   24  C   UNL     1     -18.849 -13.033  -8.251  1.00  0.00    -0.000 C 
BRANCH  24  25
HETATM   25  C   UNL     1     -17.815 -14.067  -8.717  1.00  0.00    -0.005 C 
HETATM   26  C   UNL     1     -18.278 -15.054  -9.781  1.00  0.00     0.005 C 
ENDBRANCH  24  25
ENDBRANCH  23  24
ENDBRANCH  22  23
ENDBRANCH  21  22
ENDBRANCH  12  21
ENDBRANCH  10  12
ENDBRANCH   9  10
ENDBRANCH   8   9
ENDBRANCH   7   8
BRANCH   7  27
HETATM   27  O   UNL     1     -20.951  -9.906  -3.759  1.00  0.00    -0.310 OA
BRANCH  27  28
HETATM   28  C   UNL     1     -21.274  -9.244  -4.915  1.00  0.00     0.263 C 
HETATM   29  O   UNL     1     -21.146  -9.676  -6.056  1.00  0.00    -0.265 OA
BRANCH  28  30
HETATM   30  C   UNL     1     -21.827  -7.864  -4.604  1.00  0.00     0.085 C 
BRANCH  30  31
HETATM   31  C   UNL     1     -21.194  -7.377  -3.305  1.00  0.00     0.014 C 
BRANCH  31  32
HETATM   32  C   UNL     1     -21.949  -6.194  -2.709  1.00  0.00     0.001 C 
BRANCH  32  33
HETATM   33  C   UNL     1     -22.327  -6.452  -1.260  1.00  0.00     0.000 C 
BRANCH  33  34
HETATM   34  C   UNL     1     -21.978  -7.890  -0.893  1.00  0.00    -0.000 C 
BRANCH  34  35
HETATM   35  C   UNL     1     -22.419  -8.218   0.527  1.00  0.00    -0.005 C 
HETATM   36  C   UNL     1     -21.224  -8.252   1.463  1.00  0.00     0.005 C 
ENDBRANCH  34  35
ENDBRANCH  33  34
ENDBRANCH  32  33
ENDBRANCH  31  32
ENDBRANCH  30  31
BRANCH  30  37
HETATM   37  C   UNL     1     -21.590  -6.874  -5.748  1.00  0.00     0.014 C 
BRANCH  37  38
HETATM   38  C   UNL     1     -20.150  -6.434  -5.779  1.00  0.00     0.001 C 
BRANCH  38  39
HETATM   39  C   UNL     1     -20.073  -4.952  -5.992  1.00  0.00     0.000 C 
BRANCH  39  40
HETATM   40  C   UNL     1     -19.285  -4.746  -7.252  1.00  0.00     0.000 C 
BRANCH  40  41
HETATM   41  C   UNL     1     -20.181  -4.093  -8.233  1.00  0.00     0.000 C 
BRANCH  41  42
HETATM   42  C   UNL     1     -21.414  -3.657  -7.500  1.00  0.00    -0.000 C 
BRANCH  42  43
HETATM   43  C   UNL     1     -22.491  -3.608  -8.522  1.00  0.00    -0.005 C 
HETATM   44  C   UNL     1     -22.235  -4.692  -9.519  1.00  0.00     0.005 C 
ENDBRANCH  42  43
ENDBRANCH  41  42
ENDBRANCH  40  41
ENDBRANCH  39  40
ENDBRANCH  38  39
ENDBRANCH  37  38
ENDBRANCH  30  37
ENDBRANCH  28  30
ENDBRANCH  27  28
ENDBRANCH   7  27
ENDBRANCH   1   7
BRANCH   2  45
HETATM   45  O   UNL     1     -22.464 -11.962  -2.665  1.00  0.00    -0.277 OA
BRANCH  45  46
HETATM   46  C   UNL     1     -22.746 -11.741  -1.318  1.00  0.00     0.268 C 
HETATM   47  O   UNL     1     -23.640 -11.002  -0.944  1.00  0.00    -0.264 OA
BRANCH  46  48
HETATM   48  C   UNL     1     -21.799 -12.566  -0.434  1.00  0.00     0.086 C 
BRANCH  48  49
HETATM   49  C   UNL     1     -21.085 -11.684   0.604  1.00  0.00     0.014 C 
BRANCH  49  50
HETATM   50  C   UNL     1     -19.583 -11.411   0.492  1.00  0.00     0.001 C 
BRANCH  50  51
HETATM   51  C   UNL     1     -18.658 -12.566   0.120  1.00  0.00     0.000 C 
BRANCH  51  52
HETATM   52  C   UNL     1     -17.231 -12.111  -0.174  1.00  0.00    -0.000 C 
BRANCH  52  53
HETATM   53  C   UNL     1     -16.106 -12.993   0.384  1.00  0.00    -0.005 C 
HETATM   54  C   UNL     1     -15.891 -12.939   1.893  1.00  0.00     0.005 C 
ENDBRANCH  52  53
ENDBRANCH  51  52
ENDBRANCH  50  51
ENDBRANCH  49  50
ENDBRANCH  48  49
BRANCH  48  55
HETATM   55  C   UNL     1     -22.404 -13.777   0.280  1.00  0.00     0.014 C 
BRANCH  55  56
HETATM   56  C   UNL     1     -23.354 -13.445   1.414  1.00  0.00     0.001 C 
BRANCH  56  57
HETATM   57  C   UNL     1     -23.008 -14.339   2.607  1.00  0.00     0.000 C 
BRANCH  57  58
HETATM   58  C   UNL     1     -24.240 -15.125   3.014  1.00  0.00     0.000 C 
BRANCH  58  59
HETATM   59  C   UNL     1     -24.198 -15.440   4.500  1.00  0.00     0.000 C 
BRANCH  59  60
HETATM   60  C   UNL     1     -25.581 -15.281   5.116  1.00  0.00    -0.000 C 
BRANCH  60  61
HETATM   61  C   UNL     1     -25.477 -15.234   6.636  1.00  0.00    -0.005 C 
HETATM   62  C   UNL     1     -24.031 -15.253   7.082  1.00  0.00     0.005 C 
ENDBRANCH  60  61
ENDBRANCH  59  60
ENDBRANCH  58  59
ENDBRANCH  57  58
ENDBRANCH  56  57
ENDBRANCH  55  56
ENDBRANCH  48  55
ENDBRANCH  46  48
ENDBRANCH  45  46
ENDBRANCH   2  45
BRANCH   3  63
HETATM   63  O   UNL     1     -22.196 -14.494  -4.422  1.00  0.00    -0.270 OA
BRANCH  63  64
HETATM   64  C   UNL     1     -22.694 -15.673  -3.896  1.00  0.00     0.268 C 
HETATM   65  O   UNL     1     -22.048 -16.708  -3.872  1.00  0.00    -0.264 OA
BRANCH  64  66
HETATM   66  C   UNL     1     -24.084 -15.468  -3.268  1.00  0.00     0.086 C 
BRANCH  66  67
HETATM   67  C   UNL     1     -25.134 -16.247  -4.101  1.00  0.00     0.014 C 
BRANCH  67  68
HETATM   68  C   UNL     1     -25.067 -16.101  -5.641  1.00  0.00     0.001 C 
BRANCH  68  69
HETATM   69  C   UNL     1     -26.214 -15.325  -6.295  1.00  0.00     0.000 C 
BRANCH  69  70
HETATM   70  C   UNL     1     -27.599 -15.956  -6.038  1.00  0.00    -0.000 C 
BRANCH  70  71
HETATM   71  C   UNL     1     -28.835 -15.151  -6.457  1.00  0.00    -0.005 C 
HETATM   72  C   UNL     1     -29.282 -15.415  -7.882  1.00  0.00     0.005 C 
ENDBRANCH  70  71
ENDBRANCH  69  70
ENDBRANCH  68  69
ENDBRANCH  67  68
ENDBRANCH  66  67
BRANCH  66  73
HETATM   73  C   UNL     1     -24.103 -15.998  -1.831  1.00  0.00     0.014 C 
BRANCH  73  74
HETATM   74  C   UNL     1     -25.299 -15.572  -0.987  1.00  0.00     0.001 C 
BRANCH  74  75
HETATM   75  C   UNL     1     -25.904 -16.834  -0.344  1.00  0.00     0.000 C 
BRANCH  75  76
HETATM   76  C   UNL     1     -27.054 -16.521   0.601  1.00  0.00     0.000 C 
BRANCH  76  77
HETATM   77  C   UNL     1     -28.446 -16.776  -0.056  1.00  0.00     0.000 C 
BRANCH  77  78
HETATM   78  C   UNL     1     -29.392 -15.565   0.053  1.00  0.00    -0.000 C 
BRANCH  78  79
HETATM   79  C   UNL     1     -30.402 -15.367   1.203  1.00  0.00    -0.005 C 
HETATM   80  C   UNL     1     -30.145 -16.129   2.535  1.00  0.00     0.005 C 
ENDBRANCH  78  79
ENDBRANCH  77  78
ENDBRANCH  76  77
ENDBRANCH  75  76
ENDBRANCH  74  75
ENDBRANCH  73  74
ENDBRANCH  66  73
ENDBRANCH  64  66
ENDBRANCH  63  64
ENDBRANCH   3  63
TORSDOF 62
BEGIN_RES ARG D 557
REMARK  4 active torsions:
REMARK  status: ('A' for Active; 'I' for Inactive)
REMARK    1  A    between atoms: CA   and  CB  
REMARK    2  A    between atoms: CB   and  CG  
REMARK    3  A    between atoms: CG   and  CD  
REMARK    4  A    between atoms: CD   and  NE  
REMARK       I    between atoms: NE   and  CZ  
REMARK       I    between atoms: CZ   and  NH1 
REMARK       I    between atoms: CZ   and  NH2 
ROOT
ATOM      1  CA  ARG D 557     -26.217   2.705 -17.014  1.00 35.49     0.159 C 
ENDROOT
BRANCH   1   2
ATOM      2  CB  ARG D 557     -26.789   1.319 -17.183  1.00 35.49     0.034 C 
BRANCH   2   3
ATOM      3  CG  ARG D 557     -25.870   0.194 -16.969  1.00 35.49     0.027 C 
BRANCH   3   4
ATOM      4  CD  ARG D 557     -26.301  -0.682 -15.856  1.00 35.49     0.116 C 
BRANCH   4   5
ATOM      5  NE  ARG D 557     -25.242  -0.917 -14.910  1.00 35.49    -0.212 N 
ATOM      6  CZ  ARG D 557     -24.945  -2.073 -14.361  1.00 35.49     0.666 C 
ATOM      7  NH1 ARG D 557     -25.622  -3.177 -14.621  1.00 35.49    -0.235 N 
ATOM      8  NH2 ARG D 557     -23.936  -2.106 -13.539  1.00 35.49    -0.235 N 
ATOM      9  HH  ARG D 557     -26.288  -3.178 -15.160  1.00 35.49     0.174 HD
ATOM     10  HH  ARG D 557     -25.381  -3.903 -14.235  1.00 35.49     0.174 HD
ATOM     11  HH  ARG D 557     -23.513  -1.380 -13.396  1.00 35.49     0.174 HD
ATOM     12  HH  ARG D 557     -23.712  -2.835 -13.168  1.00 35.49     0.174 HD
ATOM     13  HE  ARG D 557     -24.800  -0.246 -14.630  1.00 35.49     0.178 HD
ENDBRANCH   4   5
ENDBRANCH   3   4
ENDBRANCH   2   3
ENDBRANCH   1   2
END_RES ARG D 557
BEGIN_RES GLU D 570
REMARK  3 active torsions:
REMARK  status: ('A' for Active; 'I' for Inactive)
REMARK    5  A    between atoms: CA   and  CB  
REMARK    6  A    between atoms: CB   and  CG  
REMARK    7  A    between atoms: CG   and  CD  
ROOT
ATOM     14  CA  GLU D 570     -18.033  -6.348 -13.375  1.00 32.92     0.160 C 
ENDROOT
BRANCH  14  15
ATOM     15  CB  GLU D 570     -19.500  -6.345 -13.794  1.00 32.92     0.043 C 
BRANCH  15  16
ATOM     16  CG  GLU D 570     -20.448  -5.558 -12.963  1.00 32.92     0.100 C 
BRANCH  16  17
ATOM     17  CD  GLU D 570     -21.701  -5.165 -13.710  1.00 32.92     0.185 C 
ATOM     18  OE1 GLU D 570     -22.729  -4.888 -13.064  1.00 32.92    -0.647 OA
ATOM     19  OE2 GLU D 570     -21.658  -5.150 -14.956  1.00 32.92    -0.647 OA
ENDBRANCH  16  17
ENDBRANCH  15  16
ENDBRANCH  14  15
END_RES GLU D 570
ENDMDL
MODEL 5
REMARK VINA RESULT:      -5.5      1.755      6.269
REMARK WARNING: 32 MAX_TORS EXCEEDED!!!
REMARK  62 active torsions:
REMARK  status: ('A' for Active; 'I' for Inactive)
REMARK    1  A    between atoms: C_2  and  C_3 
REMARK    2  A    between atoms: C_3  and  C_4 
REMARK    3  A    between atoms: C_4  and  C_5 
REMARK    4  A    between atoms: C_5  and  C_6 
REMARK    5  A    between atoms: C_6  and  C_7 
REMARK    6  A    between atoms: C_7  and  C_8 
REMARK    7  A    between atoms: C_8  and  C_9 
REMARK    8  A    between atoms: C_9  and  C_10 
REMARK    9  A    between atoms: C_9  and  C_16 
REMARK   10  A    between atoms: C_10  and  C_11 
REMARK   11  A    between atoms: C_11  and  C_12 
REMARK   12  A    between atoms: C_12  and  C_13 
REMARK   13  A    between atoms: C_13  and  C_14 
REMARK   14  A    between atoms: C_16  and  O_18 
REMARK   15  A    between atoms: O_18  and  C_19 
REMARK   16  A    between atoms: C_19  and  C_20 
REMARK   17  A    between atoms: C_20  and  C_21 
REMARK   18  A    between atoms: C_20  and  O_63 
REMARK   19  A    between atoms: C_22  and  O_45 
REMARK   20  A    between atoms: C_23  and  O_27 
REMARK   21  A    between atoms: O_27  and  C_28 
REMARK   22  A    between atoms: C_28  and  C_30 
REMARK   23  A    between atoms: C_30  and  C_31 
REMARK   24  A    between atoms: C_30  and  C_37 
REMARK   25  A    between atoms: C_31  and  C_32 
REMARK   26  A    between atoms: C_32  and  C_33 
REMARK   27  A    between atoms: C_33  and  C_34 
REMARK   28  A    between atoms: C_34  and  C_35 
REMARK   29  A    between atoms: C_37  and  C_38 
REMARK   30  A    between atoms: C_38  and  C_39 
REMARK   31  A    between atoms: C_39  and  C_40 
REMARK   32  A    between atoms: C_40  and  C_41 
REMARK   33  A    between atoms: C_41  and  C_42 
REMARK   34  A    between atoms: C_42  and  C_43 
REMARK   35  A    between atoms: O_45  and  C_46 
REMARK   36  A    between atoms: C_46  and  C_48 
REMARK   37  A    between atoms: C_48  and  C_49 
REMARK   38  A    between atoms: C_48  and  C_55 
REMARK   39  A    between atoms: C_49  and  C_50 
REMARK   40  A    between atoms: C_50  and  C_51 
REMARK   41  A    between atoms: C_51  and  C_52 
REMARK   42  A    between atoms: C_52  and  C_53 
REMARK   43  A    between atoms: C_55  and  C_56 
REMARK   44  A    between atoms: C_56  and  C_57 
REMARK   45  A    between atoms: C_57  and  C_58 
REMARK   46  A    between atoms: C_58  and  C_59 
REMARK   47  A    between atoms: C_59  and  C_60 
REMARK   48  A    between atoms: C_60  and  C_61 
REMARK   49  A    between atoms: O_63  and  C_64 
REMARK   50  A    between atoms: C_64  and  C_66 
REMARK   51  A    between atoms: C_66  and  C_67 
REMARK   52  A    between atoms: C_66  and  C_73 
REMARK   53  A    between atoms: C_67  and  C_68 
REMARK   54  A    between atoms: C_68  and  C_69 
REMARK   55  A    between atoms: C_69  and  C_70 
REMARK   56  A    between atoms: C_70  and  C_71 
REMARK   57  A    between atoms: C_73  and  C_74 
REMARK   58  A    between atoms: C_74  and  C_75 
REMARK   59  A    between atoms: C_75  and  C_76 
REMARK   60  A    between atoms: C_76  and  C_77 
REMARK   61  A    between atoms: C_77  and  C_78 
REMARK   62  A    between atoms: C_78  and  C_79 
ROOT
HETATM    1  C   UNL     1     -21.759  -8.958  -2.699  1.00  0.00     0.224 C 
HETATM    2  C   UNL     1     -21.936 -10.264  -1.970  1.00  0.00     0.129 C 
HETATM    3  C   UNL     1     -22.040 -10.044  -0.622  1.00  0.00     0.186 C 
HETATM    4  C   UNL     1     -22.120  -8.582  -0.446  1.00  0.00     0.321 C 
HETATM    5  O   UNL     1     -22.257  -8.010   0.603  1.00  0.00    -0.257 OA
HETATM    6  O   UNL     1     -22.012  -7.988  -1.668  1.00  0.00    -0.301 OA
ENDROOT
BRANCH   1   7
HETATM    7  C   UNL     1     -20.370  -8.629  -3.388  1.00  0.00     0.192 C 
BRANCH   7   8
HETATM    8  C   UNL     1     -19.137  -8.589  -2.435  1.00  0.00     0.214 C 
BRANCH   8   9
HETATM    9  O   UNL     1     -18.427  -9.875  -2.440  1.00  0.00    -0.319 OA
BRANCH   9  10
HETATM   10  C   UNL     1     -17.270 -10.009  -3.151  1.00  0.00     0.263 C 
HETATM   11  O   UNL     1     -17.134  -9.552  -4.280  1.00  0.00    -0.265 OA
BRANCH  10  12
HETATM   12  C   UNL     1     -16.202 -10.913  -2.467  1.00  0.00     0.085 C 
BRANCH  12  13
HETATM   13  C   UNL     1     -16.816 -11.572  -1.187  1.00  0.00     0.014 C 
BRANCH  13  14
HETATM   14  C   UNL     1     -16.018 -11.825   0.120  1.00  0.00     0.001 C 
BRANCH  14  15
HETATM   15  C   UNL     1     -16.556 -12.850   1.134  1.00  0.00     0.000 C 
BRANCH  15  16
HETATM   16  C   UNL     1     -15.401 -13.623   1.817  1.00  0.00     0.000 C 
BRANCH  16  17
HETATM   17  C   UNL     1     -14.086 -13.534   1.033  1.00  0.00     0.000 C 
BRANCH  17  18
HETATM   18  C   UNL     1     -13.262 -14.816   1.189  1.00  0.00    -0.000 C 
BRANCH  18  19
HETATM   19  C   UNL     1     -14.110 -16.072   0.983  1.00  0.00    -0.005 C 
HETATM   20  C   UNL     1     -13.579 -16.904  -0.173  1.00  0.00     0.005 C 
ENDBRANCH  18  19
ENDBRANCH  17  18
ENDBRANCH  16  17
ENDBRANCH  15  16
ENDBRANCH  14  15
ENDBRANCH  13  14
ENDBRANCH  12  13
BRANCH  12  21
HETATM   21  C   UNL     1     -15.414 -11.826  -3.451  1.00  0.00     0.014 C 
BRANCH  21  22
HETATM   22  C   UNL     1     -14.265 -12.778  -3.050  1.00  0.00     0.001 C 
BRANCH  22  23
HETATM   23  C   UNL     1     -14.482 -14.220  -2.547  1.00  0.00     0.000 C 
BRANCH  23  24
HETATM   24  C   UNL     1     -15.727 -15.060  -2.896  1.00  0.00    -0.000 C 
BRANCH  24  25
HETATM   25  C   UNL     1     -17.019 -14.951  -2.077  1.00  0.00    -0.005 C 
HETATM   26  C   UNL     1     -17.222 -16.000  -0.990  1.00  0.00     0.005 C 
ENDBRANCH  24  25
ENDBRANCH  23  24
ENDBRANCH  22  23
ENDBRANCH  21  22
ENDBRANCH  12  21
ENDBRANCH  10  12
ENDBRANCH   9  10
ENDBRANCH   8   9
ENDBRANCH   7   8
BRANCH   7  27
HETATM   27  O   UNL     1     -20.525  -7.341  -4.036  1.00  0.00    -0.310 OA
BRANCH  27  28
HETATM   28  C   UNL     1     -21.112  -7.295  -5.274  1.00  0.00     0.263 C 
HETATM   29  O   UNL     1     -21.293  -8.248  -6.025  1.00  0.00    -0.265 OA
BRANCH  28  30
HETATM   30  C   UNL     1     -21.524  -5.874  -5.618  1.00  0.00     0.085 C 
BRANCH  30  31
HETATM   31  C   UNL     1     -20.267  -5.014  -5.681  1.00  0.00     0.014 C 
BRANCH  31  32
HETATM   32  C   UNL     1     -19.349  -5.426  -6.827  1.00  0.00     0.001 C 
BRANCH  32  33
HETATM   33  C   UNL     1     -18.720  -4.215  -7.495  1.00  0.00     0.000 C 
BRANCH  33  34
HETATM   34  C   UNL     1     -19.659  -3.685  -8.574  1.00  0.00    -0.000 C 
BRANCH  34  35
HETATM   35  C   UNL     1     -20.017  -4.775  -9.574  1.00  0.00    -0.005 C 
HETATM   36  C   UNL     1     -20.083  -4.208 -10.982  1.00  0.00     0.005 C 
ENDBRANCH  34  35
ENDBRANCH  33  34
ENDBRANCH  32  33
ENDBRANCH  31  32
ENDBRANCH  30  31
BRANCH  30  37
HETATM   37  C   UNL     1     -22.319  -5.801  -6.924  1.00  0.00     0.014 C 
BRANCH  37  38
HETATM   38  C   UNL     1     -22.783  -4.391  -7.185  1.00  0.00     0.001 C 
BRANCH  38  39
HETATM   39  C   UNL     1     -23.843  -4.390  -8.245  1.00  0.00     0.000 C 
BRANCH  39  40
HETATM   40  C   UNL     1     -23.361  -3.465  -9.324  1.00  0.00     0.000 C 
BRANCH  40  41
HETATM   41  C   UNL     1     -23.652  -4.109 -10.624  1.00  0.00     0.000 C 
BRANCH  41  42
HETATM   42  C   UNL     1     -23.726  -3.027 -11.659  1.00  0.00    -0.000 C 
BRANCH  42  43
HETATM   43  C   UNL     1     -23.166  -3.621 -12.900  1.00  0.00    -0.005 C 
HETATM   44  C   UNL     1     -23.358  -5.103 -12.833  1.00  0.00     0.005 C 
ENDBRANCH  42  43
ENDBRANCH  41  42
ENDBRANCH  40  41
ENDBRANCH  39  40
ENDBRANCH  38  39
ENDBRANCH  37  38
ENDBRANCH  30  37
ENDBRANCH  28  30
ENDBRANCH  27  28
ENDBRANCH   7  27
ENDBRANCH   1   7
BRANCH   2  45
HETATM   45  O   UNL     1     -21.715 -11.497  -2.566  1.00  0.00    -0.277 OA
BRANCH  45  46
HETATM   46  C   UNL     1     -22.308 -11.762  -3.799  1.00  0.00     0.268 C 
HETATM   47  O   UNL     1     -23.427 -11.374  -4.089  1.00  0.00    -0.264 OA
BRANCH  46  48
HETATM   48  C   UNL     1     -21.348 -12.563  -4.690  1.00  0.00     0.086 C 
BRANCH  48  49
HETATM   49  C   UNL     1     -21.935 -12.786  -6.093  1.00  0.00     0.014 C 
BRANCH  49  50
HETATM   50  C   UNL     1     -21.550 -14.023  -6.910  1.00  0.00     0.001 C 
BRANCH  50  51
HETATM   51  C   UNL     1     -22.378 -15.293  -6.742  1.00  0.00     0.000 C 
BRANCH  51  52
HETATM   52  C   UNL     1     -21.518 -16.548  -6.617  1.00  0.00    -0.000 C 
BRANCH  52  53
HETATM   53  C   UNL     1     -20.000 -16.346  -6.721  1.00  0.00    -0.005 C 
HETATM   54  C   UNL     1     -19.194 -16.616  -5.456  1.00  0.00     0.005 C 
ENDBRANCH  52  53
ENDBRANCH  51  52
ENDBRANCH  50  51
ENDBRANCH  49  50
ENDBRANCH  48  49
BRANCH  48  55
HETATM   55  C   UNL     1     -19.924 -12.020  -4.831  1.00  0.00     0.014 C 
BRANCH  55  56
HETATM   56  C   UNL     1     -18.824 -13.039  -4.605  1.00  0.00     0.001 C 
BRANCH  56  57
HETATM   57  C   UNL     1     -17.942 -13.077  -5.856  1.00  0.00     0.000 C 
BRANCH  57  58
HETATM   58  C   UNL     1     -18.339 -11.941  -6.779  1.00  0.00     0.000 C 
BRANCH  58  59
HETATM   59  C   UNL     1     -18.561 -12.460  -8.190  1.00  0.00     0.000 C 
BRANCH  59  60
HETATM   60  C   UNL     1     -17.879 -13.809  -8.373  1.00  0.00    -0.000 C 
BRANCH  60  61
HETATM   61  C   UNL     1     -18.342 -14.459  -9.672  1.00  0.00    -0.005 C 
HETATM   62  C   UNL     1     -18.099 -15.952  -9.649  1.00  0.00     0.005 C 
ENDBRANCH  60  61
ENDBRANCH  59  60
ENDBRANCH  58  59
ENDBRANCH  57  58
ENDBRANCH  56  57
ENDBRANCH  55  56
ENDBRANCH  48  55
ENDBRANCH  46  48
ENDBRANCH  45  46
ENDBRANCH   2  45
BRANCH   3  63
HETATM   63  O   UNL     1     -21.798 -10.916   0.471  1.00  0.00    -0.270 OA
BRANCH  63  64
HETATM   64  C   UNL     1     -20.545 -11.478   0.646  1.00  0.00     0.268 C 
HETATM   65  O   UNL     1     -19.531 -10.807   0.746  1.00  0.00    -0.264 OA
BRANCH  64  66
HETATM   66  C   UNL     1     -20.630 -13.006   0.804  1.00  0.00     0.086 C 
BRANCH  66  67
HETATM   67  C   UNL     1     -22.096 -13.401   1.113  1.00  0.00     0.014 C 
BRANCH  67  68
HETATM   68  C   UNL     1     -22.361 -14.170   2.430  1.00  0.00     0.001 C 
BRANCH  68  69
HETATM   69  C   UNL     1     -23.786 -14.693   2.631  1.00  0.00     0.000 C 
BRANCH  69  70
HETATM   70  C   UNL     1     -23.879 -15.809   3.694  1.00  0.00    -0.000 C 
BRANCH  70  71
HETATM   71  C   UNL     1     -24.245 -15.398   5.125  1.00  0.00    -0.005 C 
HETATM   72  C   UNL     1     -23.113 -15.570   6.119  1.00  0.00     0.005 C 
ENDBRANCH  70  71
ENDBRANCH  69  70
ENDBRANCH  68  69
ENDBRANCH  67  68
ENDBRANCH  66  67
BRANCH  66  73
HETATM   73  C   UNL     1     -20.194 -13.701  -0.490  1.00  0.00     0.014 C 
BRANCH  73  74
HETATM   74  C   UNL     1     -20.936 -14.988  -0.830  1.00  0.00     0.001 C 
BRANCH  74  75
HETATM   75  C   UNL     1     -20.735 -15.274  -2.330  1.00  0.00     0.000 C 
BRANCH  75  76
HETATM   76  C   UNL     1     -21.816 -16.175  -2.908  1.00  0.00     0.000 C 
BRANCH  76  77
HETATM   77  C   UNL     1     -23.149 -15.408  -3.169  1.00  0.00     0.000 C 
BRANCH  77  78
HETATM   78  C   UNL     1     -24.256 -15.767  -2.160  1.00  0.00    -0.000 C 
BRANCH  78  79
HETATM   79  C   UNL     1     -24.759 -14.807  -1.062  1.00  0.00    -0.005 C 
HETATM   80  C   UNL     1     -24.327 -13.315  -1.148  1.00  0.00     0.005 C 
ENDBRANCH  78  79
ENDBRANCH  77  78
ENDBRANCH  76  77
ENDBRANCH  75  76
ENDBRANCH  74  75
ENDBRANCH  73  74
ENDBRANCH  66  73
ENDBRANCH  64  66
ENDBRANCH  63  64
ENDBRANCH   3  63
TORSDOF 62
BEGIN_RES ARG D 557
REMARK  4 active torsions:
REMARK  status: ('A' for Active; 'I' for Inactive)
REMARK    1  A    between atoms: CA   and  CB  
REMARK    2  A    between atoms: CB   and  CG  
REMARK    3  A    between atoms: CG   and  CD  
REMARK    4  A    between atoms: CD   and  NE  
REMARK       I    between atoms: NE   and  CZ  
REMARK       I    between atoms: CZ   and  NH1 
REMARK       I    between atoms: CZ   and  NH2 
ROOT
ATOM      1  CA  ARG D 557     -26.217   2.705 -17.014  1.00 35.49     0.159 C 
ENDROOT
BRANCH   1   2
ATOM      2  CB  ARG D 557     -26.789   1.319 -17.183  1.00 35.49     0.034 C 
BRANCH   2   3
ATOM      3  CG  ARG D 557     -25.958   0.201 -16.720  1.00 35.49     0.027 C 
BRANCH   3   4
ATOM      4  CD  ARG D 557     -26.754  -0.856 -16.054  1.00 35.49     0.116 C 
BRANCH   4   5
ATOM      5  NE  ARG D 557     -28.000  -1.103 -16.731  1.00 35.49    -0.212 N 
ATOM      6  CZ  ARG D 557     -28.525  -2.285 -16.967  1.00 35.49     0.666 C 
ATOM      7  NH1 ARG D 557     -27.932  -3.409 -16.607  1.00 35.49    -0.235 N 
ATOM      8  NH2 ARG D 557     -29.675  -2.321 -17.575  1.00 35.49    -0.235 N 
ATOM      9  HH  ARG D 557     -27.176  -3.408 -16.204  1.00 35.49     0.174 HD
ATOM     10  HH  ARG D 557     -28.323  -4.150 -16.785  1.00 35.49     0.174 HD
ATOM     11  HH  ARG D 557     -30.038  -1.580 -17.789  1.00 35.49     0.174 HD
ATOM     12  HH  ARG D 557     -30.046  -3.065 -17.741  1.00 35.49     0.174 HD
ATOM     13  HE  ARG D 557     -28.414  -0.438 -17.062  1.00 35.49     0.178 HD
ENDBRANCH   4   5
ENDBRANCH   3   4
ENDBRANCH   2   3
ENDBRANCH   1   2
END_RES ARG D 557
BEGIN_RES GLU D 570
REMARK  3 active torsions:
REMARK  status: ('A' for Active; 'I' for Inactive)
REMARK    5  A    between atoms: CA   and  CB  
REMARK    6  A    between atoms: CB   and  CG  
REMARK    7  A    between atoms: CG   and  CD  
ROOT
ATOM     14  CA  GLU D 570     -18.033  -6.348 -13.375  1.00 32.92     0.160 C 
ENDROOT
BRANCH  14  15
ATOM     15  CB  GLU D 570     -19.500  -6.345 -13.794  1.00 32.92     0.043 C 
BRANCH  15  16
ATOM     16  CG  GLU D 570     -20.104  -7.646 -14.182  1.00 32.92     0.100 C 
BRANCH  16  17
ATOM     17  CD  GLU D 570     -20.879  -7.573 -15.477  1.00 32.92     0.185 C 
ATOM     18  OE1 GLU D 570     -20.815  -8.527 -16.275  1.00 32.92    -0.647 OA
ATOM     19  OE2 GLU D 570     -21.545  -6.543 -15.702  1.00 32.92    -0.647 OA
ENDBRANCH  16  17
ENDBRANCH  15  16
ENDBRANCH  14  15
END_RES GLU D 570
ENDMDL
MODEL 6
REMARK VINA RESULT:      -5.5      3.236      8.447
REMARK WARNING: 32 MAX_TORS EXCEEDED!!!
REMARK  62 active torsions:
REMARK  status: ('A' for Active; 'I' for Inactive)
REMARK    1  A    between atoms: C_2  and  C_3 
REMARK    2  A    between atoms: C_3  and  C_4 
REMARK    3  A    between atoms: C_4  and  C_5 
REMARK    4  A    between atoms: C_5  and  C_6 
REMARK    5  A    between atoms: C_6  and  C_7 
REMARK    6  A    between atoms: C_7  and  C_8 
REMARK    7  A    between atoms: C_8  and  C_9 
REMARK    8  A    between atoms: C_9  and  C_10 
REMARK    9  A    between atoms: C_9  and  C_16 
REMARK   10  A    between atoms: C_10  and  C_11 
REMARK   11  A    between atoms: C_11  and  C_12 
REMARK   12  A    between atoms: C_12  and  C_13 
REMARK   13  A    between atoms: C_13  and  C_14 
REMARK   14  A    between atoms: C_16  and  O_18 
REMARK   15  A    between atoms: O_18  and  C_19 
REMARK   16  A    between atoms: C_19  and  C_20 
REMARK   17  A    between atoms: C_20  and  C_21 
REMARK   18  A    between atoms: C_20  and  O_63 
REMARK   19  A    between atoms: C_22  and  O_45 
REMARK   20  A    between atoms: C_23  and  O_27 
REMARK   21  A    between atoms: O_27  and  C_28 
REMARK   22  A    between atoms: C_28  and  C_30 
REMARK   23  A    between atoms: C_30  and  C_31 
REMARK   24  A    between atoms: C_30  and  C_37 
REMARK   25  A    between atoms: C_31  and  C_32 
REMARK   26  A    between atoms: C_32  and  C_33 
REMARK   27  A    between atoms: C_33  and  C_34 
REMARK   28  A    between atoms: C_34  and  C_35 
REMARK   29  A    between atoms: C_37  and  C_38 
REMARK   30  A    between atoms: C_38  and  C_39 
REMARK   31  A    between atoms: C_39  and  C_40 
REMARK   32  A    between atoms: C_40  and  C_41 
REMARK   33  A    between atoms: C_41  and  C_42 
REMARK   34  A    between atoms: C_42  and  C_43 
REMARK   35  A    between atoms: O_45  and  C_46 
REMARK   36  A    between atoms: C_46  and  C_48 
REMARK   37  A    between atoms: C_48  and  C_49 
REMARK   38  A    between atoms: C_48  and  C_55 
REMARK   39  A    between atoms: C_49  and  C_50 
REMARK   40  A    between atoms: C_50  and  C_51 
REMARK   41  A    between atoms: C_51  and  C_52 
REMARK   42  A    between atoms: C_52  and  C_53 
REMARK   43  A    between atoms: C_55  and  C_56 
REMARK   44  A    between atoms: C_56  and  C_57 
REMARK   45  A    between atoms: C_57  and  C_58 
REMARK   46  A    between atoms: C_58  and  C_59 
REMARK   47  A    between atoms: C_59  and  C_60 
REMARK   48  A    between atoms: C_60  and  C_61 
REMARK   49  A    between atoms: O_63  and  C_64 
REMARK   50  A    between atoms: C_64  and  C_66 
REMARK   51  A    between atoms: C_66  and  C_67 
REMARK   52  A    between atoms: C_66  and  C_73 
REMARK   53  A    between atoms: C_67  and  C_68 
REMARK   54  A    between atoms: C_68  and  C_69 
REMARK   55  A    between atoms: C_69  and  C_70 
REMARK   56  A    between atoms: C_70  and  C_71 
REMARK   57  A    between atoms: C_73  and  C_74 
REMARK   58  A    between atoms: C_74  and  C_75 
REMARK   59  A    between atoms: C_75  and  C_76 
REMARK   60  A    between atoms: C_76  and  C_77 
REMARK   61  A    between atoms: C_77  and  C_78 
REMARK   62  A    between atoms: C_78  and  C_79 
ROOT
HETATM    1  C   UNL     1     -16.703 -11.331  -4.150  1.00  0.00     0.224 C 
HETATM    2  C   UNL     1     -16.886 -11.779  -2.724  1.00  0.00     0.129 C 
HETATM    3  C   UNL     1     -15.725 -12.327  -2.247  1.00  0.00     0.186 C 
HETATM    4  C   UNL     1     -14.699 -12.089  -3.279  1.00  0.00     0.321 C 
HETATM    5  O   UNL     1     -13.540 -12.398  -3.197  1.00  0.00    -0.257 OA
HETATM    6  O   UNL     1     -15.283 -11.462  -4.339  1.00  0.00    -0.301 OA
ENDROOT
BRANCH   1   7
HETATM    7  C   UNL     1     -17.452 -12.103  -5.315  1.00  0.00     0.192 C 
BRANCH   7   8
HETATM    8  C   UNL     1     -16.737 -12.093  -6.699  1.00  0.00     0.214 C 
BRANCH   8   9
HETATM    9  O   UNL     1     -17.540 -12.791  -7.712  1.00  0.00    -0.319 OA
BRANCH   9  10
HETATM   10  C   UNL     1     -17.680 -14.147  -7.653  1.00  0.00     0.263 C 
HETATM   11  O   UNL     1     -16.772 -14.887  -7.291  1.00  0.00    -0.265 OA
BRANCH  10  12
HETATM   12  C   UNL     1     -19.030 -14.675  -8.221  1.00  0.00     0.085 C 
BRANCH  12  13
HETATM   13  C   UNL     1     -18.957 -16.230  -8.387  1.00  0.00     0.014 C 
BRANCH  13  14
HETATM   14  C   UNL     1     -18.370 -16.937  -9.638  1.00  0.00     0.001 C 
BRANCH  14  15
HETATM   15  C   UNL     1     -18.145 -16.116 -10.920  1.00  0.00     0.000 C 
BRANCH  15  16
HETATM   16  C   UNL     1     -17.433 -16.956 -12.006  1.00  0.00     0.000 C 
BRANCH  16  17
HETATM   17  C   UNL     1     -18.019 -16.734 -13.406  1.00  0.00     0.000 C 
BRANCH  17  18
HETATM   18  C   UNL     1     -17.235 -15.662 -14.170  1.00  0.00    -0.000 C 
BRANCH  18  19
HETATM   19  C   UNL     1     -17.953 -15.230 -15.449  1.00  0.00    -0.005 C 
HETATM   20  C   UNL     1     -18.838 -16.345 -15.981  1.00  0.00     0.005 C 
ENDBRANCH  18  19
ENDBRANCH  17  18
ENDBRANCH  16  17
ENDBRANCH  15  16
ENDBRANCH  14  15
ENDBRANCH  13  14
ENDBRANCH  12  13
BRANCH  12  21
HETATM   21  C   UNL     1     -20.290 -14.074  -7.533  1.00  0.00     0.014 C 
BRANCH  21  22
HETATM   22  C   UNL     1     -21.324 -14.880  -6.717  1.00  0.00     0.001 C 
BRANCH  22  23
HETATM   23  C   UNL     1     -22.677 -14.309  -6.244  1.00  0.00     0.000 C 
BRANCH  23  24
HETATM   24  C   UNL     1     -23.798 -15.179  -5.640  1.00  0.00    -0.000 C 
BRANCH  24  25
HETATM   25  C   UNL     1     -25.191 -15.243  -6.279  1.00  0.00    -0.005 C 
HETATM   26  C   UNL     1     -26.221 -16.114  -5.571  1.00  0.00     0.005 C 
ENDBRANCH  24  25
ENDBRANCH  23  24
ENDBRANCH  22  23
ENDBRANCH  21  22
ENDBRANCH  12  21
ENDBRANCH  10  12
ENDBRANCH   9  10
ENDBRANCH   8   9
ENDBRANCH   7   8
BRANCH   7  27
HETATM   27  O   UNL     1     -18.762 -11.492  -5.440  1.00  0.00    -0.310 OA
BRANCH  27  28
HETATM   28  C   UNL     1     -18.837 -10.144  -5.673  1.00  0.00     0.263 C 
HETATM   29  O   UNL     1     -17.987  -9.457  -6.231  1.00  0.00    -0.265 OA
BRANCH  28  30
HETATM   30  C   UNL     1     -20.142  -9.580  -5.137  1.00  0.00     0.085 C 
BRANCH  30  31
HETATM   31  C   UNL     1     -20.398 -10.190  -3.763  1.00  0.00     0.014 C 
BRANCH  31  32
HETATM   32  C   UNL     1     -20.283  -9.156  -2.649  1.00  0.00     0.001 C 
BRANCH  32  33
HETATM   33  C   UNL     1     -21.619  -8.934  -1.960  1.00  0.00     0.000 C 
BRANCH  33  34
HETATM   34  C   UNL     1     -21.416  -8.056  -0.729  1.00  0.00    -0.000 C 
BRANCH  34  35
HETATM   35  C   UNL     1     -22.327  -6.838  -0.766  1.00  0.00    -0.005 C 
HETATM   36  C   UNL     1     -22.160  -6.084  -2.074  1.00  0.00     0.005 C 
ENDBRANCH  34  35
ENDBRANCH  33  34
ENDBRANCH  32  33
ENDBRANCH  31  32
ENDBRANCH  30  31
BRANCH  30  37
HETATM   37  C   UNL     1     -20.133  -8.050  -5.079  1.00  0.00     0.014 C 
BRANCH  37  38
HETATM   38  C   UNL     1     -21.438  -7.493  -5.587  1.00  0.00     0.001 C 
BRANCH  38  39
HETATM   39  C   UNL     1     -21.351  -5.999  -5.685  1.00  0.00     0.000 C 
BRANCH  39  40
HETATM   40  C   UNL     1     -19.949  -5.685  -6.118  1.00  0.00     0.000 C 
BRANCH  40  41
HETATM   41  C   UNL     1     -20.034  -4.685  -7.206  1.00  0.00     0.000 C 
BRANCH  41  42
HETATM   42  C   UNL     1     -21.429  -4.134  -7.206  1.00  0.00    -0.000 C 
BRANCH  42  43
HETATM   43  C   UNL     1     -21.775  -3.921  -8.635  1.00  0.00    -0.005 C 
HETATM   44  C   UNL     1     -20.581  -4.280  -9.461  1.00  0.00     0.005 C 
ENDBRANCH  42  43
ENDBRANCH  41  42
ENDBRANCH  40  41
ENDBRANCH  39  40
ENDBRANCH  38  39
ENDBRANCH  37  38
ENDBRANCH  30  37
ENDBRANCH  28  30
ENDBRANCH  27  28
ENDBRANCH   7  27
ENDBRANCH   1   7
BRANCH   2  45
HETATM   45  O   UNL     1     -18.131 -11.885  -2.120  1.00  0.00    -0.277 OA
BRANCH  45  46
HETATM   46  C   UNL     1     -18.676 -13.152  -1.925  1.00  0.00     0.268 C 
HETATM   47  O   UNL     1     -18.744 -13.985  -2.813  1.00  0.00    -0.264 OA
BRANCH  46  48
HETATM   48  C   UNL     1     -19.128 -13.317  -0.467  1.00  0.00     0.086 C 
BRANCH  48  49
HETATM   49  C   UNL     1     -18.372 -14.459   0.232  1.00  0.00     0.014 C 
BRANCH  49  50
HETATM   50  C   UNL     1     -19.130 -15.506   1.053  1.00  0.00     0.001 C 
BRANCH  50  51
HETATM   51  C   UNL     1     -20.637 -15.340   1.232  1.00  0.00     0.000 C 
BRANCH  51  52
HETATM   52  C   UNL     1     -21.102 -15.660   2.651  1.00  0.00    -0.000 C 
BRANCH  52  53
HETATM   53  C   UNL     1     -22.379 -14.951   3.124  1.00  0.00    -0.005 C 
HETATM   54  C   UNL     1     -22.863 -15.297   4.528  1.00  0.00     0.005 C 
ENDBRANCH  52  53
ENDBRANCH  51  52
ENDBRANCH  50  51
ENDBRANCH  49  50
ENDBRANCH  48  49
BRANCH  48  55
HETATM   55  C   UNL     1     -19.067 -12.070   0.418  1.00  0.00     0.014 C 
BRANCH  55  56
HETATM   56  C   UNL     1     -20.340 -11.247   0.455  1.00  0.00     0.001 C 
BRANCH  56  57
HETATM   57  C   UNL     1     -21.498 -12.173   0.836  1.00  0.00     0.000 C 
BRANCH  57  58
HETATM   58  C   UNL     1     -22.794 -11.597   0.296  1.00  0.00     0.000 C 
BRANCH  58  59
HETATM   59  C   UNL     1     -23.448 -12.578  -0.663  1.00  0.00     0.000 C 
BRANCH  59  60
HETATM   60  C   UNL     1     -23.162 -12.182  -2.105  1.00  0.00    -0.000 C 
BRANCH  60  61
HETATM   61  C   UNL     1     -22.257 -13.216  -2.764  1.00  0.00    -0.005 C 
HETATM   62  C   UNL     1     -22.324 -14.540  -2.036  1.00  0.00     0.005 C 
ENDBRANCH  60  61
ENDBRANCH  59  60
ENDBRANCH  58  59
ENDBRANCH  57  58
ENDBRANCH  56  57
ENDBRANCH  55  56
ENDBRANCH  48  55
ENDBRANCH  46  48
ENDBRANCH  45  46
ENDBRANCH   2  45
BRANCH   3  63
HETATM   63  O   UNL     1     -15.512 -13.235  -1.177  1.00  0.00    -0.270 OA
BRANCH  63  64
HETATM   64  C   UNL     1     -15.298 -12.758   0.105  1.00  0.00     0.268 C 
HETATM   65  O   UNL     1     -15.548 -11.609   0.430  1.00  0.00    -0.264 OA
BRANCH  64  66
HETATM   66  C   UNL     1     -14.824 -13.876   1.050  1.00  0.00     0.086 C 
BRANCH  66  67
HETATM   67  C   UNL     1     -13.281 -13.808   1.179  1.00  0.00     0.014 C 
BRANCH  67  68
HETATM   68  C   UNL     1     -12.458 -14.875   0.418  1.00  0.00     0.001 C 
BRANCH  68  69
HETATM   69  C   UNL     1     -10.940 -14.824   0.616  1.00  0.00     0.000 C 
BRANCH  69  70
HETATM   70  C   UNL     1     -10.456 -13.505   1.255  1.00  0.00    -0.000 C 
BRANCH  70  71
HETATM   71  C   UNL     1      -9.312 -13.588   2.273  1.00  0.00    -0.005 C 
HETATM   72  C   UNL     1      -8.203 -14.541   1.873  1.00  0.00     0.005 C 
ENDBRANCH  70  71
ENDBRANCH  69  70
ENDBRANCH  68  69
ENDBRANCH  67  68
ENDBRANCH  66  67
BRANCH  66  73
HETATM   73  C   UNL     1     -15.444 -13.697   2.440  1.00  0.00     0.014 C 
BRANCH  73  74
HETATM   74  C   UNL     1     -15.619 -14.975   3.253  1.00  0.00     0.001 C 
BRANCH  74  75
HETATM   75  C   UNL     1     -15.009 -14.741   4.648  1.00  0.00     0.000 C 
BRANCH  75  76
HETATM   76  C   UNL     1     -14.763 -16.036   5.408  1.00  0.00     0.000 C 
BRANCH  76  77
HETATM   77  C   UNL     1     -13.988 -15.800   6.741  1.00  0.00     0.000 C 
BRANCH  77  78
HETATM   78  C   UNL     1     -12.461 -15.925   6.579  1.00  0.00    -0.000 C 
BRANCH  78  79
HETATM   79  C   UNL     1     -11.783 -16.743   5.460  1.00  0.00    -0.005 C 
HETATM   80  C   UNL     1     -11.355 -15.990   4.167  1.00  0.00     0.005 C 
ENDBRANCH  78  79
ENDBRANCH  77  78
ENDBRANCH  76  77
ENDBRANCH  75  76
ENDBRANCH  74  75
ENDBRANCH  73  74
ENDBRANCH  66  73
ENDBRANCH  64  66
ENDBRANCH  63  64
ENDBRANCH   3  63
TORSDOF 62
BEGIN_RES ARG D 557
REMARK  4 active torsions:
REMARK  status: ('A' for Active; 'I' for Inactive)
REMARK    1  A    between atoms: CA   and  CB  
REMARK    2  A    between atoms: CB   and  CG  
REMARK    3  A    between atoms: CG   and  CD  
REMARK    4  A    between atoms: CD   and  NE  
REMARK       I    between atoms: NE   and  CZ  
REMARK       I    between atoms: CZ   and  NH1 
REMARK       I    between atoms: CZ   and  NH2 
ROOT
ATOM      1  CA  ARG D 557     -26.217   2.705 -17.014  1.00 35.49     0.159 C 
ENDROOT
BRANCH   1   2
ATOM      2  CB  ARG D 557     -26.789   1.319 -17.183  1.00 35.49     0.034 C 
BRANCH   2   3
ATOM      3  CG  ARG D 557     -25.861   0.195 -17.006  1.00 35.49     0.027 C 
BRANCH   3   4
ATOM      4  CD  ARG D 557     -26.280  -0.716 -15.917  1.00 35.49     0.116 C 
BRANCH   4   5
ATOM      5  NE  ARG D 557     -25.240  -0.910 -14.942  1.00 35.49    -0.212 N 
ATOM      6  CZ  ARG D 557     -24.936  -2.048 -14.359  1.00 35.49     0.666 C 
ATOM      7  NH1 ARG D 557     -25.588  -3.169 -14.607  1.00 35.49    -0.235 N 
ATOM      8  NH2 ARG D 557     -23.946  -2.044 -13.513  1.00 35.49    -0.235 N 
ATOM      9  HH  ARG D 557     -26.241  -3.195 -15.162  1.00 35.49     0.174 HD
ATOM     10  HH  ARG D 557     -25.344  -3.881 -14.199  1.00 35.49     0.174 HD
ATOM     11  HH  ARG D 557     -23.538  -1.307 -13.378  1.00 35.49     0.174 HD
ATOM     12  HH  ARG D 557     -23.718  -2.760 -13.120  1.00 35.49     0.174 HD
ATOM     13  HE  ARG D 557     -24.816  -0.226 -14.669  1.00 35.49     0.178 HD
ENDBRANCH   4   5
ENDBRANCH   3   4
ENDBRANCH   2   3
ENDBRANCH   1   2
END_RES ARG D 557
BEGIN_RES GLU D 570
REMARK  3 active torsions:
REMARK  status: ('A' for Active; 'I' for Inactive)
REMARK    5  A    between atoms: CA   and  CB  
REMARK    6  A    between atoms: CB   and  CG  
REMARK    7  A    between atoms: CG   and  CD  
ROOT
ATOM     14  CA  GLU D 570     -18.033  -6.348 -13.375  1.00 32.92     0.160 C 
ENDROOT
BRANCH  14  15
ATOM     15  CB  GLU D 570     -19.500  -6.345 -13.794  1.00 32.92     0.043 C 
BRANCH  15  16
ATOM     16  CG  GLU D 570     -20.451  -5.577 -12.950  1.00 32.92     0.100 C 
BRANCH  16  17
ATOM     17  CD  GLU D 570     -21.669  -5.109 -13.712  1.00 32.92     0.185 C 
ATOM     18  OE1 GLU D 570     -21.610  -5.021 -14.953  1.00 32.92    -0.647 OA
ATOM     19  OE2 GLU D 570     -22.688  -4.810 -13.058  1.00 32.92    -0.647 OA
ENDBRANCH  16  17
ENDBRANCH  15  16
ENDBRANCH  14  15
END_RES GLU D 570
ENDMDL
MODEL 7
REMARK VINA RESULT:      -5.5      2.086     10.638
REMARK WARNING: 32 MAX_TORS EXCEEDED!!!
REMARK  62 active torsions:
REMARK  status: ('A' for Active; 'I' for Inactive)
REMARK    1  A    between atoms: C_2  and  C_3 
REMARK    2  A    between atoms: C_3  and  C_4 
REMARK    3  A    between atoms: C_4  and  C_5 
REMARK    4  A    between atoms: C_5  and  C_6 
REMARK    5  A    between atoms: C_6  and  C_7 
REMARK    6  A    between atoms: C_7  and  C_8 
REMARK    7  A    between atoms: C_8  and  C_9 
REMARK    8  A    between atoms: C_9  and  C_10 
REMARK    9  A    between atoms: C_9  and  C_16 
REMARK   10  A    between atoms: C_10  and  C_11 
REMARK   11  A    between atoms: C_11  and  C_12 
REMARK   12  A    between atoms: C_12  and  C_13 
REMARK   13  A    between atoms: C_13  and  C_14 
REMARK   14  A    between atoms: C_16  and  O_18 
REMARK   15  A    between atoms: O_18  and  C_19 
REMARK   16  A    between atoms: C_19  and  C_20 
REMARK   17  A    between atoms: C_20  and  C_21 
REMARK   18  A    between atoms: C_20  and  O_63 
REMARK   19  A    between atoms: C_22  and  O_45 
REMARK   20  A    between atoms: C_23  and  O_27 
REMARK   21  A    between atoms: O_27  and  C_28 
REMARK   22  A    between atoms: C_28  and  C_30 
REMARK   23  A    between atoms: C_30  and  C_31 
REMARK   24  A    between atoms: C_30  and  C_37 
REMARK   25  A    between atoms: C_31  and  C_32 
REMARK   26  A    between atoms: C_32  and  C_33 
REMARK   27  A    between atoms: C_33  and  C_34 
REMARK   28  A    between atoms: C_34  and  C_35 
REMARK   29  A    between atoms: C_37  and  C_38 
REMARK   30  A    between atoms: C_38  and  C_39 
REMARK   31  A    between atoms: C_39  and  C_40 
REMARK   32  A    between atoms: C_40  and  C_41 
REMARK   33  A    between atoms: C_41  and  C_42 
REMARK   34  A    between atoms: C_42  and  C_43 
REMARK   35  A    between atoms: O_45  and  C_46 
REMARK   36  A    between atoms: C_46  and  C_48 
REMARK   37  A    between atoms: C_48  and  C_49 
REMARK   38  A    between atoms: C_48  and  C_55 
REMARK   39  A    between atoms: C_49  and  C_50 
REMARK   40  A    between atoms: C_50  and  C_51 
REMARK   41  A    between atoms: C_51  and  C_52 
REMARK   42  A    between atoms: C_52  and  C_53 
REMARK   43  A    between atoms: C_55  and  C_56 
REMARK   44  A    between atoms: C_56  and  C_57 
REMARK   45  A    between atoms: C_57  and  C_58 
REMARK   46  A    between atoms: C_58  and  C_59 
REMARK   47  A    between atoms: C_59  and  C_60 
REMARK   48  A    between atoms: C_60  and  C_61 
REMARK   49  A    between atoms: O_63  and  C_64 
REMARK   50  A    between atoms: C_64  and  C_66 
REMARK   51  A    between atoms: C_66  and  C_67 
REMARK   52  A    between atoms: C_66  and  C_73 
REMARK   53  A    between atoms: C_67  and  C_68 
REMARK   54  A    between atoms: C_68  and  C_69 
REMARK   55  A    between atoms: C_69  and  C_70 
REMARK   56  A    between atoms: C_70  and  C_71 
REMARK   57  A    between atoms: C_73  and  C_74 
REMARK   58  A    between atoms: C_74  and  C_75 
REMARK   59  A    between atoms: C_75  and  C_76 
REMARK   60  A    between atoms: C_76  and  C_77 
REMARK   61  A    between atoms: C_77  and  C_78 
REMARK   62  A    between atoms: C_78  and  C_79 
ROOT
HETATM    1  C   UNL     1     -21.152 -13.396  -4.200  1.00  0.00     0.224 C 
HETATM    2  C   UNL     1     -21.766 -12.211  -3.502  1.00  0.00     0.129 C 
HETATM    3  C   UNL     1     -21.880 -11.158  -4.369  1.00  0.00     0.186 C 
HETATM    4  C   UNL     1     -21.518 -11.676  -5.702  1.00  0.00     0.321 C 
HETATM    5  O   UNL     1     -21.537 -11.047  -6.726  1.00  0.00    -0.257 OA
HETATM    6  O   UNL     1     -21.158 -12.985  -5.578  1.00  0.00    -0.301 OA
ENDROOT
BRANCH   1   7
HETATM    7  C   UNL     1     -19.690 -13.864  -3.806  1.00  0.00     0.192 C 
BRANCH   7   8
HETATM    8  C   UNL     1     -19.098 -15.022  -4.665  1.00  0.00     0.214 C 
BRANCH   8   9
HETATM    9  O   UNL     1     -17.657 -14.838  -4.876  1.00  0.00    -0.319 OA
BRANCH   9  10
HETATM   10  C   UNL     1     -17.214 -13.945  -5.809  1.00  0.00     0.263 C 
HETATM   11  O   UNL     1     -17.848 -13.687  -6.826  1.00  0.00    -0.265 OA
BRANCH  10  12
HETATM   12  C   UNL     1     -15.780 -13.401  -5.541  1.00  0.00     0.085 C 
BRANCH  12  13
HETATM   13  C   UNL     1     -15.723 -11.877  -5.895  1.00  0.00     0.014 C 
BRANCH  13  14
HETATM   14  C   UNL     1     -15.251 -10.779  -4.905  1.00  0.00     0.001 C 
BRANCH  14  15
HETATM   15  C   UNL     1     -16.260  -9.716  -4.434  1.00  0.00     0.000 C 
BRANCH  15  16
HETATM   16  C   UNL     1     -16.374  -9.695  -2.891  1.00  0.00     0.000 C 
BRANCH  16  17
HETATM   17  C   UNL     1     -15.648 -10.872  -2.229  1.00  0.00     0.000 C 
BRANCH  17  18
HETATM   18  C   UNL     1     -16.534 -11.547  -1.176  1.00  0.00    -0.000 C 
BRANCH  18  19
HETATM   19  C   UNL     1     -18.021 -11.402  -1.500  1.00  0.00    -0.005 C 
HETATM   20  C   UNL     1     -18.878 -11.736  -0.290  1.00  0.00     0.005 C 
ENDBRANCH  18  19
ENDBRANCH  17  18
ENDBRANCH  16  17
ENDBRANCH  15  16
ENDBRANCH  14  15
ENDBRANCH  13  14
ENDBRANCH  12  13
BRANCH  12  21
HETATM   21  C   UNL     1     -15.167 -13.858  -4.186  1.00  0.00     0.014 C 
BRANCH  21  22
HETATM   22  C   UNL     1     -13.655 -13.967  -3.888  1.00  0.00     0.001 C 
BRANCH  22  23
HETATM   23  C   UNL     1     -12.963 -15.266  -3.430  1.00  0.00     0.000 C 
BRANCH  23  24
HETATM   24  C   UNL     1     -12.553 -16.395  -4.398  1.00  0.00    -0.000 C 
BRANCH  24  25
HETATM   25  C   UNL     1     -13.377 -16.708  -5.654  1.00  0.00    -0.005 C 
HETATM   26  C   UNL     1     -12.614 -16.747  -6.972  1.00  0.00     0.005 C 
ENDBRANCH  24  25
ENDBRANCH  23  24
ENDBRANCH  22  23
ENDBRANCH  21  22
ENDBRANCH  12  21
ENDBRANCH  10  12
ENDBRANCH   9  10
ENDBRANCH   8   9
ENDBRANCH   7   8
BRANCH   7  27
HETATM   27  O   UNL     1     -19.746 -14.271  -2.415  1.00  0.00    -0.310 OA
BRANCH  27  28
HETATM   28  C   UNL     1     -19.660 -15.606  -2.118  1.00  0.00     0.263 C 
HETATM   29  O   UNL     1     -20.302 -16.508  -2.645  1.00  0.00    -0.265 OA
BRANCH  28  30
HETATM   30  C   UNL     1     -18.640 -15.844  -1.017  1.00  0.00     0.085 C 
BRANCH  30  31
HETATM   31  C   UNL     1     -17.323 -15.203  -1.439  1.00  0.00     0.014 C 
BRANCH  31  32
HETATM   32  C   UNL     1     -16.122 -15.891  -0.800  1.00  0.00     0.001 C 
BRANCH  32  33
HETATM   33  C   UNL     1     -15.027 -14.892  -0.461  1.00  0.00     0.000 C 
BRANCH  33  34
HETATM   34  C   UNL     1     -13.855 -15.623   0.183  1.00  0.00    -0.000 C 
BRANCH  34  35
HETATM   35  C   UNL     1     -12.893 -14.646   0.844  1.00  0.00    -0.005 C 
HETATM   36  C   UNL     1     -11.717 -14.352  -0.070  1.00  0.00     0.005 C 
ENDBRANCH  34  35
ENDBRANCH  33  34
ENDBRANCH  32  33
ENDBRANCH  31  32
ENDBRANCH  30  31
BRANCH  30  37
HETATM   37  C   UNL     1     -19.114 -15.310   0.338  1.00  0.00     0.014 C 
BRANCH  37  38
HETATM   38  C   UNL     1     -19.463 -16.447   1.263  1.00  0.00     0.001 C 
BRANCH  38  39
HETATM   39  C   UNL     1     -18.705 -16.308   2.550  1.00  0.00     0.000 C 
BRANCH  39  40
HETATM   40  C   UNL     1     -17.465 -17.140   2.402  1.00  0.00     0.000 C 
BRANCH  40  41
HETATM   41  C   UNL     1     -16.367 -16.424   3.090  1.00  0.00     0.000 C 
BRANCH  41  42
HETATM   42  C   UNL     1     -16.482 -14.972   2.736  1.00  0.00    -0.000 C 
BRANCH  42  43
HETATM   43  C   UNL     1     -15.407 -14.287   3.499  1.00  0.00    -0.005 C 
HETATM   44  C   UNL     1     -14.872 -15.249   4.511  1.00  0.00     0.005 C 
ENDBRANCH  42  43
ENDBRANCH  41  42
ENDBRANCH  40  41
ENDBRANCH  39  40
ENDBRANCH  38  39
ENDBRANCH  37  38
ENDBRANCH  30  37
ENDBRANCH  28  30
ENDBRANCH  27  28
ENDBRANCH   7  27
ENDBRANCH   1   7
BRANCH   2  45
HETATM   45  O   UNL     1     -21.899 -12.133  -2.123  1.00  0.00    -0.277 OA
BRANCH  45  46
HETATM   46  C   UNL     1     -23.159 -11.880  -1.584  1.00  0.00     0.268 C 
HETATM   47  O   UNL     1     -23.810 -10.889  -1.866  1.00  0.00    -0.264 OA
BRANCH  46  48
HETATM   48  C   UNL     1     -23.572 -13.020  -0.641  1.00  0.00     0.086 C 
BRANCH  48  49
HETATM   49  C   UNL     1     -22.939 -14.356  -1.062  1.00  0.00     0.014 C 
BRANCH  49  50
HETATM   50  C   UNL     1     -23.819 -15.564  -1.392  1.00  0.00     0.001 C 
BRANCH  50  51
HETATM   51  C   UNL     1     -25.223 -15.628  -0.796  1.00  0.00     0.000 C 
BRANCH  51  52
HETATM   52  C   UNL     1     -25.363 -16.709   0.274  1.00  0.00    -0.000 C 
BRANCH  52  53
HETATM   53  C   UNL     1     -26.740 -16.832   0.940  1.00  0.00    -0.005 C 
HETATM   54  C   UNL     1     -27.941 -16.441   0.087  1.00  0.00     0.005 C 
ENDBRANCH  52  53
ENDBRANCH  51  52
ENDBRANCH  50  51
ENDBRANCH  49  50
ENDBRANCH  48  49
BRANCH  48  55
HETATM   55  C   UNL     1     -23.321 -12.803   0.853  1.00  0.00     0.014 C 
BRANCH  55  56
HETATM   56  C   UNL     1     -22.005 -13.353   1.368  1.00  0.00     0.001 C 
BRANCH  56  57
HETATM   57  C   UNL     1     -22.302 -14.264   2.562  1.00  0.00     0.000 C 
BRANCH  57  58
HETATM   58  C   UNL     1     -23.804 -14.371   2.745  1.00  0.00     0.000 C 
BRANCH  58  59
HETATM   59  C   UNL     1     -24.151 -15.609   3.555  1.00  0.00     0.000 C 
BRANCH  59  60
HETATM   60  C   UNL     1     -25.302 -15.316   4.508  1.00  0.00    -0.000 C 
BRANCH  60  61
HETATM   61  C   UNL     1     -26.092 -16.589   4.784  1.00  0.00    -0.005 C 
HETATM   62  C   UNL     1     -27.571 -16.375   4.543  1.00  0.00     0.005 C 
ENDBRANCH  60  61
ENDBRANCH  59  60
ENDBRANCH  58  59
ENDBRANCH  57  58
ENDBRANCH  56  57
ENDBRANCH  55  56
ENDBRANCH  48  55
ENDBRANCH  46  48
ENDBRANCH  45  46
ENDBRANCH   2  45
BRANCH   3  63
HETATM   63  O   UNL     1     -21.986  -9.765  -4.113  1.00  0.00    -0.270 OA
BRANCH  63  64
HETATM   64  C   UNL     1     -20.905  -8.934  -4.347  1.00  0.00     0.268 C 
HETATM   65  O   UNL     1     -19.774  -9.202  -3.975  1.00  0.00    -0.264 OA
BRANCH  64  66
HETATM   66  C   UNL     1     -21.301  -7.723  -5.210  1.00  0.00     0.086 C 
BRANCH  66  67
HETATM   67  C   UNL     1     -22.150  -6.749  -4.353  1.00  0.00     0.014 C 
BRANCH  67  68
HETATM   68  C   UNL     1     -21.490  -6.165  -3.080  1.00  0.00     0.001 C 
BRANCH  68  69
HETATM   69  C   UNL     1     -22.208  -6.448  -1.757  1.00  0.00     0.000 C 
BRANCH  69  70
HETATM   70  C   UNL     1     -21.616  -7.649  -0.991  1.00  0.00    -0.000 C 
BRANCH  70  71
HETATM   71  C   UNL     1     -22.212  -7.979   0.384  1.00  0.00    -0.005 C 
HETATM   72  C   UNL     1     -21.234  -8.646   1.331  1.00  0.00     0.005 C 
ENDBRANCH  70  71
ENDBRANCH  69  70
ENDBRANCH  68  69
ENDBRANCH  67  68
ENDBRANCH  66  67
BRANCH  66  73
HETATM   73  C   UNL     1     -20.051  -6.986  -5.702  1.00  0.00     0.014 C 
BRANCH  73  74
HETATM   74  C   UNL     1     -20.219  -6.192  -6.992  1.00  0.00     0.001 C 
BRANCH  74  75
HETATM   75  C   UNL     1     -19.784  -4.740  -6.720  1.00  0.00     0.000 C 
BRANCH  75  76
HETATM   76  C   UNL     1     -20.470  -3.738  -7.636  1.00  0.00     0.000 C 
BRANCH  76  77
HETATM   77  C   UNL     1     -20.321  -4.114  -9.142  1.00  0.00     0.000 C 
BRANCH  77  78
HETATM   78  C   UNL     1     -21.663  -4.110  -9.897  1.00  0.00    -0.000 C 
BRANCH  78  79
HETATM   79  C   UNL     1     -23.034  -3.941  -9.209  1.00  0.00    -0.005 C 
HETATM   80  C   UNL     1     -24.293  -4.461  -9.960  1.00  0.00     0.005 C 
ENDBRANCH  78  79
ENDBRANCH  77  78
ENDBRANCH  76  77
ENDBRANCH  75  76
ENDBRANCH  74  75
ENDBRANCH  73  74
ENDBRANCH  66  73
ENDBRANCH  64  66
ENDBRANCH  63  64
ENDBRANCH   3  63
TORSDOF 62
BEGIN_RES ARG D 557
REMARK  4 active torsions:
REMARK  status: ('A' for Active; 'I' for Inactive)
REMARK    1  A    between atoms: CA   and  CB  
REMARK    2  A    between atoms: CB   and  CG  
REMARK    3  A    between atoms: CG   and  CD  
REMARK    4  A    between atoms: CD   and  NE  
REMARK       I    between atoms: NE   and  CZ  
REMARK       I    between atoms: CZ   and  NH1 
REMARK       I    between atoms: CZ   and  NH2 
ROOT
ATOM      1  CA  ARG D 557     -26.217   2.705 -17.014  1.00 35.49     0.159 C 
ENDROOT
BRANCH   1   2
ATOM      2  CB  ARG D 557     -26.789   1.319 -17.183  1.00 35.49     0.034 C 
BRANCH   2   3
ATOM      3  CG  ARG D 557     -25.837   0.202 -17.147  1.00 35.49     0.027 C 
BRANCH   3   4
ATOM      4  CD  ARG D 557     -24.761   0.410 -16.151  1.00 35.49     0.116 C 
BRANCH   4   5
ATOM      5  NE  ARG D 557     -24.909  -0.450 -15.006  1.00 35.49    -0.212 N 
ATOM      6  CZ  ARG D 557     -24.091  -1.420 -14.664  1.00 35.49     0.666 C 
ATOM      7  NH1 ARG D 557     -23.018  -1.725 -15.369  1.00 35.49    -0.235 N 
ATOM      8  NH2 ARG D 557     -24.369  -2.085 -13.580  1.00 35.49    -0.235 N 
ATOM      9  HH  ARG D 557     -22.814  -1.299 -16.084  1.00 35.49     0.174 HD
ATOM     10  HH  ARG D 557     -22.519  -2.366 -15.096  1.00 35.49     0.174 HD
ATOM     11  HH  ARG D 557     -25.065  -1.861 -13.140  1.00 35.49     0.174 HD
ATOM     12  HH  ARG D 557     -23.863  -2.716 -13.325  1.00 35.49     0.174 HD
ATOM     13  HE  ARG D 557     -25.613  -0.371 -14.535  1.00 35.49     0.178 HD
ENDBRANCH   4   5
ENDBRANCH   3   4
ENDBRANCH   2   3
ENDBRANCH   1   2
END_RES ARG D 557
BEGIN_RES GLU D 570
REMARK  3 active torsions:
REMARK  status: ('A' for Active; 'I' for Inactive)
REMARK    5  A    between atoms: CA   and  CB  
REMARK    6  A    between atoms: CB   and  CG  
REMARK    7  A    between atoms: CG   and  CD  
ROOT
ATOM     14  CA  GLU D 570     -18.033  -6.348 -13.375  1.00 32.92     0.160 C 
ENDROOT
BRANCH  14  15
ATOM     15  CB  GLU D 570     -19.500  -6.345 -13.794  1.00 32.92     0.043 C 
BRANCH  15  16
ATOM     16  CG  GLU D 570     -20.443  -5.538 -12.978  1.00 32.92     0.100 C 
BRANCH  16  17
ATOM     17  CD  GLU D 570     -21.735  -5.232 -13.700  1.00 32.92     0.185 C 
ATOM     18  OE1 GLU D 570     -22.195  -6.071 -14.499  1.00 32.92    -0.647 OA
ATOM     19  OE2 GLU D 570     -22.284  -4.135 -13.477  1.00 32.92    -0.647 OA
ENDBRANCH  16  17
ENDBRANCH  15  16
ENDBRANCH  14  15
END_RES GLU D 570
ENDMDL
MODEL 8
REMARK VINA RESULT:      -5.5      1.808      7.132
REMARK WARNING: 32 MAX_TORS EXCEEDED!!!
REMARK  62 active torsions:
REMARK  status: ('A' for Active; 'I' for Inactive)
REMARK    1  A    between atoms: C_2  and  C_3 
REMARK    2  A    between atoms: C_3  and  C_4 
REMARK    3  A    between atoms: C_4  and  C_5 
REMARK    4  A    between atoms: C_5  and  C_6 
REMARK    5  A    between atoms: C_6  and  C_7 
REMARK    6  A    between atoms: C_7  and  C_8 
REMARK    7  A    between atoms: C_8  and  C_9 
REMARK    8  A    between atoms: C_9  and  C_10 
REMARK    9  A    between atoms: C_9  and  C_16 
REMARK   10  A    between atoms: C_10  and  C_11 
REMARK   11  A    between atoms: C_11  and  C_12 
REMARK   12  A    between atoms: C_12  and  C_13 
REMARK   13  A    between atoms: C_13  and  C_14 
REMARK   14  A    between atoms: C_16  and  O_18 
REMARK   15  A    between atoms: O_18  and  C_19 
REMARK   16  A    between atoms: C_19  and  C_20 
REMARK   17  A    between atoms: C_20  and  C_21 
REMARK   18  A    between atoms: C_20  and  O_63 
REMARK   19  A    between atoms: C_22  and  O_45 
REMARK   20  A    between atoms: C_23  and  O_27 
REMARK   21  A    between atoms: O_27  and  C_28 
REMARK   22  A    between atoms: C_28  and  C_30 
REMARK   23  A    between atoms: C_30  and  C_31 
REMARK   24  A    between atoms: C_30  and  C_37 
REMARK   25  A    between atoms: C_31  and  C_32 
REMARK   26  A    between atoms: C_32  and  C_33 
REMARK   27  A    between atoms: C_33  and  C_34 
REMARK   28  A    between atoms: C_34  and  C_35 
REMARK   29  A    between atoms: C_37  and  C_38 
REMARK   30  A    between atoms: C_38  and  C_39 
REMARK   31  A    between atoms: C_39  and  C_40 
REMARK   32  A    between atoms: C_40  and  C_41 
REMARK   33  A    between atoms: C_41  and  C_42 
REMARK   34  A    between atoms: C_42  and  C_43 
REMARK   35  A    between atoms: O_45  and  C_46 
REMARK   36  A    between atoms: C_46  and  C_48 
REMARK   37  A    between atoms: C_48  and  C_49 
REMARK   38  A    between atoms: C_48  and  C_55 
REMARK   39  A    between atoms: C_49  and  C_50 
REMARK   40  A    between atoms: C_50  and  C_51 
REMARK   41  A    between atoms: C_51  and  C_52 
REMARK   42  A    between atoms: C_52  and  C_53 
REMARK   43  A    between atoms: C_55  and  C_56 
REMARK   44  A    between atoms: C_56  and  C_57 
REMARK   45  A    between atoms: C_57  and  C_58 
REMARK   46  A    between atoms: C_58  and  C_59 
REMARK   47  A    between atoms: C_59  and  C_60 
REMARK   48  A    between atoms: C_60  and  C_61 
REMARK   49  A    between atoms: O_63  and  C_64 
REMARK   50  A    between atoms: C_64  and  C_66 
REMARK   51  A    between atoms: C_66  and  C_67 
REMARK   52  A    between atoms: C_66  and  C_73 
REMARK   53  A    between atoms: C_67  and  C_68 
REMARK   54  A    between atoms: C_68  and  C_69 
REMARK   55  A    between atoms: C_69  and  C_70 
REMARK   56  A    between atoms: C_70  and  C_71 
REMARK   57  A    between atoms: C_73  and  C_74 
REMARK   58  A    between atoms: C_74  and  C_75 
REMARK   59  A    between atoms: C_75  and  C_76 
REMARK   60  A    between atoms: C_76  and  C_77 
REMARK   61  A    between atoms: C_77  and  C_78 
REMARK   62  A    between atoms: C_78  and  C_79 
ROOT
HETATM    1  C   UNL     1     -21.505  -9.120  -3.210  1.00  0.00     0.224 C 
HETATM    2  C   UNL     1     -21.657 -10.350  -2.354  1.00  0.00     0.129 C 
HETATM    3  C   UNL     1     -21.816  -9.995  -1.040  1.00  0.00     0.186 C 
HETATM    4  C   UNL     1     -21.957  -8.527  -1.020  1.00  0.00     0.321 C 
HETATM    5  O   UNL     1     -22.151  -7.857  -0.042  1.00  0.00    -0.257 OA
HETATM    6  O   UNL     1     -21.829  -8.060  -2.294  1.00  0.00    -0.301 OA
ENDROOT
BRANCH   1   7
HETATM    7  C   UNL     1     -20.106  -8.808  -3.888  1.00  0.00     0.192 C 
BRANCH   7   8
HETATM    8  C   UNL     1     -18.859  -8.974  -2.967  1.00  0.00     0.214 C 
BRANCH   8   9
HETATM    9  O   UNL     1     -18.110 -10.191  -3.310  1.00  0.00    -0.319 OA
BRANCH   9  10
HETATM   10  C   UNL     1     -16.764 -10.245  -3.091  1.00  0.00     0.263 C 
HETATM   11  O   UNL     1     -16.129  -9.292  -2.654  1.00  0.00    -0.265 OA
BRANCH  10  12
HETATM   12  C   UNL     1     -16.091 -11.562  -3.578  1.00  0.00     0.085 C 
BRANCH  12  13
HETATM   13  C   UNL     1     -17.195 -12.624  -3.904  1.00  0.00     0.014 C 
BRANCH  13  14
HETATM   14  C   UNL     1     -16.927 -14.151  -3.975  1.00  0.00     0.001 C 
BRANCH  14  15
HETATM   15  C   UNL     1     -17.391 -15.043  -2.810  1.00  0.00     0.000 C 
BRANCH  15  16
HETATM   16  C   UNL     1     -16.192 -15.519  -1.956  1.00  0.00     0.000 C 
BRANCH  16  17
HETATM   17  C   UNL     1     -15.240 -16.437  -2.733  1.00  0.00     0.000 C 
BRANCH  17  18
HETATM   18  C   UNL     1     -13.776 -16.083  -2.449  1.00  0.00    -0.000 C 
BRANCH  18  19
HETATM   19  C   UNL     1     -13.640 -14.732  -1.746  1.00  0.00    -0.005 C 
HETATM   20  C   UNL     1     -12.942 -13.720  -2.641  1.00  0.00     0.005 C 
ENDBRANCH  18  19
ENDBRANCH  17  18
ENDBRANCH  16  17
ENDBRANCH  15  16
ENDBRANCH  14  15
ENDBRANCH  13  14
ENDBRANCH  12  13
BRANCH  12  21
HETATM   21  C   UNL     1     -14.953 -11.350  -4.618  1.00  0.00     0.014 C 
BRANCH  21  22
HETATM   22  C   UNL     1     -15.026 -11.753  -6.108  1.00  0.00     0.001 C 
BRANCH  22  23
HETATM   23  C   UNL     1     -13.895 -12.489  -6.853  1.00  0.00     0.000 C 
BRANCH  23  24
HETATM   24  C   UNL     1     -13.171 -13.726  -6.284  1.00  0.00    -0.000 C 
BRANCH  24  25
HETATM   25  C   UNL     1     -13.913 -15.048  -6.050  1.00  0.00    -0.005 C 
HETATM   26  C   UNL     1     -13.172 -16.320  -6.442  1.00  0.00     0.005 C 
ENDBRANCH  24  25
ENDBRANCH  23  24
ENDBRANCH  22  23
ENDBRANCH  21  22
ENDBRANCH  12  21
ENDBRANCH  10  12
ENDBRANCH   9  10
ENDBRANCH   8   9
ENDBRANCH   7   8
BRANCH   7  27
HETATM   27  O   UNL     1     -20.176  -7.442  -4.369  1.00  0.00    -0.310 OA
BRANCH  27  28
HETATM   28  C   UNL     1     -20.985  -7.164  -5.440  1.00  0.00     0.263 C 
HETATM   29  O   UNL     1     -21.250  -7.926  -6.364  1.00  0.00    -0.265 OA
BRANCH  28  30
HETATM   30  C   UNL     1     -21.532  -5.751  -5.344  1.00  0.00     0.085 C 
BRANCH  30  31
HETATM   31  C   UNL     1     -20.450  -4.786  -5.817  1.00  0.00     0.014 C 
BRANCH  31  32
HETATM   32  C   UNL     1     -19.638  -5.361  -6.973  1.00  0.00     0.001 C 
BRANCH  32  33
HETATM   33  C   UNL     1     -18.843  -4.278  -7.683  1.00  0.00     0.000 C 
BRANCH  33  34
HETATM   34  C   UNL     1     -19.682  -3.690  -8.812  1.00  0.00    -0.000 C 
BRANCH  34  35
HETATM   35  C   UNL     1     -20.021  -4.747  -9.854  1.00  0.00    -0.005 C 
HETATM   36  C   UNL     1     -20.422  -4.095 -11.165  1.00  0.00     0.005 C 
ENDBRANCH  34  35
ENDBRANCH  33  34
ENDBRANCH  32  33
ENDBRANCH  31  32
ENDBRANCH  30  31
BRANCH  30  37
HETATM   37  C   UNL     1     -22.828  -5.575  -6.141  1.00  0.00     0.014 C 
BRANCH  37  38
HETATM   38  C   UNL     1     -22.699  -4.434  -7.116  1.00  0.00     0.001 C 
BRANCH  38  39
HETATM   39  C   UNL     1     -23.193  -4.858  -8.467  1.00  0.00     0.000 C 
BRANCH  39  40
HETATM   40  C   UNL     1     -23.610  -3.604  -9.178  1.00  0.00     0.000 C 
BRANCH  40  41
HETATM   41  C   UNL     1     -24.228  -4.006 -10.461  1.00  0.00     0.000 C 
BRANCH  41  42
HETATM   42  C   UNL     1     -23.840  -2.987 -11.490  1.00  0.00    -0.000 C 
BRANCH  42  43
HETATM   43  C   UNL     1     -23.850  -3.707 -12.789  1.00  0.00    -0.005 C 
HETATM   44  C   UNL     1     -23.106  -2.876 -13.786  1.00  0.00     0.005 C 
ENDBRANCH  42  43
ENDBRANCH  41  42
ENDBRANCH  40  41
ENDBRANCH  39  40
ENDBRANCH  38  39
ENDBRANCH  37  38
ENDBRANCH  30  37
ENDBRANCH  28  30
ENDBRANCH  27  28
ENDBRANCH   7  27
ENDBRANCH   1   7
BRANCH   2  45
HETATM   45  O   UNL     1     -21.371 -11.628  -2.810  1.00  0.00    -0.277 OA
BRANCH  45  46
HETATM   46  C   UNL     1     -21.855 -12.019  -4.057  1.00  0.00     0.268 C 
HETATM   47  O   UNL     1     -23.026 -11.906  -4.375  1.00  0.00    -0.264 OA
BRANCH  46  48
HETATM   48  C   UNL     1     -20.711 -12.565  -4.924  1.00  0.00     0.086 C 
BRANCH  48  49
HETATM   49  C   UNL     1     -20.945 -14.036  -5.304  1.00  0.00     0.014 C 
BRANCH  49  50
HETATM   50  C   UNL     1     -21.830 -14.400  -6.498  1.00  0.00     0.001 C 
BRANCH  50  51
HETATM   51  C   UNL     1     -22.241 -15.858  -6.684  1.00  0.00     0.000 C 
BRANCH  51  52
HETATM   52  C   UNL     1     -23.735 -16.023  -6.951  1.00  0.00    -0.000 C 
BRANCH  52  53
HETATM   53  C   UNL     1     -24.679 -15.615  -5.811  1.00  0.00    -0.005 C 
HETATM   54  C   UNL     1     -26.158 -15.511  -6.164  1.00  0.00     0.005 C 
ENDBRANCH  52  53
ENDBRANCH  51  52
ENDBRANCH  50  51
ENDBRANCH  49  50
ENDBRANCH  48  49
BRANCH  48  55
HETATM   55  C   UNL     1     -20.370 -11.776  -6.191  1.00  0.00     0.014 C 
BRANCH  55  56
HETATM   56  C   UNL     1     -18.999 -12.060  -6.773  1.00  0.00     0.001 C 
BRANCH  56  57
HETATM   57  C   UNL     1     -19.175 -12.453  -8.242  1.00  0.00     0.000 C 
BRANCH  57  58
HETATM   58  C   UNL     1     -18.681 -13.874  -8.439  1.00  0.00     0.000 C 
BRANCH  58  59
HETATM   59  C   UNL     1     -17.375 -14.088  -7.692  1.00  0.00     0.000 C 
BRANCH  59  60
HETATM   60  C   UNL     1     -17.221 -15.551  -7.299  1.00  0.00    -0.000 C 
BRANCH  60  61
HETATM   61  C   UNL     1     -18.589 -16.212  -7.188  1.00  0.00    -0.005 C 
HETATM   62  C   UNL     1     -18.718 -16.979  -5.891  1.00  0.00     0.005 C 
ENDBRANCH  60  61
ENDBRANCH  59  60
ENDBRANCH  58  59
ENDBRANCH  57  58
ENDBRANCH  56  57
ENDBRANCH  55  56
ENDBRANCH  48  55
ENDBRANCH  46  48
ENDBRANCH  45  46
ENDBRANCH   2  45
BRANCH   3  63
HETATM   63  O   UNL     1     -21.580 -10.739   0.146  1.00  0.00    -0.270 OA
BRANCH  63  64
HETATM   64  C   UNL     1     -22.424 -11.780   0.491  1.00  0.00     0.268 C 
HETATM   65  O   UNL     1     -23.622 -11.761   0.260  1.00  0.00    -0.264 OA
BRANCH  64  66
HETATM   66  C   UNL     1     -21.643 -12.967   1.083  1.00  0.00     0.086 C 
BRANCH  66  67
HETATM   67  C   UNL     1     -22.644 -13.949   1.744  1.00  0.00     0.014 C 
BRANCH  67  68
HETATM   68  C   UNL     1     -22.082 -14.928   2.803  1.00  0.00     0.001 C 
BRANCH  68  69
HETATM   69  C   UNL     1     -22.971 -15.183   4.024  1.00  0.00     0.000 C 
BRANCH  69  70
HETATM   70  C   UNL     1     -24.471 -14.958   3.741  1.00  0.00    -0.000 C 
BRANCH  70  71
HETATM   71  C   UNL     1     -25.473 -15.432   4.800  1.00  0.00    -0.005 C 
HETATM   72  C   UNL     1     -26.469 -16.453   4.287  1.00  0.00     0.005 C 
ENDBRANCH  70  71
ENDBRANCH  69  70
ENDBRANCH  68  69
ENDBRANCH  67  68
ENDBRANCH  66  67
BRANCH  66  73
HETATM   73  C   UNL     1     -20.879 -13.707  -0.020  1.00  0.00     0.014 C 
BRANCH  73  74
HETATM   74  C   UNL     1     -19.371 -13.806   0.176  1.00  0.00     0.001 C 
BRANCH  74  75
HETATM   75  C   UNL     1     -18.719 -12.590  -0.509  1.00  0.00     0.000 C 
BRANCH  75  76
HETATM   76  C   UNL     1     -17.628 -11.952   0.337  1.00  0.00     0.000 C 
BRANCH  76  77
HETATM   77  C   UNL     1     -16.200 -12.402  -0.102  1.00  0.00     0.000 C 
BRANCH  77  78
HETATM   78  C   UNL     1     -15.231 -12.566   1.085  1.00  0.00    -0.000 C 
BRANCH  78  79
HETATM   79  C   UNL     1     -15.043 -13.886   1.862  1.00  0.00    -0.005 C 
HETATM   80  C   UNL     1     -16.174 -14.950   1.771  1.00  0.00     0.005 C 
ENDBRANCH  78  79
ENDBRANCH  77  78
ENDBRANCH  76  77
ENDBRANCH  75  76
ENDBRANCH  74  75
ENDBRANCH  73  74
ENDBRANCH  66  73
ENDBRANCH  64  66
ENDBRANCH  63  64
ENDBRANCH   3  63
TORSDOF 62
BEGIN_RES ARG D 557
REMARK  4 active torsions:
REMARK  status: ('A' for Active; 'I' for Inactive)
REMARK    1  A    between atoms: CA   and  CB  
REMARK    2  A    between atoms: CB   and  CG  
REMARK    3  A    between atoms: CG   and  CD  
REMARK    4  A    between atoms: CD   and  NE  
REMARK       I    between atoms: NE   and  CZ  
REMARK       I    between atoms: CZ   and  NH1 
REMARK       I    between atoms: CZ   and  NH2 
ROOT
ATOM      1  CA  ARG D 557     -26.217   2.705 -17.014  1.00 35.49     0.159 C 
ENDROOT
BRANCH   1   2
ATOM      2  CB  ARG D 557     -26.789   1.319 -17.183  1.00 35.49     0.034 C 
BRANCH   2   3
ATOM      3  CG  ARG D 557     -28.235   1.225 -17.418  1.00 35.49     0.027 C 
BRANCH   3   4
ATOM      4  CD  ARG D 557     -28.897   0.279 -16.491  1.00 35.49     0.116 C 
BRANCH   4   5
ATOM      5  NE  ARG D 557     -29.255  -0.955 -17.140  1.00 35.49    -0.212 N 
ATOM      6  CZ  ARG D 557     -28.622  -2.100 -17.017  1.00 35.49     0.666 C 
ATOM      7  NH1 ARG D 557     -27.543  -2.236 -16.268  1.00 35.49    -0.235 N 
ATOM      8  NH2 ARG D 557     -29.100  -3.123 -17.663  1.00 35.49    -0.235 N 
ATOM      9  HH  ARG D 557     -27.212  -1.577 -15.832  1.00 35.49     0.174 HD
ATOM     10  HH  ARG D 557     -27.174  -3.008 -16.223  1.00 35.49     0.174 HD
ATOM     11  HH  ARG D 557     -29.802  -3.007 -18.133  1.00 35.49     0.174 HD
ATOM     12  HH  ARG D 557     -28.721  -3.879 -17.605  1.00 35.49     0.174 HD
ATOM     13  HE  ARG D 557     -29.896  -0.941 -17.699  1.00 35.49     0.178 HD
ENDBRANCH   4   5
ENDBRANCH   3   4
ENDBRANCH   2   3
ENDBRANCH   1   2
END_RES ARG D 557
BEGIN_RES GLU D 570
REMARK  3 active torsions:
REMARK  status: ('A' for Active; 'I' for Inactive)
REMARK    5  A    between atoms: CA   and  CB  
REMARK    6  A    between atoms: CB   and  CG  
REMARK    7  A    between atoms: CG   and  CD  
ROOT
ATOM     14  CA  GLU D 570     -18.033  -6.348 -13.375  1.00 32.92     0.160 C 
ENDROOT
BRANCH  14  15
ATOM     15  CB  GLU D 570     -19.500  -6.345 -13.794  1.00 32.92     0.043 C 
BRANCH  15  16
ATOM     16  CG  GLU D 570     -19.807  -6.008 -15.208  1.00 32.92     0.100 C 
BRANCH  16  17
ATOM     17  CD  GLU D 570     -21.265  -5.680 -15.432  1.00 32.92     0.185 C 
ATOM     18  OE1 GLU D 570     -21.568  -4.825 -16.286  1.00 32.92    -0.647 OA
ATOM     19  OE2 GLU D 570     -22.112  -6.272 -14.735  1.00 32.92    -0.647 OA
ENDBRANCH  16  17
ENDBRANCH  15  16
ENDBRANCH  14  15
END_RES GLU D 570
ENDMDL
MODEL 9
REMARK VINA RESULT:      -5.5      1.795      6.749
REMARK WARNING: 32 MAX_TORS EXCEEDED!!!
REMARK  62 active torsions:
REMARK  status: ('A' for Active; 'I' for Inactive)
REMARK    1  A    between atoms: C_2  and  C_3 
REMARK    2  A    between atoms: C_3  and  C_4 
REMARK    3  A    between atoms: C_4  and  C_5 
REMARK    4  A    between atoms: C_5  and  C_6 
REMARK    5  A    between atoms: C_6  and  C_7 
REMARK    6  A    between atoms: C_7  and  C_8 
REMARK    7  A    between atoms: C_8  and  C_9 
REMARK    8  A    between atoms: C_9  and  C_10 
REMARK    9  A    between atoms: C_9  and  C_16 
REMARK   10  A    between atoms: C_10  and  C_11 
REMARK   11  A    between atoms: C_11  and  C_12 
REMARK   12  A    between atoms: C_12  and  C_13 
REMARK   13  A    between atoms: C_13  and  C_14 
REMARK   14  A    between atoms: C_16  and  O_18 
REMARK   15  A    between atoms: O_18  and  C_19 
REMARK   16  A    between atoms: C_19  and  C_20 
REMARK   17  A    between atoms: C_20  and  C_21 
REMARK   18  A    between atoms: C_20  and  O_63 
REMARK   19  A    between atoms: C_22  and  O_45 
REMARK   20  A    between atoms: C_23  and  O_27 
REMARK   21  A    between atoms: O_27  and  C_28 
REMARK   22  A    between atoms: C_28  and  C_30 
REMARK   23  A    between atoms: C_30  and  C_31 
REMARK   24  A    between atoms: C_30  and  C_37 
REMARK   25  A    between atoms: C_31  and  C_32 
REMARK   26  A    between atoms: C_32  and  C_33 
REMARK   27  A    between atoms: C_33  and  C_34 
REMARK   28  A    between atoms: C_34  and  C_35 
REMARK   29  A    between atoms: C_37  and  C_38 
REMARK   30  A    between atoms: C_38  and  C_39 
REMARK   31  A    between atoms: C_39  and  C_40 
REMARK   32  A    between atoms: C_40  and  C_41 
REMARK   33  A    between atoms: C_41  and  C_42 
REMARK   34  A    between atoms: C_42  and  C_43 
REMARK   35  A    between atoms: O_45  and  C_46 
REMARK   36  A    between atoms: C_46  and  C_48 
REMARK   37  A    between atoms: C_48  and  C_49 
REMARK   38  A    between atoms: C_48  and  C_55 
REMARK   39  A    between atoms: C_49  and  C_50 
REMARK   40  A    between atoms: C_50  and  C_51 
REMARK   41  A    between atoms: C_51  and  C_52 
REMARK   42  A    between atoms: C_52  and  C_53 
REMARK   43  A    between atoms: C_55  and  C_56 
REMARK   44  A    between atoms: C_56  and  C_57 
REMARK   45  A    between atoms: C_57  and  C_58 
REMARK   46  A    between atoms: C_58  and  C_59 
REMARK   47  A    between atoms: C_59  and  C_60 
REMARK   48  A    between atoms: C_60  and  C_61 
REMARK   49  A    between atoms: O_63  and  C_64 
REMARK   50  A    between atoms: C_64  and  C_66 
REMARK   51  A    between atoms: C_66  and  C_67 
REMARK   52  A    between atoms: C_66  and  C_73 
REMARK   53  A    between atoms: C_67  and  C_68 
REMARK   54  A    between atoms: C_68  and  C_69 
REMARK   55  A    between atoms: C_69  and  C_70 
REMARK   56  A    between atoms: C_70  and  C_71 
REMARK   57  A    between atoms: C_73  and  C_74 
REMARK   58  A    between atoms: C_74  and  C_75 
REMARK   59  A    between atoms: C_75  and  C_76 
REMARK   60  A    between atoms: C_76  and  C_77 
REMARK   61  A    between atoms: C_77  and  C_78 
REMARK   62  A    between atoms: C_78  and  C_79 
ROOT
HETATM    1  C   UNL     1     -21.877  -8.795  -2.326  1.00  0.00     0.224 C 
HETATM    2  C   UNL     1     -22.165 -10.193  -1.845  1.00  0.00     0.129 C 
HETATM    3  C   UNL     1     -21.950 -10.284  -0.496  1.00  0.00     0.186 C 
HETATM    4  C   UNL     1     -21.693  -8.911  -0.023  1.00  0.00     0.321 C 
HETATM    5  O   UNL     1     -21.498  -8.589   1.119  1.00  0.00    -0.257 OA
HETATM    6  O   UNL     1     -21.715  -8.069  -1.095  1.00  0.00    -0.301 OA
ENDROOT
BRANCH   1   7
HETATM    7  C   UNL     1     -20.617  -8.531  -3.251  1.00  0.00     0.192 C 
BRANCH   7   8
HETATM    8  C   UNL     1     -19.247  -8.435  -2.514  1.00  0.00     0.214 C 
BRANCH   8   9
HETATM    9  O   UNL     1     -18.409  -9.605  -2.808  1.00  0.00    -0.319 OA
BRANCH   9  10
HETATM   10  C   UNL     1     -17.617  -9.612  -3.920  1.00  0.00     0.263 C 
HETATM   11  O   UNL     1     -18.054  -9.378  -5.041  1.00  0.00    -0.265 OA
BRANCH  10  12
HETATM   12  C   UNL     1     -16.157 -10.085  -3.659  1.00  0.00     0.085 C 
BRANCH  12  13
HETATM   13  C   UNL     1     -16.152 -11.179  -2.539  1.00  0.00     0.014 C 
BRANCH  13  14
HETATM   14  C   UNL     1     -16.754 -12.599  -2.718  1.00  0.00     0.001 C 
BRANCH  14  15
HETATM   15  C   UNL     1     -15.802 -13.801  -2.841  1.00  0.00     0.000 C 
BRANCH  15  16
HETATM   16  C   UNL     1     -14.384 -13.448  -2.331  1.00  0.00     0.000 C 
BRANCH  16  17
HETATM   17  C   UNL     1     -13.410 -14.629  -2.427  1.00  0.00     0.000 C 
BRANCH  17  18
HETATM   18  C   UNL     1     -13.472 -15.501  -1.169  1.00  0.00    -0.000 C 
BRANCH  18  19
HETATM   19  C   UNL     1     -13.011 -14.743   0.077  1.00  0.00    -0.005 C 
HETATM   20  C   UNL     1     -11.524 -14.433   0.007  1.00  0.00     0.005 C 
ENDBRANCH  18  19
ENDBRANCH  17  18
ENDBRANCH  16  17
ENDBRANCH  15  16
ENDBRANCH  14  15
ENDBRANCH  13  14
ENDBRANCH  12  13
BRANCH  12  21
HETATM   21  C   UNL     1     -15.336 -10.361  -4.952  1.00  0.00     0.014 C 
BRANCH  21  22
HETATM   22  C   UNL     1     -15.578 -11.539  -5.922  1.00  0.00     0.001 C 
BRANCH  22  23
HETATM   23  C   UNL     1     -14.448 -12.307  -6.638  1.00  0.00     0.000 C 
BRANCH  23  24
HETATM   24  C   UNL     1     -13.573 -13.368  -5.941  1.00  0.00    -0.000 C 
BRANCH  24  25
HETATM   25  C   UNL     1     -13.823 -14.868  -6.146  1.00  0.00    -0.005 C 
HETATM   26  C   UNL     1     -15.278 -15.305  -6.253  1.00  0.00     0.005 C 
ENDBRANCH  24  25
ENDBRANCH  23  24
ENDBRANCH  22  23
ENDBRANCH  21  22
ENDBRANCH  12  21
ENDBRANCH  10  12
ENDBRANCH   9  10
ENDBRANCH   8   9
ENDBRANCH   7   8
BRANCH   7  27
HETATM   27  O   UNL     1     -20.877  -7.291  -3.958  1.00  0.00    -0.310 OA
BRANCH  27  28
HETATM   28  C   UNL     1     -21.059  -7.335  -5.315  1.00  0.00     0.263 C 
HETATM   29  O   UNL     1     -21.144  -8.348  -6.002  1.00  0.00    -0.265 OA
BRANCH  28  30
HETATM   30  C   UNL     1     -21.145  -5.931  -5.889  1.00  0.00     0.085 C 
BRANCH  30  31
HETATM   31  C   UNL     1     -20.292  -5.878  -7.152  1.00  0.00     0.014 C 
BRANCH  31  32
HETATM   32  C   UNL     1     -19.428  -4.622  -7.206  1.00  0.00     0.001 C 
BRANCH  32  33
HETATM   33  C   UNL     1     -19.462  -3.987  -8.586  1.00  0.00     0.000 C 
BRANCH  33  34
HETATM   34  C   UNL     1     -20.152  -4.932  -9.563  1.00  0.00    -0.000 C 
BRANCH  34  35
HETATM   35  C   UNL     1     -20.116  -4.380 -10.981  1.00  0.00    -0.005 C 
HETATM   36  C   UNL     1     -20.427  -2.893 -10.984  1.00  0.00     0.005 C 
ENDBRANCH  34  35
ENDBRANCH  33  34
ENDBRANCH  32  33
ENDBRANCH  31  32
ENDBRANCH  30  31
BRANCH  30  37
HETATM   37  C   UNL     1     -22.589  -5.506  -6.170  1.00  0.00     0.014 C 
BRANCH  37  38
HETATM   38  C   UNL     1     -22.622  -4.340  -7.124  1.00  0.00     0.001 C 
BRANCH  38  39
HETATM   39  C   UNL     1     -23.490  -4.669  -8.302  1.00  0.00     0.000 C 
BRANCH  39  40
HETATM   40  C   UNL     1     -23.540  -3.430  -9.148  1.00  0.00     0.000 C 
BRANCH  40  41
HETATM   41  C   UNL     1     -24.580  -3.640 -10.179  1.00  0.00     0.000 C 
BRANCH  41  42
HETATM   42  C   UNL     1     -23.919  -3.524 -11.520  1.00  0.00    -0.000 C 
BRANCH  42  43
HETATM   43  C   UNL     1     -23.678  -4.918 -11.969  1.00  0.00    -0.005 C 
HETATM   44  C   UNL     1     -22.948  -4.867 -13.274  1.00  0.00     0.005 C 
ENDBRANCH  42  43
ENDBRANCH  41  42
ENDBRANCH  40  41
ENDBRANCH  39  40
ENDBRANCH  38  39
ENDBRANCH  37  38
ENDBRANCH  30  37
ENDBRANCH  28  30
ENDBRANCH  27  28
ENDBRANCH   7  27
ENDBRANCH   1   7
BRANCH   2  45
HETATM   45  O   UNL     1     -22.325 -11.269  -2.706  1.00  0.00    -0.277 OA
BRANCH  45  46
HETATM   46  C   UNL     1     -21.190 -11.858  -3.261  1.00  0.00     0.268 C 
HETATM   47  O   UNL     1     -20.324 -12.387  -2.586  1.00  0.00    -0.264 OA
BRANCH  46  48
HETATM   48  C   UNL     1     -21.231 -11.751  -4.792  1.00  0.00     0.086 C 
BRANCH  48  49
HETATM   49  C   UNL     1     -19.881 -12.134  -5.420  1.00  0.00     0.014 C 
BRANCH  49  50
HETATM   50  C   UNL     1     -19.644 -11.959  -6.923  1.00  0.00     0.001 C 
BRANCH  50  51
HETATM   51  C   UNL     1     -18.589 -12.828  -7.600  1.00  0.00     0.000 C 
BRANCH  51  52
HETATM   52  C   UNL     1     -19.051 -13.378  -8.948  1.00  0.00    -0.000 C 
BRANCH  52  53
HETATM   53  C   UNL     1     -18.232 -14.541  -9.525  1.00  0.00    -0.005 C 
HETATM   54  C   UNL     1     -18.448 -15.905  -8.881  1.00  0.00     0.005 C 
ENDBRANCH  52  53
ENDBRANCH  51  52
ENDBRANCH  50  51
ENDBRANCH  49  50
ENDBRANCH  48  49
BRANCH  48  55
HETATM   55  C   UNL     1     -22.344 -12.521  -5.507  1.00  0.00     0.014 C 
BRANCH  55  56
HETATM   56  C   UNL     1     -22.615 -13.910  -4.962  1.00  0.00     0.001 C 
BRANCH  56  57
HETATM   57  C   UNL     1     -22.781 -14.865  -6.147  1.00  0.00     0.000 C 
BRANCH  57  58
HETATM   58  C   UNL     1     -21.414 -15.203  -6.710  1.00  0.00     0.000 C 
BRANCH  58  59
HETATM   59  C   UNL     1     -20.682 -16.159  -5.782  1.00  0.00     0.000 C 
BRANCH  59  60
HETATM   60  C   UNL     1     -19.350 -15.563  -5.348  1.00  0.00    -0.000 C 
BRANCH  60  61
HETATM   61  C   UNL     1     -19.169 -15.723  -3.843  1.00  0.00    -0.005 C 
HETATM   62  C   UNL     1     -20.442 -16.218  -3.191  1.00  0.00     0.005 C 
ENDBRANCH  60  61
ENDBRANCH  59  60
ENDBRANCH  58  59
ENDBRANCH  57  58
ENDBRANCH  56  57
ENDBRANCH  55  56
ENDBRANCH  48  55
ENDBRANCH  46  48
ENDBRANCH  45  46
ENDBRANCH   2  45
BRANCH   3  63
HETATM   63  O   UNL     1     -21.676 -11.417   0.315  1.00  0.00    -0.270 OA
BRANCH  63  64
HETATM   64  C   UNL     1     -22.685 -12.315   0.614  1.00  0.00     0.268 C 
HETATM   65  O   UNL     1     -23.864 -12.072   0.417  1.00  0.00    -0.264 OA
BRANCH  64  66
HETATM   66  C   UNL     1     -22.116 -13.659   1.105  1.00  0.00     0.086 C 
BRANCH  66  67
HETATM   67  C   UNL     1     -23.287 -14.562   1.570  1.00  0.00     0.014 C 
BRANCH  67  68
HETATM   68  C   UNL     1     -23.855 -14.312   2.988  1.00  0.00     0.001 C 
BRANCH  68  69
HETATM   69  C   UNL     1     -24.150 -15.560   3.826  1.00  0.00     0.000 C 
BRANCH  69  70
HETATM   70  C   UNL     1     -25.575 -15.569   4.420  1.00  0.00    -0.000 C 
BRANCH  70  71
HETATM   71  C   UNL     1     -25.736 -15.145   5.885  1.00  0.00    -0.005 C 
HETATM   72  C   UNL     1     -26.994 -14.342   6.154  1.00  0.00     0.005 C 
ENDBRANCH  70  71
ENDBRANCH  69  70
ENDBRANCH  68  69
ENDBRANCH  67  68
ENDBRANCH  66  67
BRANCH  66  73
HETATM   73  C   UNL     1     -21.366 -14.366  -0.028  1.00  0.00     0.014 C 
BRANCH  73  74
HETATM   74  C   UNL     1     -20.200 -15.249   0.404  1.00  0.00     0.001 C 
BRANCH  74  75
HETATM   75  C   UNL     1     -18.909 -14.661  -0.194  1.00  0.00     0.000 C 
BRANCH  75  76
HETATM   76  C   UNL     1     -17.801 -15.694  -0.337  1.00  0.00     0.000 C 
BRANCH  76  77
HETATM   77  C   UNL     1     -16.640 -15.460   0.677  1.00  0.00     0.000 C 
BRANCH  77  78
HETATM   78  C   UNL     1     -16.854 -14.216   1.559  1.00  0.00    -0.000 C 
BRANCH  78  79
HETATM   79  C   UNL     1     -15.729 -13.231   1.940  1.00  0.00    -0.005 C 
HETATM   80  C   UNL     1     -15.437 -12.052   0.968  1.00  0.00     0.005 C 
ENDBRANCH  78  79
ENDBRANCH  77  78
ENDBRANCH  76  77
ENDBRANCH  75  76
ENDBRANCH  74  75
ENDBRANCH  73  74
ENDBRANCH  66  73
ENDBRANCH  64  66
ENDBRANCH  63  64
ENDBRANCH   3  63
TORSDOF 62
BEGIN_RES ARG D 557
REMARK  4 active torsions:
REMARK  status: ('A' for Active; 'I' for Inactive)
REMARK    1  A    between atoms: CA   and  CB  
REMARK    2  A    between atoms: CB   and  CG  
REMARK    3  A    between atoms: CG   and  CD  
REMARK    4  A    between atoms: CD   and  NE  
REMARK       I    between atoms: NE   and  CZ  
REMARK       I    between atoms: CZ   and  NH1 
REMARK       I    between atoms: CZ   and  NH2 
ROOT
ATOM      1  CA  ARG D 557     -26.217   2.705 -17.014  1.00 35.49     0.159 C 
ENDROOT
BRANCH   1   2
ATOM      2  CB  ARG D 557     -26.789   1.319 -17.183  1.00 35.49     0.034 C 
BRANCH   2   3
ATOM      3  CG  ARG D 557     -28.230   1.227 -17.445  1.00 35.49     0.027 C 
BRANCH   3   4
ATOM      4  CD  ARG D 557     -28.915   0.298 -16.517  1.00 35.49     0.116 C 
BRANCH   4   5
ATOM      5  NE  ARG D 557     -28.128  -0.877 -16.247  1.00 35.49    -0.212 N 
ATOM      6  CZ  ARG D 557     -28.359  -2.081 -16.721  1.00 35.49     0.666 C 
ATOM      7  NH1 ARG D 557     -29.383  -2.348 -17.511  1.00 35.49    -0.235 N 
ATOM      8  NH2 ARG D 557     -27.529  -3.026 -16.388  1.00 35.49    -0.235 N 
ATOM      9  HH  ARG D 557     -29.941  -1.741 -17.744  1.00 35.49     0.174 HD
ATOM     10  HH  ARG D 557     -29.481  -3.151 -17.791  1.00 35.49     0.174 HD
ATOM     11  HH  ARG D 557     -26.872  -2.823 -15.883  1.00 35.49     0.174 HD
ATOM     12  HH  ARG D 557     -27.642  -3.815 -16.678  1.00 35.49     0.174 HD
ATOM     13  HE  ARG D 557     -27.491  -0.811 -15.689  1.00 35.49     0.178 HD
ENDBRANCH   4   5
ENDBRANCH   3   4
ENDBRANCH   2   3
ENDBRANCH   1   2
END_RES ARG D 557
BEGIN_RES GLU D 570
REMARK  3 active torsions:
REMARK  status: ('A' for Active; 'I' for Inactive)
REMARK    5  A    between atoms: CA   and  CB  
REMARK    6  A    between atoms: CB   and  CG  
REMARK    7  A    between atoms: CG   and  CD  
ROOT
ATOM     14  CA  GLU D 570     -18.033  -6.348 -13.375  1.00 32.92     0.160 C 
ENDROOT
BRANCH  14  15
ATOM     15  CB  GLU D 570     -19.500  -6.345 -13.794  1.00 32.92     0.043 C 
BRANCH  15  16
ATOM     16  CG  GLU D 570     -20.011  -7.544 -14.507  1.00 32.92     0.100 C 
BRANCH  16  17
ATOM     17  CD  GLU D 570     -20.844  -7.199 -15.719  1.00 32.92     0.185 C 
ATOM     18  OE1 GLU D 570     -21.830  -7.908 -15.998  1.00 32.92    -0.647 OA
ATOM     19  OE2 GLU D 570     -20.497  -6.218 -16.407  1.00 32.92    -0.647 OA
ENDBRANCH  16  17
ENDBRANCH  15  16
ENDBRANCH  14  15
END_RES GLU D 570
ENDMDL
