MODEL 1
REMARK VINA RESULT:      -7.6      0.000      0.000
REMARK  6 active torsions:
REMARK  status: ('A' for Active; 'I' for Inactive)
REMARK    1  A    between atoms: CZ_3  and  OH_13 
REMARK    2  A    between atoms: CG_6  and  CB_7 
REMARK    3  A    between atoms: CB_7  and  CA_8 
REMARK    4  A    between atoms: CA_8  and  C_9 
REMARK    5  A    between atoms: CA_8  and  N_12 
REMARK    6  A    between atoms: C_9  and  OXT_11 
ROOT
ATOM      1  CB  TYR A   1     -22.862  -2.980 -12.781  1.00  0.00     0.085 C 
ENDROOT
BRANCH   1   2
ATOM      2  CG  TYR A   1     -23.051  -3.277 -11.310  1.00  0.00    -0.055 A 
ATOM      3  CD2 TYR A   1     -21.939  -3.631 -10.525  1.00  0.00     0.010 A 
ATOM      4  CE2 TYR A   1     -22.095  -3.977  -9.182  1.00  0.00     0.037 A 
ATOM      5  CZ  TYR A   1     -23.363  -3.963  -8.615  1.00  0.00     0.065 A 
ATOM      6  CE1 TYR A   1     -24.473  -3.600  -9.366  1.00  0.00     0.037 A 
ATOM      7  CD1 TYR A   1     -24.321  -3.270 -10.716  1.00  0.00     0.010 A 
BRANCH   5   8
ATOM      8  OH  TYR A   1     -23.564  -4.321  -7.316  1.00  0.00    -0.361 OA
ATOM      9  HH  TYR A   1     -24.520  -4.407  -7.162  1.00  0.00     0.217 HD
ENDBRANCH   5   8
ENDBRANCH   1   2
BRANCH   1  10
ATOM     10  CA  TYR A   1     -24.137  -3.001 -13.641  1.00  0.00     0.318 C 
BRANCH  10  11
ATOM     11  C   TYR A   1     -24.109  -1.942 -14.760  1.00  0.00     0.174 C 
ATOM     12  O   TYR A   1     -25.022  -1.150 -14.966  1.00  0.00    -0.648 OA
BRANCH  11  13
ATOM     13  OXT TYR A   1     -22.965  -1.899 -15.478  1.00  0.00    -0.775 OA
ATOM     14  HXT TYR A   1     -22.235  -1.396 -15.070  1.00  0.00     0.167 HD
ENDBRANCH  11  13
ENDBRANCH  10  11
BRANCH  10  15
ATOM     15  N   TYR A   1     -24.252  -4.353 -14.256  1.00  0.00     0.093 N 
ATOM     16  H1  TYR A   1     -24.241  -4.234 -15.276  1.00  0.00     0.314 HD
ATOM     17  H2  TYR A   1     -25.200  -4.696 -14.086  1.00  0.00     0.314 HD
ENDBRANCH  10  15
ENDBRANCH   1  10
TORSDOF 6
BEGIN_RES ARG D 557
REMARK  4 active torsions:
REMARK  status: ('A' for Active; 'I' for Inactive)
REMARK    1  A    between atoms: CA   and  CB  
REMARK    2  A    between atoms: CB   and  CG  
REMARK    3  A    between atoms: CG   and  CD  
REMARK    4  A    between atoms: CD   and  NE  
REMARK       I    between atoms: NE   and  CZ  
REMARK       I    between atoms: CZ   and  NH1 
REMARK       I    between atoms: CZ   and  NH2 
ROOT
ATOM      1  CA  ARG D 557     -26.217   2.705 -17.014  1.00 35.49     0.159 C 
ENDROOT
BRANCH   1   2
ATOM      2  CB  ARG D 557     -26.789   1.319 -17.183  1.00 35.49     0.034 C 
BRANCH   2   3
ATOM      3  CG  ARG D 557     -28.219   1.155 -16.896  1.00 35.49     0.027 C 
BRANCH   3   4
ATOM      4  CD  ARG D 557     -28.696  -0.220 -17.171  1.00 35.49     0.116 C 
BRANCH   4   5
ATOM      5  NE  ARG D 557     -27.897  -1.214 -16.505  1.00 35.49    -0.212 N 
ATOM      6  CZ  ARG D 557     -28.021  -2.516 -16.640  1.00 35.49     0.666 C 
ATOM      7  NH1 ARG D 557     -28.935  -3.064 -17.418  1.00 35.49    -0.235 N 
ATOM      8  NH2 ARG D 557     -27.194  -3.270 -15.975  1.00 35.49    -0.235 N 
ATOM      9  HH  ARG D 557     -29.488  -2.587 -17.866  1.00 35.49     0.174 HD
ATOM     10  HH  ARG D 557     -28.967  -3.919 -17.468  1.00 35.49     0.174 HD
ATOM     11  HH  ARG D 557     -26.609  -2.888 -15.486  1.00 35.49     0.174 HD
ATOM     12  HH  ARG D 557     -27.241  -4.114 -16.039  1.00 35.49     0.174 HD
ATOM     13  HE  ARG D 557     -27.330  -0.951 -15.928  1.00 35.49     0.178 HD
ENDBRANCH   4   5
ENDBRANCH   3   4
ENDBRANCH   2   3
ENDBRANCH   1   2
END_RES ARG D 557
BEGIN_RES GLU D 570
REMARK  3 active torsions:
REMARK  status: ('A' for Active; 'I' for Inactive)
REMARK    5  A    between atoms: CA   and  CB  
REMARK    6  A    between atoms: CB   and  CG  
REMARK    7  A    between atoms: CG   and  CD  
ROOT
ATOM     14  CA  GLU D 570     -18.033  -6.348 -13.375  1.00 32.92     0.160 C 
ENDROOT
BRANCH  14  15
ATOM     15  CB  GLU D 570     -19.500  -6.345 -13.794  1.00 32.92     0.043 C 
BRANCH  15  16
ATOM     16  CG  GLU D 570     -19.815  -5.916 -15.181  1.00 32.92     0.100 C 
BRANCH  16  17
ATOM     17  CD  GLU D 570     -21.283  -5.629 -15.390  1.00 32.92     0.185 C 
ATOM     18  OE1 GLU D 570     -22.120  -6.497 -15.076  1.00 32.92    -0.647 OA
ATOM     19  OE2 GLU D 570     -21.599  -4.531 -15.889  1.00 32.92    -0.647 OA
ENDBRANCH  16  17
ENDBRANCH  15  16
ENDBRANCH  14  15
END_RES GLU D 570
ENDMDL
MODEL 2
REMARK VINA RESULT:      -7.4      3.360      6.747
REMARK  6 active torsions:
REMARK  status: ('A' for Active; 'I' for Inactive)
REMARK    1  A    between atoms: CZ_3  and  OH_13 
REMARK    2  A    between atoms: CG_6  and  CB_7 
REMARK    3  A    between atoms: CB_7  and  CA_8 
REMARK    4  A    between atoms: CA_8  and  C_9 
REMARK    5  A    between atoms: CA_8  and  N_12 
REMARK    6  A    between atoms: C_9  and  OXT_11 
ROOT
ATOM      1  CB  TYR A   1     -27.556  -6.499 -16.044  1.00  0.00     0.085 C 
ENDROOT
BRANCH   1   2
ATOM      2  CG  TYR A   1     -28.629  -5.534 -16.501  1.00  0.00    -0.055 A 
ATOM      3  CD2 TYR A   1     -29.966  -5.966 -16.570  1.00  0.00     0.010 A 
ATOM      4  CE2 TYR A   1     -30.965  -5.119 -17.052  1.00  0.00     0.037 A 
ATOM      5  CZ  TYR A   1     -30.632  -3.834 -17.460  1.00  0.00     0.065 A 
ATOM      6  CE1 TYR A   1     -29.322  -3.379 -17.384  1.00  0.00     0.037 A 
ATOM      7  CD1 TYR A   1     -28.317  -4.233 -16.918  1.00  0.00     0.010 A 
BRANCH   5   8
ATOM      8  OH  TYR A   1     -31.570  -2.983 -17.964  1.00  0.00    -0.361 OA
ATOM      9  HH  TYR A   1     -32.092  -2.624 -17.226  1.00  0.00     0.217 HD
ENDBRANCH   5   8
ENDBRANCH   1   2
BRANCH   1  10
ATOM     10  CA  TYR A   1     -26.140  -6.234 -16.583  1.00  0.00     0.318 C 
BRANCH  10  11
ATOM     11  C   TYR A   1     -25.055  -6.969 -15.771  1.00  0.00     0.174 C 
ATOM     12  O   TYR A   1     -24.566  -8.041 -16.109  1.00  0.00    -0.648 OA
BRANCH  11  13
ATOM     13  OXT TYR A   1     -24.623  -6.313 -14.671  1.00  0.00    -0.775 OA
ATOM     14  HXT TYR A   1     -24.347  -5.388 -14.819  1.00  0.00     0.167 HD
ENDBRANCH  11  13
ENDBRANCH  10  11
BRANCH  10  15
ATOM     15  N   TYR A   1     -26.091  -6.706 -17.995  1.00  0.00     0.093 N 
ATOM     16  H1  TYR A   1     -26.393  -7.688 -18.006  1.00  0.00     0.314 HD
ATOM     17  H2  TYR A   1     -25.109  -6.776 -18.269  1.00  0.00     0.314 HD
ENDBRANCH  10  15
ENDBRANCH   1  10
TORSDOF 6
BEGIN_RES ARG D 557
REMARK  4 active torsions:
REMARK  status: ('A' for Active; 'I' for Inactive)
REMARK    1  A    between atoms: CA   and  CB  
REMARK    2  A    between atoms: CB   and  CG  
REMARK    3  A    between atoms: CG   and  CD  
REMARK    4  A    between atoms: CD   and  NE  
REMARK       I    between atoms: NE   and  CZ  
REMARK       I    between atoms: CZ   and  NH1 
REMARK       I    between atoms: CZ   and  NH2 
ROOT
ATOM      1  CA  ARG D 557     -26.217   2.705 -17.014  1.00 35.49     0.159 C 
ENDROOT
BRANCH   1   2
ATOM      2  CB  ARG D 557     -26.789   1.319 -17.183  1.00 35.49     0.034 C 
BRANCH   2   3
ATOM      3  CG  ARG D 557     -25.865   0.195 -16.989  1.00 35.49     0.027 C 
BRANCH   3   4
ATOM      4  CD  ARG D 557     -26.308  -0.721 -15.913  1.00 35.49     0.116 C 
BRANCH   4   5
ATOM      5  NE  ARG D 557     -25.285  -0.929 -14.922  1.00 35.49    -0.212 N 
ATOM      6  CZ  ARG D 557     -24.972  -2.080 -14.372  1.00 35.49     0.666 C 
ATOM      7  NH1 ARG D 557     -25.598  -3.203 -14.672  1.00 35.49    -0.235 N 
ATOM      8  NH2 ARG D 557     -24.001  -2.087 -13.505  1.00 35.49    -0.235 N 
ATOM      9  HH  ARG D 557     -26.238  -3.223 -15.241  1.00 35.49     0.174 HD
ATOM     10  HH  ARG D 557     -25.348  -3.925 -14.283  1.00 35.49     0.174 HD
ATOM     11  HH  ARG D 557     -23.610  -1.348 -13.336  1.00 35.49     0.174 HD
ATOM     12  HH  ARG D 557     -23.768  -2.811 -13.131  1.00 35.49     0.174 HD
ATOM     13  HE  ARG D 557     -24.880  -0.246 -14.617  1.00 35.49     0.178 HD
ENDBRANCH   4   5
ENDBRANCH   3   4
ENDBRANCH   2   3
ENDBRANCH   1   2
END_RES ARG D 557
BEGIN_RES GLU D 570
REMARK  3 active torsions:
REMARK  status: ('A' for Active; 'I' for Inactive)
REMARK    5  A    between atoms: CA   and  CB  
REMARK    6  A    between atoms: CB   and  CG  
REMARK    7  A    between atoms: CG   and  CD  
ROOT
ATOM     14  CA  GLU D 570     -18.033  -6.348 -13.375  1.00 32.92     0.160 C 
ENDROOT
BRANCH  14  15
ATOM     15  CB  GLU D 570     -19.500  -6.345 -13.794  1.00 32.92     0.043 C 
BRANCH  15  16
ATOM     16  CG  GLU D 570     -20.445  -5.544 -12.973  1.00 32.92     0.100 C 
BRANCH  16  17
ATOM     17  CD  GLU D 570     -21.711  -5.183 -13.716  1.00 32.92     0.185 C 
ATOM     18  OE1 GLU D 570     -22.698  -4.785 -13.069  1.00 32.92    -0.647 OA
ATOM     19  OE2 GLU D 570     -21.720  -5.317 -14.955  1.00 32.92    -0.647 OA
ENDBRANCH  16  17
ENDBRANCH  15  16
ENDBRANCH  14  15
END_RES GLU D 570
ENDMDL
MODEL 3
REMARK VINA RESULT:      -6.8      1.486      1.685
REMARK  6 active torsions:
REMARK  status: ('A' for Active; 'I' for Inactive)
REMARK    1  A    between atoms: CZ_3  and  OH_13 
REMARK    2  A    between atoms: CG_6  and  CB_7 
REMARK    3  A    between atoms: CB_7  and  CA_8 
REMARK    4  A    between atoms: CA_8  and  C_9 
REMARK    5  A    between atoms: CA_8  and  N_12 
REMARK    6  A    between atoms: C_9  and  OXT_11 
ROOT
ATOM      1  CB  TYR A   1     -22.396  -4.485 -12.215  1.00  0.00     0.085 C 
ENDROOT
BRANCH   1   2
ATOM      2  CG  TYR A   1     -21.963  -4.327 -10.773  1.00  0.00    -0.055 A 
ATOM      3  CD2 TYR A   1     -20.596  -4.203 -10.470  1.00  0.00     0.010 A 
ATOM      4  CE2 TYR A   1     -20.163  -4.124  -9.146  1.00  0.00     0.037 A 
ATOM      5  CZ  TYR A   1     -21.097  -4.162  -8.119  1.00  0.00     0.065 A 
ATOM      6  CE1 TYR A   1     -22.454  -4.266  -8.395  1.00  0.00     0.037 A 
ATOM      7  CD1 TYR A   1     -22.888  -4.362  -9.720  1.00  0.00     0.010 A 
BRANCH   5   8
ATOM      8  OH  TYR A   1     -20.717  -4.118  -6.811  1.00  0.00    -0.361 OA
ATOM      9  HH  TYR A   1     -20.494  -5.018  -6.521  1.00  0.00     0.217 HD
ENDBRANCH   5   8
ENDBRANCH   1   2
BRANCH   1  10
ATOM     10  CA  TYR A   1     -22.631  -3.179 -12.993  1.00  0.00     0.318 C 
BRANCH  10  11
ATOM     11  C   TYR A   1     -23.023  -3.432 -14.462  1.00  0.00     0.174 C 
ATOM     12  O   TYR A   1     -24.001  -4.092 -14.797  1.00  0.00    -0.648 OA
BRANCH  11  13
ATOM     13  OXT TYR A   1     -22.241  -2.817 -15.376  1.00  0.00    -0.775 OA
ATOM     14  HXT TYR A   1     -21.326  -2.637 -15.089  1.00  0.00     0.167 HD
ENDBRANCH  11  13
ENDBRANCH  10  11
BRANCH  10  15
ATOM     15  N   TYR A   1     -23.730  -2.434 -12.319  1.00  0.00     0.093 N 
ATOM     16  H1  TYR A   1     -24.244  -1.915 -13.041  1.00  0.00     0.314 HD
ATOM     17  H2  TYR A   1     -23.309  -1.682 -11.768  1.00  0.00     0.314 HD
ENDBRANCH  10  15
ENDBRANCH   1  10
TORSDOF 6
BEGIN_RES ARG D 557
REMARK  4 active torsions:
REMARK  status: ('A' for Active; 'I' for Inactive)
REMARK    1  A    between atoms: CA   and  CB  
REMARK    2  A    between atoms: CB   and  CG  
REMARK    3  A    between atoms: CG   and  CD  
REMARK    4  A    between atoms: CD   and  NE  
REMARK       I    between atoms: NE   and  CZ  
REMARK       I    between atoms: CZ   and  NH1 
REMARK       I    between atoms: CZ   and  NH2 
ROOT
ATOM      1  CA  ARG D 557     -26.217   2.705 -17.014  1.00 35.49     0.159 C 
ENDROOT
BRANCH   1   2
ATOM      2  CB  ARG D 557     -26.789   1.319 -17.183  1.00 35.49     0.034 C 
BRANCH   2   3
ATOM      3  CG  ARG D 557     -28.227   1.163 -16.933  1.00 35.49     0.027 C 
BRANCH   3   4
ATOM      4  CD  ARG D 557     -28.624  -0.257 -16.791  1.00 35.49     0.116 C 
BRANCH   4   5
ATOM      5  NE  ARG D 557     -27.637  -1.028 -16.083  1.00 35.49    -0.212 N 
ATOM      6  CZ  ARG D 557     -27.492  -2.332 -16.145  1.00 35.49     0.666 C 
ATOM      7  NH1 ARG D 557     -28.276  -3.099 -16.880  1.00 35.49    -0.235 N 
ATOM      8  NH2 ARG D 557     -26.527  -2.863 -15.451  1.00 35.49    -0.235 N 
ATOM      9  HH  ARG D 557     -28.916  -2.771 -17.346  1.00 35.49     0.174 HD
ATOM     10  HH  ARG D 557     -28.132  -3.944 -16.883  1.00 35.49     0.174 HD
ATOM     11  HH  ARG D 557     -26.032  -2.342 -14.991  1.00 35.49     0.174 HD
ATOM     12  HH  ARG D 557     -26.400  -3.701 -15.468  1.00 35.49     0.174 HD
ATOM     13  HE  ARG D 557     -27.135  -0.622 -15.529  1.00 35.49     0.178 HD
ENDBRANCH   4   5
ENDBRANCH   3   4
ENDBRANCH   2   3
ENDBRANCH   1   2
END_RES ARG D 557
BEGIN_RES GLU D 570
REMARK  3 active torsions:
REMARK  status: ('A' for Active; 'I' for Inactive)
REMARK    5  A    between atoms: CA   and  CB  
REMARK    6  A    between atoms: CB   and  CG  
REMARK    7  A    between atoms: CG   and  CD  
ROOT
ATOM     14  CA  GLU D 570     -18.033  -6.348 -13.375  1.00 32.92     0.160 C 
ENDROOT
BRANCH  14  15
ATOM     15  CB  GLU D 570     -19.500  -6.345 -13.794  1.00 32.92     0.043 C 
BRANCH  15  16
ATOM     16  CG  GLU D 570     -19.857  -5.602 -15.030  1.00 32.92     0.100 C 
BRANCH  16  17
ATOM     17  CD  GLU D 570     -21.108  -6.129 -15.694  1.00 32.92     0.185 C 
ATOM     18  OE1 GLU D 570     -21.691  -7.110 -15.194  1.00 32.92    -0.647 OA
ATOM     19  OE2 GLU D 570     -21.501  -5.564 -16.734  1.00 32.92    -0.647 OA
ENDBRANCH  16  17
ENDBRANCH  15  16
ENDBRANCH  14  15
END_RES GLU D 570
ENDMDL
MODEL 4
REMARK VINA RESULT:      -6.7      1.894      2.523
REMARK  6 active torsions:
REMARK  status: ('A' for Active; 'I' for Inactive)
REMARK    1  A    between atoms: CZ_3  and  OH_13 
REMARK    2  A    between atoms: CG_6  and  CB_7 
REMARK    3  A    between atoms: CB_7  and  CA_8 
REMARK    4  A    between atoms: CA_8  and  C_9 
REMARK    5  A    between atoms: CA_8  and  N_12 
REMARK    6  A    between atoms: C_9  and  OXT_11 
ROOT
ATOM      1  CB  TYR A   1     -21.901  -3.866 -11.131  1.00  0.00     0.085 C 
ENDROOT
BRANCH   1   2
ATOM      2  CG  TYR A   1     -21.466  -3.992  -9.687  1.00  0.00    -0.055 A 
ATOM      3  CD2 TYR A   1     -20.114  -4.238  -9.389  1.00  0.00     0.010 A 
ATOM      4  CE2 TYR A   1     -19.696  -4.426  -8.071  1.00  0.00     0.037 A 
ATOM      5  CZ  TYR A   1     -20.629  -4.363  -7.044  1.00  0.00     0.065 A 
ATOM      6  CE1 TYR A   1     -21.967  -4.104  -7.312  1.00  0.00     0.037 A 
ATOM      7  CD1 TYR A   1     -22.389  -3.932  -8.634  1.00  0.00     0.010 A 
BRANCH   5   8
ATOM      8  OH  TYR A   1     -20.271  -4.569  -5.745  1.00  0.00    -0.361 OA
ATOM      9  HH  TYR A   1     -20.294  -5.524  -5.565  1.00  0.00     0.217 HD
ENDBRANCH   5   8
ENDBRANCH   1   2
BRANCH   1  10
ATOM     10  CA  TYR A   1     -23.300  -4.414 -11.463  1.00  0.00     0.318 C 
BRANCH  10  11
ATOM     11  C   TYR A   1     -24.375  -3.310 -11.479  1.00  0.00     0.174 C 
ATOM     12  O   TYR A   1     -25.205  -3.160 -10.589  1.00  0.00    -0.648 OA
BRANCH  11  13
ATOM     13  OXT TYR A   1     -24.306  -2.461 -12.528  1.00  0.00    -0.775 OA
ATOM     14  HXT TYR A   1     -23.522  -2.569 -13.101  1.00  0.00     0.167 HD
ENDBRANCH  11  13
ENDBRANCH  10  11
BRANCH  10  15
ATOM     15  N   TYR A   1     -23.235  -5.049 -12.809  1.00  0.00     0.093 N 
ATOM     16  H1  TYR A   1     -22.693  -5.917 -12.719  1.00  0.00     0.314 HD
ATOM     17  H2  TYR A   1     -22.630  -4.473 -13.399  1.00  0.00     0.314 HD
ENDBRANCH  10  15
ENDBRANCH   1  10
TORSDOF 6
BEGIN_RES ARG D 557
REMARK  4 active torsions:
REMARK  status: ('A' for Active; 'I' for Inactive)
REMARK    1  A    between atoms: CA   and  CB  
REMARK    2  A    between atoms: CB   and  CG  
REMARK    3  A    between atoms: CG   and  CD  
REMARK    4  A    between atoms: CD   and  NE  
REMARK       I    between atoms: NE   and  CZ  
REMARK       I    between atoms: CZ   and  NH1 
REMARK       I    between atoms: CZ   and  NH2 
ROOT
ATOM      1  CA  ARG D 557     -26.217   2.705 -17.014  1.00 35.49     0.159 C 
ENDROOT
BRANCH   1   2
ATOM      2  CB  ARG D 557     -26.789   1.319 -17.183  1.00 35.49     0.034 C 
BRANCH   2   3
ATOM      3  CG  ARG D 557     -28.197   1.135 -16.809  1.00 35.49     0.027 C 
BRANCH   3   4
ATOM      4  CD  ARG D 557     -28.518  -0.277 -16.500  1.00 35.49     0.116 C 
BRANCH   4   5
ATOM      5  NE  ARG D 557     -27.458  -0.930 -15.779  1.00 35.49    -0.212 N 
ATOM      6  CZ  ARG D 557     -27.164  -2.209 -15.836  1.00 35.49     0.666 C 
ATOM      7  NH1 ARG D 557     -27.847  -3.061 -16.579  1.00 35.49    -0.235 N 
ATOM      8  NH2 ARG D 557     -26.153  -2.626 -15.130  1.00 35.49    -0.235 N 
ATOM      9  HH  ARG D 557     -28.515  -2.809 -17.053  1.00 35.49     0.174 HD
ATOM     10  HH  ARG D 557     -27.608  -3.884 -16.579  1.00 35.49     0.174 HD
ATOM     11  HH  ARG D 557     -25.726  -2.052 -14.666  1.00 35.49     0.174 HD
ATOM     12  HH  ARG D 557     -25.931  -3.444 -15.144  1.00 35.49     0.174 HD
ATOM     13  HE  ARG D 557     -27.012  -0.469 -15.220  1.00 35.49     0.178 HD
ENDBRANCH   4   5
ENDBRANCH   3   4
ENDBRANCH   2   3
ENDBRANCH   1   2
END_RES ARG D 557
BEGIN_RES GLU D 570
REMARK  3 active torsions:
REMARK  status: ('A' for Active; 'I' for Inactive)
REMARK    5  A    between atoms: CA   and  CB  
REMARK    6  A    between atoms: CB   and  CG  
REMARK    7  A    between atoms: CG   and  CD  
ROOT
ATOM     14  CA  GLU D 570     -18.033  -6.348 -13.375  1.00 32.92     0.160 C 
ENDROOT
BRANCH  14  15
ATOM     15  CB  GLU D 570     -19.500  -6.345 -13.794  1.00 32.92     0.043 C 
BRANCH  15  16
ATOM     16  CG  GLU D 570     -20.060  -7.611 -14.333  1.00 32.92     0.100 C 
BRANCH  16  17
ATOM     17  CD  GLU D 570     -21.182  -7.385 -15.320  1.00 32.92     0.185 C 
ATOM     18  OE1 GLU D 570     -21.187  -8.027 -16.388  1.00 32.92    -0.647 OA
ATOM     19  OE2 GLU D 570     -22.057  -6.546 -15.029  1.00 32.92    -0.647 OA
ENDBRANCH  16  17
ENDBRANCH  15  16
ENDBRANCH  14  15
END_RES GLU D 570
ENDMDL
MODEL 5
REMARK VINA RESULT:      -6.7      7.212      9.155
REMARK  6 active torsions:
REMARK  status: ('A' for Active; 'I' for Inactive)
REMARK    1  A    between atoms: CZ_3  and  OH_13 
REMARK    2  A    between atoms: CG_6  and  CB_7 
REMARK    3  A    between atoms: CB_7  and  CA_8 
REMARK    4  A    between atoms: CA_8  and  C_9 
REMARK    5  A    between atoms: CA_8  and  N_12 
REMARK    6  A    between atoms: C_9  and  OXT_11 
ROOT
ATOM      1  CB  TYR A   1     -34.353  -1.567 -11.642  1.00  0.00     0.085 C 
ENDROOT
BRANCH   1   2
ATOM      2  CG  TYR A   1     -34.167  -3.058 -11.467  1.00  0.00    -0.055 A 
ATOM      3  CD2 TYR A   1     -35.216  -3.829 -10.933  1.00  0.00     0.010 A 
ATOM      4  CE2 TYR A   1     -35.049  -5.194 -10.698  1.00  0.00     0.037 A 
ATOM      5  CZ  TYR A   1     -33.834  -5.796 -11.000  1.00  0.00     0.065 A 
ATOM      6  CE1 TYR A   1     -32.791  -5.058 -11.545  1.00  0.00     0.037 A 
ATOM      7  CD1 TYR A   1     -32.951  -3.688 -11.765  1.00  0.00     0.010 A 
BRANCH   5   8
ATOM      8  OH  TYR A   1     -33.618  -7.120 -10.759  1.00  0.00    -0.361 OA
ATOM      9  HH  TYR A   1     -32.671  -7.306 -10.879  1.00  0.00     0.217 HD
ENDBRANCH   5   8
ENDBRANCH   1   2
BRANCH   1  10
ATOM     10  CA  TYR A   1     -35.462  -1.137 -12.618  1.00  0.00     0.318 C 
BRANCH  10  11
ATOM     11  C   TYR A   1     -36.602  -0.376 -11.915  1.00  0.00     0.174 C 
ATOM     12  O   TYR A   1     -37.780  -0.465 -12.244  1.00  0.00    -0.648 OA
BRANCH  11  13
ATOM     13  OXT TYR A   1     -36.223   0.365 -10.850  1.00  0.00    -0.775 OA
ATOM     14  HXT TYR A   1     -35.333   0.167 -10.501  1.00  0.00     0.167 HD
ENDBRANCH  11  13
ENDBRANCH  10  11
BRANCH  10  15
ATOM     15  N   TYR A   1     -34.849  -0.251 -13.646  1.00  0.00     0.093 N 
ATOM     16  H1  TYR A   1     -33.894  -0.587 -13.819  1.00  0.00     0.314 HD
ATOM     17  H2  TYR A   1     -34.685   0.663 -13.216  1.00  0.00     0.314 HD
ENDBRANCH  10  15
ENDBRANCH   1  10
TORSDOF 6
BEGIN_RES ARG D 557
REMARK  4 active torsions:
REMARK  status: ('A' for Active; 'I' for Inactive)
REMARK    1  A    between atoms: CA   and  CB  
REMARK    2  A    between atoms: CB   and  CG  
REMARK    3  A    between atoms: CG   and  CD  
REMARK    4  A    between atoms: CD   and  NE  
REMARK       I    between atoms: NE   and  CZ  
REMARK       I    between atoms: CZ   and  NH1 
REMARK       I    between atoms: CZ   and  NH2 
ROOT
ATOM      1  CA  ARG D 557     -26.217   2.705 -17.014  1.00 35.49     0.159 C 
ENDROOT
BRANCH   1   2
ATOM      2  CB  ARG D 557     -26.789   1.319 -17.183  1.00 35.49     0.034 C 
BRANCH   2   3
ATOM      3  CG  ARG D 557     -25.836   0.203 -17.150  1.00 35.49     0.027 C 
BRANCH   3   4
ATOM      4  CD  ARG D 557     -24.759   0.409 -16.156  1.00 35.49     0.116 C 
BRANCH   4   5
ATOM      5  NE  ARG D 557     -24.908  -0.447 -15.009  1.00 35.49    -0.212 N 
ATOM      6  CZ  ARG D 557     -24.093  -1.418 -14.663  1.00 35.49     0.666 C 
ATOM      7  NH1 ARG D 557     -23.021  -1.728 -15.368  1.00 35.49    -0.235 N 
ATOM      8  NH2 ARG D 557     -24.373  -2.079 -13.578  1.00 35.49    -0.235 N 
ATOM      9  HH  ARG D 557     -22.816  -1.305 -16.085  1.00 35.49     0.174 HD
ATOM     10  HH  ARG D 557     -22.524  -2.369 -15.093  1.00 35.49     0.174 HD
ATOM     11  HH  ARG D 557     -25.068  -1.852 -13.139  1.00 35.49     0.174 HD
ATOM     12  HH  ARG D 557     -23.868  -2.710 -13.321  1.00 35.49     0.174 HD
ATOM     13  HE  ARG D 557     -25.612  -0.365 -14.538  1.00 35.49     0.178 HD
ENDBRANCH   4   5
ENDBRANCH   3   4
ENDBRANCH   2   3
ENDBRANCH   1   2
END_RES ARG D 557
BEGIN_RES GLU D 570
REMARK  3 active torsions:
REMARK  status: ('A' for Active; 'I' for Inactive)
REMARK    5  A    between atoms: CA   and  CB  
REMARK    6  A    between atoms: CB   and  CG  
REMARK    7  A    between atoms: CG   and  CD  
ROOT
ATOM     14  CA  GLU D 570     -18.033  -6.348 -13.375  1.00 32.92     0.160 C 
ENDROOT
BRANCH  14  15
ATOM     15  CB  GLU D 570     -19.500  -6.345 -13.794  1.00 32.92     0.043 C 
BRANCH  15  16
ATOM     16  CG  GLU D 570     -20.442  -5.531 -12.983  1.00 32.92     0.100 C 
BRANCH  16  17
ATOM     17  CD  GLU D 570     -21.735  -5.233 -13.704  1.00 32.92     0.185 C 
ATOM     18  OE1 GLU D 570     -22.203  -6.084 -14.486  1.00 32.92    -0.647 OA
ATOM     19  OE2 GLU D 570     -22.278  -4.130 -13.499  1.00 32.92    -0.647 OA
ENDBRANCH  16  17
ENDBRANCH  15  16
ENDBRANCH  14  15
END_RES GLU D 570
ENDMDL
MODEL 6
REMARK VINA RESULT:      -6.7      2.832      4.089
REMARK  6 active torsions:
REMARK  status: ('A' for Active; 'I' for Inactive)
REMARK    1  A    between atoms: CZ_3  and  OH_13 
REMARK    2  A    between atoms: CG_6  and  CB_7 
REMARK    3  A    between atoms: CB_7  and  CA_8 
REMARK    4  A    between atoms: CA_8  and  C_9 
REMARK    5  A    between atoms: CA_8  and  N_12 
REMARK    6  A    between atoms: C_9  and  OXT_11 
ROOT
ATOM      1  CB  TYR A   1     -22.496  -3.415  -8.378  1.00  0.00     0.085 C 
ENDROOT
BRANCH   1   2
ATOM      2  CG  TYR A   1     -21.755  -4.482  -7.602  1.00  0.00    -0.055 A 
ATOM      3  CD2 TYR A   1     -20.452  -4.843  -7.989  1.00  0.00     0.010 A 
ATOM      4  CE2 TYR A   1     -19.772  -5.870  -7.334  1.00  0.00     0.037 A 
ATOM      5  CZ  TYR A   1     -20.389  -6.537  -6.283  1.00  0.00     0.065 A 
ATOM      6  CE1 TYR A   1     -21.668  -6.185  -5.871  1.00  0.00     0.037 A 
ATOM      7  CD1 TYR A   1     -22.358  -5.169  -6.538  1.00  0.00     0.010 A 
BRANCH   5   8
ATOM      8  OH  TYR A   1     -19.773  -7.564  -5.635  1.00  0.00    -0.361 OA
ATOM      9  HH  TYR A   1     -19.798  -8.351  -6.205  1.00  0.00     0.217 HD
ENDBRANCH   5   8
ENDBRANCH   1   2
BRANCH   1  10
ATOM     10  CA  TYR A   1     -22.984  -3.821  -9.780  1.00  0.00     0.318 C 
BRANCH  10  11
ATOM     11  C   TYR A   1     -24.401  -3.296 -10.084  1.00  0.00     0.174 C 
ATOM     12  O   TYR A   1     -24.904  -3.313 -11.202  1.00  0.00    -0.648 OA
BRANCH  11  13
ATOM     13  OXT TYR A   1     -25.092  -2.861  -9.007  1.00  0.00    -0.775 OA
ATOM     14  HXT TYR A   1     -26.010  -3.188  -8.941  1.00  0.00     0.167 HD
ENDBRANCH  11  13
ENDBRANCH  10  11
BRANCH  10  15
ATOM     15  N   TYR A   1     -22.033  -3.256 -10.777  1.00  0.00     0.093 N 
ATOM     16  H1  TYR A   1     -22.461  -2.410 -11.172  1.00  0.00     0.314 HD
ATOM     17  H2  TYR A   1     -22.012  -3.886 -11.583  1.00  0.00     0.314 HD
ENDBRANCH  10  15
ENDBRANCH   1  10
TORSDOF 6
BEGIN_RES ARG D 557
REMARK  4 active torsions:
REMARK  status: ('A' for Active; 'I' for Inactive)
REMARK    1  A    between atoms: CA   and  CB  
REMARK    2  A    between atoms: CB   and  CG  
REMARK    3  A    between atoms: CG   and  CD  
REMARK    4  A    between atoms: CD   and  NE  
REMARK       I    between atoms: NE   and  CZ  
REMARK       I    between atoms: CZ   and  NH1 
REMARK       I    between atoms: CZ   and  NH2 
ROOT
ATOM      1  CA  ARG D 557     -26.217   2.705 -17.014  1.00 35.49     0.159 C 
ENDROOT
BRANCH   1   2
ATOM      2  CB  ARG D 557     -26.789   1.319 -17.183  1.00 35.49     0.034 C 
BRANCH   2   3
ATOM      3  CG  ARG D 557     -25.859   0.196 -17.016  1.00 35.49     0.027 C 
BRANCH   3   4
ATOM      4  CD  ARG D 557     -26.208  -0.658 -15.857  1.00 35.49     0.116 C 
BRANCH   4   5
ATOM      5  NE  ARG D 557     -25.079  -0.890 -14.995  1.00 35.49    -0.212 N 
ATOM      6  CZ  ARG D 557     -24.846  -1.990 -14.314  1.00 35.49     0.666 C 
ATOM      7  NH1 ARG D 557     -25.662  -3.027 -14.342  1.00 35.49    -0.235 N 
ATOM      8  NH2 ARG D 557     -23.760  -2.034 -13.598  1.00 35.49    -0.235 N 
ATOM      9  HH  ARG D 557     -26.381  -3.021 -14.807  1.00 35.49     0.174 HD
ATOM     10  HH  ARG D 557     -25.457  -3.719 -13.879  1.00 35.49     0.174 HD
ATOM     11  HH  ARG D 557     -23.248  -1.351 -13.605  1.00 35.49     0.174 HD
ATOM     12  HH  ARG D 557     -23.574  -2.728 -13.148  1.00 35.49     0.174 HD
ATOM     13  HE  ARG D 557     -24.540  -0.246 -14.861  1.00 35.49     0.178 HD
ENDBRANCH   4   5
ENDBRANCH   3   4
ENDBRANCH   2   3
ENDBRANCH   1   2
END_RES ARG D 557
BEGIN_RES GLU D 570
REMARK  3 active torsions:
REMARK  status: ('A' for Active; 'I' for Inactive)
REMARK    5  A    between atoms: CA   and  CB  
REMARK    6  A    between atoms: CB   and  CG  
REMARK    7  A    between atoms: CG   and  CD  
ROOT
ATOM     14  CA  GLU D 570     -18.033  -6.348 -13.375  1.00 32.92     0.160 C 
ENDROOT
BRANCH  14  15
ATOM     15  CB  GLU D 570     -19.500  -6.345 -13.794  1.00 32.92     0.043 C 
BRANCH  15  16
ATOM     16  CG  GLU D 570     -20.437  -5.507 -13.001  1.00 32.92     0.100 C 
BRANCH  16  17
ATOM     17  CD  GLU D 570     -21.685  -5.133 -13.766  1.00 32.92     0.185 C 
ATOM     18  OE1 GLU D 570     -21.612  -4.970 -14.999  1.00 32.92    -0.647 OA
ATOM     19  OE2 GLU D 570     -22.743  -4.986 -13.123  1.00 32.92    -0.647 OA
ENDBRANCH  16  17
ENDBRANCH  15  16
ENDBRANCH  14  15
END_RES GLU D 570
ENDMDL
MODEL 7
REMARK VINA RESULT:      -6.6      3.331      5.985
REMARK  6 active torsions:
REMARK  status: ('A' for Active; 'I' for Inactive)
REMARK    1  A    between atoms: CZ_3  and  OH_13 
REMARK    2  A    between atoms: CG_6  and  CB_7 
REMARK    3  A    between atoms: CB_7  and  CA_8 
REMARK    4  A    between atoms: CA_8  and  C_9 
REMARK    5  A    between atoms: CA_8  and  N_12 
REMARK    6  A    between atoms: C_9  and  OXT_11 
ROOT
ATOM      1  CB  TYR A   1     -20.125  -4.814  -5.996  1.00  0.00     0.085 C 
ENDROOT
BRANCH   1   2
ATOM      2  CG  TYR A   1     -20.752  -4.460  -7.327  1.00  0.00    -0.055 A 
ATOM      3  CD2 TYR A   1     -19.956  -4.447  -8.487  1.00  0.00     0.010 A 
ATOM      4  CE2 TYR A   1     -20.492  -4.060  -9.716  1.00  0.00     0.037 A 
ATOM      5  CZ  TYR A   1     -21.829  -3.690  -9.792  1.00  0.00     0.065 A 
ATOM      6  CE1 TYR A   1     -22.639  -3.714  -8.663  1.00  0.00     0.037 A 
ATOM      7  CD1 TYR A   1     -22.099  -4.085  -7.429  1.00  0.00     0.010 A 
BRANCH   5   8
ATOM      8  OH  TYR A   1     -22.386  -3.278 -10.965  1.00  0.00    -0.361 OA
ATOM      9  HH  TYR A   1     -23.336  -3.482 -10.946  1.00  0.00     0.217 HD
ENDBRANCH   5   8
ENDBRANCH   1   2
BRANCH   1  10
ATOM     10  CA  TYR A   1     -20.489  -6.196  -5.427  1.00  0.00     0.318 C 
BRANCH  10  11
ATOM     11  C   TYR A   1     -21.655  -6.131  -4.422  1.00  0.00     0.174 C 
ATOM     12  O   TYR A   1     -21.511  -5.861  -3.235  1.00  0.00    -0.648 OA
BRANCH  11  13
ATOM     13  OXT TYR A   1     -22.880  -6.333  -4.956  1.00  0.00    -0.775 OA
ATOM     14  HXT TYR A   1     -23.625  -5.970  -4.439  1.00  0.00     0.167 HD
ENDBRANCH  11  13
ENDBRANCH  10  11
BRANCH  10  15
ATOM     15  N   TYR A   1     -20.879  -7.072  -6.567  1.00  0.00     0.093 N 
ATOM     16  H1  TYR A   1     -20.077  -7.676  -6.785  1.00  0.00     0.314 HD
ATOM     17  H2  TYR A   1     -20.946  -6.488  -7.404  1.00  0.00     0.314 HD
ENDBRANCH  10  15
ENDBRANCH   1  10
TORSDOF 6
BEGIN_RES ARG D 557
REMARK  4 active torsions:
REMARK  status: ('A' for Active; 'I' for Inactive)
REMARK    1  A    between atoms: CA   and  CB  
REMARK    2  A    between atoms: CB   and  CG  
REMARK    3  A    between atoms: CG   and  CD  
REMARK    4  A    between atoms: CD   and  NE  
REMARK       I    between atoms: NE   and  CZ  
REMARK       I    between atoms: CZ   and  NH1 
REMARK       I    between atoms: CZ   and  NH2 
ROOT
ATOM      1  CA  ARG D 557     -26.217   2.705 -17.014  1.00 35.49     0.159 C 
ENDROOT
BRANCH   1   2
ATOM      2  CB  ARG D 557     -26.789   1.319 -17.183  1.00 35.49     0.034 C 
BRANCH   2   3
ATOM      3  CG  ARG D 557     -25.865   0.195 -16.988  1.00 35.49     0.027 C 
BRANCH   3   4
ATOM      4  CD  ARG D 557     -26.291  -0.701 -15.889  1.00 35.49     0.116 C 
BRANCH   4   5
ATOM      5  NE  ARG D 557     -25.237  -0.930 -14.936  1.00 35.49    -0.212 N 
ATOM      6  CZ  ARG D 557     -24.959  -2.077 -14.358  1.00 35.49     0.666 C 
ATOM      7  NH1 ARG D 557     -25.655  -3.175 -14.591  1.00 35.49    -0.235 N 
ATOM      8  NH2 ARG D 557     -23.952  -2.106 -13.535  1.00 35.49    -0.235 N 
ATOM      9  HH  ARG D 557     -26.320  -3.179 -15.130  1.00 35.49     0.174 HD
ATOM     10  HH  ARG D 557     -25.426  -3.895 -14.187  1.00 35.49     0.174 HD
ATOM     11  HH  ARG D 557     -23.516  -1.383 -13.410  1.00 35.49     0.174 HD
ATOM     12  HH  ARG D 557     -23.740  -2.829 -13.146  1.00 35.49     0.174 HD
ATOM     13  HE  ARG D 557     -24.784  -0.260 -14.673  1.00 35.49     0.178 HD
ENDBRANCH   4   5
ENDBRANCH   3   4
ENDBRANCH   2   3
ENDBRANCH   1   2
END_RES ARG D 557
BEGIN_RES GLU D 570
REMARK  3 active torsions:
REMARK  status: ('A' for Active; 'I' for Inactive)
REMARK    5  A    between atoms: CA   and  CB  
REMARK    6  A    between atoms: CB   and  CG  
REMARK    7  A    between atoms: CG   and  CD  
ROOT
ATOM     14  CA  GLU D 570     -18.033  -6.348 -13.375  1.00 32.92     0.160 C 
ENDROOT
BRANCH  14  15
ATOM     15  CB  GLU D 570     -19.500  -6.345 -13.794  1.00 32.92     0.043 C 
BRANCH  15  16
ATOM     16  CG  GLU D 570     -20.440  -5.522 -12.990  1.00 32.92     0.100 C 
BRANCH  16  17
ATOM     17  CD  GLU D 570     -21.688  -5.139 -13.751  1.00 32.92     0.185 C 
ATOM     18  OE1 GLU D 570     -22.756  -4.994 -13.127  1.00 32.92    -0.647 OA
ATOM     19  OE2 GLU D 570     -21.599  -5.000 -14.987  1.00 32.92    -0.647 OA
ENDBRANCH  16  17
ENDBRANCH  15  16
ENDBRANCH  14  15
END_RES GLU D 570
ENDMDL
MODEL 8
REMARK VINA RESULT:      -6.5      7.206      8.992
REMARK  6 active torsions:
REMARK  status: ('A' for Active; 'I' for Inactive)
REMARK    1  A    between atoms: CZ_3  and  OH_13 
REMARK    2  A    between atoms: CG_6  and  CB_7 
REMARK    3  A    between atoms: CB_7  and  CA_8 
REMARK    4  A    between atoms: CA_8  and  C_9 
REMARK    5  A    between atoms: CA_8  and  N_12 
REMARK    6  A    between atoms: C_9  and  OXT_11 
ROOT
ATOM      1  CB  TYR A   1     -34.330  -1.515 -11.501  1.00  0.00     0.085 C 
ENDROOT
BRANCH   1   2
ATOM      2  CG  TYR A   1     -34.138  -3.011 -11.386  1.00  0.00    -0.055 A 
ATOM      3  CD2 TYR A   1     -35.174  -3.804 -10.860  1.00  0.00     0.010 A 
ATOM      4  CE2 TYR A   1     -35.001  -5.177 -10.680  1.00  0.00     0.037 A 
ATOM      5  CZ  TYR A   1     -33.792  -5.764 -11.030  1.00  0.00     0.065 A 
ATOM      6  CE1 TYR A   1     -32.761  -5.004 -11.568  1.00  0.00     0.037 A 
ATOM      7  CD1 TYR A   1     -32.927  -3.626 -11.733  1.00  0.00     0.010 A 
BRANCH   5   8
ATOM      8  OH  TYR A   1     -33.568  -7.095 -10.843  1.00  0.00    -0.361 OA
ATOM      9  HH  TYR A   1     -33.479  -7.520 -11.713  1.00  0.00     0.217 HD
ENDBRANCH   5   8
ENDBRANCH   1   2
BRANCH   1  10
ATOM     10  CA  TYR A   1     -35.595  -1.054 -12.245  1.00  0.00     0.318 C 
BRANCH  10  11
ATOM     11  C   TYR A   1     -36.688  -0.544 -11.285  1.00  0.00     0.174 C 
ATOM     12  O   TYR A   1     -37.802  -1.051 -11.197  1.00  0.00    -0.648 OA
BRANCH  11  13
ATOM     13  OXT TYR A   1     -36.315   0.480 -10.487  1.00  0.00    -0.775 OA
ATOM     14  HXT TYR A   1     -37.004   1.151 -10.320  1.00  0.00     0.167 HD
ENDBRANCH  11  13
ENDBRANCH  10  11
BRANCH  10  15
ATOM     15  N   TYR A   1     -35.208   0.049 -13.168  1.00  0.00     0.093 N 
ATOM     16  H1  TYR A   1     -34.216   0.259 -13.004  1.00  0.00     0.314 HD
ATOM     17  H2  TYR A   1     -35.668   0.904 -12.847  1.00  0.00     0.314 HD
ENDBRANCH  10  15
ENDBRANCH   1  10
TORSDOF 6
BEGIN_RES ARG D 557
REMARK  4 active torsions:
REMARK  status: ('A' for Active; 'I' for Inactive)
REMARK    1  A    between atoms: CA   and  CB  
REMARK    2  A    between atoms: CB   and  CG  
REMARK    3  A    between atoms: CG   and  CD  
REMARK    4  A    between atoms: CD   and  NE  
REMARK       I    between atoms: NE   and  CZ  
REMARK       I    between atoms: CZ   and  NH1 
REMARK       I    between atoms: CZ   and  NH2 
ROOT
ATOM      1  CA  ARG D 557     -26.217   2.705 -17.014  1.00 35.49     0.159 C 
ENDROOT
BRANCH   1   2
ATOM      2  CB  ARG D 557     -26.789   1.319 -17.183  1.00 35.49     0.034 C 
BRANCH   2   3
ATOM      3  CG  ARG D 557     -28.231   1.227 -17.444  1.00 35.49     0.027 C 
BRANCH   3   4
ATOM      4  CD  ARG D 557     -28.916   0.309 -16.506  1.00 35.49     0.116 C 
BRANCH   4   5
ATOM      5  NE  ARG D 557     -29.303  -0.925 -17.139  1.00 35.49    -0.212 N 
ATOM      6  CZ  ARG D 557     -28.672  -2.073 -17.035  1.00 35.49     0.666 C 
ATOM      7  NH1 ARG D 557     -27.569  -2.213 -16.323  1.00 35.49    -0.235 N 
ATOM      8  NH2 ARG D 557     -29.177  -3.095 -17.661  1.00 35.49    -0.235 N 
ATOM      9  HH  ARG D 557     -27.220  -1.554 -15.900  1.00 35.49     0.174 HD
ATOM     10  HH  ARG D 557     -27.202  -2.987 -16.289  1.00 35.49     0.174 HD
ATOM     11  HH  ARG D 557     -29.894  -2.976 -18.107  1.00 35.49     0.174 HD
ATOM     12  HH  ARG D 557     -28.800  -3.853 -17.614  1.00 35.49     0.174 HD
ATOM     13  HE  ARG D 557     -29.962  -0.908 -17.676  1.00 35.49     0.178 HD
ENDBRANCH   4   5
ENDBRANCH   3   4
ENDBRANCH   2   3
ENDBRANCH   1   2
END_RES ARG D 557
BEGIN_RES GLU D 570
REMARK  3 active torsions:
REMARK  status: ('A' for Active; 'I' for Inactive)
REMARK    5  A    between atoms: CA   and  CB  
REMARK    6  A    between atoms: CB   and  CG  
REMARK    7  A    between atoms: CG   and  CD  
ROOT
ATOM     14  CA  GLU D 570     -18.033  -6.348 -13.375  1.00 32.92     0.160 C 
ENDROOT
BRANCH  14  15
ATOM     15  CB  GLU D 570     -19.500  -6.345 -13.794  1.00 32.92     0.043 C 
BRANCH  15  16
ATOM     16  CG  GLU D 570     -20.441  -5.527 -12.986  1.00 32.92     0.100 C 
BRANCH  16  17
ATOM     17  CD  GLU D 570     -21.707  -5.175 -13.732  1.00 32.92     0.185 C 
ATOM     18  OE1 GLU D 570     -22.782  -5.113 -13.105  1.00 32.92    -0.647 OA
ATOM     19  OE2 GLU D 570     -21.625  -4.976 -14.960  1.00 32.92    -0.647 OA
ENDBRANCH  16  17
ENDBRANCH  15  16
ENDBRANCH  14  15
END_RES GLU D 570
ENDMDL
MODEL 9
REMARK VINA RESULT:      -6.3      3.975      6.659
REMARK  6 active torsions:
REMARK  status: ('A' for Active; 'I' for Inactive)
REMARK    1  A    between atoms: CZ_3  and  OH_13 
REMARK    2  A    between atoms: CG_6  and  CB_7 
REMARK    3  A    between atoms: CB_7  and  CA_8 
REMARK    4  A    between atoms: CA_8  and  C_9 
REMARK    5  A    between atoms: CA_8  and  N_12 
REMARK    6  A    between atoms: C_9  and  OXT_11 
ROOT
ATOM      1  CB  TYR A   1     -27.556  -6.645 -16.016  1.00  0.00     0.085 C 
ENDROOT
BRANCH   1   2
ATOM      2  CG  TYR A   1     -28.646  -5.770 -16.596  1.00  0.00    -0.055 A 
ATOM      3  CD2 TYR A   1     -28.432  -5.120 -17.825  1.00  0.00     0.010 A 
ATOM      4  CE2 TYR A   1     -29.392  -4.254 -18.350  1.00  0.00     0.037 A 
ATOM      5  CZ  TYR A   1     -30.573  -4.039 -17.651  1.00  0.00     0.065 A 
ATOM      6  CE1 TYR A   1     -30.813  -4.684 -16.444  1.00  0.00     0.037 A 
ATOM      7  CD1 TYR A   1     -29.846  -5.538 -15.909  1.00  0.00     0.010 A 
BRANCH   5   8
ATOM      8  OH  TYR A   1     -31.525  -3.180 -18.112  1.00  0.00    -0.361 OA
ATOM      9  HH  TYR A   1     -31.112  -2.570 -18.747  1.00  0.00     0.217 HD
ENDBRANCH   5   8
ENDBRANCH   1   2
BRANCH   1  10
ATOM     10  CA  TYR A   1     -26.113  -6.244 -16.368  1.00  0.00     0.318 C 
BRANCH  10  11
ATOM     11  C   TYR A   1     -25.601  -5.075 -15.506  1.00  0.00     0.174 C 
ATOM     12  O   TYR A   1     -26.244  -4.050 -15.303  1.00  0.00    -0.648 OA
BRANCH  11  13
ATOM     13  OXT TYR A   1     -24.398  -5.278 -14.924  1.00  0.00    -0.775 OA
ATOM     14  HXT TYR A   1     -24.413  -5.824 -14.115  1.00  0.00     0.167 HD
ENDBRANCH  11  13
ENDBRANCH  10  11
BRANCH  10  15
ATOM     15  N   TYR A   1     -25.240  -7.431 -16.143  1.00  0.00     0.093 N 
ATOM     16  H1  TYR A   1     -24.290  -7.088 -15.959  1.00  0.00     0.314 HD
ATOM     17  H2  TYR A   1     -25.129  -7.913 -17.038  1.00  0.00     0.314 HD
ENDBRANCH  10  15
ENDBRANCH   1  10
TORSDOF 6
BEGIN_RES ARG D 557
REMARK  4 active torsions:
REMARK  status: ('A' for Active; 'I' for Inactive)
REMARK    1  A    between atoms: CA   and  CB  
REMARK    2  A    between atoms: CB   and  CG  
REMARK    3  A    between atoms: CG   and  CD  
REMARK    4  A    between atoms: CD   and  NE  
REMARK       I    between atoms: NE   and  CZ  
REMARK       I    between atoms: CZ   and  NH1 
REMARK       I    between atoms: CZ   and  NH2 
ROOT
ATOM      1  CA  ARG D 557     -26.217   2.705 -17.014  1.00 35.49     0.159 C 
ENDROOT
BRANCH   1   2
ATOM      2  CB  ARG D 557     -26.789   1.319 -17.183  1.00 35.49     0.034 C 
BRANCH   2   3
ATOM      3  CG  ARG D 557     -25.839   0.201 -17.128  1.00 35.49     0.027 C 
BRANCH   3   4
ATOM      4  CD  ARG D 557     -24.794   0.398 -16.098  1.00 35.49     0.116 C 
BRANCH   4   5
ATOM      5  NE  ARG D 557     -24.934  -0.523 -15.001  1.00 35.49    -0.212 N 
ATOM      6  CZ  ARG D 557     -24.088  -1.480 -14.690  1.00 35.49     0.666 C 
ATOM      7  NH1 ARG D 557     -22.991  -1.712 -15.387  1.00 35.49    -0.235 N 
ATOM      8  NH2 ARG D 557     -24.364  -2.209 -13.647  1.00 35.49    -0.235 N 
ATOM      9  HH  ARG D 557     -22.789  -1.243 -16.075  1.00 35.49     0.174 HD
ATOM     10  HH  ARG D 557     -22.476  -2.348 -15.135  1.00 35.49     0.174 HD
ATOM     11  HH  ARG D 557     -25.076  -2.032 -13.212  1.00 35.49     0.174 HD
ATOM     12  HH  ARG D 557     -23.840  -2.833 -13.413  1.00 35.49     0.174 HD
ATOM     13  HE  ARG D 557     -25.649  -0.492 -14.542  1.00 35.49     0.178 HD
ENDBRANCH   4   5
ENDBRANCH   3   4
ENDBRANCH   2   3
ENDBRANCH   1   2
END_RES ARG D 557
BEGIN_RES GLU D 570
REMARK  3 active torsions:
REMARK  status: ('A' for Active; 'I' for Inactive)
REMARK    5  A    between atoms: CA   and  CB  
REMARK    6  A    between atoms: CB   and  CG  
REMARK    7  A    between atoms: CG   and  CD  
ROOT
ATOM     14  CA  GLU D 570     -18.033  -6.348 -13.375  1.00 32.92     0.160 C 
ENDROOT
BRANCH  14  15
ATOM     15  CB  GLU D 570     -19.500  -6.345 -13.794  1.00 32.92     0.043 C 
BRANCH  15  16
ATOM     16  CG  GLU D 570     -19.797  -6.404 -15.249  1.00 32.92     0.100 C 
BRANCH  16  17
ATOM     17  CD  GLU D 570     -20.941  -7.333 -15.580  1.00 32.92     0.185 C 
ATOM     18  OE1 GLU D 570     -22.067  -6.850 -15.805  1.00 32.92    -0.647 OA
ATOM     19  OE2 GLU D 570     -20.712  -8.559 -15.598  1.00 32.92    -0.647 OA
ENDBRANCH  16  17
ENDBRANCH  15  16
ENDBRANCH  14  15
END_RES GLU D 570
ENDMDL
