MODEL 1
REMARK VINA RESULT:      -7.0      0.000      0.000
REMARK  4 active torsions:
REMARK  status: ('A' for Active; 'I' for Inactive)
REMARK    1  A    between atoms: C_4  and  C_7 
REMARK    2  A    between atoms: C_7  and  C_8 
REMARK    3  A    between atoms: C_7  and  O_11 
REMARK    4  A    between atoms: C_8  and  O_10 
ROOT
HETATM    1  C   UNL     1     -23.956  -4.688  -9.703  1.00  0.00     0.248 C 
ENDROOT
BRANCH   1   2
HETATM    2  C   UNL     1     -22.614  -4.386  -9.059  1.00  0.00    -0.019 A 
HETATM    3  C   UNL     1     -22.498  -4.260  -7.663  1.00  0.00     0.010 A 
HETATM    4  C   UNL     1     -21.252  -4.056  -7.061  1.00  0.00     0.001 A 
HETATM    5  C   UNL     1     -20.102  -3.978  -7.842  1.00  0.00     0.000 A 
HETATM    6  C   UNL     1     -20.198  -4.079  -9.226  1.00  0.00     0.001 A 
HETATM    7  C   UNL     1     -21.442  -4.276  -9.828  1.00  0.00     0.010 A 
ENDBRANCH   1   2
BRANCH   1   8
HETATM    8  C   UNL     1     -24.727  -3.431 -10.133  1.00  0.00     0.174 C 
HETATM    9  O   UNL     1     -24.936  -3.145 -11.305  1.00  0.00    -0.648 OA
BRANCH   8  10
HETATM   10  O   UNL     1     -25.199  -2.674  -9.113  1.00  0.00    -0.774 OA
HETATM   11  H   UNL     1     -25.257  -1.721  -9.312  1.00  0.00     0.167 HD
ENDBRANCH   8  10
ENDBRANCH   1   8
BRANCH   1  12
HETATM   12  O   UNL     1     -23.799  -5.538 -10.846  1.00  0.00    -0.380 OA
HETATM   13  H   UNL     1     -24.705  -5.815 -11.093  1.00  0.00     0.211 HD
ENDBRANCH   1  12
TORSDOF 4
BEGIN_RES ARG D 557
REMARK  4 active torsions:
REMARK  status: ('A' for Active; 'I' for Inactive)
REMARK    1  A    between atoms: CA   and  CB  
REMARK    2  A    between atoms: CB   and  CG  
REMARK    3  A    between atoms: CG   and  CD  
REMARK    4  A    between atoms: CD   and  NE  
REMARK       I    between atoms: NE   and  CZ  
REMARK       I    between atoms: CZ   and  NH1 
REMARK       I    between atoms: CZ   and  NH2 
ROOT
ATOM      1  CA  ARG D 557     -26.217   2.705 -17.014  1.00 35.49     0.159 C 
ENDROOT
BRANCH   1   2
ATOM      2  CB  ARG D 557     -26.789   1.319 -17.183  1.00 35.49     0.034 C 
BRANCH   2   3
ATOM      3  CG  ARG D 557     -25.857   0.196 -17.026  1.00 35.49     0.027 C 
BRANCH   3   4
ATOM      4  CD  ARG D 557     -26.166  -0.632 -15.837  1.00 35.49     0.116 C 
BRANCH   4   5
ATOM      5  NE  ARG D 557     -25.038  -0.750 -14.951  1.00 35.49    -0.212 N 
ATOM      6  CZ  ARG D 557     -24.637  -1.854 -14.361  1.00 35.49     0.666 C 
ATOM      7  NH1 ARG D 557     -25.261  -3.007 -14.516  1.00 35.49    -0.235 N 
ATOM      8  NH2 ARG D 557     -23.580  -1.781 -13.606  1.00 35.49    -0.235 N 
ATOM      9  HH  ARG D 557     -25.957  -3.079 -15.010  1.00 35.49     0.174 HD
ATOM     10  HH  ARG D 557     -24.952  -3.695 -14.108  1.00 35.49     0.174 HD
ATOM     11  HH  ARG D 557     -23.193  -1.024 -13.530  1.00 35.49     0.174 HD
ATOM     12  HH  ARG D 557     -23.289  -2.473 -13.212  1.00 35.49     0.174 HD
ATOM     13  HE  ARG D 557     -24.622  -0.040 -14.738  1.00 35.49     0.178 HD
ENDBRANCH   4   5
ENDBRANCH   3   4
ENDBRANCH   2   3
ENDBRANCH   1   2
END_RES ARG D 557
BEGIN_RES GLU D 570
REMARK  3 active torsions:
REMARK  status: ('A' for Active; 'I' for Inactive)
REMARK    5  A    between atoms: CA   and  CB  
REMARK    6  A    between atoms: CB   and  CG  
REMARK    7  A    between atoms: CG   and  CD  
ROOT
ATOM     14  CA  GLU D 570     -18.033  -6.348 -13.375  1.00 32.92     0.160 C 
ENDROOT
BRANCH  14  15
ATOM     15  CB  GLU D 570     -19.500  -6.345 -13.794  1.00 32.92     0.043 C 
BRANCH  15  16
ATOM     16  CG  GLU D 570     -20.436  -5.506 -13.002  1.00 32.92     0.100 C 
BRANCH  16  17
ATOM     17  CD  GLU D 570     -21.629  -5.038 -13.803  1.00 32.92     0.185 C 
ATOM     18  OE1 GLU D 570     -22.626  -4.594 -13.201  1.00 32.92    -0.647 OA
ATOM     19  OE2 GLU D 570     -21.573  -5.132 -15.045  1.00 32.92    -0.647 OA
ENDBRANCH  16  17
ENDBRANCH  15  16
ENDBRANCH  14  15
END_RES GLU D 570
ENDMDL
MODEL 2
REMARK VINA RESULT:      -7.0      3.097      4.124
REMARK  4 active torsions:
REMARK  status: ('A' for Active; 'I' for Inactive)
REMARK    1  A    between atoms: C_4  and  C_7 
REMARK    2  A    between atoms: C_7  and  C_8 
REMARK    3  A    between atoms: C_7  and  O_11 
REMARK    4  A    between atoms: C_8  and  O_10 
ROOT
HETATM    1  C   UNL     1     -23.916  -2.819 -14.450  1.00  0.00     0.248 C 
ENDROOT
BRANCH   1   2
HETATM    2  C   UNL     1     -23.530  -3.046 -12.999  1.00  0.00    -0.019 A 
HETATM    3  C   UNL     1     -24.514  -3.126 -11.996  1.00  0.00     0.010 A 
HETATM    4  C   UNL     1     -24.168  -3.408 -10.671  1.00  0.00     0.001 A 
HETATM    5  C   UNL     1     -22.836  -3.618 -10.325  1.00  0.00     0.000 A 
HETATM    6  C   UNL     1     -21.845  -3.523 -11.297  1.00  0.00     0.001 A 
HETATM    7  C   UNL     1     -22.190  -3.234 -12.619  1.00  0.00     0.010 A 
ENDBRANCH   1   2
BRANCH   1   8
HETATM    8  C   UNL     1     -25.057  -1.807 -14.630  1.00  0.00     0.174 C 
HETATM    9  O   UNL     1     -26.224  -2.140 -14.793  1.00  0.00    -0.648 OA
BRANCH   8  10
HETATM   10  O   UNL     1     -24.684  -0.507 -14.554  1.00  0.00    -0.774 OA
HETATM   11  H   UNL     1     -25.030  -0.033 -13.774  1.00  0.00     0.167 HD
ENDBRANCH   8  10
ENDBRANCH   1   8
BRANCH   1  12
HETATM   12  O   UNL     1     -22.790  -2.378 -15.219  1.00  0.00    -0.380 OA
HETATM   13  H   UNL     1     -22.045  -2.950 -14.945  1.00  0.00     0.211 HD
ENDBRANCH   1  12
TORSDOF 4
BEGIN_RES ARG D 557
REMARK  4 active torsions:
REMARK  status: ('A' for Active; 'I' for Inactive)
REMARK    1  A    between atoms: CA   and  CB  
REMARK    2  A    between atoms: CB   and  CG  
REMARK    3  A    between atoms: CG   and  CD  
REMARK    4  A    between atoms: CD   and  NE  
REMARK       I    between atoms: NE   and  CZ  
REMARK       I    between atoms: CZ   and  NH1 
REMARK       I    between atoms: CZ   and  NH2 
ROOT
ATOM      1  CA  ARG D 557     -26.217   2.705 -17.014  1.00 35.49     0.159 C 
ENDROOT
BRANCH   1   2
ATOM      2  CB  ARG D 557     -26.789   1.319 -17.183  1.00 35.49     0.034 C 
BRANCH   2   3
ATOM      3  CG  ARG D 557     -28.137   1.091 -16.649  1.00 35.49     0.027 C 
BRANCH   3   4
ATOM      4  CD  ARG D 557     -28.808  -0.065 -17.286  1.00 35.49     0.116 C 
BRANCH   4   5
ATOM      5  NE  ARG D 557     -28.226  -1.319 -16.885  1.00 35.49    -0.212 N 
ATOM      6  CZ  ARG D 557     -28.755  -2.507 -17.073  1.00 35.49     0.666 C 
ATOM      7  NH1 ARG D 557     -29.926  -2.677 -17.659  1.00 35.49    -0.235 N 
ATOM      8  NH2 ARG D 557     -28.076  -3.538 -16.663  1.00 35.49    -0.235 N 
ATOM      9  HH  ARG D 557     -30.389  -2.012 -17.939  1.00 35.49     0.174 HD
ATOM     10  HH  ARG D 557     -30.220  -3.476 -17.757  1.00 35.49     0.174 HD
ATOM     11  HH  ARG D 557     -27.319  -3.399 -16.295  1.00 35.49     0.174 HD
ATOM     12  HH  ARG D 557     -28.383  -4.321 -16.771  1.00 35.49     0.174 HD
ATOM     13  HE  ARG D 557     -27.504  -1.298 -16.435  1.00 35.49     0.178 HD
ENDBRANCH   4   5
ENDBRANCH   3   4
ENDBRANCH   2   3
ENDBRANCH   1   2
END_RES ARG D 557
BEGIN_RES GLU D 570
REMARK  3 active torsions:
REMARK  status: ('A' for Active; 'I' for Inactive)
REMARK    5  A    between atoms: CA   and  CB  
REMARK    6  A    between atoms: CB   and  CG  
REMARK    7  A    between atoms: CG   and  CD  
ROOT
ATOM     14  CA  GLU D 570     -18.033  -6.348 -13.375  1.00 32.92     0.160 C 
ENDROOT
BRANCH  14  15
ATOM     15  CB  GLU D 570     -19.500  -6.345 -13.794  1.00 32.92     0.043 C 
BRANCH  15  16
ATOM     16  CG  GLU D 570     -19.812  -5.954 -15.193  1.00 32.92     0.100 C 
BRANCH  16  17
ATOM     17  CD  GLU D 570     -21.267  -5.603 -15.397  1.00 32.92     0.185 C 
ATOM     18  OE1 GLU D 570     -22.129  -6.161 -14.691  1.00 32.92    -0.647 OA
ATOM     19  OE2 GLU D 570     -21.550  -4.772 -16.283  1.00 32.92    -0.647 OA
ENDBRANCH  16  17
ENDBRANCH  15  16
ENDBRANCH  14  15
END_RES GLU D 570
ENDMDL
MODEL 3
REMARK VINA RESULT:      -6.6      3.524      6.834
REMARK  4 active torsions:
REMARK  status: ('A' for Active; 'I' for Inactive)
REMARK    1  A    between atoms: C_4  and  C_7 
REMARK    2  A    between atoms: C_7  and  C_8 
REMARK    3  A    between atoms: C_7  and  O_11 
REMARK    4  A    between atoms: C_8  and  O_10 
ROOT
HETATM    1  C   UNL     1     -26.973  -6.824 -16.250  1.00  0.00     0.248 C 
ENDROOT
BRANCH   1   2
HETATM    2  C   UNL     1     -27.503  -5.439 -16.576  1.00  0.00    -0.019 A 
HETATM    3  C   UNL     1     -28.541  -5.267 -17.511  1.00  0.00     0.010 A 
HETATM    4  C   UNL     1     -29.082  -4.001 -17.758  1.00  0.00     0.001 A 
HETATM    5  C   UNL     1     -28.601  -2.888 -17.075  1.00  0.00     0.000 A 
HETATM    6  C   UNL     1     -27.562  -3.034 -16.161  1.00  0.00     0.001 A 
HETATM    7  C   UNL     1     -27.016  -4.296 -15.919  1.00  0.00     0.010 A 
ENDBRANCH   1   2
BRANCH   1   8
HETATM    8  C   UNL     1     -25.442  -6.885 -16.146  1.00  0.00     0.174 C 
HETATM    9  O   UNL     1     -24.701  -6.722 -17.108  1.00  0.00    -0.648 OA
BRANCH   8  10
HETATM   10  O   UNL     1     -24.962  -7.092 -14.897  1.00  0.00    -0.774 OA
HETATM   11  H   UNL     1     -25.558  -6.801 -14.182  1.00  0.00     0.167 HD
ENDBRANCH   8  10
ENDBRANCH   1   8
BRANCH   1  12
HETATM   12  O   UNL     1     -27.532  -7.315 -15.026  1.00  0.00    -0.380 OA
HETATM   13  H   UNL     1     -26.786  -7.351 -14.393  1.00  0.00     0.211 HD
ENDBRANCH   1  12
TORSDOF 4
BEGIN_RES ARG D 557
REMARK  4 active torsions:
REMARK  status: ('A' for Active; 'I' for Inactive)
REMARK    1  A    between atoms: CA   and  CB  
REMARK    2  A    between atoms: CB   and  CG  
REMARK    3  A    between atoms: CG   and  CD  
REMARK    4  A    between atoms: CD   and  NE  
REMARK       I    between atoms: NE   and  CZ  
REMARK       I    between atoms: CZ   and  NH1 
REMARK       I    between atoms: CZ   and  NH2 
ROOT
ATOM      1  CA  ARG D 557     -26.217   2.705 -17.014  1.00 35.49     0.159 C 
ENDROOT
BRANCH   1   2
ATOM      2  CB  ARG D 557     -26.789   1.319 -17.183  1.00 35.49     0.034 C 
BRANCH   2   3
ATOM      3  CG  ARG D 557     -25.836   0.203 -17.153  1.00 35.49     0.027 C 
BRANCH   3   4
ATOM      4  CD  ARG D 557     -24.776   0.393 -16.137  1.00 35.49     0.116 C 
BRANCH   4   5
ATOM      5  NE  ARG D 557     -24.948  -0.478 -15.004  1.00 35.49    -0.212 N 
ATOM      6  CZ  ARG D 557     -24.139  -1.452 -14.653  1.00 35.49     0.666 C 
ATOM      7  NH1 ARG D 557     -23.051  -1.751 -15.339  1.00 35.49    -0.235 N 
ATOM      8  NH2 ARG D 557     -24.440  -2.127 -13.582  1.00 35.49    -0.235 N 
ATOM      9  HH  ARG D 557     -22.832  -1.318 -16.045  1.00 35.49     0.174 HD
ATOM     10  HH  ARG D 557     -22.559  -2.395 -15.061  1.00 35.49     0.174 HD
ATOM     11  HH  ARG D 557     -25.145  -1.906 -13.156  1.00 35.49     0.174 HD
ATOM     12  HH  ARG D 557     -23.940  -2.760 -13.323  1.00 35.49     0.174 HD
ATOM     13  HE  ARG D 557     -25.662  -0.403 -14.548  1.00 35.49     0.178 HD
ENDBRANCH   4   5
ENDBRANCH   3   4
ENDBRANCH   2   3
ENDBRANCH   1   2
END_RES ARG D 557
BEGIN_RES GLU D 570
REMARK  3 active torsions:
REMARK  status: ('A' for Active; 'I' for Inactive)
REMARK    5  A    between atoms: CA   and  CB  
REMARK    6  A    between atoms: CB   and  CG  
REMARK    7  A    between atoms: CG   and  CD  
ROOT
ATOM     14  CA  GLU D 570     -18.033  -6.348 -13.375  1.00 32.92     0.160 C 
ENDROOT
BRANCH  14  15
ATOM     15  CB  GLU D 570     -19.500  -6.345 -13.794  1.00 32.92     0.043 C 
BRANCH  15  16
ATOM     16  CG  GLU D 570     -20.439  -5.518 -12.993  1.00 32.92     0.100 C 
BRANCH  16  17
ATOM     17  CD  GLU D 570     -21.751  -5.266 -13.698  1.00 32.92     0.185 C 
ATOM     18  OE1 GLU D 570     -22.234  -6.162 -14.417  1.00 32.92    -0.647 OA
ATOM     19  OE2 GLU D 570     -22.295  -4.155 -13.542  1.00 32.92    -0.647 OA
ENDBRANCH  16  17
ENDBRANCH  15  16
ENDBRANCH  14  15
END_RES GLU D 570
ENDMDL
MODEL 4
REMARK VINA RESULT:      -6.6      2.400      3.661
REMARK  4 active torsions:
REMARK  status: ('A' for Active; 'I' for Inactive)
REMARK    1  A    between atoms: C_4  and  C_7 
REMARK    2  A    between atoms: C_7  and  C_8 
REMARK    3  A    between atoms: C_7  and  O_11 
REMARK    4  A    between atoms: C_8  and  O_10 
ROOT
HETATM    1  C   UNL     1     -23.192  -2.529 -13.459  1.00  0.00     0.248 C 
ENDROOT
BRANCH   1   2
HETATM    2  C   UNL     1     -22.944  -3.016 -12.042  1.00  0.00    -0.019 A 
HETATM    3  C   UNL     1     -24.014  -3.207 -11.149  1.00  0.00     0.010 A 
HETATM    4  C   UNL     1     -23.797  -3.726  -9.868  1.00  0.00     0.001 A 
HETATM    5  C   UNL     1     -22.510  -4.065  -9.459  1.00  0.00     0.000 A 
HETATM    6  C   UNL     1     -21.436  -3.864 -10.319  1.00  0.00     0.001 A 
HETATM    7  C   UNL     1     -21.651  -3.340 -11.596  1.00  0.00     0.010 A 
ENDBRANCH   1   2
BRANCH   1   8
HETATM    8  C   UNL     1     -23.124  -3.646 -14.511  1.00  0.00     0.174 C 
HETATM    9  O   UNL     1     -23.972  -4.525 -14.605  1.00  0.00    -0.648 OA
BRANCH   8  10
HETATM   10  O   UNL     1     -22.074  -3.566 -15.362  1.00  0.00    -0.774 OA
HETATM   11  H   UNL     1     -22.146  -4.140 -16.148  1.00  0.00     0.167 HD
ENDBRANCH   8  10
ENDBRANCH   1   8
BRANCH   1  12
HETATM   12  O   UNL     1     -24.465  -1.881 -13.565  1.00  0.00    -0.380 OA
HETATM   13  H   UNL     1     -24.314  -1.096 -14.130  1.00  0.00     0.211 HD
ENDBRANCH   1  12
TORSDOF 4
BEGIN_RES ARG D 557
REMARK  4 active torsions:
REMARK  status: ('A' for Active; 'I' for Inactive)
REMARK    1  A    between atoms: CA   and  CB  
REMARK    2  A    between atoms: CB   and  CG  
REMARK    3  A    between atoms: CG   and  CD  
REMARK    4  A    between atoms: CD   and  NE  
REMARK       I    between atoms: NE   and  CZ  
REMARK       I    between atoms: CZ   and  NH1 
REMARK       I    between atoms: CZ   and  NH2 
ROOT
ATOM      1  CA  ARG D 557     -26.217   2.705 -17.014  1.00 35.49     0.159 C 
ENDROOT
BRANCH   1   2
ATOM      2  CB  ARG D 557     -26.789   1.319 -17.183  1.00 35.49     0.034 C 
BRANCH   2   3
ATOM      3  CG  ARG D 557     -28.219   1.155 -16.896  1.00 35.49     0.027 C 
BRANCH   3   4
ATOM      4  CD  ARG D 557     -28.609  -0.267 -16.763  1.00 35.49     0.116 C 
BRANCH   4   5
ATOM      5  NE  ARG D 557     -27.618  -1.037 -16.058  1.00 35.49    -0.212 N 
ATOM      6  CZ  ARG D 557     -27.464  -2.340 -16.128  1.00 35.49     0.666 C 
ATOM      7  NH1 ARG D 557     -28.242  -3.107 -16.870  1.00 35.49    -0.235 N 
ATOM      8  NH2 ARG D 557     -26.498  -2.869 -15.435  1.00 35.49    -0.235 N 
ATOM      9  HH  ARG D 557     -28.883  -2.780 -17.336  1.00 35.49     0.174 HD
ATOM     10  HH  ARG D 557     -28.093  -3.951 -16.879  1.00 35.49     0.174 HD
ATOM     11  HH  ARG D 557     -26.007  -2.349 -14.971  1.00 35.49     0.174 HD
ATOM     12  HH  ARG D 557     -26.365  -3.706 -15.458  1.00 35.49     0.174 HD
ATOM     13  HE  ARG D 557     -27.120  -0.632 -15.500  1.00 35.49     0.178 HD
ENDBRANCH   4   5
ENDBRANCH   3   4
ENDBRANCH   2   3
ENDBRANCH   1   2
END_RES ARG D 557
BEGIN_RES GLU D 570
REMARK  3 active torsions:
REMARK  status: ('A' for Active; 'I' for Inactive)
REMARK    5  A    between atoms: CA   and  CB  
REMARK    6  A    between atoms: CB   and  CG  
REMARK    7  A    between atoms: CG   and  CD  
ROOT
ATOM     14  CA  GLU D 570     -18.033  -6.348 -13.375  1.00 32.92     0.160 C 
ENDROOT
BRANCH  14  15
ATOM     15  CB  GLU D 570     -19.500  -6.345 -13.794  1.00 32.92     0.043 C 
BRANCH  15  16
ATOM     16  CG  GLU D 570     -19.801  -6.115 -15.231  1.00 32.92     0.100 C 
BRANCH  16  17
ATOM     17  CD  GLU D 570     -20.911  -7.000 -15.749  1.00 32.92     0.185 C 
ATOM     18  OE1 GLU D 570     -20.856  -8.227 -15.536  1.00 32.92    -0.647 OA
ATOM     19  OE2 GLU D 570     -21.836  -6.463 -16.389  1.00 32.92    -0.647 OA
ENDBRANCH  16  17
ENDBRANCH  15  16
ENDBRANCH  14  15
END_RES GLU D 570
ENDMDL
MODEL 5
REMARK VINA RESULT:      -6.4      7.461      9.193
REMARK  4 active torsions:
REMARK  status: ('A' for Active; 'I' for Inactive)
REMARK    1  A    between atoms: C_4  and  C_7 
REMARK    2  A    between atoms: C_7  and  C_8 
REMARK    3  A    between atoms: C_7  and  O_11 
REMARK    4  A    between atoms: C_8  and  O_10 
ROOT
HETATM    1  C   UNL     1     -35.689  -1.529 -10.918  1.00  0.00     0.248 C 
ENDROOT
BRANCH   1   2
HETATM    2  C   UNL     1     -34.846  -2.787 -11.030  1.00  0.00    -0.019 A 
HETATM    3  C   UNL     1     -35.416  -4.056 -10.820  1.00  0.00     0.010 A 
HETATM    4  C   UNL     1     -34.662  -5.221 -10.995  1.00  0.00     0.001 A 
HETATM    5  C   UNL     1     -33.329  -5.139 -11.387  1.00  0.00     0.000 A 
HETATM    6  C   UNL     1     -32.740  -3.893 -11.580  1.00  0.00     0.001 A 
HETATM    7  C   UNL     1     -33.491  -2.730 -11.399  1.00  0.00     0.010 A 
ENDBRANCH   1   2
BRANCH   1   8
HETATM    8  C   UNL     1     -35.663  -0.659 -12.184  1.00  0.00     0.174 C 
HETATM    9  O   UNL     1     -35.026   0.384 -12.264  1.00  0.00    -0.648 OA
BRANCH   8  10
HETATM   10  O   UNL     1     -36.368  -1.153 -13.230  1.00  0.00    -0.774 OA
HETATM   11  H   UNL     1     -36.159  -2.078 -13.456  1.00  0.00     0.167 HD
ENDBRANCH   8  10
ENDBRANCH   1   8
BRANCH   1  12
HETATM   12  O   UNL     1     -37.052  -1.847 -10.612  1.00  0.00    -0.380 OA
HETATM   13  H   UNL     1     -37.089  -1.933  -9.638  1.00  0.00     0.211 HD
ENDBRANCH   1  12
TORSDOF 4
BEGIN_RES ARG D 557
REMARK  4 active torsions:
REMARK  status: ('A' for Active; 'I' for Inactive)
REMARK    1  A    between atoms: CA   and  CB  
REMARK    2  A    between atoms: CB   and  CG  
REMARK    3  A    between atoms: CG   and  CD  
REMARK    4  A    between atoms: CD   and  NE  
REMARK       I    between atoms: NE   and  CZ  
REMARK       I    between atoms: CZ   and  NH1 
REMARK       I    between atoms: CZ   and  NH2 
ROOT
ATOM      1  CA  ARG D 557     -26.217   2.705 -17.014  1.00 35.49     0.159 C 
ENDROOT
BRANCH   1   2
ATOM      2  CB  ARG D 557     -26.789   1.319 -17.183  1.00 35.49     0.034 C 
BRANCH   2   3
ATOM      3  CG  ARG D 557     -25.835   0.203 -17.161  1.00 35.49     0.027 C 
BRANCH   3   4
ATOM      4  CD  ARG D 557     -24.750   0.408 -16.174  1.00 35.49     0.116 C 
BRANCH   4   5
ATOM      5  NE  ARG D 557     -24.901  -0.437 -15.019  1.00 35.49    -0.212 N 
ATOM      6  CZ  ARG D 557     -24.090  -1.410 -14.668  1.00 35.49     0.666 C 
ATOM      7  NH1 ARG D 557     -23.022  -1.732 -15.375  1.00 35.49    -0.235 N 
ATOM      8  NH2 ARG D 557     -24.369  -2.060 -13.576  1.00 35.49    -0.235 N 
ATOM      9  HH  ARG D 557     -22.818  -1.317 -16.095  1.00 35.49     0.174 HD
ATOM     10  HH  ARG D 557     -22.528  -2.375 -15.096  1.00 35.49     0.174 HD
ATOM     11  HH  ARG D 557     -25.061  -1.825 -13.136  1.00 35.49     0.174 HD
ATOM     12  HH  ARG D 557     -23.867  -2.692 -13.316  1.00 35.49     0.174 HD
ATOM     13  HE  ARG D 557     -25.602  -0.346 -14.546  1.00 35.49     0.178 HD
ENDBRANCH   4   5
ENDBRANCH   3   4
ENDBRANCH   2   3
ENDBRANCH   1   2
END_RES ARG D 557
BEGIN_RES GLU D 570
REMARK  3 active torsions:
REMARK  status: ('A' for Active; 'I' for Inactive)
REMARK    5  A    between atoms: CA   and  CB  
REMARK    6  A    between atoms: CB   and  CG  
REMARK    7  A    between atoms: CG   and  CD  
ROOT
ATOM     14  CA  GLU D 570     -18.033  -6.348 -13.375  1.00 32.92     0.160 C 
ENDROOT
BRANCH  14  15
ATOM     15  CB  GLU D 570     -19.500  -6.345 -13.794  1.00 32.92     0.043 C 
BRANCH  15  16
ATOM     16  CG  GLU D 570     -20.441  -5.528 -12.985  1.00 32.92     0.100 C 
BRANCH  16  17
ATOM     17  CD  GLU D 570     -21.742  -5.247 -13.701  1.00 32.92     0.185 C 
ATOM     18  OE1 GLU D 570     -22.303  -4.148 -13.527  1.00 32.92    -0.647 OA
ATOM     19  OE2 GLU D 570     -22.213  -6.142 -14.430  1.00 32.92    -0.647 OA
ENDBRANCH  16  17
ENDBRANCH  15  16
ENDBRANCH  14  15
END_RES GLU D 570
ENDMDL
MODEL 6
REMARK VINA RESULT:      -6.2      7.703      9.540
REMARK  4 active torsions:
REMARK  status: ('A' for Active; 'I' for Inactive)
REMARK    1  A    between atoms: C_4  and  C_7 
REMARK    2  A    between atoms: C_7  and  C_8 
REMARK    3  A    between atoms: C_7  and  O_11 
REMARK    4  A    between atoms: C_8  and  O_10 
ROOT
HETATM    1  C   UNL     1     -35.682  -1.542 -10.941  1.00  0.00     0.248 C 
ENDROOT
BRANCH   1   2
HETATM    2  C   UNL     1     -34.875  -2.816 -11.123  1.00  0.00    -0.019 A 
HETATM    3  C   UNL     1     -33.530  -2.764 -11.530  1.00  0.00     0.010 A 
HETATM    4  C   UNL     1     -32.763  -3.930 -11.627  1.00  0.00     0.001 A 
HETATM    5  C   UNL     1     -33.324  -5.165 -11.317  1.00  0.00     0.000 A 
HETATM    6  C   UNL     1     -34.659  -5.241 -10.932  1.00  0.00     0.001 A 
HETATM    7  C   UNL     1     -35.427  -4.078 -10.842  1.00  0.00     0.010 A 
ENDBRANCH   1   2
BRANCH   1   8
HETATM    8  C   UNL     1     -35.698  -0.643 -12.186  1.00  0.00     0.174 C 
HETATM    9  O   UNL     1     -35.051   0.394 -12.268  1.00  0.00    -0.648 OA
BRANCH   8  10
HETATM   10  O   UNL     1     -36.450  -1.104 -13.214  1.00  0.00    -0.774 OA
HETATM   11  H   UNL     1     -37.271  -1.556 -12.942  1.00  0.00     0.167 HD
ENDBRANCH   8  10
ENDBRANCH   1   8
BRANCH   1  12
HETATM   12  O   UNL     1     -37.036  -1.838 -10.576  1.00  0.00    -0.380 OA
HETATM   13  H   UNL     1     -37.227  -1.275  -9.799  1.00  0.00     0.211 HD
ENDBRANCH   1  12
TORSDOF 4
BEGIN_RES ARG D 557
REMARK  4 active torsions:
REMARK  status: ('A' for Active; 'I' for Inactive)
REMARK    1  A    between atoms: CA   and  CB  
REMARK    2  A    between atoms: CB   and  CG  
REMARK    3  A    between atoms: CG   and  CD  
REMARK    4  A    between atoms: CD   and  NE  
REMARK       I    between atoms: NE   and  CZ  
REMARK       I    between atoms: CZ   and  NH1 
REMARK       I    between atoms: CZ   and  NH2 
ROOT
ATOM      1  CA  ARG D 557     -26.217   2.705 -17.014  1.00 35.49     0.159 C 
ENDROOT
BRANCH   1   2
ATOM      2  CB  ARG D 557     -26.789   1.319 -17.183  1.00 35.49     0.034 C 
BRANCH   2   3
ATOM      3  CG  ARG D 557     -28.232   1.226 -17.438  1.00 35.49     0.027 C 
BRANCH   3   4
ATOM      4  CD  ARG D 557     -28.913   0.306 -16.499  1.00 35.49     0.116 C 
BRANCH   4   5
ATOM      5  NE  ARG D 557     -29.314  -0.920 -17.137  1.00 35.49    -0.212 N 
ATOM      6  CZ  ARG D 557     -28.694  -2.075 -17.041  1.00 35.49     0.666 C 
ATOM      7  NH1 ARG D 557     -27.590  -2.230 -16.333  1.00 35.49    -0.235 N 
ATOM      8  NH2 ARG D 557     -29.212  -3.089 -17.671  1.00 35.49    -0.235 N 
ATOM      9  HH  ARG D 557     -27.233  -1.577 -15.909  1.00 35.49     0.174 HD
ATOM     10  HH  ARG D 557     -27.231  -3.008 -16.305  1.00 35.49     0.174 HD
ATOM     11  HH  ARG D 557     -29.930  -2.961 -18.114  1.00 35.49     0.174 HD
ATOM     12  HH  ARG D 557     -28.843  -3.851 -17.629  1.00 35.49     0.174 HD
ATOM     13  HE  ARG D 557     -29.975  -0.895 -17.672  1.00 35.49     0.178 HD
ENDBRANCH   4   5
ENDBRANCH   3   4
ENDBRANCH   2   3
ENDBRANCH   1   2
END_RES ARG D 557
BEGIN_RES GLU D 570
REMARK  3 active torsions:
REMARK  status: ('A' for Active; 'I' for Inactive)
REMARK    5  A    between atoms: CA   and  CB  
REMARK    6  A    between atoms: CB   and  CG  
REMARK    7  A    between atoms: CG   and  CD  
ROOT
ATOM     14  CA  GLU D 570     -18.033  -6.348 -13.375  1.00 32.92     0.160 C 
ENDROOT
BRANCH  14  15
ATOM     15  CB  GLU D 570     -19.500  -6.345 -13.794  1.00 32.92     0.043 C 
BRANCH  15  16
ATOM     16  CG  GLU D 570     -20.449  -5.566 -12.957  1.00 32.92     0.100 C 
BRANCH  16  17
ATOM     17  CD  GLU D 570     -21.698  -5.161 -13.705  1.00 32.92     0.185 C 
ATOM     18  OE1 GLU D 570     -21.677  -5.137 -14.950  1.00 32.92    -0.647 OA
ATOM     19  OE2 GLU D 570     -22.703  -4.847 -13.037  1.00 32.92    -0.647 OA
ENDBRANCH  16  17
ENDBRANCH  15  16
ENDBRANCH  14  15
END_RES GLU D 570
ENDMDL
MODEL 7
REMARK VINA RESULT:      -5.9      2.260      2.860
REMARK  4 active torsions:
REMARK  status: ('A' for Active; 'I' for Inactive)
REMARK    1  A    between atoms: C_4  and  C_7 
REMARK    2  A    between atoms: C_7  and  C_8 
REMARK    3  A    between atoms: C_7  and  O_11 
REMARK    4  A    between atoms: C_8  and  O_10 
ROOT
HETATM    1  C   UNL     1     -24.019  -3.538 -10.160  1.00  0.00     0.248 C 
ENDROOT
BRANCH   1   2
HETATM    2  C   UNL     1     -22.724  -3.866  -9.436  1.00  0.00    -0.019 A 
HETATM    3  C   UNL     1     -22.733  -4.238  -8.079  1.00  0.00     0.010 A 
HETATM    4  C   UNL     1     -21.552  -4.613  -7.430  1.00  0.00     0.001 A 
HETATM    5  C   UNL     1     -20.345  -4.626  -8.124  1.00  0.00     0.000 A 
HETATM    6  C   UNL     1     -20.312  -4.242  -9.460  1.00  0.00     0.001 A 
HETATM    7  C   UNL     1     -21.489  -3.861 -10.107  1.00  0.00     0.010 A 
ENDBRANCH   1   2
BRANCH   1   8
HETATM    8  C   UNL     1     -23.914  -3.656 -11.687  1.00  0.00     0.174 C 
HETATM    9  O   UNL     1     -23.937  -2.686 -12.435  1.00  0.00    -0.648 OA
BRANCH   8  10
HETATM   10  O   UNL     1     -23.749  -4.918 -12.152  1.00  0.00    -0.774 OA
HETATM   11  H   UNL     1     -23.735  -4.991 -13.125  1.00  0.00     0.167 HD
ENDBRANCH   8  10
ENDBRANCH   1   8
BRANCH   1  12
HETATM   12  O   UNL     1     -25.088  -4.379  -9.710  1.00  0.00    -0.380 OA
HETATM   13  H   UNL     1     -25.867  -4.119 -10.242  1.00  0.00     0.211 HD
ENDBRANCH   1  12
TORSDOF 4
BEGIN_RES ARG D 557
REMARK  4 active torsions:
REMARK  status: ('A' for Active; 'I' for Inactive)
REMARK    1  A    between atoms: CA   and  CB  
REMARK    2  A    between atoms: CB   and  CG  
REMARK    3  A    between atoms: CG   and  CD  
REMARK    4  A    between atoms: CD   and  NE  
REMARK       I    between atoms: NE   and  CZ  
REMARK       I    between atoms: CZ   and  NH1 
REMARK       I    between atoms: CZ   and  NH2 
ROOT
ATOM      1  CA  ARG D 557     -26.217   2.705 -17.014  1.00 35.49     0.159 C 
ENDROOT
BRANCH   1   2
ATOM      2  CB  ARG D 557     -26.789   1.319 -17.183  1.00 35.49     0.034 C 
BRANCH   2   3
ATOM      3  CG  ARG D 557     -28.231   1.226 -17.441  1.00 35.49     0.027 C 
BRANCH   3   4
ATOM      4  CD  ARG D 557     -28.914   0.305 -16.504  1.00 35.49     0.116 C 
BRANCH   4   5
ATOM      5  NE  ARG D 557     -29.289  -0.932 -17.137  1.00 35.49    -0.212 N 
ATOM      6  CZ  ARG D 557     -28.647  -2.074 -17.029  1.00 35.49     0.666 C 
ATOM      7  NH1 ARG D 557     -27.545  -2.204 -16.315  1.00 35.49    -0.235 N 
ATOM      8  NH2 ARG D 557     -29.143  -3.102 -17.656  1.00 35.49    -0.235 N 
ATOM      9  HH  ARG D 557     -27.202  -1.542 -15.893  1.00 35.49     0.174 HD
ATOM     10  HH  ARG D 557     -27.171  -2.974 -16.279  1.00 35.49     0.174 HD
ATOM     11  HH  ARG D 557     -29.860  -2.990 -18.103  1.00 35.49     0.174 HD
ATOM     12  HH  ARG D 557     -28.759  -3.856 -17.607  1.00 35.49     0.174 HD
ATOM     13  HE  ARG D 557     -29.947  -0.922 -17.675  1.00 35.49     0.178 HD
ENDBRANCH   4   5
ENDBRANCH   3   4
ENDBRANCH   2   3
ENDBRANCH   1   2
END_RES ARG D 557
BEGIN_RES GLU D 570
REMARK  3 active torsions:
REMARK  status: ('A' for Active; 'I' for Inactive)
REMARK    5  A    between atoms: CA   and  CB  
REMARK    6  A    between atoms: CB   and  CG  
REMARK    7  A    between atoms: CG   and  CD  
ROOT
ATOM     14  CA  GLU D 570     -18.033  -6.348 -13.375  1.00 32.92     0.160 C 
ENDROOT
BRANCH  14  15
ATOM     15  CB  GLU D 570     -19.500  -6.345 -13.794  1.00 32.92     0.043 C 
BRANCH  15  16
ATOM     16  CG  GLU D 570     -19.804  -6.053 -15.219  1.00 32.92     0.100 C 
BRANCH  16  17
ATOM     17  CD  GLU D 570     -21.126  -5.345 -15.406  1.00 32.92     0.185 C 
ATOM     18  OE1 GLU D 570     -21.518  -5.090 -16.561  1.00 32.92    -0.647 OA
ATOM     19  OE2 GLU D 570     -21.768  -5.027 -14.386  1.00 32.92    -0.647 OA
ENDBRANCH  16  17
ENDBRANCH  15  16
ENDBRANCH  14  15
END_RES GLU D 570
ENDMDL
MODEL 8
REMARK VINA RESULT:      -5.9      7.638      9.402
REMARK  4 active torsions:
REMARK  status: ('A' for Active; 'I' for Inactive)
REMARK    1  A    between atoms: C_4  and  C_7 
REMARK    2  A    between atoms: C_7  and  C_8 
REMARK    3  A    between atoms: C_7  and  O_11 
REMARK    4  A    between atoms: C_8  and  O_10 
ROOT
HETATM    1  C   UNL     1     -35.536  -1.498 -11.805  1.00  0.00     0.248 C 
ENDROOT
BRANCH   1   2
HETATM    2  C   UNL     1     -34.815  -2.801 -11.507  1.00  0.00    -0.019 A 
HETATM    3  C   UNL     1     -35.495  -3.882 -10.918  1.00  0.00     0.010 A 
HETATM    4  C   UNL     1     -34.853  -5.108 -10.711  1.00  0.00     0.001 A 
HETATM    5  C   UNL     1     -33.525  -5.276 -11.092  1.00  0.00     0.000 A 
HETATM    6  C   UNL     1     -32.828  -4.213 -11.658  1.00  0.00     0.001 A 
HETATM    7  C   UNL     1     -33.466  -2.987 -11.858  1.00  0.00     0.010 A 
ENDBRANCH   1   2
BRANCH   1   8
HETATM    8  C   UNL     1     -36.545  -1.095 -10.719  1.00  0.00     0.174 C 
HETATM    9  O   UNL     1     -37.757  -1.188 -10.867  1.00  0.00    -0.648 OA
BRANCH   8  10
HETATM   10  O   UNL     1     -35.994  -0.665  -9.559  1.00  0.00    -0.774 OA
HETATM   11  H   UNL     1     -36.524   0.001  -9.082  1.00  0.00     0.167 HD
ENDBRANCH   8  10
ENDBRANCH   1   8
BRANCH   1  12
HETATM   12  O   UNL     1     -34.606  -0.424 -11.983  1.00  0.00    -0.380 OA
HETATM   13  H   UNL     1     -33.722  -0.813 -11.826  1.00  0.00     0.211 HD
ENDBRANCH   1  12
TORSDOF 4
BEGIN_RES ARG D 557
REMARK  4 active torsions:
REMARK  status: ('A' for Active; 'I' for Inactive)
REMARK    1  A    between atoms: CA   and  CB  
REMARK    2  A    between atoms: CB   and  CG  
REMARK    3  A    between atoms: CG   and  CD  
REMARK    4  A    between atoms: CD   and  NE  
REMARK       I    between atoms: NE   and  CZ  
REMARK       I    between atoms: CZ   and  NH1 
REMARK       I    between atoms: CZ   and  NH2 
ROOT
ATOM      1  CA  ARG D 557     -26.217   2.705 -17.014  1.00 35.49     0.159 C 
ENDROOT
BRANCH   1   2
ATOM      2  CB  ARG D 557     -26.789   1.319 -17.183  1.00 35.49     0.034 C 
BRANCH   2   3
ATOM      3  CG  ARG D 557     -28.210   1.147 -16.859  1.00 35.49     0.027 C 
BRANCH   3   4
ATOM      4  CD  ARG D 557     -28.597  -0.279 -16.757  1.00 35.49     0.116 C 
BRANCH   4   5
ATOM      5  NE  ARG D 557     -27.615  -1.058 -16.049  1.00 35.49    -0.212 N 
ATOM      6  CZ  ARG D 557     -27.469  -2.362 -16.124  1.00 35.49     0.666 C 
ATOM      7  NH1 ARG D 557     -28.248  -3.120 -16.875  1.00 35.49    -0.235 N 
ATOM      8  NH2 ARG D 557     -26.510  -2.900 -15.428  1.00 35.49    -0.235 N 
ATOM      9  HH  ARG D 557     -28.883  -2.787 -17.342  1.00 35.49     0.174 HD
ATOM     10  HH  ARG D 557     -28.104  -3.965 -16.886  1.00 35.49     0.174 HD
ATOM     11  HH  ARG D 557     -26.019  -2.385 -14.959  1.00 35.49     0.174 HD
ATOM     12  HH  ARG D 557     -26.383  -3.738 -15.455  1.00 35.49     0.174 HD
ATOM     13  HE  ARG D 557     -27.118  -0.658 -15.487  1.00 35.49     0.178 HD
ENDBRANCH   4   5
ENDBRANCH   3   4
ENDBRANCH   2   3
ENDBRANCH   1   2
END_RES ARG D 557
BEGIN_RES GLU D 570
REMARK  3 active torsions:
REMARK  status: ('A' for Active; 'I' for Inactive)
REMARK    5  A    between atoms: CA   and  CB  
REMARK    6  A    between atoms: CB   and  CG  
REMARK    7  A    between atoms: CG   and  CD  
ROOT
ATOM     14  CA  GLU D 570     -18.033  -6.348 -13.375  1.00 32.92     0.160 C 
ENDROOT
BRANCH  14  15
ATOM     15  CB  GLU D 570     -19.500  -6.345 -13.794  1.00 32.92     0.043 C 
BRANCH  15  16
ATOM     16  CG  GLU D 570     -19.797  -6.223 -15.245  1.00 32.92     0.100 C 
BRANCH  16  17
ATOM     17  CD  GLU D 570     -21.050  -5.427 -15.525  1.00 32.92     0.185 C 
ATOM     18  OE1 GLU D 570     -21.352  -5.168 -16.706  1.00 32.92    -0.647 OA
ATOM     19  OE2 GLU D 570     -21.729  -5.043 -14.552  1.00 32.92    -0.647 OA
ENDBRANCH  16  17
ENDBRANCH  15  16
ENDBRANCH  14  15
END_RES GLU D 570
ENDMDL
MODEL 9
REMARK VINA RESULT:      -5.7      4.581      7.712
REMARK  4 active torsions:
REMARK  status: ('A' for Active; 'I' for Inactive)
REMARK    1  A    between atoms: C_4  and  C_7 
REMARK    2  A    between atoms: C_7  and  C_8 
REMARK    3  A    between atoms: C_7  and  O_11 
REMARK    4  A    between atoms: C_8  and  O_10 
ROOT
HETATM    1  C   UNL     1     -26.766  -5.934 -17.423  1.00  0.00     0.248 C 
ENDROOT
BRANCH   1   2
HETATM    2  C   UNL     1     -28.281  -6.034 -17.387  1.00  0.00    -0.019 A 
HETATM    3  C   UNL     1     -28.957  -7.007 -18.146  1.00  0.00     0.010 A 
HETATM    4  C   UNL     1     -30.345  -7.150 -18.057  1.00  0.00     0.001 A 
HETATM    5  C   UNL     1     -31.081  -6.329 -17.208  1.00  0.00     0.000 A 
HETATM    6  C   UNL     1     -30.435  -5.348 -16.464  1.00  0.00     0.001 A 
HETATM    7  C   UNL     1     -29.049  -5.199 -16.557  1.00  0.00     0.010 A 
ENDBRANCH   1   2
BRANCH   1   8
HETATM    8  C   UNL     1     -26.090  -6.385 -16.120  1.00  0.00     0.174 C 
HETATM    9  O   UNL     1     -25.188  -5.754 -15.584  1.00  0.00    -0.648 OA
BRANCH   8  10
HETATM   10  O   UNL     1     -26.595  -7.519 -15.577  1.00  0.00    -0.774 OA
HETATM   11  H   UNL     1     -26.002  -8.291 -15.631  1.00  0.00     0.167 HD
ENDBRANCH   8  10
ENDBRANCH   1   8
BRANCH   1  12
HETATM   12  O   UNL     1     -26.226  -6.702 -18.505  1.00  0.00    -0.380 OA
HETATM   13  H   UNL     1     -25.362  -7.033 -18.186  1.00  0.00     0.211 HD
ENDBRANCH   1  12
TORSDOF 4
BEGIN_RES ARG D 557
REMARK  4 active torsions:
REMARK  status: ('A' for Active; 'I' for Inactive)
REMARK    1  A    between atoms: CA   and  CB  
REMARK    2  A    between atoms: CB   and  CG  
REMARK    3  A    between atoms: CG   and  CD  
REMARK    4  A    between atoms: CD   and  NE  
REMARK       I    between atoms: NE   and  CZ  
REMARK       I    between atoms: CZ   and  NH1 
REMARK       I    between atoms: CZ   and  NH2 
ROOT
ATOM      1  CA  ARG D 557     -26.217   2.705 -17.014  1.00 35.49     0.159 C 
ENDROOT
BRANCH   1   2
ATOM      2  CB  ARG D 557     -26.789   1.319 -17.183  1.00 35.49     0.034 C 
BRANCH   2   3
ATOM      3  CG  ARG D 557     -25.866   0.195 -16.983  1.00 35.49     0.027 C 
BRANCH   3   4
ATOM      4  CD  ARG D 557     -26.303  -0.707 -15.893  1.00 35.49     0.116 C 
BRANCH   4   5
ATOM      5  NE  ARG D 557     -25.256  -0.948 -14.936  1.00 35.49    -0.212 N 
ATOM      6  CZ  ARG D 557     -25.044  -2.076 -14.297  1.00 35.49     0.666 C 
ATOM      7  NH1 ARG D 557     -25.809  -3.140 -14.463  1.00 35.49    -0.235 N 
ATOM      8  NH2 ARG D 557     -24.032  -2.123 -13.479  1.00 35.49    -0.235 N 
ATOM      9  HH  ARG D 557     -26.479  -3.132 -14.997  1.00 35.49     0.174 HD
ATOM     10  HH  ARG D 557     -25.621  -3.849 -14.021  1.00 35.49     0.174 HD
ATOM     11  HH  ARG D 557     -23.551  -1.423 -13.398  1.00 35.49     0.174 HD
ATOM     12  HH  ARG D 557     -23.862  -2.835 -13.052  1.00 35.49     0.174 HD
ATOM     13  HE  ARG D 557     -24.760  -0.294 -14.714  1.00 35.49     0.178 HD
ENDBRANCH   4   5
ENDBRANCH   3   4
ENDBRANCH   2   3
ENDBRANCH   1   2
END_RES ARG D 557
BEGIN_RES GLU D 570
REMARK  3 active torsions:
REMARK  status: ('A' for Active; 'I' for Inactive)
REMARK    5  A    between atoms: CA   and  CB  
REMARK    6  A    between atoms: CB   and  CG  
REMARK    7  A    between atoms: CG   and  CD  
ROOT
ATOM     14  CA  GLU D 570     -18.033  -6.348 -13.375  1.00 32.92     0.160 C 
ENDROOT
BRANCH  14  15
ATOM     15  CB  GLU D 570     -19.500  -6.345 -13.794  1.00 32.92     0.043 C 
BRANCH  15  16
ATOM     16  CG  GLU D 570     -19.808  -5.996 -15.205  1.00 32.92     0.100 C 
BRANCH  16  17
ATOM     17  CD  GLU D 570     -21.191  -5.413 -15.379  1.00 32.92     0.185 C 
ATOM     18  OE1 GLU D 570     -21.527  -4.975 -16.496  1.00 32.92    -0.647 OA
ATOM     19  OE2 GLU D 570     -21.941  -5.379 -14.384  1.00 32.92    -0.647 OA
ENDBRANCH  16  17
ENDBRANCH  15  16
ENDBRANCH  14  15
END_RES GLU D 570
ENDMDL
