MODEL 1
REMARK VINA RESULT:      -5.5      0.000      0.000
REMARK  9 active torsions:
REMARK  status: ('A' for Active; 'I' for Inactive)
REMARK    1  A    between atoms: C_1  and  C_2 
REMARK    2  A    between atoms: C_1  and  O_10 
REMARK    3  A    between atoms: C_2  and  C_3 
REMARK    4  A    between atoms: C_2  and  O_9 
REMARK    5  A    between atoms: C_3  and  C_4 
REMARK    6  A    between atoms: C_3  and  O_8 
REMARK    7  A    between atoms: C_4  and  C_5 
REMARK    8  A    between atoms: C_4  and  O_7 
REMARK    9  A    between atoms: C_5  and  O_6 
ROOT
HETATM    1  C   UNL     1     -23.076  -2.560 -12.909  1.00  0.00     0.179 C 
ENDROOT
BRANCH   1   2
HETATM    2  C   UNL     1     -23.140  -2.519 -14.458  1.00  0.00     0.173 C 
BRANCH   2   3
HETATM    3  C   UNL     1     -23.619  -1.149 -14.980  1.00  0.00     0.198 C 
BRANCH   3   4
HETATM    4  O   UNL     1     -24.899  -0.782 -14.485  1.00  0.00    -0.398 OA
HETATM    5  H   UNL     1     -24.807   0.112 -14.091  1.00  0.00     0.209 HD
ENDBRANCH   3   4
ENDBRANCH   2   3
BRANCH   2   6
HETATM    6  O   UNL     1     -23.998  -3.536 -14.973  1.00  0.00    -0.391 OA
HETATM    7  H   UNL     1     -24.189  -4.176 -14.268  1.00  0.00     0.210 HD
ENDBRANCH   2   6
ENDBRANCH   1   2
BRANCH   1   8
HETATM    8  C   UNL     1     -24.226  -3.353 -12.239  1.00  0.00     0.173 C 
BRANCH   8   9
HETATM    9  C   UNL     1     -24.101  -3.331 -10.705  1.00  0.00     0.198 C 
BRANCH   9  10
HETATM   10  O   UNL     1     -23.301  -4.433 -10.277  1.00  0.00    -0.398 OA
HETATM   11  H   UNL     1     -22.385  -4.218 -10.548  1.00  0.00     0.209 HD
ENDBRANCH   9  10
ENDBRANCH   8   9
BRANCH   8  12
HETATM   12  O   UNL     1     -25.531  -2.850 -12.554  1.00  0.00    -0.391 OA
HETATM   13  H   UNL     1     -25.446  -1.930 -12.856  1.00  0.00     0.210 HD
ENDBRANCH   8  12
ENDBRANCH   1   8
BRANCH   1  14
HETATM   14  O   UNL     1     -21.809  -3.090 -12.491  1.00  0.00    -0.390 OA
HETATM   15  H   UNL     1     -21.790  -3.073 -11.512  1.00  0.00     0.210 HD
ENDBRANCH   1  14
TORSDOF 9
BEGIN_RES ARG D 557
REMARK  4 active torsions:
REMARK  status: ('A' for Active; 'I' for Inactive)
REMARK    1  A    between atoms: CA   and  CB  
REMARK    2  A    between atoms: CB   and  CG  
REMARK    3  A    between atoms: CG   and  CD  
REMARK    4  A    between atoms: CD   and  NE  
REMARK       I    between atoms: NE   and  CZ  
REMARK       I    between atoms: CZ   and  NH1 
REMARK       I    between atoms: CZ   and  NH2 
ROOT
ATOM      1  CA  ARG D 557     -26.217   2.705 -17.014  1.00 35.49     0.159 C 
ENDROOT
BRANCH   1   2
ATOM      2  CB  ARG D 557     -26.789   1.319 -17.183  1.00 35.49     0.034 C 
BRANCH   2   3
ATOM      3  CG  ARG D 557     -28.218   1.154 -16.892  1.00 35.49     0.027 C 
BRANCH   3   4
ATOM      4  CD  ARG D 557     -28.629  -0.268 -16.869  1.00 35.49     0.116 C 
BRANCH   4   5
ATOM      5  NE  ARG D 557     -27.701  -1.090 -16.138  1.00 35.49    -0.212 N 
ATOM      6  CZ  ARG D 557     -27.605  -2.398 -16.217  1.00 35.49     0.666 C 
ATOM      7  NH1 ARG D 557     -28.391  -3.121 -16.994  1.00 35.49    -0.235 N 
ATOM      8  NH2 ARG D 557     -26.689  -2.978 -15.496  1.00 35.49    -0.235 N 
ATOM      9  HH  ARG D 557     -28.999  -2.760 -17.478  1.00 35.49     0.174 HD
ATOM     10  HH  ARG D 557     -28.281  -3.970 -17.006  1.00 35.49     0.174 HD
ATOM     11  HH  ARG D 557     -26.192  -2.485 -15.010  1.00 35.49     0.174 HD
ATOM     12  HH  ARG D 557     -26.595  -3.820 -15.524  1.00 35.49     0.174 HD
ATOM     13  HE  ARG D 557     -27.205  -0.713 -15.559  1.00 35.49     0.178 HD
ENDBRANCH   4   5
ENDBRANCH   3   4
ENDBRANCH   2   3
ENDBRANCH   1   2
END_RES ARG D 557
BEGIN_RES GLU D 570
REMARK  3 active torsions:
REMARK  status: ('A' for Active; 'I' for Inactive)
REMARK    5  A    between atoms: CA   and  CB  
REMARK    6  A    between atoms: CB   and  CG  
REMARK    7  A    between atoms: CG   and  CD  
ROOT
ATOM     14  CA  GLU D 570     -18.033  -6.348 -13.375  1.00 32.92     0.160 C 
ENDROOT
BRANCH  14  15
ATOM     15  CB  GLU D 570     -19.500  -6.345 -13.794  1.00 32.92     0.043 C 
BRANCH  15  16
ATOM     16  CG  GLU D 570     -19.829  -5.783 -15.129  1.00 32.92     0.100 C 
BRANCH  16  17
ATOM     17  CD  GLU D 570     -21.306  -5.519 -15.310  1.00 32.92     0.185 C 
ATOM     18  OE1 GLU D 570     -21.724  -5.155 -16.426  1.00 32.92    -0.647 OA
ATOM     19  OE2 GLU D 570     -22.051  -5.662 -14.320  1.00 32.92    -0.647 OA
ENDBRANCH  16  17
ENDBRANCH  15  16
ENDBRANCH  14  15
END_RES GLU D 570
ENDMDL
MODEL 2
REMARK VINA RESULT:      -5.2      1.040      2.920
REMARK  9 active torsions:
REMARK  status: ('A' for Active; 'I' for Inactive)
REMARK    1  A    between atoms: C_1  and  C_2 
REMARK    2  A    between atoms: C_1  and  O_10 
REMARK    3  A    between atoms: C_2  and  C_3 
REMARK    4  A    between atoms: C_2  and  O_9 
REMARK    5  A    between atoms: C_3  and  C_4 
REMARK    6  A    between atoms: C_3  and  O_8 
REMARK    7  A    between atoms: C_4  and  C_5 
REMARK    8  A    between atoms: C_4  and  O_7 
REMARK    9  A    between atoms: C_5  and  O_6 
ROOT
HETATM    1  C   UNL     1     -23.288  -3.730 -12.750  1.00  0.00     0.179 C 
ENDROOT
BRANCH   1   2
HETATM    2  C   UNL     1     -23.657  -3.258 -11.320  1.00  0.00     0.173 C 
BRANCH   2   3
HETATM    3  C   UNL     1     -23.079  -4.191 -10.237  1.00  0.00     0.198 C 
BRANCH   3   4
HETATM    4  O   UNL     1     -21.703  -4.483 -10.431  1.00  0.00    -0.398 OA
HETATM    5  H   UNL     1     -21.225  -3.626 -10.422  1.00  0.00     0.209 HD
ENDBRANCH   3   4
ENDBRANCH   2   3
BRANCH   2   6
HETATM    6  O   UNL     1     -25.070  -3.166 -11.147  1.00  0.00    -0.391 OA
HETATM    7  H   UNL     1     -25.258  -2.777 -10.278  1.00  0.00     0.210 HD
ENDBRANCH   2   6
ENDBRANCH   1   2
BRANCH   1   8
HETATM    8  C   UNL     1     -24.303  -3.316 -13.845  1.00  0.00     0.173 C 
BRANCH   8   9
HETATM    9  C   UNL     1     -23.947  -1.944 -14.446  1.00  0.00     0.198 C 
BRANCH   9  10
HETATM   10  O   UNL     1     -22.965  -2.112 -15.469  1.00  0.00    -0.398 OA
HETATM   11  H   UNL     1     -22.262  -2.667 -15.073  1.00  0.00     0.209 HD
ENDBRANCH   9  10
ENDBRANCH   8   9
BRANCH   8  12
HETATM   12  O   UNL     1     -24.378  -4.238 -14.939  1.00  0.00    -0.391 OA
HETATM   13  H   UNL     1     -25.257  -4.166 -15.348  1.00  0.00     0.210 HD
ENDBRANCH   8  12
ENDBRANCH   1   8
BRANCH   1  14
HETATM   14  O   UNL     1     -21.978  -3.255 -13.095  1.00  0.00    -0.390 OA
HETATM   15  H   UNL     1     -22.089  -2.496 -13.702  1.00  0.00     0.210 HD
ENDBRANCH   1  14
TORSDOF 9
BEGIN_RES ARG D 557
REMARK  4 active torsions:
REMARK  status: ('A' for Active; 'I' for Inactive)
REMARK    1  A    between atoms: CA   and  CB  
REMARK    2  A    between atoms: CB   and  CG  
REMARK    3  A    between atoms: CG   and  CD  
REMARK    4  A    between atoms: CD   and  NE  
REMARK       I    between atoms: NE   and  CZ  
REMARK       I    between atoms: CZ   and  NH1 
REMARK       I    between atoms: CZ   and  NH2 
ROOT
ATOM      1  CA  ARG D 557     -26.217   2.705 -17.014  1.00 35.49     0.159 C 
ENDROOT
BRANCH   1   2
ATOM      2  CB  ARG D 557     -26.789   1.319 -17.183  1.00 35.49     0.034 C 
BRANCH   2   3
ATOM      3  CG  ARG D 557     -28.211   1.147 -16.859  1.00 35.49     0.027 C 
BRANCH   3   4
ATOM      4  CD  ARG D 557     -28.698  -0.217 -17.168  1.00 35.49     0.116 C 
BRANCH   4   5
ATOM      5  NE  ARG D 557     -27.906  -1.234 -16.529  1.00 35.49    -0.212 N 
ATOM      6  CZ  ARG D 557     -28.064  -2.531 -16.668  1.00 35.49     0.666 C 
ATOM      7  NH1 ARG D 557     -29.011  -3.053 -17.426  1.00 35.49    -0.235 N 
ATOM      8  NH2 ARG D 557     -27.238  -3.308 -16.029  1.00 35.49    -0.235 N 
ATOM      9  HH  ARG D 557     -29.564  -2.560 -17.857  1.00 35.49     0.174 HD
ATOM     10  HH  ARG D 557     -29.064  -3.906 -17.481  1.00 35.49     0.174 HD
ATOM     11  HH  ARG D 557     -26.632  -2.943 -15.553  1.00 35.49     0.174 HD
ATOM     12  HH  ARG D 557     -27.307  -4.151 -16.097  1.00 35.49     0.174 HD
ATOM     13  HE  ARG D 557     -27.318  -0.987 -15.966  1.00 35.49     0.178 HD
ENDBRANCH   4   5
ENDBRANCH   3   4
ENDBRANCH   2   3
ENDBRANCH   1   2
END_RES ARG D 557
BEGIN_RES GLU D 570
REMARK  3 active torsions:
REMARK  status: ('A' for Active; 'I' for Inactive)
REMARK    5  A    between atoms: CA   and  CB  
REMARK    6  A    between atoms: CB   and  CG  
REMARK    7  A    between atoms: CG   and  CD  
ROOT
ATOM     14  CA  GLU D 570     -18.033  -6.348 -13.375  1.00 32.92     0.160 C 
ENDROOT
BRANCH  14  15
ATOM     15  CB  GLU D 570     -19.500  -6.345 -13.794  1.00 32.92     0.043 C 
BRANCH  15  16
ATOM     16  CG  GLU D 570     -19.811  -5.959 -15.195  1.00 32.92     0.100 C 
BRANCH  16  17
ATOM     17  CD  GLU D 570     -21.269  -5.620 -15.403  1.00 32.92     0.185 C 
ATOM     18  OE1 GLU D 570     -22.136  -6.456 -15.083  1.00 32.92    -0.647 OA
ATOM     19  OE2 GLU D 570     -21.545  -4.514 -15.906  1.00 32.92    -0.647 OA
ENDBRANCH  16  17
ENDBRANCH  15  16
ENDBRANCH  14  15
END_RES GLU D 570
ENDMDL
MODEL 3
REMARK VINA RESULT:      -5.2      9.620     11.160
REMARK  9 active torsions:
REMARK  status: ('A' for Active; 'I' for Inactive)
REMARK    1  A    between atoms: C_1  and  C_2 
REMARK    2  A    between atoms: C_1  and  O_10 
REMARK    3  A    between atoms: C_2  and  C_3 
REMARK    4  A    between atoms: C_2  and  O_9 
REMARK    5  A    between atoms: C_3  and  C_4 
REMARK    6  A    between atoms: C_3  and  O_8 
REMARK    7  A    between atoms: C_4  and  C_5 
REMARK    8  A    between atoms: C_4  and  O_7 
REMARK    9  A    between atoms: C_5  and  O_6 
ROOT
HETATM    1  C   UNL     1     -30.110 -14.466 -20.872  1.00  0.00     0.179 C 
ENDROOT
BRANCH   1   2
HETATM    2  C   UNL     1     -30.722 -15.560 -21.784  1.00  0.00     0.173 C 
BRANCH   2   3
HETATM    3  C   UNL     1     -31.930 -15.033 -22.586  1.00  0.00     0.198 C 
BRANCH   3   4
HETATM    4  O   UNL     1     -32.007 -13.615 -22.608  1.00  0.00    -0.398 OA
HETATM    5  H   UNL     1     -31.182 -13.278 -22.199  1.00  0.00     0.209 HD
ENDBRANCH   3   4
ENDBRANCH   2   3
BRANCH   2   6
HETATM    6  O   UNL     1     -31.128 -16.701 -21.031  1.00  0.00    -0.391 OA
HETATM    7  H   UNL     1     -31.196 -16.456 -20.094  1.00  0.00     0.210 HD
ENDBRANCH   2   6
ENDBRANCH   1   2
BRANCH   1   8
HETATM    8  C   UNL     1     -29.802 -14.933 -19.427  1.00  0.00     0.173 C 
BRANCH   8   9
HETATM    9  C   UNL     1     -28.756 -14.023 -18.756  1.00  0.00     0.198 C 
BRANCH   9  10
HETATM   10  O   UNL     1     -29.033 -12.661 -19.080  1.00  0.00    -0.398 OA
HETATM   11  H   UNL     1     -28.376 -12.411 -19.762  1.00  0.00     0.209 HD
ENDBRANCH   9  10
ENDBRANCH   8   9
BRANCH   8  12
HETATM   12  O   UNL     1     -30.950 -14.944 -18.569  1.00  0.00    -0.391 OA
HETATM   13  H   UNL     1     -31.750 -14.964 -19.120  1.00  0.00     0.210 HD
ENDBRANCH   8  12
ENDBRANCH   1   8
BRANCH   1  14
HETATM   14  O   UNL     1     -28.920 -13.940 -21.478  1.00  0.00    -0.390 OA
HETATM   15  H   UNL     1     -29.128 -13.041 -21.807  1.00  0.00     0.210 HD
ENDBRANCH   1  14
TORSDOF 9
BEGIN_RES ARG D 557
REMARK  4 active torsions:
REMARK  status: ('A' for Active; 'I' for Inactive)
REMARK    1  A    between atoms: CA   and  CB  
REMARK    2  A    between atoms: CB   and  CG  
REMARK    3  A    between atoms: CG   and  CD  
REMARK    4  A    between atoms: CD   and  NE  
REMARK       I    between atoms: NE   and  CZ  
REMARK       I    between atoms: CZ   and  NH1 
REMARK       I    between atoms: CZ   and  NH2 
ROOT
ATOM      1  CA  ARG D 557     -26.217   2.705 -17.014  1.00 35.49     0.159 C 
ENDROOT
BRANCH   1   2
ATOM      2  CB  ARG D 557     -26.789   1.319 -17.183  1.00 35.49     0.034 C 
BRANCH   2   3
ATOM      3  CG  ARG D 557     -28.233   1.226 -17.431  1.00 35.49     0.027 C 
BRANCH   3   4
ATOM      4  CD  ARG D 557     -28.908   0.300 -16.493  1.00 35.49     0.116 C 
BRANCH   4   5
ATOM      5  NE  ARG D 557     -29.292  -0.932 -17.130  1.00 35.49    -0.212 N 
ATOM      6  CZ  ARG D 557     -28.658  -2.079 -17.029  1.00 35.49     0.666 C 
ATOM      7  NH1 ARG D 557     -27.555  -2.220 -16.318  1.00 35.49    -0.235 N 
ATOM      8  NH2 ARG D 557     -29.162  -3.101 -17.659  1.00 35.49    -0.235 N 
ATOM      9  HH  ARG D 557     -27.207  -1.562 -15.894  1.00 35.49     0.174 HD
ATOM     10  HH  ARG D 557     -27.186  -2.993 -16.287  1.00 35.49     0.174 HD
ATOM     11  HH  ARG D 557     -29.879  -2.982 -18.105  1.00 35.49     0.174 HD
ATOM     12  HH  ARG D 557     -28.783  -3.858 -17.615  1.00 35.49     0.174 HD
ATOM     13  HE  ARG D 557     -29.952  -0.916 -17.666  1.00 35.49     0.178 HD
ENDBRANCH   4   5
ENDBRANCH   3   4
ENDBRANCH   2   3
ENDBRANCH   1   2
END_RES ARG D 557
BEGIN_RES GLU D 570
REMARK  3 active torsions:
REMARK  status: ('A' for Active; 'I' for Inactive)
REMARK    5  A    between atoms: CA   and  CB  
REMARK    6  A    between atoms: CB   and  CG  
REMARK    7  A    between atoms: CG   and  CD  
ROOT
ATOM     14  CA  GLU D 570     -18.033  -6.348 -13.375  1.00 32.92     0.160 C 
ENDROOT
BRANCH  14  15
ATOM     15  CB  GLU D 570     -19.500  -6.345 -13.794  1.00 32.92     0.043 C 
BRANCH  15  16
ATOM     16  CG  GLU D 570     -20.442  -5.532 -12.983  1.00 32.92     0.100 C 
BRANCH  16  17
ATOM     17  CD  GLU D 570     -21.743  -5.250 -13.697  1.00 32.92     0.185 C 
ATOM     18  OE1 GLU D 570     -22.295  -4.144 -13.535  1.00 32.92    -0.647 OA
ATOM     19  OE2 GLU D 570     -22.225  -6.150 -14.412  1.00 32.92    -0.647 OA
ENDBRANCH  16  17
ENDBRANCH  15  16
ENDBRANCH  14  15
END_RES GLU D 570
ENDMDL
MODEL 4
REMARK VINA RESULT:      -5.1      1.053      2.103
REMARK  9 active torsions:
REMARK  status: ('A' for Active; 'I' for Inactive)
REMARK    1  A    between atoms: C_1  and  C_2 
REMARK    2  A    between atoms: C_1  and  O_10 
REMARK    3  A    between atoms: C_2  and  C_3 
REMARK    4  A    between atoms: C_2  and  O_9 
REMARK    5  A    between atoms: C_3  and  C_4 
REMARK    6  A    between atoms: C_3  and  O_8 
REMARK    7  A    between atoms: C_4  and  C_5 
REMARK    8  A    between atoms: C_4  and  O_7 
REMARK    9  A    between atoms: C_5  and  O_6 
ROOT
HETATM    1  C   UNL     1     -23.923  -3.411 -12.015  1.00  0.00     0.179 C 
ENDROOT
BRANCH   1   2
HETATM    2  C   UNL     1     -22.859  -2.780 -12.949  1.00  0.00     0.173 C 
BRANCH   2   3
HETATM    3  C   UNL     1     -23.366  -2.654 -14.401  1.00  0.00     0.198 C 
BRANCH   3   4
HETATM    4  O   UNL     1     -24.110  -3.785 -14.830  1.00  0.00    -0.398 OA
HETATM    5  H   UNL     1     -23.691  -4.573 -14.423  1.00  0.00     0.209 HD
ENDBRANCH   3   4
ENDBRANCH   2   3
BRANCH   2   6
HETATM    6  O   UNL     1     -21.647  -3.532 -12.946  1.00  0.00    -0.391 OA
HETATM    7  H   UNL     1     -20.954  -3.015 -12.502  1.00  0.00     0.210 HD
ENDBRANCH   2   6
ENDBRANCH   1   2
BRANCH   1   8
HETATM    8  C   UNL     1     -23.651  -3.208 -10.503  1.00  0.00     0.173 C 
BRANCH   8   9
HETATM    9  C   UNL     1     -24.687  -3.956  -9.644  1.00  0.00     0.198 C 
BRANCH   9  10
HETATM   10  O   UNL     1     -25.928  -3.250  -9.674  1.00  0.00    -0.398 OA
HETATM   11  H   UNL     1     -25.884  -2.668 -10.460  1.00  0.00     0.209 HD
ENDBRANCH   9  10
ENDBRANCH   8   9
BRANCH   8  12
HETATM   12  O   UNL     1     -22.359  -3.668 -10.084  1.00  0.00    -0.391 OA
HETATM   13  H   UNL     1     -22.186  -4.530 -10.498  1.00  0.00     0.210 HD
ENDBRANCH   8  12
ENDBRANCH   1   8
BRANCH   1  14
HETATM   14  O   UNL     1     -25.223  -2.904 -12.349  1.00  0.00    -0.390 OA
HETATM   15  H   UNL     1     -25.805  -3.048 -11.575  1.00  0.00     0.210 HD
ENDBRANCH   1  14
TORSDOF 9
BEGIN_RES ARG D 557
REMARK  4 active torsions:
REMARK  status: ('A' for Active; 'I' for Inactive)
REMARK    1  A    between atoms: CA   and  CB  
REMARK    2  A    between atoms: CB   and  CG  
REMARK    3  A    between atoms: CG   and  CD  
REMARK    4  A    between atoms: CD   and  NE  
REMARK       I    between atoms: NE   and  CZ  
REMARK       I    between atoms: CZ   and  NH1 
REMARK       I    between atoms: CZ   and  NH2 
ROOT
ATOM      1  CA  ARG D 557     -26.217   2.705 -17.014  1.00 35.49     0.159 C 
ENDROOT
BRANCH   1   2
ATOM      2  CB  ARG D 557     -26.789   1.319 -17.183  1.00 35.49     0.034 C 
BRANCH   2   3
ATOM      3  CG  ARG D 557     -28.232   1.226 -17.435  1.00 35.49     0.027 C 
BRANCH   3   4
ATOM      4  CD  ARG D 557     -28.910   0.300 -16.499  1.00 35.49     0.116 C 
BRANCH   4   5
ATOM      5  NE  ARG D 557     -29.273  -0.941 -17.131  1.00 35.49    -0.212 N 
ATOM      6  CZ  ARG D 557     -28.624  -2.078 -17.019  1.00 35.49     0.666 C 
ATOM      7  NH1 ARG D 557     -27.524  -2.200 -16.299  1.00 35.49    -0.235 N 
ATOM      8  NH2 ARG D 557     -29.109  -3.110 -17.647  1.00 35.49    -0.235 N 
ATOM      9  HH  ARG D 557     -27.188  -1.534 -15.876  1.00 35.49     0.174 HD
ATOM     10  HH  ARG D 557     -27.145  -2.967 -16.261  1.00 35.49     0.174 HD
ATOM     11  HH  ARG D 557     -29.825  -3.004 -18.098  1.00 35.49     0.174 HD
ATOM     12  HH  ARG D 557     -28.721  -3.862 -17.595  1.00 35.49     0.174 HD
ATOM     13  HE  ARG D 557     -29.929  -0.936 -17.673  1.00 35.49     0.178 HD
ENDBRANCH   4   5
ENDBRANCH   3   4
ENDBRANCH   2   3
ENDBRANCH   1   2
END_RES ARG D 557
BEGIN_RES GLU D 570
REMARK  3 active torsions:
REMARK  status: ('A' for Active; 'I' for Inactive)
REMARK    5  A    between atoms: CA   and  CB  
REMARK    6  A    between atoms: CB   and  CG  
REMARK    7  A    between atoms: CG   and  CD  
ROOT
ATOM     14  CA  GLU D 570     -18.033  -6.348 -13.375  1.00 32.92     0.160 C 
ENDROOT
BRANCH  14  15
ATOM     15  CB  GLU D 570     -19.500  -6.345 -13.794  1.00 32.92     0.043 C 
BRANCH  15  16
ATOM     16  CG  GLU D 570     -19.798  -6.215 -15.244  1.00 32.92     0.100 C 
BRANCH  16  17
ATOM     17  CD  GLU D 570     -21.197  -5.715 -15.516  1.00 32.92     0.185 C 
ATOM     18  OE1 GLU D 570     -21.417  -5.072 -16.560  1.00 32.92    -0.647 OA
ATOM     19  OE2 GLU D 570     -22.079  -5.954 -14.667  1.00 32.92    -0.647 OA
ENDBRANCH  16  17
ENDBRANCH  15  16
ENDBRANCH  14  15
END_RES GLU D 570
ENDMDL
MODEL 5
REMARK VINA RESULT:      -5.1      1.478      3.156
REMARK  9 active torsions:
REMARK  status: ('A' for Active; 'I' for Inactive)
REMARK    1  A    between atoms: C_1  and  C_2 
REMARK    2  A    between atoms: C_1  and  O_10 
REMARK    3  A    between atoms: C_2  and  C_3 
REMARK    4  A    between atoms: C_2  and  O_9 
REMARK    5  A    between atoms: C_3  and  C_4 
REMARK    6  A    between atoms: C_3  and  O_8 
REMARK    7  A    between atoms: C_4  and  C_5 
REMARK    8  A    between atoms: C_4  and  O_7 
REMARK    9  A    between atoms: C_5  and  O_6 
ROOT
HETATM    1  C   UNL     1     -24.091  -3.285 -12.300  1.00  0.00     0.179 C 
ENDROOT
BRANCH   1   2
HETATM    2  C   UNL     1     -23.929  -4.111 -10.998  1.00  0.00     0.173 C 
BRANCH   2   3
HETATM    3  C   UNL     1     -24.520  -3.381  -9.774  1.00  0.00     0.198 C 
BRANCH   3   4
HETATM    4  O   UNL     1     -25.941  -3.354  -9.775  1.00  0.00    -0.398 OA
HETATM    5  H   UNL     1     -26.219  -2.971  -8.917  1.00  0.00     0.209 HD
ENDBRANCH   3   4
ENDBRANCH   2   3
BRANCH   2   6
HETATM    6  O   UNL     1     -22.560  -4.416 -10.738  1.00  0.00    -0.391 OA
HETATM    7  H   UNL     1     -22.493  -4.865  -9.880  1.00  0.00     0.210 HD
ENDBRANCH   2   6
ENDBRANCH   1   2
BRANCH   1   8
HETATM    8  C   UNL     1     -23.611  -4.010 -13.583  1.00  0.00     0.173 C 
BRANCH   8   9
HETATM    9  C   UNL     1     -22.752  -3.081 -14.461  1.00  0.00     0.198 C 
BRANCH   9  10
HETATM   10  O   UNL     1     -21.969  -3.866 -15.360  1.00  0.00    -0.398 OA
HETATM   11  H   UNL     1     -22.610  -4.343 -15.924  1.00  0.00     0.209 HD
ENDBRANCH   9  10
ENDBRANCH   8   9
BRANCH   8  12
HETATM   12  O   UNL     1     -22.822  -5.178 -13.323  1.00  0.00    -0.391 OA
HETATM   13  H   UNL     1     -22.568  -5.577 -14.173  1.00  0.00     0.210 HD
ENDBRANCH   8  12
ENDBRANCH   1   8
BRANCH   1  14
HETATM   14  O   UNL     1     -25.460  -2.882 -12.451  1.00  0.00    -0.390 OA
HETATM   15  H   UNL     1     -25.463  -1.988 -12.852  1.00  0.00     0.210 HD
ENDBRANCH   1  14
TORSDOF 9
BEGIN_RES ARG D 557
REMARK  4 active torsions:
REMARK  status: ('A' for Active; 'I' for Inactive)
REMARK    1  A    between atoms: CA   and  CB  
REMARK    2  A    between atoms: CB   and  CG  
REMARK    3  A    between atoms: CG   and  CD  
REMARK    4  A    between atoms: CD   and  NE  
REMARK       I    between atoms: NE   and  CZ  
REMARK       I    between atoms: CZ   and  NH1 
REMARK       I    between atoms: CZ   and  NH2 
ROOT
ATOM      1  CA  ARG D 557     -26.217   2.705 -17.014  1.00 35.49     0.159 C 
ENDROOT
BRANCH   1   2
ATOM      2  CB  ARG D 557     -26.789   1.319 -17.183  1.00 35.49     0.034 C 
BRANCH   2   3
ATOM      3  CG  ARG D 557     -28.224   1.160 -16.920  1.00 35.49     0.027 C 
BRANCH   3   4
ATOM      4  CD  ARG D 557     -28.611  -0.258 -16.737  1.00 35.49     0.116 C 
BRANCH   4   5
ATOM      5  NE  ARG D 557     -27.615  -1.002 -16.013  1.00 35.49    -0.212 N 
ATOM      6  CZ  ARG D 557     -27.429  -2.302 -16.077  1.00 35.49     0.666 C 
ATOM      7  NH1 ARG D 557     -28.176  -3.088 -16.830  1.00 35.49    -0.235 N 
ATOM      8  NH2 ARG D 557     -26.463  -2.806 -15.366  1.00 35.49    -0.235 N 
ATOM      9  HH  ARG D 557     -28.816  -2.777 -17.308  1.00 35.49     0.174 HD
ATOM     10  HH  ARG D 557     -28.007  -3.928 -16.835  1.00 35.49     0.174 HD
ATOM     11  HH  ARG D 557     -25.992  -2.273 -14.895  1.00 35.49     0.174 HD
ATOM     12  HH  ARG D 557     -26.310  -3.640 -15.385  1.00 35.49     0.174 HD
ATOM     13  HE  ARG D 557     -27.136  -0.584 -15.447  1.00 35.49     0.178 HD
ENDBRANCH   4   5
ENDBRANCH   3   4
ENDBRANCH   2   3
ENDBRANCH   1   2
END_RES ARG D 557
BEGIN_RES GLU D 570
REMARK  3 active torsions:
REMARK  status: ('A' for Active; 'I' for Inactive)
REMARK    5  A    between atoms: CA   and  CB  
REMARK    6  A    between atoms: CB   and  CG  
REMARK    7  A    between atoms: CG   and  CD  
ROOT
ATOM     14  CA  GLU D 570     -18.033  -6.348 -13.375  1.00 32.92     0.160 C 
ENDROOT
BRANCH  14  15
ATOM     15  CB  GLU D 570     -19.500  -6.345 -13.794  1.00 32.92     0.043 C 
BRANCH  15  16
ATOM     16  CG  GLU D 570     -20.123  -7.655 -14.115  1.00 32.92     0.100 C 
BRANCH  16  17
ATOM     17  CD  GLU D 570     -20.889  -7.640 -15.417  1.00 32.92     0.185 C 
ATOM     18  OE1 GLU D 570     -20.748  -8.589 -16.213  1.00 32.92    -0.647 OA
ATOM     19  OE2 GLU D 570     -21.624  -6.661 -15.652  1.00 32.92    -0.647 OA
ENDBRANCH  16  17
ENDBRANCH  15  16
ENDBRANCH  14  15
END_RES GLU D 570
ENDMDL
MODEL 6
REMARK VINA RESULT:      -5.0      3.130      4.602
REMARK  9 active torsions:
REMARK  status: ('A' for Active; 'I' for Inactive)
REMARK    1  A    between atoms: C_1  and  C_2 
REMARK    2  A    between atoms: C_1  and  O_10 
REMARK    3  A    between atoms: C_2  and  C_3 
REMARK    4  A    between atoms: C_2  and  O_9 
REMARK    5  A    between atoms: C_3  and  C_4 
REMARK    6  A    between atoms: C_3  and  O_8 
REMARK    7  A    between atoms: C_4  and  C_5 
REMARK    8  A    between atoms: C_4  and  O_7 
REMARK    9  A    between atoms: C_5  and  O_6 
ROOT
HETATM    1  C   UNL     1     -26.295  -6.074 -16.792  1.00  0.00     0.179 C 
ENDROOT
BRANCH   1   2
HETATM    2  C   UNL     1     -27.735  -6.540 -16.460  1.00  0.00     0.173 C 
BRANCH   2   3
HETATM    3  C   UNL     1     -28.627  -6.603 -17.717  1.00  0.00     0.198 C 
BRANCH   3   4
HETATM    4  O   UNL     1     -28.473  -5.473 -18.564  1.00  0.00    -0.398 OA
HETATM    5  H   UNL     1     -27.510  -5.322 -18.666  1.00  0.00     0.209 HD
ENDBRANCH   3   4
ENDBRANCH   2   3
BRANCH   2   6
HETATM    6  O   UNL     1     -28.352  -5.688 -15.496  1.00  0.00    -0.391 OA
HETATM    7  H   UNL     1     -28.956  -6.215 -14.947  1.00  0.00     0.210 HD
ENDBRANCH   2   6
ENDBRANCH   1   2
BRANCH   1   8
HETATM    8  C   UNL     1     -25.253  -6.370 -15.685  1.00  0.00     0.173 C 
BRANCH   8   9
HETATM    9  C   UNL     1     -24.026  -7.106 -16.254  1.00  0.00     0.198 C 
BRANCH   9  10
HETATM   10  O   UNL     1     -24.324  -8.496 -16.384  1.00  0.00    -0.398 OA
HETATM   11  H   UNL     1     -23.611  -8.967 -15.905  1.00  0.00     0.209 HD
ENDBRANCH   9  10
ENDBRANCH   8   9
BRANCH   8  12
HETATM   12  O   UNL     1     -24.760  -5.194 -15.029  1.00  0.00    -0.391 OA
HETATM   13  H   UNL     1     -25.434  -4.497 -15.093  1.00  0.00     0.210 HD
ENDBRANCH   8  12
ENDBRANCH   1   8
BRANCH   1  14
HETATM   14  O   UNL     1     -25.870  -6.660 -18.031  1.00  0.00    -0.390 OA
HETATM   15  H   UNL     1     -26.534  -6.428 -18.712  1.00  0.00     0.210 HD
ENDBRANCH   1  14
TORSDOF 9
BEGIN_RES ARG D 557
REMARK  4 active torsions:
REMARK  status: ('A' for Active; 'I' for Inactive)
REMARK    1  A    between atoms: CA   and  CB  
REMARK    2  A    between atoms: CB   and  CG  
REMARK    3  A    between atoms: CG   and  CD  
REMARK    4  A    between atoms: CD   and  NE  
REMARK       I    between atoms: NE   and  CZ  
REMARK       I    between atoms: CZ   and  NH1 
REMARK       I    between atoms: CZ   and  NH2 
ROOT
ATOM      1  CA  ARG D 557     -26.217   2.705 -17.014  1.00 35.49     0.159 C 
ENDROOT
BRANCH   1   2
ATOM      2  CB  ARG D 557     -26.789   1.319 -17.183  1.00 35.49     0.034 C 
BRANCH   2   3
ATOM      3  CG  ARG D 557     -28.238   1.175 -16.996  1.00 35.49     0.027 C 
BRANCH   3   4
ATOM      4  CD  ARG D 557     -28.649  -0.240 -16.846  1.00 35.49     0.116 C 
BRANCH   4   5
ATOM      5  NE  ARG D 557     -27.674  -1.015 -16.126  1.00 35.49    -0.212 N 
ATOM      6  CZ  ARG D 557     -27.539  -2.321 -16.180  1.00 35.49     0.666 C 
ATOM      7  NH1 ARG D 557     -28.324  -3.085 -16.917  1.00 35.49    -0.235 N 
ATOM      8  NH2 ARG D 557     -26.585  -2.856 -15.475  1.00 35.49    -0.235 N 
ATOM      9  HH  ARG D 557     -28.957  -2.755 -17.390  1.00 35.49     0.174 HD
ATOM     10  HH  ARG D 557     -28.187  -3.931 -16.915  1.00 35.49     0.174 HD
ATOM     11  HH  ARG D 557     -26.089  -2.337 -15.014  1.00 35.49     0.174 HD
ATOM     12  HH  ARG D 557     -26.465  -3.695 -15.487  1.00 35.49     0.174 HD
ATOM     13  HE  ARG D 557     -27.174  -0.610 -15.570  1.00 35.49     0.178 HD
ENDBRANCH   4   5
ENDBRANCH   3   4
ENDBRANCH   2   3
ENDBRANCH   1   2
END_RES ARG D 557
BEGIN_RES GLU D 570
REMARK  3 active torsions:
REMARK  status: ('A' for Active; 'I' for Inactive)
REMARK    5  A    between atoms: CA   and  CB  
REMARK    6  A    between atoms: CB   and  CG  
REMARK    7  A    between atoms: CG   and  CD  
ROOT
ATOM     14  CA  GLU D 570     -18.033  -6.348 -13.375  1.00 32.92     0.160 C 
ENDROOT
BRANCH  14  15
ATOM     15  CB  GLU D 570     -19.500  -6.345 -13.794  1.00 32.92     0.043 C 
BRANCH  15  16
ATOM     16  CG  GLU D 570     -20.449  -5.566 -12.957  1.00 32.92     0.100 C 
BRANCH  16  17
ATOM     17  CD  GLU D 570     -21.711  -5.186 -13.696  1.00 32.92     0.185 C 
ATOM     18  OE1 GLU D 570     -21.648  -4.944 -14.917  1.00 32.92    -0.647 OA
ATOM     19  OE2 GLU D 570     -22.771  -5.114 -13.044  1.00 32.92    -0.647 OA
ENDBRANCH  16  17
ENDBRANCH  15  16
ENDBRANCH  14  15
END_RES GLU D 570
ENDMDL
MODEL 7
REMARK VINA RESULT:      -5.0     10.008     11.632
REMARK  9 active torsions:
REMARK  status: ('A' for Active; 'I' for Inactive)
REMARK    1  A    between atoms: C_1  and  C_2 
REMARK    2  A    between atoms: C_1  and  O_10 
REMARK    3  A    between atoms: C_2  and  C_3 
REMARK    4  A    between atoms: C_2  and  O_9 
REMARK    5  A    between atoms: C_3  and  C_4 
REMARK    6  A    between atoms: C_3  and  O_8 
REMARK    7  A    between atoms: C_4  and  C_5 
REMARK    8  A    between atoms: C_4  and  O_7 
REMARK    9  A    between atoms: C_5  and  O_6 
ROOT
HETATM    1  C   UNL     1     -30.082 -14.709 -21.164  1.00  0.00     0.179 C 
ENDROOT
BRANCH   1   2
HETATM    2  C   UNL     1     -30.055 -16.068 -21.909  1.00  0.00     0.173 C 
BRANCH   2   3
HETATM    3  C   UNL     1     -31.311 -16.275 -22.780  1.00  0.00     0.198 C 
BRANCH   3   4
HETATM    4  O   UNL     1     -32.345 -16.980 -22.106  1.00  0.00    -0.398 OA
HETATM    5  H   UNL     1     -32.596 -17.734 -22.680  1.00  0.00     0.209 HD
ENDBRANCH   3   4
ENDBRANCH   2   3
BRANCH   2   6
HETATM    6  O   UNL     1     -29.937 -17.161 -21.000  1.00  0.00    -0.391 OA
HETATM    7  H   UNL     1     -30.614 -17.824 -21.213  1.00  0.00     0.210 HD
ENDBRANCH   2   6
ENDBRANCH   1   2
BRANCH   1   8
HETATM    8  C   UNL     1     -30.121 -14.825 -19.620  1.00  0.00     0.173 C 
BRANCH   8   9
HETATM    9  C   UNL     1     -28.896 -14.149 -18.977  1.00  0.00     0.198 C 
BRANCH   9  10
HETATM   10  O   UNL     1     -29.054 -12.731 -19.025  1.00  0.00    -0.398 OA
HETATM   11  H   UNL     1     -28.160 -12.369 -19.191  1.00  0.00     0.209 HD
ENDBRANCH   9  10
ENDBRANCH   8   9
BRANCH   8  12
HETATM   12  O   UNL     1     -31.280 -14.225 -19.027  1.00  0.00    -0.391 OA
HETATM   13  H   UNL     1     -31.902 -14.929 -18.778  1.00  0.00     0.210 HD
ENDBRANCH   8  12
ENDBRANCH   1   8
BRANCH   1  14
HETATM   14  O   UNL     1     -28.955 -13.915 -21.565  1.00  0.00    -0.390 OA
HETATM   15  H   UNL     1     -28.177 -14.228 -21.060  1.00  0.00     0.210 HD
ENDBRANCH   1  14
TORSDOF 9
BEGIN_RES ARG D 557
REMARK  4 active torsions:
REMARK  status: ('A' for Active; 'I' for Inactive)
REMARK    1  A    between atoms: CA   and  CB  
REMARK    2  A    between atoms: CB   and  CG  
REMARK    3  A    between atoms: CG   and  CD  
REMARK    4  A    between atoms: CD   and  NE  
REMARK       I    between atoms: NE   and  CZ  
REMARK       I    between atoms: CZ   and  NH1 
REMARK       I    between atoms: CZ   and  NH2 
ROOT
ATOM      1  CA  ARG D 557     -26.217   2.705 -17.014  1.00 35.49     0.159 C 
ENDROOT
BRANCH   1   2
ATOM      2  CB  ARG D 557     -26.789   1.319 -17.183  1.00 35.49     0.034 C 
BRANCH   2   3
ATOM      3  CG  ARG D 557     -25.836   0.203 -17.156  1.00 35.49     0.027 C 
BRANCH   3   4
ATOM      4  CD  ARG D 557     -24.750   0.412 -16.171  1.00 35.49     0.116 C 
BRANCH   4   5
ATOM      5  NE  ARG D 557     -24.895  -0.435 -15.017  1.00 35.49    -0.212 N 
ATOM      6  CZ  ARG D 557     -24.080  -1.405 -14.669  1.00 35.49     0.666 C 
ATOM      7  NH1 ARG D 557     -23.012  -1.723 -15.377  1.00 35.49    -0.235 N 
ATOM      8  NH2 ARG D 557     -24.355  -2.058 -13.577  1.00 35.49    -0.235 N 
ATOM      9  HH  ARG D 557     -22.810  -1.305 -16.098  1.00 35.49     0.174 HD
ATOM     10  HH  ARG D 557     -22.515  -2.363 -15.099  1.00 35.49     0.174 HD
ATOM     11  HH  ARG D 557     -25.047  -1.826 -13.135  1.00 35.49     0.174 HD
ATOM     12  HH  ARG D 557     -23.850  -2.688 -13.318  1.00 35.49     0.174 HD
ATOM     13  HE  ARG D 557     -25.596  -0.348 -14.543  1.00 35.49     0.178 HD
ENDBRANCH   4   5
ENDBRANCH   3   4
ENDBRANCH   2   3
ENDBRANCH   1   2
END_RES ARG D 557
BEGIN_RES GLU D 570
REMARK  3 active torsions:
REMARK  status: ('A' for Active; 'I' for Inactive)
REMARK    5  A    between atoms: CA   and  CB  
REMARK    6  A    between atoms: CB   and  CG  
REMARK    7  A    between atoms: CG   and  CD  
ROOT
ATOM     14  CA  GLU D 570     -18.033  -6.348 -13.375  1.00 32.92     0.160 C 
ENDROOT
BRANCH  14  15
ATOM     15  CB  GLU D 570     -19.500  -6.345 -13.794  1.00 32.92     0.043 C 
BRANCH  15  16
ATOM     16  CG  GLU D 570     -20.442  -5.532 -12.982  1.00 32.92     0.100 C 
BRANCH  16  17
ATOM     17  CD  GLU D 570     -21.735  -5.231 -13.705  1.00 32.92     0.185 C 
ATOM     18  OE1 GLU D 570     -22.303  -4.141 -13.501  1.00 32.92    -0.647 OA
ATOM     19  OE2 GLU D 570     -22.193  -6.102 -14.471  1.00 32.92    -0.647 OA
ENDBRANCH  16  17
ENDBRANCH  15  16
ENDBRANCH  14  15
END_RES GLU D 570
ENDMDL
MODEL 8
REMARK VINA RESULT:      -4.9      2.735      4.708
REMARK  9 active torsions:
REMARK  status: ('A' for Active; 'I' for Inactive)
REMARK    1  A    between atoms: C_1  and  C_2 
REMARK    2  A    between atoms: C_1  and  O_10 
REMARK    3  A    between atoms: C_2  and  C_3 
REMARK    4  A    between atoms: C_2  and  O_9 
REMARK    5  A    between atoms: C_3  and  C_4 
REMARK    6  A    between atoms: C_3  and  O_8 
REMARK    7  A    between atoms: C_4  and  C_5 
REMARK    8  A    between atoms: C_4  and  O_7 
REMARK    9  A    between atoms: C_5  and  O_6 
ROOT
HETATM    1  C   UNL     1     -22.129  -4.172  -9.368  1.00  0.00     0.179 C 
ENDROOT
BRANCH   1   2
HETATM    2  C   UNL     1     -21.135  -4.092  -8.181  1.00  0.00     0.173 C 
BRANCH   2   3
HETATM    3  C   UNL     1     -20.948  -5.459  -7.492  1.00  0.00     0.198 C 
BRANCH   3   4
HETATM    4  O   UNL     1     -21.798  -5.636  -6.368  1.00  0.00    -0.398 OA
HETATM    5  H   UNL     1     -21.230  -5.595  -5.570  1.00  0.00     0.209 HD
ENDBRANCH   3   4
ENDBRANCH   2   3
BRANCH   2   6
HETATM    6  O   UNL     1     -21.556  -3.137  -7.209  1.00  0.00    -0.391 OA
HETATM    7  H   UNL     1     -20.992  -3.216  -6.422  1.00  0.00     0.210 HD
ENDBRANCH   2   6
ENDBRANCH   1   2
BRANCH   1   8
HETATM    8  C   UNL     1     -23.554  -3.655  -9.047  1.00  0.00     0.173 C 
BRANCH   8   9
HETATM    9  C   UNL     1     -24.552  -4.046 -10.152  1.00  0.00     0.198 C 
BRANCH   9  10
HETATM   10  O   UNL     1     -24.508  -3.075 -11.198  1.00  0.00    -0.398 OA
HETATM   11  H   UNL     1     -24.726  -3.560 -12.020  1.00  0.00     0.209 HD
ENDBRANCH   9  10
ENDBRANCH   8   9
BRANCH   8  12
HETATM   12  O   UNL     1     -24.085  -4.159  -7.815  1.00  0.00    -0.391 OA
HETATM   13  H   UNL     1     -23.758  -3.606  -7.086  1.00  0.00     0.210 HD
ENDBRANCH   8  12
ENDBRANCH   1   8
BRANCH   1  14
HETATM   14  O   UNL     1     -21.595  -3.463 -10.496  1.00  0.00    -0.390 OA
HETATM   15  H   UNL     1     -21.136  -2.668 -10.156  1.00  0.00     0.210 HD
ENDBRANCH   1  14
TORSDOF 9
BEGIN_RES ARG D 557
REMARK  4 active torsions:
REMARK  status: ('A' for Active; 'I' for Inactive)
REMARK    1  A    between atoms: CA   and  CB  
REMARK    2  A    between atoms: CB   and  CG  
REMARK    3  A    between atoms: CG   and  CD  
REMARK    4  A    between atoms: CD   and  NE  
REMARK       I    between atoms: NE   and  CZ  
REMARK       I    between atoms: CZ   and  NH1 
REMARK       I    between atoms: CZ   and  NH2 
ROOT
ATOM      1  CA  ARG D 557     -26.217   2.705 -17.014  1.00 35.49     0.159 C 
ENDROOT
BRANCH   1   2
ATOM      2  CB  ARG D 557     -26.789   1.319 -17.183  1.00 35.49     0.034 C 
BRANCH   2   3
ATOM      3  CG  ARG D 557     -25.856   0.196 -17.029  1.00 35.49     0.027 C 
BRANCH   3   4
ATOM      4  CD  ARG D 557     -26.142  -0.614 -15.823  1.00 35.49     0.116 C 
BRANCH   4   5
ATOM      5  NE  ARG D 557     -24.992  -0.734 -14.966  1.00 35.49    -0.212 N 
ATOM      6  CZ  ARG D 557     -24.602  -1.829 -14.352  1.00 35.49     0.666 C 
ATOM      7  NH1 ARG D 557     -25.259  -2.970 -14.452  1.00 35.49    -0.235 N 
ATOM      8  NH2 ARG D 557     -23.522  -1.761 -13.630  1.00 35.49    -0.235 N 
ATOM      9  HH  ARG D 557     -25.972  -3.038 -14.924  1.00 35.49     0.174 HD
ATOM     10  HH  ARG D 557     -24.957  -3.652 -14.032  1.00 35.49     0.174 HD
ATOM     11  HH  ARG D 557     -23.114  -1.013 -13.590  1.00 35.49     0.174 HD
ATOM     12  HH  ARG D 557     -23.237  -2.448 -13.223  1.00 35.49     0.174 HD
ATOM     13  HE  ARG D 557     -24.551  -0.029 -14.787  1.00 35.49     0.178 HD
ENDBRANCH   4   5
ENDBRANCH   3   4
ENDBRANCH   2   3
ENDBRANCH   1   2
END_RES ARG D 557
BEGIN_RES GLU D 570
REMARK  3 active torsions:
REMARK  status: ('A' for Active; 'I' for Inactive)
REMARK    5  A    between atoms: CA   and  CB  
REMARK    6  A    between atoms: CB   and  CG  
REMARK    7  A    between atoms: CG   and  CD  
ROOT
ATOM     14  CA  GLU D 570     -18.033  -6.348 -13.375  1.00 32.92     0.160 C 
ENDROOT
BRANCH  14  15
ATOM     15  CB  GLU D 570     -19.500  -6.345 -13.794  1.00 32.92     0.043 C 
BRANCH  15  16
ATOM     16  CG  GLU D 570     -20.450  -5.568 -12.956  1.00 32.92     0.100 C 
BRANCH  16  17
ATOM     17  CD  GLU D 570     -21.663  -5.096 -13.723  1.00 32.92     0.185 C 
ATOM     18  OE1 GLU D 570     -22.613  -4.585 -13.099  1.00 32.92    -0.647 OA
ATOM     19  OE2 GLU D 570     -21.670  -5.254 -14.960  1.00 32.92    -0.647 OA
ENDBRANCH  16  17
ENDBRANCH  15  16
ENDBRANCH  14  15
END_RES GLU D 570
ENDMDL
MODEL 9
REMARK VINA RESULT:      -4.8      2.977      4.460
REMARK  9 active torsions:
REMARK  status: ('A' for Active; 'I' for Inactive)
REMARK    1  A    between atoms: C_1  and  C_2 
REMARK    2  A    between atoms: C_1  and  O_10 
REMARK    3  A    between atoms: C_2  and  C_3 
REMARK    4  A    between atoms: C_2  and  O_9 
REMARK    5  A    between atoms: C_3  and  C_4 
REMARK    6  A    between atoms: C_3  and  O_8 
REMARK    7  A    between atoms: C_4  and  C_5 
REMARK    8  A    between atoms: C_4  and  O_7 
REMARK    9  A    between atoms: C_5  and  O_6 
ROOT
HETATM    1  C   UNL     1     -22.749  -4.406  -7.920  1.00  0.00     0.179 C 
ENDROOT
BRANCH   1   2
HETATM    2  C   UNL     1     -22.832  -3.589  -9.236  1.00  0.00     0.173 C 
BRANCH   2   3
HETATM    3  C   UNL     1     -24.234  -3.662  -9.874  1.00  0.00     0.198 C 
BRANCH   3   4
HETATM    4  O   UNL     1     -25.174  -2.796  -9.253  1.00  0.00    -0.398 OA
HETATM    5  H   UNL     1     -25.120  -2.962  -8.288  1.00  0.00     0.209 HD
ENDBRANCH   3   4
ENDBRANCH   2   3
BRANCH   2   6
HETATM    6  O   UNL     1     -21.866  -4.031 -10.188  1.00  0.00    -0.391 OA
HETATM    7  H   UNL     1     -22.273  -4.699 -10.764  1.00  0.00     0.210 HD
ENDBRANCH   2   6
ENDBRANCH   1   2
BRANCH   1   8
HETATM    8  C   UNL     1     -21.525  -4.071  -7.033  1.00  0.00     0.173 C 
BRANCH   8   9
HETATM    9  C   UNL     1     -21.145  -5.260  -6.131  1.00  0.00     0.198 C 
BRANCH   9  10
HETATM   10  O   UNL     1     -22.311  -5.740  -5.462  1.00  0.00    -0.398 OA
HETATM   11  H   UNL     1     -23.072  -5.349  -5.938  1.00  0.00     0.209 HD
ENDBRANCH   9  10
ENDBRANCH   8   9
BRANCH   8  12
HETATM   12  O   UNL     1     -20.350  -3.727  -7.778  1.00  0.00    -0.391 OA
HETATM   13  H   UNL     1     -19.788  -3.156  -7.228  1.00  0.00     0.210 HD
ENDBRANCH   8  12
ENDBRANCH   1   8
BRANCH   1  14
HETATM   14  O   UNL     1     -23.959  -4.236  -7.167  1.00  0.00    -0.390 OA
HETATM   15  H   UNL     1     -23.707  -4.014  -6.248  1.00  0.00     0.210 HD
ENDBRANCH   1  14
TORSDOF 9
BEGIN_RES ARG D 557
REMARK  4 active torsions:
REMARK  status: ('A' for Active; 'I' for Inactive)
REMARK    1  A    between atoms: CA   and  CB  
REMARK    2  A    between atoms: CB   and  CG  
REMARK    3  A    between atoms: CG   and  CD  
REMARK    4  A    between atoms: CD   and  NE  
REMARK       I    between atoms: NE   and  CZ  
REMARK       I    between atoms: CZ   and  NH1 
REMARK       I    between atoms: CZ   and  NH2 
ROOT
ATOM      1  CA  ARG D 557     -26.217   2.705 -17.014  1.00 35.49     0.159 C 
ENDROOT
BRANCH   1   2
ATOM      2  CB  ARG D 557     -26.789   1.319 -17.183  1.00 35.49     0.034 C 
BRANCH   2   3
ATOM      3  CG  ARG D 557     -25.865   0.195 -16.988  1.00 35.49     0.027 C 
BRANCH   3   4
ATOM      4  CD  ARG D 557     -26.293  -0.703 -15.890  1.00 35.49     0.116 C 
BRANCH   4   5
ATOM      5  NE  ARG D 557     -25.244  -0.921 -14.929  1.00 35.49    -0.212 N 
ATOM      6  CZ  ARG D 557     -24.964  -2.065 -14.345  1.00 35.49     0.666 C 
ATOM      7  NH1 ARG D 557     -25.650  -3.168 -14.580  1.00 35.49    -0.235 N 
ATOM      8  NH2 ARG D 557     -23.962  -2.085 -13.514  1.00 35.49    -0.235 N 
ATOM      9  HH  ARG D 557     -26.312  -3.178 -15.124  1.00 35.49     0.174 HD
ATOM     10  HH  ARG D 557     -25.420  -3.885 -14.172  1.00 35.49     0.174 HD
ATOM     11  HH  ARG D 557     -23.532  -1.359 -13.388  1.00 35.49     0.174 HD
ATOM     12  HH  ARG D 557     -23.749  -2.805 -13.121  1.00 35.49     0.174 HD
ATOM     13  HE  ARG D 557     -24.798  -0.248 -14.665  1.00 35.49     0.178 HD
ENDBRANCH   4   5
ENDBRANCH   3   4
ENDBRANCH   2   3
ENDBRANCH   1   2
END_RES ARG D 557
BEGIN_RES GLU D 570
REMARK  3 active torsions:
REMARK  status: ('A' for Active; 'I' for Inactive)
REMARK    5  A    between atoms: CA   and  CB  
REMARK    6  A    between atoms: CB   and  CG  
REMARK    7  A    between atoms: CG   and  CD  
ROOT
ATOM     14  CA  GLU D 570     -18.033  -6.348 -13.375  1.00 32.92     0.160 C 
ENDROOT
BRANCH  14  15
ATOM     15  CB  GLU D 570     -19.500  -6.345 -13.794  1.00 32.92     0.043 C 
BRANCH  15  16
ATOM     16  CG  GLU D 570     -20.457  -5.606 -12.931  1.00 32.92     0.100 C 
BRANCH  16  17
ATOM     17  CD  GLU D 570     -21.683  -5.136 -13.678  1.00 32.92     0.185 C 
ATOM     18  OE1 GLU D 570     -21.666  -5.128 -14.924  1.00 32.92    -0.647 OA
ATOM     19  OE2 GLU D 570     -22.665  -4.756 -13.010  1.00 32.92    -0.647 OA
ENDBRANCH  16  17
ENDBRANCH  15  16
ENDBRANCH  14  15
END_RES GLU D 570
ENDMDL
