MODEL 1
REMARK VINA RESULT:      -7.0      0.000      0.000
REMARK  7 active torsions:
REMARK  status: ('A' for Active; 'I' for Inactive)
REMARK    1  A    between atoms: C_2  and  C_3 
REMARK    2  A    between atoms: C_3  and  C_4 
REMARK    3  A    between atoms: C_4  and  C_5 
REMARK    4  A    between atoms: C_5  and  C_6 
REMARK    5  A    between atoms: C_6  and  C_7 
REMARK    6  A    between atoms: C_8  and  O_14 
REMARK    7  A    between atoms: C_10  and  O_13 
ROOT
HETATM    1  C   UNL     1     -21.652  -4.340  -7.543  1.00  0.00    -0.025 A 
HETATM    2  C   UNL     1     -23.049  -4.280  -7.649  1.00  0.00     0.074 A 
HETATM    3  C   UNL     1     -23.671  -4.015  -8.868  1.00  0.00     0.073 A 
HETATM    4  C   UNL     1     -22.894  -3.826 -10.006  1.00  0.00     0.068 A 
HETATM    5  C   UNL     1     -21.511  -3.909  -9.938  1.00  0.00     0.037 A 
HETATM    6  C   UNL     1     -20.892  -4.166  -8.714  1.00  0.00     0.012 A 
ENDROOT
BRANCH   1   7
HETATM    7  C   UNL     1     -20.927  -4.594  -6.244  1.00  0.00     0.041 C 
BRANCH   7   8
HETATM    8  C   UNL     1     -20.278  -5.979  -6.220  1.00  0.00     0.005 C 
BRANCH   8   9
HETATM    9  C   UNL     1     -21.272  -7.054  -5.781  1.00  0.00     0.000 C 
BRANCH   9  10
HETATM   10  C   UNL     1     -22.085  -6.587  -4.574  1.00  0.00    -0.000 C 
BRANCH  10  11
HETATM   11  C   UNL     1     -21.318  -6.785  -3.268  1.00  0.00    -0.005 C 
HETATM   12  C   UNL     1     -22.088  -6.214  -2.086  1.00  0.00     0.005 C 
ENDBRANCH  10  11
ENDBRANCH   9  10
ENDBRANCH   8   9
ENDBRANCH   7   8
ENDBRANCH   1   7
BRANCH   2  13
HETATM   13  O   UNL     1     -23.888  -4.473  -6.587  1.00  0.00    -0.360 OA
HETATM   14  H   UNL     1     -23.740  -5.356  -6.216  1.00  0.00     0.217 HD
ENDBRANCH   2  13
BRANCH   4  15
HETATM   15  O   UNL     1     -23.459  -3.558 -11.217  1.00  0.00    -0.361 OA
HETATM   16  H   UNL     1     -23.375  -2.605 -11.388  1.00  0.00     0.217 HD
ENDBRANCH   4  15
TORSDOF 7
BEGIN_RES ARG D 557
REMARK  4 active torsions:
REMARK  status: ('A' for Active; 'I' for Inactive)
REMARK    1  A    between atoms: CA   and  CB  
REMARK    2  A    between atoms: CB   and  CG  
REMARK    3  A    between atoms: CG   and  CD  
REMARK    4  A    between atoms: CD   and  NE  
REMARK       I    between atoms: NE   and  CZ  
REMARK       I    between atoms: CZ   and  NH1 
REMARK       I    between atoms: CZ   and  NH2 
ROOT
ATOM      1  CA  ARG D 557     -26.217   2.705 -17.014  1.00 35.49     0.159 C 
ENDROOT
BRANCH   1   2
ATOM      2  CB  ARG D 557     -26.789   1.319 -17.183  1.00 35.49     0.034 C 
BRANCH   2   3
ATOM      3  CG  ARG D 557     -25.835   0.203 -17.160  1.00 35.49     0.027 C 
BRANCH   3   4
ATOM      4  CD  ARG D 557     -24.748   0.411 -16.177  1.00 35.49     0.116 C 
BRANCH   4   5
ATOM      5  NE  ARG D 557     -24.894  -0.433 -15.020  1.00 35.49    -0.212 N 
ATOM      6  CZ  ARG D 557     -24.081  -1.405 -14.671  1.00 35.49     0.666 C 
ATOM      7  NH1 ARG D 557     -23.016  -1.728 -15.380  1.00 35.49    -0.235 N 
ATOM      8  NH2 ARG D 557     -24.357  -2.054 -13.577  1.00 35.49    -0.235 N 
ATOM      9  HH  ARG D 557     -22.814  -1.313 -16.102  1.00 35.49     0.174 HD
ATOM     10  HH  ARG D 557     -22.520  -2.369 -15.101  1.00 35.49     0.174 HD
ATOM     11  HH  ARG D 557     -25.048  -1.818 -13.135  1.00 35.49     0.174 HD
ATOM     12  HH  ARG D 557     -23.854  -2.685 -13.317  1.00 35.49     0.174 HD
ATOM     13  HE  ARG D 557     -25.594  -0.342 -14.546  1.00 35.49     0.178 HD
ENDBRANCH   4   5
ENDBRANCH   3   4
ENDBRANCH   2   3
ENDBRANCH   1   2
END_RES ARG D 557
BEGIN_RES GLU D 570
REMARK  3 active torsions:
REMARK  status: ('A' for Active; 'I' for Inactive)
REMARK    5  A    between atoms: CA   and  CB  
REMARK    6  A    between atoms: CB   and  CG  
REMARK    7  A    between atoms: CG   and  CD  
ROOT
ATOM     14  CA  GLU D 570     -18.033  -6.348 -13.375  1.00 32.92     0.160 C 
ENDROOT
BRANCH  14  15
ATOM     15  CB  GLU D 570     -19.500  -6.345 -13.794  1.00 32.92     0.043 C 
BRANCH  15  16
ATOM     16  CG  GLU D 570     -20.434  -5.497 -13.009  1.00 32.92     0.100 C 
BRANCH  16  17
ATOM     17  CD  GLU D 570     -21.734  -5.228 -13.732  1.00 32.92     0.185 C 
ATOM     18  OE1 GLU D 570     -22.262  -4.104 -13.630  1.00 32.92    -0.647 OA
ATOM     19  OE2 GLU D 570     -22.238  -6.157 -14.393  1.00 32.92    -0.647 OA
ENDBRANCH  16  17
ENDBRANCH  15  16
ENDBRANCH  14  15
END_RES GLU D 570
ENDMDL
MODEL 2
REMARK VINA RESULT:      -6.8      1.914      2.798
REMARK  7 active torsions:
REMARK  status: ('A' for Active; 'I' for Inactive)
REMARK    1  A    between atoms: C_2  and  C_3 
REMARK    2  A    between atoms: C_3  and  C_4 
REMARK    3  A    between atoms: C_4  and  C_5 
REMARK    4  A    between atoms: C_5  and  C_6 
REMARK    5  A    between atoms: C_6  and  C_7 
REMARK    6  A    between atoms: C_8  and  O_14 
REMARK    7  A    between atoms: C_10  and  O_13 
ROOT
HETATM    1  C   UNL     1     -21.443  -4.280  -9.666  1.00  0.00    -0.025 A 
HETATM    2  C   UNL     1     -21.724  -3.741 -10.929  1.00  0.00     0.074 A 
HETATM    3  C   UNL     1     -23.019  -3.359 -11.280  1.00  0.00     0.073 A 
HETATM    4  C   UNL     1     -24.046  -3.495 -10.353  1.00  0.00     0.068 A 
HETATM    5  C   UNL     1     -23.793  -3.999  -9.085  1.00  0.00     0.037 A 
HETATM    6  C   UNL     1     -22.498  -4.388  -8.742  1.00  0.00     0.012 A 
ENDROOT
BRANCH   1   7
HETATM    7  C   UNL     1     -20.066  -4.737  -9.246  1.00  0.00     0.041 C 
BRANCH   7   8
HETATM    8  C   UNL     1     -19.569  -3.976  -8.015  1.00  0.00     0.005 C 
BRANCH   8   9
HETATM    9  C   UNL     1     -19.346  -4.917  -6.830  1.00  0.00     0.000 C 
BRANCH   9  10
HETATM   10  C   UNL     1     -20.281  -4.570  -5.673  1.00  0.00    -0.000 C 
BRANCH  10  11
HETATM   11  C   UNL     1     -20.872  -5.824  -5.029  1.00  0.00    -0.005 C 
HETATM   12  C   UNL     1     -21.268  -6.847  -6.083  1.00  0.00     0.005 C 
ENDBRANCH  10  11
ENDBRANCH   9  10
ENDBRANCH   8   9
ENDBRANCH   7   8
ENDBRANCH   1   7
BRANCH   2  13
HETATM   13  O   UNL     1     -20.771  -3.553 -11.891  1.00  0.00    -0.360 OA
HETATM   14  H   UNL     1     -21.175  -3.649 -12.767  1.00  0.00     0.217 HD
ENDBRANCH   2  13
BRANCH   4  15
HETATM   15  O   UNL     1     -25.328  -3.142 -10.655  1.00  0.00    -0.361 OA
HETATM   16  H   UNL     1     -25.915  -3.513  -9.975  1.00  0.00     0.217 HD
ENDBRANCH   4  15
TORSDOF 7
BEGIN_RES ARG D 557
REMARK  4 active torsions:
REMARK  status: ('A' for Active; 'I' for Inactive)
REMARK    1  A    between atoms: CA   and  CB  
REMARK    2  A    between atoms: CB   and  CG  
REMARK    3  A    between atoms: CG   and  CD  
REMARK    4  A    between atoms: CD   and  NE  
REMARK       I    between atoms: NE   and  CZ  
REMARK       I    between atoms: CZ   and  NH1 
REMARK       I    between atoms: CZ   and  NH2 
ROOT
ATOM      1  CA  ARG D 557     -26.217   2.705 -17.014  1.00 35.49     0.159 C 
ENDROOT
BRANCH   1   2
ATOM      2  CB  ARG D 557     -26.789   1.319 -17.183  1.00 35.49     0.034 C 
BRANCH   2   3
ATOM      3  CG  ARG D 557     -25.980   0.204 -16.675  1.00 35.49     0.027 C 
BRANCH   3   4
ATOM      4  CD  ARG D 557     -26.812  -0.918 -16.183  1.00 35.49     0.116 C 
BRANCH   4   5
ATOM      5  NE  ARG D 557     -26.239  -1.551 -15.024  1.00 35.49    -0.212 N 
ATOM      6  CZ  ARG D 557     -26.256  -2.839 -14.765  1.00 35.49     0.666 C 
ATOM      7  NH1 ARG D 557     -26.836  -3.715 -15.564  1.00 35.49    -0.235 N 
ATOM      8  NH2 ARG D 557     -25.667  -3.240 -13.676  1.00 35.49    -0.235 N 
ATOM      9  HH  ARG D 557     -27.228  -3.474 -16.287  1.00 35.49     0.174 HD
ATOM     10  HH  ARG D 557     -26.814  -4.543 -15.345  1.00 35.49     0.174 HD
ATOM     11  HH  ARG D 557     -25.295  -2.652 -13.183  1.00 35.49     0.174 HD
ATOM     12  HH  ARG D 557     -25.655  -4.064 -13.477  1.00 35.49     0.174 HD
ATOM     13  HE  ARG D 557     -25.908  -1.052 -14.420  1.00 35.49     0.178 HD
ENDBRANCH   4   5
ENDBRANCH   3   4
ENDBRANCH   2   3
ENDBRANCH   1   2
END_RES ARG D 557
BEGIN_RES GLU D 570
REMARK  3 active torsions:
REMARK  status: ('A' for Active; 'I' for Inactive)
REMARK    5  A    between atoms: CA   and  CB  
REMARK    6  A    between atoms: CB   and  CG  
REMARK    7  A    between atoms: CG   and  CD  
ROOT
ATOM     14  CA  GLU D 570     -18.033  -6.348 -13.375  1.00 32.92     0.160 C 
ENDROOT
BRANCH  14  15
ATOM     15  CB  GLU D 570     -19.500  -6.345 -13.794  1.00 32.92     0.043 C 
BRANCH  15  16
ATOM     16  CG  GLU D 570     -19.806  -6.025 -15.212  1.00 32.92     0.100 C 
BRANCH  16  17
ATOM     17  CD  GLU D 570     -21.119  -5.297 -15.382  1.00 32.92     0.185 C 
ATOM     18  OE1 GLU D 570     -21.766  -4.971 -14.368  1.00 32.92    -0.647 OA
ATOM     19  OE2 GLU D 570     -21.514  -5.066 -16.542  1.00 32.92    -0.647 OA
ENDBRANCH  16  17
ENDBRANCH  15  16
ENDBRANCH  14  15
END_RES GLU D 570
ENDMDL
MODEL 3
REMARK VINA RESULT:      -6.6      2.433      3.446
REMARK  7 active torsions:
REMARK  status: ('A' for Active; 'I' for Inactive)
REMARK    1  A    between atoms: C_2  and  C_3 
REMARK    2  A    between atoms: C_3  and  C_4 
REMARK    3  A    between atoms: C_4  and  C_5 
REMARK    4  A    between atoms: C_5  and  C_6 
REMARK    5  A    between atoms: C_6  and  C_7 
REMARK    6  A    between atoms: C_8  and  O_14 
REMARK    7  A    between atoms: C_10  and  O_13 
ROOT
HETATM    1  C   UNL     1     -22.957  -3.769 -10.050  1.00  0.00    -0.025 A 
HETATM    2  C   UNL     1     -24.061  -3.331 -10.794  1.00  0.00     0.074 A 
HETATM    3  C   UNL     1     -23.945  -3.026 -12.150  1.00  0.00     0.073 A 
HETATM    4  C   UNL     1     -22.716  -3.179 -12.782  1.00  0.00     0.068 A 
HETATM    5  C   UNL     1     -21.612  -3.639 -12.079  1.00  0.00     0.037 A 
HETATM    6  C   UNL     1     -21.731  -3.934 -10.720  1.00  0.00     0.012 A 
ENDROOT
BRANCH   1   7
HETATM    7  C   UNL     1     -23.021  -4.084  -8.575  1.00  0.00     0.041 C 
BRANCH   7   8
HETATM    8  C   UNL     1     -21.712  -4.693  -8.069  1.00  0.00     0.005 C 
BRANCH   8   9
HETATM    9  C   UNL     1     -21.099  -3.848  -6.953  1.00  0.00     0.000 C 
BRANCH   9  10
HETATM   10  C   UNL     1     -20.175  -4.690  -6.074  1.00  0.00    -0.000 C 
BRANCH  10  11
HETATM   11  C   UNL     1     -20.676  -6.128  -5.944  1.00  0.00    -0.005 C 
HETATM   12  C   UNL     1     -21.628  -6.273  -4.766  1.00  0.00     0.005 C 
ENDBRANCH  10  11
ENDBRANCH   9  10
ENDBRANCH   8   9
ENDBRANCH   7   8
ENDBRANCH   1   7
BRANCH   2  13
HETATM   13  O   UNL     1     -25.308  -3.173 -10.258  1.00  0.00    -0.360 OA
HETATM   14  H   UNL     1     -25.900  -3.856 -10.611  1.00  0.00     0.217 HD
ENDBRANCH   2  13
BRANCH   4  15
HETATM   15  O   UNL     1     -22.554  -2.886 -14.103  1.00  0.00    -0.361 OA
HETATM   16  H   UNL     1     -22.795  -3.672 -14.622  1.00  0.00     0.217 HD
ENDBRANCH   4  15
TORSDOF 7
BEGIN_RES ARG D 557
REMARK  4 active torsions:
REMARK  status: ('A' for Active; 'I' for Inactive)
REMARK    1  A    between atoms: CA   and  CB  
REMARK    2  A    between atoms: CB   and  CG  
REMARK    3  A    between atoms: CG   and  CD  
REMARK    4  A    between atoms: CD   and  NE  
REMARK       I    between atoms: NE   and  CZ  
REMARK       I    between atoms: CZ   and  NH1 
REMARK       I    between atoms: CZ   and  NH2 
ROOT
ATOM      1  CA  ARG D 557     -26.217   2.705 -17.014  1.00 35.49     0.159 C 
ENDROOT
BRANCH   1   2
ATOM      2  CB  ARG D 557     -26.789   1.319 -17.183  1.00 35.49     0.034 C 
BRANCH   2   3
ATOM      3  CG  ARG D 557     -28.228   1.227 -17.460  1.00 35.49     0.027 C 
BRANCH   3   4
ATOM      4  CD  ARG D 557     -28.926   0.317 -16.524  1.00 35.49     0.116 C 
BRANCH   4   5
ATOM      5  NE  ARG D 557     -29.299  -0.924 -17.150  1.00 35.49    -0.212 N 
ATOM      6  CZ  ARG D 557     -28.659  -2.066 -17.034  1.00 35.49     0.666 C 
ATOM      7  NH1 ARG D 557     -27.560  -2.193 -16.314  1.00 35.49    -0.235 N 
ATOM      8  NH2 ARG D 557     -29.153  -3.097 -17.656  1.00 35.49    -0.235 N 
ATOM      9  HH  ARG D 557     -27.219  -1.528 -15.894  1.00 35.49     0.174 HD
ATOM     10  HH  ARG D 557     -27.187  -2.963 -16.272  1.00 35.49     0.174 HD
ATOM     11  HH  ARG D 557     -29.868  -2.987 -18.108  1.00 35.49     0.174 HD
ATOM     12  HH  ARG D 557     -28.770  -3.852 -17.601  1.00 35.49     0.174 HD
ATOM     13  HE  ARG D 557     -29.955  -0.917 -17.691  1.00 35.49     0.178 HD
ENDBRANCH   4   5
ENDBRANCH   3   4
ENDBRANCH   2   3
ENDBRANCH   1   2
END_RES ARG D 557
BEGIN_RES GLU D 570
REMARK  3 active torsions:
REMARK  status: ('A' for Active; 'I' for Inactive)
REMARK    5  A    between atoms: CA   and  CB  
REMARK    6  A    between atoms: CB   and  CG  
REMARK    7  A    between atoms: CG   and  CD  
ROOT
ATOM     14  CA  GLU D 570     -18.033  -6.348 -13.375  1.00 32.92     0.160 C 
ENDROOT
BRANCH  14  15
ATOM     15  CB  GLU D 570     -19.500  -6.345 -13.794  1.00 32.92     0.043 C 
BRANCH  15  16
ATOM     16  CG  GLU D 570     -19.810  -5.967 -15.197  1.00 32.92     0.100 C 
BRANCH  16  17
ATOM     17  CD  GLU D 570     -21.258  -5.583 -15.397  1.00 32.92     0.185 C 
ATOM     18  OE1 GLU D 570     -21.554  -4.795 -16.316  1.00 32.92    -0.647 OA
ATOM     19  OE2 GLU D 570     -22.103  -6.062 -14.616  1.00 32.92    -0.647 OA
ENDBRANCH  16  17
ENDBRANCH  15  16
ENDBRANCH  14  15
END_RES GLU D 570
ENDMDL
MODEL 4
REMARK VINA RESULT:      -6.5      1.199      1.631
REMARK  7 active torsions:
REMARK  status: ('A' for Active; 'I' for Inactive)
REMARK    1  A    between atoms: C_2  and  C_3 
REMARK    2  A    between atoms: C_3  and  C_4 
REMARK    3  A    between atoms: C_4  and  C_5 
REMARK    4  A    between atoms: C_5  and  C_6 
REMARK    5  A    between atoms: C_6  and  C_7 
REMARK    6  A    between atoms: C_8  and  O_14 
REMARK    7  A    between atoms: C_10  and  O_13 
ROOT
HETATM    1  C   UNL     1     -22.038  -4.204  -8.710  1.00  0.00    -0.025 A 
HETATM    2  C   UNL     1     -23.173  -3.724  -9.378  1.00  0.00     0.074 A 
HETATM    3  C   UNL     1     -23.126  -3.381 -10.728  1.00  0.00     0.073 A 
HETATM    4  C   UNL     1     -21.937  -3.536 -11.432  1.00  0.00     0.068 A 
HETATM    5  C   UNL     1     -20.805  -4.037 -10.806  1.00  0.00     0.037 A 
HETATM    6  C   UNL     1     -20.855  -4.371  -9.452  1.00  0.00     0.012 A 
ENDROOT
BRANCH   1   7
HETATM    7  C   UNL     1     -22.026  -4.563  -7.243  1.00  0.00     0.041 C 
BRANCH   7   8
HETATM    8  C   UNL     1     -20.695  -4.200  -6.582  1.00  0.00     0.005 C 
BRANCH   8   9
HETATM    9  C   UNL     1     -20.069  -5.410  -5.889  1.00  0.00     0.000 C 
BRANCH   9  10
HETATM   10  C   UNL     1     -20.931  -6.657  -6.082  1.00  0.00    -0.000 C 
BRANCH  10  11
HETATM   11  C   UNL     1     -21.156  -7.397  -4.764  1.00  0.00    -0.005 C 
HETATM   12  C   UNL     1     -21.739  -6.471  -3.707  1.00  0.00     0.005 C 
ENDBRANCH  10  11
ENDBRANCH   9  10
ENDBRANCH   8   9
ENDBRANCH   7   8
ENDBRANCH   1   7
BRANCH   2  13
HETATM   13  O   UNL     1     -24.385  -3.561  -8.768  1.00  0.00    -0.360 OA
HETATM   14  H   UNL     1     -25.083  -3.928  -9.334  1.00  0.00     0.217 HD
ENDBRANCH   2  13
BRANCH   4  15
HETATM   15  O   UNL     1     -21.843  -3.207 -12.752  1.00  0.00    -0.361 OA
HETATM   16  H   UNL     1     -22.624  -2.680 -12.991  1.00  0.00     0.217 HD
ENDBRANCH   4  15
TORSDOF 7
BEGIN_RES ARG D 557
REMARK  4 active torsions:
REMARK  status: ('A' for Active; 'I' for Inactive)
REMARK    1  A    between atoms: CA   and  CB  
REMARK    2  A    between atoms: CB   and  CG  
REMARK    3  A    between atoms: CG   and  CD  
REMARK    4  A    between atoms: CD   and  NE  
REMARK       I    between atoms: NE   and  CZ  
REMARK       I    between atoms: CZ   and  NH1 
REMARK       I    between atoms: CZ   and  NH2 
ROOT
ATOM      1  CA  ARG D 557     -26.217   2.705 -17.014  1.00 35.49     0.159 C 
ENDROOT
BRANCH   1   2
ATOM      2  CB  ARG D 557     -26.789   1.319 -17.183  1.00 35.49     0.034 C 
BRANCH   2   3
ATOM      3  CG  ARG D 557     -25.836   0.203 -17.150  1.00 35.49     0.027 C 
BRANCH   3   4
ATOM      4  CD  ARG D 557     -24.918   0.278 -15.991  1.00 35.49     0.116 C 
BRANCH   4   5
ATOM      5  NE  ARG D 557     -25.181  -0.754 -15.023  1.00 35.49    -0.212 N 
ATOM      6  CZ  ARG D 557     -24.351  -1.713 -14.678  1.00 35.49     0.666 C 
ATOM      7  NH1 ARG D 557     -23.151  -1.840 -15.215  1.00 35.49    -0.235 N 
ATOM      8  NH2 ARG D 557     -24.748  -2.551 -13.766  1.00 35.49    -0.235 N 
ATOM      9  HH  ARG D 557     -22.868  -1.298 -15.816  1.00 35.49     0.174 HD
ATOM     10  HH  ARG D 557     -22.652  -2.483 -14.949  1.00 35.49     0.174 HD
ATOM     11  HH  ARG D 557     -25.525  -2.440 -13.431  1.00 35.49     0.174 HD
ATOM     12  HH  ARG D 557     -24.239  -3.181 -13.515  1.00 35.49     0.174 HD
ATOM     13  HE  ARG D 557     -25.958  -0.791 -14.680  1.00 35.49     0.178 HD
ENDBRANCH   4   5
ENDBRANCH   3   4
ENDBRANCH   2   3
ENDBRANCH   1   2
END_RES ARG D 557
BEGIN_RES GLU D 570
REMARK  3 active torsions:
REMARK  status: ('A' for Active; 'I' for Inactive)
REMARK    5  A    between atoms: CA   and  CB  
REMARK    6  A    between atoms: CB   and  CG  
REMARK    7  A    between atoms: CG   and  CD  
ROOT
ATOM     14  CA  GLU D 570     -18.033  -6.348 -13.375  1.00 32.92     0.160 C 
ENDROOT
BRANCH  14  15
ATOM     15  CB  GLU D 570     -19.500  -6.345 -13.794  1.00 32.92     0.043 C 
BRANCH  15  16
ATOM     16  CG  GLU D 570     -19.804  -6.064 -15.221  1.00 32.92     0.100 C 
BRANCH  16  17
ATOM     17  CD  GLU D 570     -21.179  -5.473 -15.425  1.00 32.92     0.185 C 
ATOM     18  OE1 GLU D 570     -21.470  -4.987 -16.535  1.00 32.92    -0.647 OA
ATOM     19  OE2 GLU D 570     -21.969  -5.482 -14.460  1.00 32.92    -0.647 OA
ENDBRANCH  16  17
ENDBRANCH  15  16
ENDBRANCH  14  15
END_RES GLU D 570
ENDMDL
MODEL 5
REMARK VINA RESULT:      -6.5      8.881     11.295
REMARK  7 active torsions:
REMARK  status: ('A' for Active; 'I' for Inactive)
REMARK    1  A    between atoms: C_2  and  C_3 
REMARK    2  A    between atoms: C_3  and  C_4 
REMARK    3  A    between atoms: C_4  and  C_5 
REMARK    4  A    between atoms: C_5  and  C_6 
REMARK    5  A    between atoms: C_6  and  C_7 
REMARK    6  A    between atoms: C_8  and  O_14 
REMARK    7  A    between atoms: C_10  and  O_13 
ROOT
HETATM    1  C   UNL     1     -35.719  -1.280 -11.934  1.00  0.00    -0.025 A 
HETATM    2  C   UNL     1     -37.031  -0.789 -11.915  1.00  0.00     0.074 A 
HETATM    3  C   UNL     1     -37.547  -0.062 -12.987  1.00  0.00     0.073 A 
HETATM    4  C   UNL     1     -36.752   0.164 -14.105  1.00  0.00     0.068 A 
HETATM    5  C   UNL     1     -35.458  -0.335 -14.165  1.00  0.00     0.037 A 
HETATM    6  C   UNL     1     -34.944  -1.054 -13.086  1.00  0.00     0.012 A 
ENDROOT
BRANCH   1   7
HETATM    7  C   UNL     1     -35.102  -2.048 -10.789  1.00  0.00     0.041 C 
BRANCH   7   8
HETATM    8  C   UNL     1     -33.585  -2.174 -10.944  1.00  0.00     0.005 C 
BRANCH   8   9
HETATM    9  C   UNL     1     -33.173  -3.617 -11.236  1.00  0.00     0.000 C 
BRANCH   9  10
HETATM   10  C   UNL     1     -34.093  -4.604 -10.519  1.00  0.00    -0.000 C 
BRANCH  10  11
HETATM   11  C   UNL     1     -33.818  -6.045 -10.949  1.00  0.00    -0.005 C 
HETATM   12  C   UNL     1     -34.655  -7.027 -10.144  1.00  0.00     0.005 C 
ENDBRANCH  10  11
ENDBRANCH   9  10
ENDBRANCH   8   9
ENDBRANCH   7   8
ENDBRANCH   1   7
BRANCH   2  13
HETATM   13  O   UNL     1     -37.887  -0.983 -10.867  1.00  0.00    -0.360 OA
HETATM   14  H   UNL     1     -38.408  -1.786 -11.020  1.00  0.00     0.217 HD
ENDBRANCH   2  13
BRANCH   4  15
HETATM   15  O   UNL     1     -37.211   0.876 -15.173  1.00  0.00    -0.361 OA
HETATM   16  H   UNL     1     -36.968   1.808 -15.046  1.00  0.00     0.217 HD
ENDBRANCH   4  15
TORSDOF 7
BEGIN_RES ARG D 557
REMARK  4 active torsions:
REMARK  status: ('A' for Active; 'I' for Inactive)
REMARK    1  A    between atoms: CA   and  CB  
REMARK    2  A    between atoms: CB   and  CG  
REMARK    3  A    between atoms: CG   and  CD  
REMARK    4  A    between atoms: CD   and  NE  
REMARK       I    between atoms: NE   and  CZ  
REMARK       I    between atoms: CZ   and  NH1 
REMARK       I    between atoms: CZ   and  NH2 
ROOT
ATOM      1  CA  ARG D 557     -26.217   2.705 -17.014  1.00 35.49     0.159 C 
ENDROOT
BRANCH   1   2
ATOM      2  CB  ARG D 557     -26.789   1.319 -17.183  1.00 35.49     0.034 C 
BRANCH   2   3
ATOM      3  CG  ARG D 557     -25.836   0.203 -17.155  1.00 35.49     0.027 C 
BRANCH   3   4
ATOM      4  CD  ARG D 557     -24.759   0.406 -16.159  1.00 35.49     0.116 C 
BRANCH   4   5
ATOM      5  NE  ARG D 557     -24.914  -0.447 -15.011  1.00 35.49    -0.212 N 
ATOM      6  CZ  ARG D 557     -24.103  -1.422 -14.663  1.00 35.49     0.666 C 
ATOM      7  NH1 ARG D 557     -23.032  -1.738 -15.366  1.00 35.49    -0.235 N 
ATOM      8  NH2 ARG D 557     -24.387  -2.080 -13.577  1.00 35.49    -0.235 N 
ATOM      9  HH  ARG D 557     -22.825  -1.317 -16.083  1.00 35.49     0.174 HD
ATOM     10  HH  ARG D 557     -22.539  -2.382 -15.089  1.00 35.49     0.174 HD
ATOM     11  HH  ARG D 557     -25.081  -1.848 -13.138  1.00 35.49     0.174 HD
ATOM     12  HH  ARG D 557     -23.886  -2.713 -13.318  1.00 35.49     0.174 HD
ATOM     13  HE  ARG D 557     -25.617  -0.361 -14.541  1.00 35.49     0.178 HD
ENDBRANCH   4   5
ENDBRANCH   3   4
ENDBRANCH   2   3
ENDBRANCH   1   2
END_RES ARG D 557
BEGIN_RES GLU D 570
REMARK  3 active torsions:
REMARK  status: ('A' for Active; 'I' for Inactive)
REMARK    5  A    between atoms: CA   and  CB  
REMARK    6  A    between atoms: CB   and  CG  
REMARK    7  A    between atoms: CG   and  CD  
ROOT
ATOM     14  CA  GLU D 570     -18.033  -6.348 -13.375  1.00 32.92     0.160 C 
ENDROOT
BRANCH  14  15
ATOM     15  CB  GLU D 570     -19.500  -6.345 -13.794  1.00 32.92     0.043 C 
BRANCH  15  16
ATOM     16  CG  GLU D 570     -20.442  -5.530 -12.983  1.00 32.92     0.100 C 
BRANCH  16  17
ATOM     17  CD  GLU D 570     -21.743  -5.248 -13.698  1.00 32.92     0.185 C 
ATOM     18  OE1 GLU D 570     -22.214  -6.113 -14.461  1.00 32.92    -0.647 OA
ATOM     19  OE2 GLU D 570     -22.287  -4.143 -13.507  1.00 32.92    -0.647 OA
ENDBRANCH  16  17
ENDBRANCH  15  16
ENDBRANCH  14  15
END_RES GLU D 570
ENDMDL
MODEL 6
REMARK VINA RESULT:      -6.2      8.829     10.928
REMARK  7 active torsions:
REMARK  status: ('A' for Active; 'I' for Inactive)
REMARK    1  A    between atoms: C_2  and  C_3 
REMARK    2  A    between atoms: C_3  and  C_4 
REMARK    3  A    between atoms: C_4  and  C_5 
REMARK    4  A    between atoms: C_5  and  C_6 
REMARK    5  A    between atoms: C_6  and  C_7 
REMARK    6  A    between atoms: C_8  and  O_14 
REMARK    7  A    between atoms: C_10  and  O_13 
ROOT
HETATM    1  C   UNL     1     -34.890  -2.393 -12.088  1.00  0.00    -0.025 A 
HETATM    2  C   UNL     1     -35.407  -1.473 -13.011  1.00  0.00     0.074 A 
HETATM    3  C   UNL     1     -36.330  -0.502 -12.624  1.00  0.00     0.073 A 
HETATM    4  C   UNL     1     -36.730  -0.429 -11.295  1.00  0.00     0.068 A 
HETATM    5  C   UNL     1     -36.213  -1.307 -10.352  1.00  0.00     0.037 A 
HETATM    6  C   UNL     1     -35.297  -2.283 -10.746  1.00  0.00     0.012 A 
ENDROOT
BRANCH   1   7
HETATM    7  C   UNL     1     -33.912  -3.482 -12.459  1.00  0.00     0.041 C 
BRANCH   7   8
HETATM    8  C   UNL     1     -33.273  -4.113 -11.221  1.00  0.00     0.005 C 
BRANCH   8   9
HETATM    9  C   UNL     1     -33.498  -5.625 -11.187  1.00  0.00     0.000 C 
BRANCH   9  10
HETATM   10  C   UNL     1     -34.495  -6.005 -10.093  1.00  0.00    -0.000 C 
BRANCH  10  11
HETATM   11  C   UNL     1     -34.978  -7.447 -10.247  1.00  0.00    -0.005 C 
HETATM   12  C   UNL     1     -33.887  -8.435  -9.866  1.00  0.00     0.005 C 
ENDBRANCH  10  11
ENDBRANCH   9  10
ENDBRANCH   8   9
ENDBRANCH   7   8
ENDBRANCH   1   7
BRANCH   2  13
HETATM   13  O   UNL     1     -35.053  -1.460 -14.331  1.00  0.00    -0.360 OA
HETATM   14  H   UNL     1     -34.824  -2.359 -14.612  1.00  0.00     0.217 HD
ENDBRANCH   2  13
BRANCH   4  15
HETATM   15  O   UNL     1     -37.635   0.499 -10.874  1.00  0.00    -0.361 OA
HETATM   16  H   UNL     1     -38.410   0.457 -11.458  1.00  0.00     0.217 HD
ENDBRANCH   4  15
TORSDOF 7
BEGIN_RES ARG D 557
REMARK  4 active torsions:
REMARK  status: ('A' for Active; 'I' for Inactive)
REMARK    1  A    between atoms: CA   and  CB  
REMARK    2  A    between atoms: CB   and  CG  
REMARK    3  A    between atoms: CG   and  CD  
REMARK    4  A    between atoms: CD   and  NE  
REMARK       I    between atoms: NE   and  CZ  
REMARK       I    between atoms: CZ   and  NH1 
REMARK       I    between atoms: CZ   and  NH2 
ROOT
ATOM      1  CA  ARG D 557     -26.217   2.705 -17.014  1.00 35.49     0.159 C 
ENDROOT
BRANCH   1   2
ATOM      2  CB  ARG D 557     -26.789   1.319 -17.183  1.00 35.49     0.034 C 
BRANCH   2   3
ATOM      3  CG  ARG D 557     -25.861   0.195 -17.006  1.00 35.49     0.027 C 
BRANCH   3   4
ATOM      4  CD  ARG D 557     -26.287  -0.724 -15.926  1.00 35.49     0.116 C 
BRANCH   4   5
ATOM      5  NE  ARG D 557     -25.264  -0.901 -14.930  1.00 35.49    -0.212 N 
ATOM      6  CZ  ARG D 557     -24.959  -2.033 -14.335  1.00 35.49     0.666 C 
ATOM      7  NH1 ARG D 557     -25.595  -3.161 -14.589  1.00 35.49    -0.235 N 
ATOM      8  NH2 ARG D 557     -23.986  -2.013 -13.470  1.00 35.49    -0.235 N 
ATOM      9  HH  ARG D 557     -26.237  -3.197 -15.155  1.00 35.49     0.174 HD
ATOM     10  HH  ARG D 557     -25.351  -3.869 -14.172  1.00 35.49     0.174 HD
ATOM     11  HH  ARG D 557     -23.589  -1.272 -13.332  1.00 35.49     0.174 HD
ATOM     12  HH  ARG D 557     -23.758  -2.725 -13.069  1.00 35.49     0.174 HD
ATOM     13  HE  ARG D 557     -24.852  -0.210 -14.652  1.00 35.49     0.178 HD
ENDBRANCH   4   5
ENDBRANCH   3   4
ENDBRANCH   2   3
ENDBRANCH   1   2
END_RES ARG D 557
BEGIN_RES GLU D 570
REMARK  3 active torsions:
REMARK  status: ('A' for Active; 'I' for Inactive)
REMARK    5  A    between atoms: CA   and  CB  
REMARK    6  A    between atoms: CB   and  CG  
REMARK    7  A    between atoms: CG   and  CD  
ROOT
ATOM     14  CA  GLU D 570     -18.033  -6.348 -13.375  1.00 32.92     0.160 C 
ENDROOT
BRANCH  14  15
ATOM     15  CB  GLU D 570     -19.500  -6.345 -13.794  1.00 32.92     0.043 C 
BRANCH  15  16
ATOM     16  CG  GLU D 570     -20.443  -5.538 -12.978  1.00 32.92     0.100 C 
BRANCH  16  17
ATOM     17  CD  GLU D 570     -21.776  -5.323 -13.657  1.00 32.92     0.185 C 
ATOM     18  OE1 GLU D 570     -22.116  -6.090 -14.579  1.00 32.92    -0.647 OA
ATOM     19  OE2 GLU D 570     -22.480  -4.368 -13.275  1.00 32.92    -0.647 OA
ENDBRANCH  16  17
ENDBRANCH  15  16
ENDBRANCH  14  15
END_RES GLU D 570
ENDMDL
MODEL 7
REMARK VINA RESULT:      -6.1      8.827     11.320
REMARK  7 active torsions:
REMARK  status: ('A' for Active; 'I' for Inactive)
REMARK    1  A    between atoms: C_2  and  C_3 
REMARK    2  A    between atoms: C_3  and  C_4 
REMARK    3  A    between atoms: C_4  and  C_5 
REMARK    4  A    between atoms: C_5  and  C_6 
REMARK    5  A    between atoms: C_6  and  C_7 
REMARK    6  A    between atoms: C_8  and  O_14 
REMARK    7  A    between atoms: C_10  and  O_13 
ROOT
HETATM    1  C   UNL     1     -34.685  -1.684 -11.984  1.00  0.00    -0.025 A 
HETATM    2  C   UNL     1     -34.582  -2.553 -13.078  1.00  0.00     0.074 A 
HETATM    3  C   UNL     1     -34.034  -3.828 -12.941  1.00  0.00     0.073 A 
HETATM    4  C   UNL     1     -33.601  -4.254 -11.690  1.00  0.00     0.068 A 
HETATM    5  C   UNL     1     -33.718  -3.428 -10.582  1.00  0.00     0.037 A 
HETATM    6  C   UNL     1     -34.259  -2.149 -10.727  1.00  0.00     0.012 A 
ENDROOT
BRANCH   1   7
HETATM    7  C   UNL     1     -35.243  -0.285 -12.083  1.00  0.00     0.041 C 
BRANCH   7   8
HETATM    8  C   UNL     1     -36.750  -0.293 -12.346  1.00  0.00     0.005 C 
BRANCH   8   9
HETATM    9  C   UNL     1     -37.542  -0.448 -11.048  1.00  0.00     0.000 C 
BRANCH   9  10
HETATM   10  C   UNL     1     -37.025   0.509  -9.974  1.00  0.00    -0.000 C 
BRANCH  10  11
HETATM   11  C   UNL     1     -36.899  -0.181  -8.617  1.00  0.00    -0.005 C 
HETATM   12  C   UNL     1     -36.568   0.820  -7.520  1.00  0.00     0.005 C 
ENDBRANCH  10  11
ENDBRANCH   9  10
ENDBRANCH   8   9
ENDBRANCH   7   8
ENDBRANCH   1   7
BRANCH   2  13
HETATM   13  O   UNL     1     -35.001  -2.223 -14.337  1.00  0.00    -0.360 OA
HETATM   14  H   UNL     1     -34.238  -1.945 -14.868  1.00  0.00     0.217 HD
ENDBRANCH   2  13
BRANCH   4  15
HETATM   15  O   UNL     1     -33.052  -5.489 -11.510  1.00  0.00    -0.361 OA
HETATM   16  H   UNL     1     -33.758  -6.152 -11.594  1.00  0.00     0.217 HD
ENDBRANCH   4  15
TORSDOF 7
BEGIN_RES ARG D 557
REMARK  4 active torsions:
REMARK  status: ('A' for Active; 'I' for Inactive)
REMARK    1  A    between atoms: CA   and  CB  
REMARK    2  A    between atoms: CB   and  CG  
REMARK    3  A    between atoms: CG   and  CD  
REMARK    4  A    between atoms: CD   and  NE  
REMARK       I    between atoms: NE   and  CZ  
REMARK       I    between atoms: CZ   and  NH1 
REMARK       I    between atoms: CZ   and  NH2 
ROOT
ATOM      1  CA  ARG D 557     -26.217   2.705 -17.014  1.00 35.49     0.159 C 
ENDROOT
BRANCH   1   2
ATOM      2  CB  ARG D 557     -26.789   1.319 -17.183  1.00 35.49     0.034 C 
BRANCH   2   3
ATOM      3  CG  ARG D 557     -25.836   0.203 -17.157  1.00 35.49     0.027 C 
BRANCH   3   4
ATOM      4  CD  ARG D 557     -24.752   0.409 -16.169  1.00 35.49     0.116 C 
BRANCH   4   5
ATOM      5  NE  ARG D 557     -24.902  -0.440 -15.016  1.00 35.49    -0.212 N 
ATOM      6  CZ  ARG D 557     -24.088  -1.412 -14.667  1.00 35.49     0.666 C 
ATOM      7  NH1 ARG D 557     -23.019  -1.729 -15.373  1.00 35.49    -0.235 N 
ATOM      8  NH2 ARG D 557     -24.367  -2.066 -13.577  1.00 35.49    -0.235 N 
ATOM      9  HH  ARG D 557     -22.815  -1.310 -16.093  1.00 35.49     0.174 HD
ATOM     10  HH  ARG D 557     -22.523  -2.370 -15.095  1.00 35.49     0.174 HD
ATOM     11  HH  ARG D 557     -25.061  -1.834 -13.138  1.00 35.49     0.174 HD
ATOM     12  HH  ARG D 557     -23.864  -2.697 -13.318  1.00 35.49     0.174 HD
ATOM     13  HE  ARG D 557     -25.604  -0.353 -14.544  1.00 35.49     0.178 HD
ENDBRANCH   4   5
ENDBRANCH   3   4
ENDBRANCH   2   3
ENDBRANCH   1   2
END_RES ARG D 557
BEGIN_RES GLU D 570
REMARK  3 active torsions:
REMARK  status: ('A' for Active; 'I' for Inactive)
REMARK    5  A    between atoms: CA   and  CB  
REMARK    6  A    between atoms: CB   and  CG  
REMARK    7  A    between atoms: CG   and  CD  
ROOT
ATOM     14  CA  GLU D 570     -18.033  -6.348 -13.375  1.00 32.92     0.160 C 
ENDROOT
BRANCH  14  15
ATOM     15  CB  GLU D 570     -19.500  -6.345 -13.794  1.00 32.92     0.043 C 
BRANCH  15  16
ATOM     16  CG  GLU D 570     -20.441  -5.528 -12.985  1.00 32.92     0.100 C 
BRANCH  16  17
ATOM     17  CD  GLU D 570     -21.741  -5.244 -13.702  1.00 32.92     0.185 C 
ATOM     18  OE1 GLU D 570     -22.207  -6.104 -14.474  1.00 32.92    -0.647 OA
ATOM     19  OE2 GLU D 570     -22.290  -4.142 -13.502  1.00 32.92    -0.647 OA
ENDBRANCH  16  17
ENDBRANCH  15  16
ENDBRANCH  14  15
END_RES GLU D 570
ENDMDL
MODEL 8
REMARK VINA RESULT:      -6.0      3.017      5.949
REMARK  7 active torsions:
REMARK  status: ('A' for Active; 'I' for Inactive)
REMARK    1  A    between atoms: C_2  and  C_3 
REMARK    2  A    between atoms: C_3  and  C_4 
REMARK    3  A    between atoms: C_4  and  C_5 
REMARK    4  A    between atoms: C_5  and  C_6 
REMARK    5  A    between atoms: C_6  and  C_7 
REMARK    6  A    between atoms: C_8  and  O_14 
REMARK    7  A    between atoms: C_10  and  O_13 
ROOT
HETATM    1  C   UNL     1     -22.447  -3.981  -9.974  1.00  0.00    -0.025 A 
HETATM    2  C   UNL     1     -22.857  -4.021  -8.634  1.00  0.00     0.074 A 
HETATM    3  C   UNL     1     -21.938  -4.208  -7.602  1.00  0.00     0.073 A 
HETATM    4  C   UNL     1     -20.587  -4.336  -7.904  1.00  0.00     0.068 A 
HETATM    5  C   UNL     1     -20.147  -4.270  -9.218  1.00  0.00     0.037 A 
HETATM    6  C   UNL     1     -21.072  -4.092 -10.249  1.00  0.00     0.012 A 
ENDROOT
BRANCH   1   7
HETATM    7  C   UNL     1     -23.402  -3.810 -11.130  1.00  0.00     0.041 C 
BRANCH   7   8
HETATM    8  C   UNL     1     -23.019  -4.697 -12.316  1.00  0.00     0.005 C 
BRANCH   8   9
HETATM    9  C   UNL     1     -22.805  -3.870 -13.584  1.00  0.00     0.000 C 
BRANCH   9  10
HETATM   10  C   UNL     1     -23.261  -2.426 -13.379  1.00  0.00    -0.000 C 
BRANCH  10  11
HETATM   11  C   UNL     1     -23.848  -1.833 -14.659  1.00  0.00    -0.005 C 
HETATM   12  C   UNL     1     -25.360  -1.994 -14.696  1.00  0.00     0.005 C 
ENDBRANCH  10  11
ENDBRANCH   9  10
ENDBRANCH   8   9
ENDBRANCH   7   8
ENDBRANCH   1   7
BRANCH   2  13
HETATM   13  O   UNL     1     -24.160  -3.884  -8.247  1.00  0.00    -0.360 OA
HETATM   14  H   UNL     1     -24.593  -3.217  -8.801  1.00  0.00     0.217 HD
ENDBRANCH   2  13
BRANCH   4  15
HETATM   15  O   UNL     1     -19.654  -4.527  -6.928  1.00  0.00    -0.361 OA
HETATM   16  H   UNL     1     -18.950  -5.094  -7.286  1.00  0.00     0.217 HD
ENDBRANCH   4  15
TORSDOF 7
BEGIN_RES ARG D 557
REMARK  4 active torsions:
REMARK  status: ('A' for Active; 'I' for Inactive)
REMARK    1  A    between atoms: CA   and  CB  
REMARK    2  A    between atoms: CB   and  CG  
REMARK    3  A    between atoms: CG   and  CD  
REMARK    4  A    between atoms: CD   and  NE  
REMARK       I    between atoms: NE   and  CZ  
REMARK       I    between atoms: CZ   and  NH1 
REMARK       I    between atoms: CZ   and  NH2 
ROOT
ATOM      1  CA  ARG D 557     -26.217   2.705 -17.014  1.00 35.49     0.159 C 
ENDROOT
BRANCH   1   2
ATOM      2  CB  ARG D 557     -26.789   1.319 -17.183  1.00 35.49     0.034 C 
BRANCH   2   3
ATOM      3  CG  ARG D 557     -28.138   1.092 -16.651  1.00 35.49     0.027 C 
BRANCH   3   4
ATOM      4  CD  ARG D 557     -28.802  -0.075 -17.277  1.00 35.49     0.116 C 
BRANCH   4   5
ATOM      5  NE  ARG D 557     -28.199  -1.320 -16.880  1.00 35.49    -0.212 N 
ATOM      6  CZ  ARG D 557     -28.711  -2.515 -17.067  1.00 35.49     0.666 C 
ATOM      7  NH1 ARG D 557     -29.882  -2.703 -17.647  1.00 35.49    -0.235 N 
ATOM      8  NH2 ARG D 557     -28.014  -3.537 -16.661  1.00 35.49    -0.235 N 
ATOM      9  HH  ARG D 557     -30.356  -2.045 -17.924  1.00 35.49     0.174 HD
ATOM     10  HH  ARG D 557     -30.164  -3.506 -17.744  1.00 35.49     0.174 HD
ATOM     11  HH  ARG D 557     -27.258  -3.386 -16.296  1.00 35.49     0.174 HD
ATOM     12  HH  ARG D 557     -28.310  -4.324 -16.768  1.00 35.49     0.174 HD
ATOM     13  HE  ARG D 557     -27.476  -1.288 -16.434  1.00 35.49     0.178 HD
ENDBRANCH   4   5
ENDBRANCH   3   4
ENDBRANCH   2   3
ENDBRANCH   1   2
END_RES ARG D 557
BEGIN_RES GLU D 570
REMARK  3 active torsions:
REMARK  status: ('A' for Active; 'I' for Inactive)
REMARK    5  A    between atoms: CA   and  CB  
REMARK    6  A    between atoms: CB   and  CG  
REMARK    7  A    between atoms: CG   and  CD  
ROOT
ATOM     14  CA  GLU D 570     -18.033  -6.348 -13.375  1.00 32.92     0.160 C 
ENDROOT
BRANCH  14  15
ATOM     15  CB  GLU D 570     -19.500  -6.345 -13.794  1.00 32.92     0.043 C 
BRANCH  15  16
ATOM     16  CG  GLU D 570     -19.798  -6.459 -15.245  1.00 32.92     0.100 C 
BRANCH  16  17
ATOM     17  CD  GLU D 570     -20.943  -7.400 -15.540  1.00 32.92     0.185 C 
ATOM     18  OE1 GLU D 570     -20.694  -8.592 -15.806  1.00 32.92    -0.647 OA
ATOM     19  OE2 GLU D 570     -22.100  -6.937 -15.520  1.00 32.92    -0.647 OA
ENDBRANCH  16  17
ENDBRANCH  15  16
ENDBRANCH  14  15
END_RES GLU D 570
ENDMDL
MODEL 9
REMARK VINA RESULT:      -6.0      2.122      2.659
REMARK  7 active torsions:
REMARK  status: ('A' for Active; 'I' for Inactive)
REMARK    1  A    between atoms: C_2  and  C_3 
REMARK    2  A    between atoms: C_3  and  C_4 
REMARK    3  A    between atoms: C_4  and  C_5 
REMARK    4  A    between atoms: C_5  and  C_6 
REMARK    5  A    between atoms: C_6  and  C_7 
REMARK    6  A    between atoms: C_8  and  O_14 
REMARK    7  A    between atoms: C_10  and  O_13 
ROOT
HETATM    1  C   UNL     1     -21.656  -3.926  -8.649  1.00  0.00    -0.025 A 
HETATM    2  C   UNL     1     -22.969  -4.008  -9.133  1.00  0.00     0.074 A 
HETATM    3  C   UNL     1     -23.228  -4.245 -10.482  1.00  0.00     0.073 A 
HETATM    4  C   UNL     1     -22.167  -4.423 -11.362  1.00  0.00     0.068 A 
HETATM    5  C   UNL     1     -20.856  -4.377 -10.907  1.00  0.00     0.037 A 
HETATM    6  C   UNL     1     -20.602  -4.131  -9.557  1.00  0.00     0.012 A 
ENDROOT
BRANCH   1   7
HETATM    7  C   UNL     1     -21.319  -3.643  -7.204  1.00  0.00     0.041 C 
BRANCH   7   8
HETATM    8  C   UNL     1     -20.170  -4.522  -6.708  1.00  0.00     0.005 C 
BRANCH   8   9
HETATM    9  C   UNL     1     -20.537  -5.239  -5.409  1.00  0.00     0.000 C 
BRANCH   9  10
HETATM   10  C   UNL     1     -21.858  -5.993  -5.554  1.00  0.00    -0.000 C 
BRANCH  10  11
HETATM   11  C   UNL     1     -21.760  -7.415  -5.005  1.00  0.00    -0.005 C 
HETATM   12  C   UNL     1     -20.341  -7.952  -5.122  1.00  0.00     0.005 C 
ENDBRANCH  10  11
ENDBRANCH   9  10
ENDBRANCH   8   9
ENDBRANCH   7   8
ENDBRANCH   1   7
BRANCH   2  13
HETATM   13  O   UNL     1     -24.070  -3.866  -8.335  1.00  0.00    -0.360 OA
HETATM   14  H   UNL     1     -24.855  -4.175  -8.812  1.00  0.00     0.217 HD
ENDBRANCH   2  13
BRANCH   4  15
HETATM   15  O   UNL     1     -22.373  -4.650 -12.690  1.00  0.00    -0.361 OA
HETATM   16  H   UNL     1     -23.319  -4.828 -12.826  1.00  0.00     0.217 HD
ENDBRANCH   4  15
TORSDOF 7
BEGIN_RES ARG D 557
REMARK  4 active torsions:
REMARK  status: ('A' for Active; 'I' for Inactive)
REMARK    1  A    between atoms: CA   and  CB  
REMARK    2  A    between atoms: CB   and  CG  
REMARK    3  A    between atoms: CG   and  CD  
REMARK    4  A    between atoms: CD   and  NE  
REMARK       I    between atoms: NE   and  CZ  
REMARK       I    between atoms: CZ   and  NH1 
REMARK       I    between atoms: CZ   and  NH2 
ROOT
ATOM      1  CA  ARG D 557     -26.217   2.705 -17.014  1.00 35.49     0.159 C 
ENDROOT
BRANCH   1   2
ATOM      2  CB  ARG D 557     -26.789   1.319 -17.183  1.00 35.49     0.034 C 
BRANCH   2   3
ATOM      3  CG  ARG D 557     -28.230   1.165 -16.946  1.00 35.49     0.027 C 
BRANCH   3   4
ATOM      4  CD  ARG D 557     -28.617  -0.246 -16.722  1.00 35.49     0.116 C 
BRANCH   4   5
ATOM      5  NE  ARG D 557     -27.600  -0.982 -16.018  1.00 35.49    -0.212 N 
ATOM      6  CZ  ARG D 557     -27.413  -2.282 -16.077  1.00 35.49     0.666 C 
ATOM      7  NH1 ARG D 557     -28.178  -3.076 -16.804  1.00 35.49    -0.235 N 
ATOM      8  NH2 ARG D 557     -26.427  -2.779 -15.389  1.00 35.49    -0.235 N 
ATOM      9  HH  ARG D 557     -28.831  -2.771 -17.267  1.00 35.49     0.174 HD
ATOM     10  HH  ARG D 557     -28.007  -3.916 -16.806  1.00 35.49     0.174 HD
ATOM     11  HH  ARG D 557     -25.946  -2.241 -14.934  1.00 35.49     0.174 HD
ATOM     12  HH  ARG D 557     -26.273  -3.612 -15.405  1.00 35.49     0.174 HD
ATOM     13  HE  ARG D 557     -27.108  -0.559 -15.469  1.00 35.49     0.178 HD
ENDBRANCH   4   5
ENDBRANCH   3   4
ENDBRANCH   2   3
ENDBRANCH   1   2
END_RES ARG D 557
BEGIN_RES GLU D 570
REMARK  3 active torsions:
REMARK  status: ('A' for Active; 'I' for Inactive)
REMARK    5  A    between atoms: CA   and  CB  
REMARK    6  A    between atoms: CB   and  CG  
REMARK    7  A    between atoms: CG   and  CD  
ROOT
ATOM     14  CA  GLU D 570     -18.033  -6.348 -13.375  1.00 32.92     0.160 C 
ENDROOT
BRANCH  14  15
ATOM     15  CB  GLU D 570     -19.500  -6.345 -13.794  1.00 32.92     0.043 C 
BRANCH  15  16
ATOM     16  CG  GLU D 570     -20.065  -7.615 -14.318  1.00 32.92     0.100 C 
BRANCH  16  17
ATOM     17  CD  GLU D 570     -21.213  -7.399 -15.275  1.00 32.92     0.185 C 
ATOM     18  OE1 GLU D 570     -21.208  -7.993 -16.371  1.00 32.92    -0.647 OA
ATOM     19  OE2 GLU D 570     -22.120  -6.615 -14.933  1.00 32.92    -0.647 OA
ENDBRANCH  16  17
ENDBRANCH  15  16
ENDBRANCH  14  15
END_RES GLU D 570
ENDMDL
