MODEL 1
REMARK VINA RESULT:      -8.0      0.000      0.000
REMARK  16 active torsions:
REMARK  status: ('A' for Active; 'I' for Inactive)
REMARK    1  A    between atoms: C_2  and  C_3 
REMARK    2  A    between atoms: C_3  and  C_4 
REMARK    3  A    between atoms: C_4  and  C_5 
REMARK    4  A    between atoms: C_5  and  C_6 
REMARK    5  A    between atoms: C_6  and  C_7 
REMARK    6  A    between atoms: C_7  and  C_8 
REMARK    7  A    between atoms: C_8  and  O_10 
REMARK    8  A    between atoms: O_10  and  C_11 
REMARK    9  A    between atoms: C_18  and  O_19 
REMARK   10  A    between atoms: O_19  and  C_20 
REMARK   11  A    between atoms: C_20  and  C_22 
REMARK   12  A    between atoms: C_22  and  C_23 
REMARK   13  A    between atoms: C_23  and  C_24 
REMARK   14  A    between atoms: C_24  and  C_25 
REMARK   15  A    between atoms: C_25  and  C_26 
REMARK   16  A    between atoms: C_26  and  C_27 
ROOT
HETATM    1  C   UNL     1     -23.493  -4.134 -12.271  1.00  0.00     0.187 C 
HETATM    2  C   UNL     1     -22.799  -2.806 -12.007  1.00  0.00     0.203 C 
HETATM    3  O   UNL     1     -21.884  -3.000 -10.913  1.00  0.00    -0.378 OA
HETATM    4  C   UNL     1     -22.282  -4.170 -10.169  1.00  0.00     0.184 C 
HETATM    5  C   UNL     1     -23.461  -4.799 -10.900  1.00  0.00     0.184 C 
HETATM    6  O   UNL     1     -24.655  -4.443 -10.172  1.00  0.00    -0.378 OA
HETATM    7  C   UNL     1     -24.299  -3.492  -9.150  1.00  0.00     0.203 C 
HETATM    8  C   UNL     1     -22.840  -3.753  -8.813  1.00  0.00     0.187 C 
ENDROOT
BRANCH   1   9
HETATM    9  O   UNL     1     -22.758  -4.913 -13.237  1.00  0.00    -0.311 OA
BRANCH   9  10
HETATM   10  C   UNL     1     -23.118  -4.690 -14.543  1.00  0.00     0.259 C 
HETATM   11  O   UNL     1     -22.389  -4.211 -15.397  1.00  0.00    -0.265 OA
BRANCH  10  12
HETATM   12  C   UNL     1     -24.523  -5.182 -14.810  1.00  0.00     0.111 C 
BRANCH  12  13
HETATM   13  C   UNL     1     -24.513  -6.592 -15.395  1.00  0.00     0.010 C 
BRANCH  13  14
HETATM   14  C   UNL     1     -25.900  -7.054 -15.847  1.00  0.00     0.000 C 
BRANCH  14  15
HETATM   15  C   UNL     1     -26.687  -5.890 -16.448  1.00  0.00     0.000 C 
BRANCH  15  16
HETATM   16  C   UNL     1     -28.193  -6.112 -16.324  1.00  0.00    -0.000 C 
BRANCH  16  17
HETATM   17  C   UNL     1     -28.796  -6.602 -17.640  1.00  0.00    -0.005 C 
HETATM   18  C   UNL     1     -27.951  -6.169 -18.826  1.00  0.00     0.005 C 
ENDBRANCH  16  17
ENDBRANCH  15  16
ENDBRANCH  14  15
ENDBRANCH  13  14
ENDBRANCH  12  13
ENDBRANCH  10  12
ENDBRANCH   9  10
ENDBRANCH   1   9
BRANCH   8  19
HETATM   19  O   UNL     1     -22.729  -4.819  -7.848  1.00  0.00    -0.311 OA
BRANCH  19  20
HETATM   20  C   UNL     1     -21.616  -4.723  -7.054  1.00  0.00     0.259 C 
HETATM   21  O   UNL     1     -21.004  -3.688  -6.831  1.00  0.00    -0.265 OA
BRANCH  20  22
HETATM   22  C   UNL     1     -21.260  -6.052  -6.438  1.00  0.00     0.111 C 
BRANCH  22  23
HETATM   23  C   UNL     1     -20.779  -5.886  -4.997  1.00  0.00     0.010 C 
BRANCH  23  24
HETATM   24  C   UNL     1     -21.865  -6.228  -3.974  1.00  0.00     0.000 C 
BRANCH  24  25
HETATM   25  C   UNL     1     -21.246  -6.684  -2.651  1.00  0.00     0.000 C 
BRANCH  25  26
HETATM   26  C   UNL     1     -22.270  -6.644  -1.517  1.00  0.00    -0.000 C 
BRANCH  26  27
HETATM   27  C   UNL     1     -21.906  -7.622  -0.400  1.00  0.00    -0.005 C 
HETATM   28  C   UNL     1     -23.137  -8.037   0.389  1.00  0.00     0.005 C 
ENDBRANCH  26  27
ENDBRANCH  25  26
ENDBRANCH  24  25
ENDBRANCH  23  24
ENDBRANCH  22  23
ENDBRANCH  20  22
ENDBRANCH  19  20
ENDBRANCH   8  19
TORSDOF 16
BEGIN_RES ARG D 557
REMARK  4 active torsions:
REMARK  status: ('A' for Active; 'I' for Inactive)
REMARK    1  A    between atoms: CA   and  CB  
REMARK    2  A    between atoms: CB   and  CG  
REMARK    3  A    between atoms: CG   and  CD  
REMARK    4  A    between atoms: CD   and  NE  
REMARK       I    between atoms: NE   and  CZ  
REMARK       I    between atoms: CZ   and  NH1 
REMARK       I    between atoms: CZ   and  NH2 
ROOT
ATOM      1  CA  ARG D 557     -26.217   2.705 -17.014  1.00 35.49     0.159 C 
ENDROOT
BRANCH   1   2
ATOM      2  CB  ARG D 557     -26.789   1.319 -17.183  1.00 35.49     0.034 C 
BRANCH   2   3
ATOM      3  CG  ARG D 557     -28.239   1.224 -17.393  1.00 35.49     0.027 C 
BRANCH   3   4
ATOM      4  CD  ARG D 557     -28.882   0.268 -16.462  1.00 35.49     0.116 C 
BRANCH   4   5
ATOM      5  NE  ARG D 557     -29.333  -0.922 -17.133  1.00 35.49    -0.212 N 
ATOM      6  CZ  ARG D 557     -28.750  -2.099 -17.084  1.00 35.49     0.666 C 
ATOM      7  NH1 ARG D 557     -27.643  -2.314 -16.399  1.00 35.49    -0.235 N 
ATOM      8  NH2 ARG D 557     -29.311  -3.075 -17.739  1.00 35.49    -0.235 N 
ATOM      9  HH  ARG D 557     -27.258  -1.687 -15.959  1.00 35.49     0.174 HD
ATOM     10  HH  ARG D 557     -27.309  -3.103 -16.401  1.00 35.49     0.174 HD
ATOM     11  HH  ARG D 557     -30.030  -2.909 -18.166  1.00 35.49     0.174 HD
ATOM     12  HH  ARG D 557     -28.966  -3.849 -17.727  1.00 35.49     0.174 HD
ATOM     13  HE  ARG D 557     -30.000  -0.858 -17.657  1.00 35.49     0.178 HD
ENDBRANCH   4   5
ENDBRANCH   3   4
ENDBRANCH   2   3
ENDBRANCH   1   2
END_RES ARG D 557
BEGIN_RES GLU D 570
REMARK  3 active torsions:
REMARK  status: ('A' for Active; 'I' for Inactive)
REMARK    5  A    between atoms: CA   and  CB  
REMARK    6  A    between atoms: CB   and  CG  
REMARK    7  A    between atoms: CG   and  CD  
ROOT
ATOM     14  CA  GLU D 570     -18.033  -6.348 -13.375  1.00 32.92     0.160 C 
ENDROOT
BRANCH  14  15
ATOM     15  CB  GLU D 570     -19.500  -6.345 -13.794  1.00 32.92     0.043 C 
BRANCH  15  16
ATOM     16  CG  GLU D 570     -19.797  -6.250 -15.247  1.00 32.92     0.100 C 
BRANCH  16  17
ATOM     17  CD  GLU D 570     -20.651  -7.391 -15.749  1.00 32.92     0.185 C 
ATOM     18  OE1 GLU D 570     -21.340  -7.225 -16.774  1.00 32.92    -0.647 OA
ATOM     19  OE2 GLU D 570     -20.644  -8.456 -15.101  1.00 32.92    -0.647 OA
ENDBRANCH  16  17
ENDBRANCH  15  16
ENDBRANCH  14  15
END_RES GLU D 570
ENDMDL
MODEL 2
REMARK VINA RESULT:      -8.0      0.565      9.454
REMARK  16 active torsions:
REMARK  status: ('A' for Active; 'I' for Inactive)
REMARK    1  A    between atoms: C_2  and  C_3 
REMARK    2  A    between atoms: C_3  and  C_4 
REMARK    3  A    between atoms: C_4  and  C_5 
REMARK    4  A    between atoms: C_5  and  C_6 
REMARK    5  A    between atoms: C_6  and  C_7 
REMARK    6  A    between atoms: C_7  and  C_8 
REMARK    7  A    between atoms: C_8  and  O_10 
REMARK    8  A    between atoms: O_10  and  C_11 
REMARK    9  A    between atoms: C_18  and  O_19 
REMARK   10  A    between atoms: O_19  and  C_20 
REMARK   11  A    between atoms: C_20  and  C_22 
REMARK   12  A    between atoms: C_22  and  C_23 
REMARK   13  A    between atoms: C_23  and  C_24 
REMARK   14  A    between atoms: C_24  and  C_25 
REMARK   15  A    between atoms: C_25  and  C_26 
REMARK   16  A    between atoms: C_26  and  C_27 
ROOT
HETATM    1  C   UNL     1     -22.782  -3.752  -8.788  1.00  0.00     0.187 C 
HETATM    2  C   UNL     1     -24.271  -3.588  -9.058  1.00  0.00     0.203 C 
HETATM    3  O   UNL     1     -24.622  -4.476 -10.135  1.00  0.00    -0.378 OA
HETATM    4  C   UNL     1     -23.428  -4.816 -10.871  1.00  0.00     0.184 C 
HETATM    5  C   UNL     1     -22.248  -4.177 -10.151  1.00  0.00     0.184 C 
HETATM    6  O   UNL     1     -21.873  -3.002 -10.902  1.00  0.00    -0.378 OA
HETATM    7  C   UNL     1     -22.859  -2.784 -11.929  1.00  0.00     0.203 C 
HETATM    8  C   UNL     1     -23.459  -4.146 -12.240  1.00  0.00     0.187 C 
ENDROOT
BRANCH   1   9
HETATM    9  O   UNL     1     -22.550  -4.778  -7.802  1.00  0.00    -0.311 OA
BRANCH   9  10
HETATM   10  C   UNL     1     -21.291  -4.770  -7.256  1.00  0.00     0.259 C 
HETATM   11  O   UNL     1     -20.616  -3.770  -7.068  1.00  0.00    -0.265 OA
BRANCH  10  12
HETATM   12  C   UNL     1     -20.869  -6.164  -6.848  1.00  0.00     0.111 C 
BRANCH  12  13
HETATM   13  C   UNL     1     -21.636  -6.636  -5.615  1.00  0.00     0.010 C 
BRANCH  13  14
HETATM   14  C   UNL     1     -21.192  -5.924  -4.335  1.00  0.00     0.000 C 
BRANCH  14  15
HETATM   15  C   UNL     1     -21.387  -6.831  -3.119  1.00  0.00     0.000 C 
BRANCH  15  16
HETATM   16  C   UNL     1     -22.176  -6.125  -2.018  1.00  0.00    -0.000 C 
BRANCH  16  17
HETATM   17  C   UNL     1     -22.294  -6.996  -0.768  1.00  0.00    -0.005 C 
HETATM   18  C   UNL     1     -21.982  -8.450  -1.081  1.00  0.00     0.005 C 
ENDBRANCH  16  17
ENDBRANCH  15  16
ENDBRANCH  14  15
ENDBRANCH  13  14
ENDBRANCH  12  13
ENDBRANCH  10  12
ENDBRANCH   9  10
ENDBRANCH   1   9
BRANCH   8  19
HETATM   19  O   UNL     1     -22.637  -4.854 -13.191  1.00  0.00    -0.311 OA
BRANCH  19  20
HETATM   20  C   UNL     1     -23.034  -4.681 -14.491  1.00  0.00     0.259 C 
HETATM   21  O   UNL     1     -22.350  -4.176 -15.370  1.00  0.00    -0.265 OA
BRANCH  20  22
HETATM   22  C   UNL     1     -24.414  -5.240 -14.726  1.00  0.00     0.111 C 
BRANCH  22  23
HETATM   23  C   UNL     1     -24.352  -6.675 -15.247  1.00  0.00     0.010 C 
BRANCH  23  24
HETATM   24  C   UNL     1     -25.474  -6.987 -16.240  1.00  0.00     0.000 C 
BRANCH  24  25
HETATM   25  C   UNL     1     -26.550  -5.900 -16.209  1.00  0.00     0.000 C 
BRANCH  25  26
HETATM   26  C   UNL     1     -27.652  -6.180 -17.230  1.00  0.00    -0.000 C 
BRANCH  26  27
HETATM   27  C   UNL     1     -28.850  -6.874 -16.584  1.00  0.00    -0.005 C 
HETATM   28  C   UNL     1     -30.131  -6.587 -17.351  1.00  0.00     0.005 C 
ENDBRANCH  26  27
ENDBRANCH  25  26
ENDBRANCH  24  25
ENDBRANCH  23  24
ENDBRANCH  22  23
ENDBRANCH  20  22
ENDBRANCH  19  20
ENDBRANCH   8  19
TORSDOF 16
BEGIN_RES ARG D 557
REMARK  4 active torsions:
REMARK  status: ('A' for Active; 'I' for Inactive)
REMARK    1  A    between atoms: CA   and  CB  
REMARK    2  A    between atoms: CB   and  CG  
REMARK    3  A    between atoms: CG   and  CD  
REMARK    4  A    between atoms: CD   and  NE  
REMARK       I    between atoms: NE   and  CZ  
REMARK       I    between atoms: CZ   and  NH1 
REMARK       I    between atoms: CZ   and  NH2 
ROOT
ATOM      1  CA  ARG D 557     -26.217   2.705 -17.014  1.00 35.49     0.159 C 
ENDROOT
BRANCH   1   2
ATOM      2  CB  ARG D 557     -26.789   1.319 -17.183  1.00 35.49     0.034 C 
BRANCH   2   3
ATOM      3  CG  ARG D 557     -28.233   1.226 -17.428  1.00 35.49     0.027 C 
BRANCH   3   4
ATOM      4  CD  ARG D 557     -28.908   0.307 -16.483  1.00 35.49     0.116 C 
BRANCH   4   5
ATOM      5  NE  ARG D 557     -29.327  -0.914 -17.120  1.00 35.49    -0.212 N 
ATOM      6  CZ  ARG D 557     -28.713  -2.073 -17.039  1.00 35.49     0.666 C 
ATOM      7  NH1 ARG D 557     -27.598  -2.238 -16.351  1.00 35.49    -0.235 N 
ATOM      8  NH2 ARG D 557     -29.247  -3.081 -17.665  1.00 35.49    -0.235 N 
ATOM      9  HH  ARG D 557     -27.230  -1.589 -15.930  1.00 35.49     0.174 HD
ATOM     10  HH  ARG D 557     -27.243  -3.018 -16.332  1.00 35.49     0.174 HD
ATOM     11  HH  ARG D 557     -29.971  -2.946 -18.096  1.00 35.49     0.174 HD
ATOM     12  HH  ARG D 557     -28.882  -3.845 -17.633  1.00 35.49     0.174 HD
ATOM     13  HE  ARG D 557     -29.997  -0.882 -17.643  1.00 35.49     0.178 HD
ENDBRANCH   4   5
ENDBRANCH   3   4
ENDBRANCH   2   3
ENDBRANCH   1   2
END_RES ARG D 557
BEGIN_RES GLU D 570
REMARK  3 active torsions:
REMARK  status: ('A' for Active; 'I' for Inactive)
REMARK    5  A    between atoms: CA   and  CB  
REMARK    6  A    between atoms: CB   and  CG  
REMARK    7  A    between atoms: CG   and  CD  
ROOT
ATOM     14  CA  GLU D 570     -18.033  -6.348 -13.375  1.00 32.92     0.160 C 
ENDROOT
BRANCH  14  15
ATOM     15  CB  GLU D 570     -19.500  -6.345 -13.794  1.00 32.92     0.043 C 
BRANCH  15  16
ATOM     16  CG  GLU D 570     -19.796  -6.280 -15.248  1.00 32.92     0.100 C 
BRANCH  16  17
ATOM     17  CD  GLU D 570     -20.650  -7.430 -15.728  1.00 32.92     0.185 C 
ATOM     18  OE1 GLU D 570     -20.644  -8.498 -15.086  1.00 32.92    -0.647 OA
ATOM     19  OE2 GLU D 570     -21.320  -7.268 -16.767  1.00 32.92    -0.647 OA
ENDBRANCH  16  17
ENDBRANCH  15  16
ENDBRANCH  14  15
END_RES GLU D 570
ENDMDL
MODEL 3
REMARK VINA RESULT:      -7.8      2.206      4.211
REMARK  16 active torsions:
REMARK  status: ('A' for Active; 'I' for Inactive)
REMARK    1  A    between atoms: C_2  and  C_3 
REMARK    2  A    between atoms: C_3  and  C_4 
REMARK    3  A    between atoms: C_4  and  C_5 
REMARK    4  A    between atoms: C_5  and  C_6 
REMARK    5  A    between atoms: C_6  and  C_7 
REMARK    6  A    between atoms: C_7  and  C_8 
REMARK    7  A    between atoms: C_8  and  O_10 
REMARK    8  A    between atoms: O_10  and  C_11 
REMARK    9  A    between atoms: C_18  and  O_19 
REMARK   10  A    between atoms: O_19  and  C_20 
REMARK   11  A    between atoms: C_20  and  C_22 
REMARK   12  A    between atoms: C_22  and  C_23 
REMARK   13  A    between atoms: C_23  and  C_24 
REMARK   14  A    between atoms: C_24  and  C_25 
REMARK   15  A    between atoms: C_25  and  C_26 
REMARK   16  A    between atoms: C_26  and  C_27 
ROOT
HETATM    1  C   UNL     1     -24.881  -5.349 -15.422  1.00  0.00     0.187 C 
HETATM    2  C   UNL     1     -23.623  -6.122 -15.052  1.00  0.00     0.203 C 
HETATM    3  O   UNL     1     -23.411  -5.963 -13.637  1.00  0.00    -0.378 OA
HETATM    4  C   UNL     1     -24.124  -4.794 -13.184  1.00  0.00     0.184 C 
HETATM    5  C   UNL     1     -24.907  -4.246 -14.370  1.00  0.00     0.184 C 
HETATM    6  O   UNL     1     -24.185  -3.099 -14.866  1.00  0.00    -0.378 OA
HETATM    7  C   UNL     1     -22.924  -3.020 -14.175  1.00  0.00     0.203 C 
HETATM    8  C   UNL     1     -23.133  -3.692 -12.827  1.00  0.00     0.187 C 
ENDROOT
BRANCH   1   9
HETATM    9  O   UNL     1     -26.048  -6.188 -15.316  1.00  0.00    -0.311 OA
BRANCH   9  10
HETATM   10  C   UNL     1     -27.000  -5.966 -16.280  1.00  0.00     0.259 C 
HETATM   11  O   UNL     1     -28.015  -5.305 -16.121  1.00  0.00    -0.265 OA
BRANCH  10  12
HETATM   12  C   UNL     1     -26.595  -6.591 -17.596  1.00  0.00     0.111 C 
BRANCH  12  13
HETATM   13  C   UNL     1     -27.470  -6.086 -18.741  1.00  0.00     0.010 C 
BRANCH  13  14
HETATM   14  C   UNL     1     -26.905  -6.440 -20.118  1.00  0.00     0.000 C 
BRANCH  14  15
HETATM   15  C   UNL     1     -25.424  -6.805 -20.015  1.00  0.00     0.000 C 
BRANCH  15  16
HETATM   16  C   UNL     1     -25.060  -7.933 -20.978  1.00  0.00    -0.000 C 
BRANCH  16  17
HETATM   17  C   UNL     1     -24.326  -7.404 -22.209  1.00  0.00    -0.005 C 
HETATM   18  C   UNL     1     -23.209  -8.345 -22.629  1.00  0.00     0.005 C 
ENDBRANCH  16  17
ENDBRANCH  15  16
ENDBRANCH  14  15
ENDBRANCH  13  14
ENDBRANCH  12  13
ENDBRANCH  10  12
ENDBRANCH   9  10
ENDBRANCH   1   9
BRANCH   8  19
HETATM   19  O   UNL     1     -23.700  -2.760 -11.882  1.00  0.00    -0.311 OA
BRANCH  19  20
HETATM   20  C   UNL     1     -24.125  -3.351 -10.721  1.00  0.00     0.259 C 
HETATM   21  O   UNL     1     -25.214  -3.162 -10.199  1.00  0.00    -0.265 OA
BRANCH  20  22
HETATM   22  C   UNL     1     -23.097  -4.313 -10.182  1.00  0.00     0.111 C 
BRANCH  22  23
HETATM   23  C   UNL     1     -22.804  -4.045  -8.706  1.00  0.00     0.010 C 
BRANCH  23  24
HETATM   24  C   UNL     1     -21.332  -4.266  -8.352  1.00  0.00     0.000 C 
BRANCH  24  25
HETATM   25  C   UNL     1     -21.024  -3.750  -6.945  1.00  0.00     0.000 C 
BRANCH  25  26
HETATM   26  C   UNL     1     -20.061  -4.682  -6.210  1.00  0.00    -0.000 C 
BRANCH  26  27
HETATM   27  C   UNL     1     -20.758  -5.416  -5.066  1.00  0.00    -0.005 C 
HETATM   28  C   UNL     1     -21.457  -6.672  -5.563  1.00  0.00     0.005 C 
ENDBRANCH  26  27
ENDBRANCH  25  26
ENDBRANCH  24  25
ENDBRANCH  23  24
ENDBRANCH  22  23
ENDBRANCH  20  22
ENDBRANCH  19  20
ENDBRANCH   8  19
TORSDOF 16
BEGIN_RES ARG D 557
REMARK  4 active torsions:
REMARK  status: ('A' for Active; 'I' for Inactive)
REMARK    1  A    between atoms: CA   and  CB  
REMARK    2  A    between atoms: CB   and  CG  
REMARK    3  A    between atoms: CG   and  CD  
REMARK    4  A    between atoms: CD   and  NE  
REMARK       I    between atoms: NE   and  CZ  
REMARK       I    between atoms: CZ   and  NH1 
REMARK       I    between atoms: CZ   and  NH2 
ROOT
ATOM      1  CA  ARG D 557     -26.217   2.705 -17.014  1.00 35.49     0.159 C 
ENDROOT
BRANCH   1   2
ATOM      2  CB  ARG D 557     -26.789   1.319 -17.183  1.00 35.49     0.034 C 
BRANCH   2   3
ATOM      3  CG  ARG D 557     -28.237   1.224 -17.402  1.00 35.49     0.027 C 
BRANCH   3   4
ATOM      4  CD  ARG D 557     -28.891   0.291 -16.456  1.00 35.49     0.116 C 
BRANCH   4   5
ATOM      5  NE  ARG D 557     -29.323  -0.921 -17.101  1.00 35.49    -0.212 N 
ATOM      6  CZ  ARG D 557     -28.714  -2.083 -17.038  1.00 35.49     0.666 C 
ATOM      7  NH1 ARG D 557     -27.593  -2.261 -16.363  1.00 35.49    -0.235 N 
ATOM      8  NH2 ARG D 557     -29.260  -3.082 -17.669  1.00 35.49    -0.235 N 
ATOM      9  HH  ARG D 557     -27.218  -1.619 -15.939  1.00 35.49     0.174 HD
ATOM     10  HH  ARG D 557     -27.242  -3.043 -16.356  1.00 35.49     0.174 HD
ATOM     11  HH  ARG D 557     -29.988  -2.940 -18.091  1.00 35.49     0.174 HD
ATOM     12  HH  ARG D 557     -28.898  -3.849 -17.649  1.00 35.49     0.174 HD
ATOM     13  HE  ARG D 557     -29.998  -0.880 -17.617  1.00 35.49     0.178 HD
ENDBRANCH   4   5
ENDBRANCH   3   4
ENDBRANCH   2   3
ENDBRANCH   1   2
END_RES ARG D 557
BEGIN_RES GLU D 570
REMARK  3 active torsions:
REMARK  status: ('A' for Active; 'I' for Inactive)
REMARK    5  A    between atoms: CA   and  CB  
REMARK    6  A    between atoms: CB   and  CG  
REMARK    7  A    between atoms: CG   and  CD  
ROOT
ATOM     14  CA  GLU D 570     -18.033  -6.348 -13.375  1.00 32.92     0.160 C 
ENDROOT
BRANCH  14  15
ATOM     15  CB  GLU D 570     -19.500  -6.345 -13.794  1.00 32.92     0.043 C 
BRANCH  15  16
ATOM     16  CG  GLU D 570     -20.077  -7.627 -14.274  1.00 32.92     0.100 C 
BRANCH  16  17
ATOM     17  CD  GLU D 570     -20.480  -7.584 -15.730  1.00 32.92     0.185 C 
ATOM     18  OE1 GLU D 570     -20.422  -6.500 -16.342  1.00 32.92    -0.647 OA
ATOM     19  OE2 GLU D 570     -20.873  -8.642 -16.259  1.00 32.92    -0.647 OA
ENDBRANCH  16  17
ENDBRANCH  15  16
ENDBRANCH  14  15
END_RES GLU D 570
ENDMDL
MODEL 4
REMARK VINA RESULT:      -7.4      4.562      9.843
REMARK  16 active torsions:
REMARK  status: ('A' for Active; 'I' for Inactive)
REMARK    1  A    between atoms: C_2  and  C_3 
REMARK    2  A    between atoms: C_3  and  C_4 
REMARK    3  A    between atoms: C_4  and  C_5 
REMARK    4  A    between atoms: C_5  and  C_6 
REMARK    5  A    between atoms: C_6  and  C_7 
REMARK    6  A    between atoms: C_7  and  C_8 
REMARK    7  A    between atoms: C_8  and  O_10 
REMARK    8  A    between atoms: O_10  and  C_11 
REMARK    9  A    between atoms: C_18  and  O_19 
REMARK   10  A    between atoms: O_19  and  C_20 
REMARK   11  A    between atoms: C_20  and  C_22 
REMARK   12  A    between atoms: C_22  and  C_23 
REMARK   13  A    between atoms: C_23  and  C_24 
REMARK   14  A    between atoms: C_24  and  C_25 
REMARK   15  A    between atoms: C_25  and  C_26 
REMARK   16  A    between atoms: C_26  and  C_27 
ROOT
HETATM    1  C   UNL     1     -27.073  -6.275 -16.730  1.00  0.00     0.187 C 
HETATM    2  C   UNL     1     -27.276  -5.964 -18.206  1.00  0.00     0.203 C 
HETATM    3  O   UNL     1     -28.226  -4.886 -18.301  1.00  0.00    -0.378 OA
HETATM    4  C   UNL     1     -28.985  -4.820 -17.075  1.00  0.00     0.184 C 
HETATM    5  C   UNL     1     -28.408  -5.859 -16.122  1.00  0.00     0.184 C 
HETATM    6  O   UNL     1     -29.305  -6.989 -16.127  1.00  0.00    -0.378 OA
HETATM    7  C   UNL     1     -30.293  -6.782 -17.153  1.00  0.00     0.203 C 
HETATM    8  C   UNL     1     -30.416  -5.277 -17.331  1.00  0.00     0.187 C 
ENDROOT
BRANCH   1   9
HETATM    9  O   UNL     1     -25.993  -5.491 -16.185  1.00  0.00    -0.311 OA
BRANCH   9  10
HETATM   10  C   UNL     1     -25.101  -6.201 -15.421  1.00  0.00     0.259 C 
HETATM   11  O   UNL     1     -25.097  -7.416 -15.298  1.00  0.00    -0.265 OA
BRANCH  10  12
HETATM   12  C   UNL     1     -24.070  -5.285 -14.799  1.00  0.00     0.111 C 
BRANCH  12  13
HETATM   13  C   UNL     1     -23.440  -5.921 -13.563  1.00  0.00     0.010 C 
BRANCH  13  14
HETATM   14  C   UNL     1     -23.315  -4.942 -12.393  1.00  0.00     0.000 C 
BRANCH  14  15
HETATM   15  C   UNL     1     -21.928  -4.299 -12.373  1.00  0.00     0.000 C 
BRANCH  15  16
HETATM   16  C   UNL     1     -21.783  -3.320 -11.210  1.00  0.00    -0.000 C 
BRANCH  16  17
HETATM   17  C   UNL     1     -21.206  -4.004  -9.972  1.00  0.00    -0.005 C 
HETATM   18  C   UNL     1     -22.269  -4.187  -8.900  1.00  0.00     0.005 C 
ENDBRANCH  16  17
ENDBRANCH  15  16
ENDBRANCH  14  15
ENDBRANCH  13  14
ENDBRANCH  12  13
ENDBRANCH  10  12
ENDBRANCH   9  10
ENDBRANCH   1   9
BRANCH   8  19
HETATM   19  O   UNL     1     -31.326  -4.727 -16.356  1.00  0.00    -0.311 OA
BRANCH  19  20
HETATM   20  C   UNL     1     -32.353  -4.010 -16.911  1.00  0.00     0.259 C 
HETATM   21  O   UNL     1     -32.214  -3.102 -17.718  1.00  0.00    -0.265 OA
BRANCH  20  22
HETATM   22  C   UNL     1     -33.695  -4.511 -16.441  1.00  0.00     0.111 C 
BRANCH  22  23
HETATM   23  C   UNL     1     -34.233  -3.663 -15.289  1.00  0.00     0.010 C 
BRANCH  23  24
HETATM   24  C   UNL     1     -33.948  -4.286 -13.921  1.00  0.00     0.000 C 
BRANCH  24  25
HETATM   25  C   UNL     1     -34.238  -3.292 -12.795  1.00  0.00     0.000 C 
BRANCH  25  26
HETATM   26  C   UNL     1     -33.243  -3.448 -11.645  1.00  0.00    -0.000 C 
BRANCH  26  27
HETATM   27  C   UNL     1     -33.914  -4.027 -10.400  1.00  0.00    -0.005 C 
HETATM   28  C   UNL     1     -34.185  -5.514 -10.562  1.00  0.00     0.005 C 
ENDBRANCH  26  27
ENDBRANCH  25  26
ENDBRANCH  24  25
ENDBRANCH  23  24
ENDBRANCH  22  23
ENDBRANCH  20  22
ENDBRANCH  19  20
ENDBRANCH   8  19
TORSDOF 16
BEGIN_RES ARG D 557
REMARK  4 active torsions:
REMARK  status: ('A' for Active; 'I' for Inactive)
REMARK    1  A    between atoms: CA   and  CB  
REMARK    2  A    between atoms: CB   and  CG  
REMARK    3  A    between atoms: CG   and  CD  
REMARK    4  A    between atoms: CD   and  NE  
REMARK       I    between atoms: NE   and  CZ  
REMARK       I    between atoms: CZ   and  NH1 
REMARK       I    between atoms: CZ   and  NH2 
ROOT
ATOM      1  CA  ARG D 557     -26.217   2.705 -17.014  1.00 35.49     0.159 C 
ENDROOT
BRANCH   1   2
ATOM      2  CB  ARG D 557     -26.789   1.319 -17.183  1.00 35.49     0.034 C 
BRANCH   2   3
ATOM      3  CG  ARG D 557     -25.834   0.204 -17.174  1.00 35.49     0.027 C 
BRANCH   3   4
ATOM      4  CD  ARG D 557     -24.718   0.425 -16.225  1.00 35.49     0.116 C 
BRANCH   4   5
ATOM      5  NE  ARG D 557     -24.852  -0.375 -15.036  1.00 35.49    -0.212 N 
ATOM      6  CZ  ARG D 557     -24.044  -1.344 -14.668  1.00 35.49     0.666 C 
ATOM      7  NH1 ARG D 557     -22.997  -1.706 -15.386  1.00 35.49    -0.235 N 
ATOM      8  NH2 ARG D 557     -24.306  -1.950 -13.546  1.00 35.49    -0.235 N 
ATOM      9  HH  ARG D 557     -22.805  -1.320 -16.127  1.00 35.49     0.174 HD
ATOM     10  HH  ARG D 557     -22.505  -2.344 -15.095  1.00 35.49     0.174 HD
ATOM     11  HH  ARG D 557     -24.984  -1.690 -13.099  1.00 35.49     0.174 HD
ATOM     12  HH  ARG D 557     -23.805  -2.578 -13.274  1.00 35.49     0.174 HD
ATOM     13  HE  ARG D 557     -25.540  -0.258 -14.551  1.00 35.49     0.178 HD
ENDBRANCH   4   5
ENDBRANCH   3   4
ENDBRANCH   2   3
ENDBRANCH   1   2
END_RES ARG D 557
BEGIN_RES GLU D 570
REMARK  3 active torsions:
REMARK  status: ('A' for Active; 'I' for Inactive)
REMARK    5  A    between atoms: CA   and  CB  
REMARK    6  A    between atoms: CB   and  CG  
REMARK    7  A    between atoms: CG   and  CD  
ROOT
ATOM     14  CA  GLU D 570     -18.033  -6.348 -13.375  1.00 32.92     0.160 C 
ENDROOT
BRANCH  14  15
ATOM     15  CB  GLU D 570     -19.500  -6.345 -13.794  1.00 32.92     0.043 C 
BRANCH  15  16
ATOM     16  CG  GLU D 570     -19.803  -6.082 -15.225  1.00 32.92     0.100 C 
BRANCH  16  17
ATOM     17  CD  GLU D 570     -20.687  -7.139 -15.844  1.00 32.92     0.185 C 
ATOM     18  OE1 GLU D 570     -20.679  -8.290 -15.368  1.00 32.92    -0.647 OA
ATOM     19  OE2 GLU D 570     -21.384  -6.816 -16.826  1.00 32.92    -0.647 OA
ENDBRANCH  16  17
ENDBRANCH  15  16
ENDBRANCH  14  15
END_RES GLU D 570
ENDMDL
MODEL 5
REMARK VINA RESULT:      -7.3      2.096      9.925
REMARK  16 active torsions:
REMARK  status: ('A' for Active; 'I' for Inactive)
REMARK    1  A    between atoms: C_2  and  C_3 
REMARK    2  A    between atoms: C_3  and  C_4 
REMARK    3  A    between atoms: C_4  and  C_5 
REMARK    4  A    between atoms: C_5  and  C_6 
REMARK    5  A    between atoms: C_6  and  C_7 
REMARK    6  A    between atoms: C_7  and  C_8 
REMARK    7  A    between atoms: C_8  and  O_10 
REMARK    8  A    between atoms: O_10  and  C_11 
REMARK    9  A    between atoms: C_18  and  O_19 
REMARK   10  A    between atoms: O_19  and  C_20 
REMARK   11  A    between atoms: C_20  and  C_22 
REMARK   12  A    between atoms: C_22  and  C_23 
REMARK   13  A    between atoms: C_23  and  C_24 
REMARK   14  A    between atoms: C_24  and  C_25 
REMARK   15  A    between atoms: C_25  and  C_26 
REMARK   16  A    between atoms: C_26  and  C_27 
ROOT
HETATM    1  C   UNL     1     -22.391  -3.756 -10.382  1.00  0.00     0.187 C 
HETATM    2  C   UNL     1     -23.794  -3.169 -10.427  1.00  0.00     0.203 C 
HETATM    3  O   UNL     1     -24.580  -3.979 -11.321  1.00  0.00    -0.378 OA
HETATM    4  C   UNL     1     -23.694  -4.710 -12.193  1.00  0.00     0.184 C 
HETATM    5  C   UNL     1     -22.267  -4.411 -11.753  1.00  0.00     0.184 C 
HETATM    6  O   UNL     1     -21.722  -3.456 -12.688  1.00  0.00    -0.378 OA
HETATM    7  C   UNL     1     -22.780  -3.020 -13.562  1.00  0.00     0.203 C 
HETATM    8  C   UNL     1     -23.791  -4.155 -13.609  1.00  0.00     0.187 C 
ENDROOT
BRANCH   1   9
HETATM    9  O   UNL     1     -22.279  -4.737  -9.331  1.00  0.00    -0.311 OA
BRANCH   9  10
HETATM   10  C   UNL     1     -22.455  -4.239  -8.064  1.00  0.00     0.259 C 
HETATM   11  O   UNL     1     -23.433  -4.443  -7.363  1.00  0.00    -0.265 OA
BRANCH  10  12
HETATM   12  C   UNL     1     -21.241  -3.456  -7.616  1.00  0.00     0.111 C 
BRANCH  12  13
HETATM   13  C   UNL     1     -20.036  -4.371  -7.415  1.00  0.00     0.010 C 
BRANCH  13  14
HETATM   14  C   UNL     1     -19.909  -4.875  -5.976  1.00  0.00     0.000 C 
BRANCH  14  15
HETATM   15  C   UNL     1     -20.507  -6.276  -5.841  1.00  0.00     0.000 C 
BRANCH  15  16
HETATM   16  C   UNL     1     -21.468  -6.360  -4.657  1.00  0.00    -0.000 C 
BRANCH  16  17
HETATM   17  C   UNL     1     -21.546  -7.780  -4.099  1.00  0.00    -0.005 C 
HETATM   18  C   UNL     1     -20.219  -8.505  -4.257  1.00  0.00     0.005 C 
ENDBRANCH  16  17
ENDBRANCH  15  16
ENDBRANCH  14  15
ENDBRANCH  13  14
ENDBRANCH  12  13
ENDBRANCH  10  12
ENDBRANCH   9  10
ENDBRANCH   1   9
BRANCH   8  19
HETATM   19  O   UNL     1     -23.399  -5.138 -14.589  1.00  0.00    -0.311 OA
BRANCH  19  20
HETATM   20  C   UNL     1     -24.458  -5.690 -15.262  1.00  0.00     0.259 C 
HETATM   21  O   UNL     1     -25.567  -5.184 -15.354  1.00  0.00    -0.265 OA
BRANCH  20  22
HETATM   22  C   UNL     1     -24.074  -6.987 -15.926  1.00  0.00     0.111 C 
BRANCH  22  23
HETATM   23  C   UNL     1     -24.849  -7.197 -17.226  1.00  0.00     0.010 C 
BRANCH  23  24
HETATM   24  C   UNL     1     -23.964  -7.049 -18.466  1.00  0.00     0.000 C 
BRANCH  24  25
HETATM   25  C   UNL     1     -24.812  -6.874 -19.727  1.00  0.00     0.000 C 
BRANCH  25  26
HETATM   26  C   UNL     1     -24.648  -8.060 -20.676  1.00  0.00    -0.000 C 
BRANCH  26  27
HETATM   27  C   UNL     1     -24.320  -7.599 -22.096  1.00  0.00    -0.005 C 
HETATM   28  C   UNL     1     -23.106  -8.332 -22.645  1.00  0.00     0.005 C 
ENDBRANCH  26  27
ENDBRANCH  25  26
ENDBRANCH  24  25
ENDBRANCH  23  24
ENDBRANCH  22  23
ENDBRANCH  20  22
ENDBRANCH  19  20
ENDBRANCH   8  19
TORSDOF 16
BEGIN_RES ARG D 557
REMARK  4 active torsions:
REMARK  status: ('A' for Active; 'I' for Inactive)
REMARK    1  A    between atoms: CA   and  CB  
REMARK    2  A    between atoms: CB   and  CG  
REMARK    3  A    between atoms: CG   and  CD  
REMARK    4  A    between atoms: CD   and  NE  
REMARK       I    between atoms: NE   and  CZ  
REMARK       I    between atoms: CZ   and  NH1 
REMARK       I    between atoms: CZ   and  NH2 
ROOT
ATOM      1  CA  ARG D 557     -26.217   2.705 -17.014  1.00 35.49     0.159 C 
ENDROOT
BRANCH   1   2
ATOM      2  CB  ARG D 557     -26.789   1.319 -17.183  1.00 35.49     0.034 C 
BRANCH   2   3
ATOM      3  CG  ARG D 557     -28.232   1.226 -17.437  1.00 35.49     0.027 C 
BRANCH   3   4
ATOM      4  CD  ARG D 557     -28.909   0.294 -16.507  1.00 35.49     0.116 C 
BRANCH   4   5
ATOM      5  NE  ARG D 557     -29.262  -0.947 -17.145  1.00 35.49    -0.212 N 
ATOM      6  CZ  ARG D 557     -28.607  -2.081 -17.034  1.00 35.49     0.666 C 
ATOM      7  NH1 ARG D 557     -27.509  -2.198 -16.310  1.00 35.49    -0.235 N 
ATOM      8  NH2 ARG D 557     -29.083  -3.114 -17.667  1.00 35.49    -0.235 N 
ATOM      9  HH  ARG D 557     -27.179  -1.532 -15.883  1.00 35.49     0.174 HD
ATOM     10  HH  ARG D 557     -27.126  -2.964 -16.272  1.00 35.49     0.174 HD
ATOM     11  HH  ARG D 557     -29.798  -3.011 -18.120  1.00 35.49     0.174 HD
ATOM     12  HH  ARG D 557     -28.690  -3.864 -17.616  1.00 35.49     0.174 HD
ATOM     13  HE  ARG D 557     -29.916  -0.945 -17.689  1.00 35.49     0.178 HD
ENDBRANCH   4   5
ENDBRANCH   3   4
ENDBRANCH   2   3
ENDBRANCH   1   2
END_RES ARG D 557
BEGIN_RES GLU D 570
REMARK  3 active torsions:
REMARK  status: ('A' for Active; 'I' for Inactive)
REMARK    5  A    between atoms: CA   and  CB  
REMARK    6  A    between atoms: CB   and  CG  
REMARK    7  A    between atoms: CG   and  CD  
ROOT
ATOM     14  CA  GLU D 570     -18.033  -6.348 -13.375  1.00 32.92     0.160 C 
ENDROOT
BRANCH  14  15
ATOM     15  CB  GLU D 570     -19.500  -6.345 -13.794  1.00 32.92     0.043 C 
BRANCH  15  16
ATOM     16  CG  GLU D 570     -20.076  -7.625 -14.281  1.00 32.92     0.100 C 
BRANCH  16  17
ATOM     17  CD  GLU D 570     -20.543  -7.554 -15.716  1.00 32.92     0.185 C 
ATOM     18  OE1 GLU D 570     -20.575  -6.447 -16.287  1.00 32.92    -0.647 OA
ATOM     19  OE2 GLU D 570     -20.897  -8.614 -16.269  1.00 32.92    -0.647 OA
ENDBRANCH  16  17
ENDBRANCH  15  16
ENDBRANCH  14  15
END_RES GLU D 570
ENDMDL
MODEL 6
REMARK VINA RESULT:      -7.2      1.773      9.661
REMARK  16 active torsions:
REMARK  status: ('A' for Active; 'I' for Inactive)
REMARK    1  A    between atoms: C_2  and  C_3 
REMARK    2  A    between atoms: C_3  and  C_4 
REMARK    3  A    between atoms: C_4  and  C_5 
REMARK    4  A    between atoms: C_5  and  C_6 
REMARK    5  A    between atoms: C_6  and  C_7 
REMARK    6  A    between atoms: C_7  and  C_8 
REMARK    7  A    between atoms: C_8  and  O_10 
REMARK    8  A    between atoms: O_10  and  C_11 
REMARK    9  A    between atoms: C_18  and  O_19 
REMARK   10  A    between atoms: O_19  and  C_20 
REMARK   11  A    between atoms: C_20  and  C_22 
REMARK   12  A    between atoms: C_22  and  C_23 
REMARK   13  A    between atoms: C_23  and  C_24 
REMARK   14  A    between atoms: C_24  and  C_25 
REMARK   15  A    between atoms: C_25  and  C_26 
REMARK   16  A    between atoms: C_26  and  C_27 
ROOT
HETATM    1  C   UNL     1     -20.879  -5.869  -5.714  1.00  0.00     0.187 C 
HETATM    2  C   UNL     1     -20.402  -4.440  -5.498  1.00  0.00     0.203 C 
HETATM    3  O   UNL     1     -21.114  -3.595  -6.420  1.00  0.00    -0.378 OA
HETATM    4  C   UNL     1     -21.624  -4.404  -7.500  1.00  0.00     0.184 C 
HETATM    5  C   UNL     1     -21.292  -5.856  -7.182  1.00  0.00     0.184 C 
HETATM    6  O   UNL     1     -20.159  -6.225  -7.997  1.00  0.00    -0.378 OA
HETATM    7  C   UNL     1     -19.668  -5.042  -8.657  1.00  0.00     0.203 C 
HETATM    8  C   UNL     1     -20.855  -4.099  -8.780  1.00  0.00     0.187 C 
ENDROOT
BRANCH   1   9
HETATM    9  O   UNL     1     -22.006  -6.167  -4.866  1.00  0.00    -0.311 OA
BRANCH   9  10
HETATM   10  C   UNL     1     -21.784  -7.167  -3.952  1.00  0.00     0.259 C 
HETATM   11  O   UNL     1     -21.716  -8.356  -4.220  1.00  0.00    -0.265 OA
BRANCH  10  12
HETATM   12  C   UNL     1     -21.564  -6.597  -2.569  1.00  0.00     0.111 C 
BRANCH  12  13
HETATM   13  C   UNL     1     -21.744  -7.667  -1.495  1.00  0.00     0.010 C 
BRANCH  13  14
HETATM   14  C   UNL     1     -22.554  -7.170  -0.295  1.00  0.00     0.000 C 
BRANCH  14  15
HETATM   15  C   UNL     1     -23.097  -8.348   0.514  1.00  0.00     0.000 C 
BRANCH  15  16
HETATM   16  C   UNL     1     -22.732  -9.684  -0.131  1.00  0.00    -0.000 C 
BRANCH  16  17
HETATM   17  C   UNL     1     -23.941 -10.615  -0.212  1.00  0.00    -0.005 C 
HETATM   18  C   UNL     1     -23.565 -12.037   0.169  1.00  0.00     0.005 C 
ENDBRANCH  16  17
ENDBRANCH  15  16
ENDBRANCH  14  15
ENDBRANCH  13  14
ENDBRANCH  12  13
ENDBRANCH  10  12
ENDBRANCH   9  10
ENDBRANCH   1   9
BRANCH   8  19
HETATM   19  O   UNL     1     -21.633  -4.419  -9.952  1.00  0.00    -0.311 OA
BRANCH  19  20
HETATM   20  C   UNL     1     -21.200  -3.784 -11.086  1.00  0.00     0.259 C 
HETATM   21  O   UNL     1     -20.155  -4.032 -11.670  1.00  0.00    -0.265 OA
BRANCH  20  22
HETATM   22  C   UNL     1     -22.201  -2.763 -11.564  1.00  0.00     0.111 C 
BRANCH  22  23
HETATM   23  C   UNL     1     -23.610  -3.351 -11.622  1.00  0.00     0.010 C 
BRANCH  23  24
HETATM   24  C   UNL     1     -24.243  -3.220 -13.009  1.00  0.00     0.000 C 
BRANCH  24  25
HETATM   25  C   UNL     1     -23.483  -4.059 -14.039  1.00  0.00     0.000 C 
BRANCH  25  26
HETATM   26  C   UNL     1     -23.509  -5.543 -13.674  1.00  0.00    -0.000 C 
BRANCH  26  27
HETATM   27  C   UNL     1     -23.927  -6.405 -14.864  1.00  0.00    -0.005 C 
HETATM   28  C   UNL     1     -25.303  -6.007 -15.375  1.00  0.00     0.005 C 
ENDBRANCH  26  27
ENDBRANCH  25  26
ENDBRANCH  24  25
ENDBRANCH  23  24
ENDBRANCH  22  23
ENDBRANCH  20  22
ENDBRANCH  19  20
ENDBRANCH   8  19
TORSDOF 16
BEGIN_RES ARG D 557
REMARK  4 active torsions:
REMARK  status: ('A' for Active; 'I' for Inactive)
REMARK    1  A    between atoms: CA   and  CB  
REMARK    2  A    between atoms: CB   and  CG  
REMARK    3  A    between atoms: CG   and  CD  
REMARK    4  A    between atoms: CD   and  NE  
REMARK       I    between atoms: NE   and  CZ  
REMARK       I    between atoms: CZ   and  NH1 
REMARK       I    between atoms: CZ   and  NH2 
ROOT
ATOM      1  CA  ARG D 557     -26.217   2.705 -17.014  1.00 35.49     0.159 C 
ENDROOT
BRANCH   1   2
ATOM      2  CB  ARG D 557     -26.789   1.319 -17.183  1.00 35.49     0.034 C 
BRANCH   2   3
ATOM      3  CG  ARG D 557     -28.221   1.228 -17.491  1.00 35.49     0.027 C 
BRANCH   3   4
ATOM      4  CD  ARG D 557     -28.909   0.197 -16.681  1.00 35.49     0.116 C 
BRANCH   4   5
ATOM      5  NE  ARG D 557     -27.997  -0.803 -16.190  1.00 35.49    -0.212 N 
ATOM      6  CZ  ARG D 557     -28.000  -2.075 -16.522  1.00 35.49     0.666 C 
ATOM      7  NH1 ARG D 557     -28.882  -2.586 -17.361  1.00 35.49    -0.235 N 
ATOM      8  NH2 ARG D 557     -27.085  -2.835 -15.994  1.00 35.49    -0.235 N 
ATOM      9  HH  ARG D 557     -29.491  -2.104 -17.721  1.00 35.49     0.174 HD
ATOM     10  HH  ARG D 557     -28.833  -3.422 -17.542  1.00 35.49     0.174 HD
ATOM     11  HH  ARG D 557     -26.524  -2.475 -15.462  1.00 35.49     0.174 HD
ATOM     12  HH  ARG D 557     -27.052  -3.660 -16.188  1.00 35.49     0.174 HD
ATOM     13  HE  ARG D 557     -27.441  -0.575 -15.588  1.00 35.49     0.178 HD
ENDBRANCH   4   5
ENDBRANCH   3   4
ENDBRANCH   2   3
ENDBRANCH   1   2
END_RES ARG D 557
BEGIN_RES GLU D 570
REMARK  3 active torsions:
REMARK  status: ('A' for Active; 'I' for Inactive)
REMARK    5  A    between atoms: CA   and  CB  
REMARK    6  A    between atoms: CB   and  CG  
REMARK    7  A    between atoms: CG   and  CD  
ROOT
ATOM     14  CA  GLU D 570     -18.033  -6.348 -13.375  1.00 32.92     0.160 C 
ENDROOT
BRANCH  14  15
ATOM     15  CB  GLU D 570     -19.500  -6.345 -13.794  1.00 32.92     0.043 C 
BRANCH  15  16
ATOM     16  CG  GLU D 570     -19.806  -6.032 -15.214  1.00 32.92     0.100 C 
BRANCH  16  17
ATOM     17  CD  GLU D 570     -20.587  -7.126 -15.903  1.00 32.92     0.185 C 
ATOM     18  OE1 GLU D 570     -21.161  -6.874 -16.980  1.00 32.92    -0.647 OA
ATOM     19  OE2 GLU D 570     -20.639  -8.244 -15.352  1.00 32.92    -0.647 OA
ENDBRANCH  16  17
ENDBRANCH  15  16
ENDBRANCH  14  15
END_RES GLU D 570
ENDMDL
MODEL 7
REMARK VINA RESULT:      -7.1      3.715     10.187
REMARK  16 active torsions:
REMARK  status: ('A' for Active; 'I' for Inactive)
REMARK    1  A    between atoms: C_2  and  C_3 
REMARK    2  A    between atoms: C_3  and  C_4 
REMARK    3  A    between atoms: C_4  and  C_5 
REMARK    4  A    between atoms: C_5  and  C_6 
REMARK    5  A    between atoms: C_6  and  C_7 
REMARK    6  A    between atoms: C_7  and  C_8 
REMARK    7  A    between atoms: C_8  and  O_10 
REMARK    8  A    between atoms: O_10  and  C_11 
REMARK    9  A    between atoms: C_18  and  O_19 
REMARK   10  A    between atoms: O_19  and  C_20 
REMARK   11  A    between atoms: C_20  and  C_22 
REMARK   12  A    between atoms: C_22  and  C_23 
REMARK   13  A    between atoms: C_23  and  C_24 
REMARK   14  A    between atoms: C_24  and  C_25 
REMARK   15  A    between atoms: C_25  and  C_26 
REMARK   16  A    between atoms: C_26  and  C_27 
ROOT
HETATM    1  C   UNL     1     -19.900 -10.823  -3.196  1.00  0.00     0.187 C 
HETATM    2  C   UNL     1     -18.870  -9.853  -2.638  1.00  0.00     0.203 C 
HETATM    3  O   UNL     1     -19.371  -8.518  -2.839  1.00  0.00    -0.378 OA
HETATM    4  C   UNL     1     -20.369  -8.543  -3.880  1.00  0.00     0.184 C 
HETATM    5  C   UNL     1     -20.571  -9.997  -4.286  1.00  0.00     0.184 C 
HETATM    6  O   UNL     1     -19.869 -10.194  -5.532  1.00  0.00    -0.378 OA
HETATM    7  C   UNL     1     -19.106  -9.007  -5.818  1.00  0.00     0.203 C 
HETATM    8  C   UNL     1     -19.827  -7.859  -5.130  1.00  0.00     0.187 C 
ENDROOT
BRANCH   1   9
HETATM    9  O   UNL     1     -20.851 -11.202  -2.179  1.00  0.00    -0.311 OA
BRANCH   9  10
HETATM   10  C   UNL     1     -21.941 -11.893  -2.646  1.00  0.00     0.259 C 
HETATM   11  O   UNL     1     -21.901 -13.005  -3.149  1.00  0.00    -0.265 OA
BRANCH  10  12
HETATM   12  C   UNL     1     -23.219 -11.125  -2.392  1.00  0.00     0.111 C 
BRANCH  12  13
HETATM   13  C   UNL     1     -23.924 -11.626  -1.134  1.00  0.00     0.010 C 
BRANCH  13  14
HETATM   14  C   UNL     1     -23.401 -10.964   0.142  1.00  0.00     0.000 C 
BRANCH  14  15
HETATM   15  C   UNL     1     -23.503  -9.442   0.039  1.00  0.00     0.000 C 
BRANCH  15  16
HETATM   16  C   UNL     1     -22.292  -8.758   0.672  1.00  0.00    -0.000 C 
BRANCH  16  17
HETATM   17  C   UNL     1     -21.492  -7.968  -0.363  1.00  0.00    -0.005 C 
HETATM   18  C   UNL     1     -22.349  -6.896  -1.017  1.00  0.00     0.005 C 
ENDBRANCH  16  17
ENDBRANCH  15  16
ENDBRANCH  14  15
ENDBRANCH  13  14
ENDBRANCH  12  13
ENDBRANCH  10  12
ENDBRANCH   9  10
ENDBRANCH   1   9
BRANCH   8  19
HETATM   19  O   UNL     1     -20.895  -7.363  -5.963  1.00  0.00    -0.311 OA
BRANCH  19  20
HETATM   20  C   UNL     1     -21.468  -6.212  -5.489  1.00  0.00     0.259 C 
HETATM   21  O   UNL     1     -22.643  -6.096  -5.171  1.00  0.00    -0.265 OA
BRANCH  20  22
HETATM   22  C   UNL     1     -20.454  -5.104  -5.356  1.00  0.00     0.111 C 
BRANCH  22  23
HETATM   23  C   UNL     1     -20.014  -4.586  -6.725  1.00  0.00     0.010 C 
BRANCH  23  24
HETATM   24  C   UNL     1     -21.196  -4.141  -7.590  1.00  0.00     0.000 C 
BRANCH  24  25
HETATM   25  C   UNL     1     -21.090  -4.722  -9.001  1.00  0.00     0.000 C 
BRANCH  25  26
HETATM   26  C   UNL     1     -21.655  -3.757 -10.043  1.00  0.00    -0.000 C 
BRANCH  26  27
HETATM   27  C   UNL     1     -23.181  -3.700  -9.984  1.00  0.00    -0.005 C 
HETATM   28  C   UNL     1     -23.800  -4.978 -10.526  1.00  0.00     0.005 C 
ENDBRANCH  26  27
ENDBRANCH  25  26
ENDBRANCH  24  25
ENDBRANCH  23  24
ENDBRANCH  22  23
ENDBRANCH  20  22
ENDBRANCH  19  20
ENDBRANCH   8  19
TORSDOF 16
BEGIN_RES ARG D 557
REMARK  4 active torsions:
REMARK  status: ('A' for Active; 'I' for Inactive)
REMARK    1  A    between atoms: CA   and  CB  
REMARK    2  A    between atoms: CB   and  CG  
REMARK    3  A    between atoms: CG   and  CD  
REMARK    4  A    between atoms: CD   and  NE  
REMARK       I    between atoms: NE   and  CZ  
REMARK       I    between atoms: CZ   and  NH1 
REMARK       I    between atoms: CZ   and  NH2 
ROOT
ATOM      1  CA  ARG D 557     -26.217   2.705 -17.014  1.00 35.49     0.159 C 
ENDROOT
BRANCH   1   2
ATOM      2  CB  ARG D 557     -26.789   1.319 -17.183  1.00 35.49     0.034 C 
BRANCH   2   3
ATOM      3  CG  ARG D 557     -25.837   0.202 -17.145  1.00 35.49     0.027 C 
BRANCH   3   4
ATOM      4  CD  ARG D 557     -24.760   0.413 -16.151  1.00 35.49     0.116 C 
BRANCH   4   5
ATOM      5  NE  ARG D 557     -24.904  -0.445 -15.004  1.00 35.49    -0.212 N 
ATOM      6  CZ  ARG D 557     -24.088  -1.418 -14.665  1.00 35.49     0.666 C 
ATOM      7  NH1 ARG D 557     -23.020  -1.727 -15.376  1.00 35.49    -0.235 N 
ATOM      8  NH2 ARG D 557     -24.362  -2.081 -13.579  1.00 35.49    -0.235 N 
ATOM      9  HH  ARG D 557     -22.819  -1.303 -16.093  1.00 35.49     0.174 HD
ATOM     10  HH  ARG D 557     -22.522  -2.370 -15.105  1.00 35.49     0.174 HD
ATOM     11  HH  ARG D 557     -25.055  -1.854 -13.136  1.00 35.49     0.174 HD
ATOM     12  HH  ARG D 557     -23.857  -2.713 -13.326  1.00 35.49     0.174 HD
ATOM     13  HE  ARG D 557     -25.605  -0.363 -14.530  1.00 35.49     0.178 HD
ENDBRANCH   4   5
ENDBRANCH   3   4
ENDBRANCH   2   3
ENDBRANCH   1   2
END_RES ARG D 557
BEGIN_RES GLU D 570
REMARK  3 active torsions:
REMARK  status: ('A' for Active; 'I' for Inactive)
REMARK    5  A    between atoms: CA   and  CB  
REMARK    6  A    between atoms: CB   and  CG  
REMARK    7  A    between atoms: CG   and  CD  
ROOT
ATOM     14  CA  GLU D 570     -18.033  -6.348 -13.375  1.00 32.92     0.160 C 
ENDROOT
BRANCH  14  15
ATOM     15  CB  GLU D 570     -19.500  -6.345 -13.794  1.00 32.92     0.043 C 
BRANCH  15  16
ATOM     16  CG  GLU D 570     -20.441  -5.527 -12.986  1.00 32.92     0.100 C 
BRANCH  16  17
ATOM     17  CD  GLU D 570     -21.745  -5.254 -13.698  1.00 32.92     0.185 C 
ATOM     18  OE1 GLU D 570     -22.259  -6.156 -14.387  1.00 32.92    -0.647 OA
ATOM     19  OE2 GLU D 570     -22.251  -4.120 -13.578  1.00 32.92    -0.647 OA
ENDBRANCH  16  17
ENDBRANCH  15  16
ENDBRANCH  14  15
END_RES GLU D 570
ENDMDL
MODEL 8
REMARK VINA RESULT:      -7.0      3.550      7.516
REMARK  16 active torsions:
REMARK  status: ('A' for Active; 'I' for Inactive)
REMARK    1  A    between atoms: C_2  and  C_3 
REMARK    2  A    between atoms: C_3  and  C_4 
REMARK    3  A    between atoms: C_4  and  C_5 
REMARK    4  A    between atoms: C_5  and  C_6 
REMARK    5  A    between atoms: C_6  and  C_7 
REMARK    6  A    between atoms: C_7  and  C_8 
REMARK    7  A    between atoms: C_8  and  O_10 
REMARK    8  A    between atoms: O_10  and  C_11 
REMARK    9  A    between atoms: C_18  and  O_19 
REMARK   10  A    between atoms: O_19  and  C_20 
REMARK   11  A    between atoms: C_20  and  C_22 
REMARK   12  A    between atoms: C_22  and  C_23 
REMARK   13  A    between atoms: C_23  and  C_24 
REMARK   14  A    between atoms: C_24  and  C_25 
REMARK   15  A    between atoms: C_25  and  C_26 
REMARK   16  A    between atoms: C_26  and  C_27 
ROOT
HETATM    1  C   UNL     1     -20.223  -7.966  -4.934  1.00  0.00     0.187 C 
HETATM    2  C   UNL     1     -19.233  -9.016  -5.416  1.00  0.00     0.203 C 
HETATM    3  O   UNL     1     -19.955 -10.247  -5.602  1.00  0.00    -0.378 OA
HETATM    4  C   UNL     1     -21.177 -10.195  -4.836  1.00  0.00     0.184 C 
HETATM    5  C   UNL     1     -21.267  -8.808  -4.212  1.00  0.00     0.184 C 
HETATM    6  O   UNL     1     -20.895  -8.939  -2.824  1.00  0.00    -0.378 OA
HETATM    7  C   UNL     1     -20.411 -10.278  -2.606  1.00  0.00     0.203 C 
HETATM    8  C   UNL     1     -21.085 -11.151  -3.653  1.00  0.00     0.187 C 
ENDROOT
BRANCH   1   9
HETATM    9  O   UNL     1     -20.810  -7.265  -6.050  1.00  0.00    -0.311 OA
BRANCH   9  10
HETATM   10  C   UNL     1     -21.318  -6.027  -5.742  1.00  0.00     0.259 C 
HETATM   11  O   UNL     1     -22.492  -5.793  -5.501  1.00  0.00    -0.265 OA
BRANCH  10  12
HETATM   12  C   UNL     1     -20.218  -4.992  -5.671  1.00  0.00     0.111 C 
BRANCH  12  13
HETATM   13  C   UNL     1     -19.717  -4.620  -7.064  1.00  0.00     0.010 C 
BRANCH  13  14
HETATM   14  C   UNL     1     -20.719  -3.767  -7.845  1.00  0.00     0.000 C 
BRANCH  14  15
HETATM   15  C   UNL     1     -20.743  -4.176  -9.318  1.00  0.00     0.000 C 
BRANCH  15  16
HETATM   16  C   UNL     1     -22.150  -4.565  -9.766  1.00  0.00    -0.000 C 
BRANCH  16  17
HETATM   17  C   UNL     1     -23.207  -4.083  -8.773  1.00  0.00    -0.005 C 
HETATM   18  C   UNL     1     -24.382  -3.440  -9.493  1.00  0.00     0.005 C 
ENDBRANCH  16  17
ENDBRANCH  15  16
ENDBRANCH  14  15
ENDBRANCH  13  14
ENDBRANCH  12  13
ENDBRANCH  10  12
ENDBRANCH   9  10
ENDBRANCH   1   9
BRANCH   8  19
HETATM   19  O   UNL     1     -22.393 -11.559  -3.203  1.00  0.00    -0.311 OA
BRANCH  19  20
HETATM   20  C   UNL     1     -22.394 -12.761  -2.545  1.00  0.00     0.259 C 
HETATM   21  O   UNL     1     -21.482 -13.576  -2.577  1.00  0.00    -0.265 OA
BRANCH  20  22
HETATM   22  C   UNL     1     -23.645 -12.942  -1.725  1.00  0.00     0.111 C 
BRANCH  22  23
HETATM   23  C   UNL     1     -23.470 -12.387  -0.312  1.00  0.00     0.010 C 
BRANCH  23  24
HETATM   24  C   UNL     1     -23.996 -10.957  -0.174  1.00  0.00     0.000 C 
BRANCH  24  25
HETATM   25  C   UNL     1     -22.844  -9.956  -0.079  1.00  0.00     0.000 C 
BRANCH  25  26
HETATM   26  C   UNL     1     -23.338  -8.581   0.369  1.00  0.00    -0.000 C 
BRANCH  26  27
HETATM   27  C   UNL     1     -22.223  -7.775   1.033  1.00  0.00    -0.005 C 
HETATM   28  C   UNL     1     -21.042  -8.662   1.392  1.00  0.00     0.005 C 
ENDBRANCH  26  27
ENDBRANCH  25  26
ENDBRANCH  24  25
ENDBRANCH  23  24
ENDBRANCH  22  23
ENDBRANCH  20  22
ENDBRANCH  19  20
ENDBRANCH   8  19
TORSDOF 16
BEGIN_RES ARG D 557
REMARK  4 active torsions:
REMARK  status: ('A' for Active; 'I' for Inactive)
REMARK    1  A    between atoms: CA   and  CB  
REMARK    2  A    between atoms: CB   and  CG  
REMARK    3  A    between atoms: CG   and  CD  
REMARK    4  A    between atoms: CD   and  NE  
REMARK       I    between atoms: NE   and  CZ  
REMARK       I    between atoms: CZ   and  NH1 
REMARK       I    between atoms: CZ   and  NH2 
ROOT
ATOM      1  CA  ARG D 557     -26.217   2.705 -17.014  1.00 35.49     0.159 C 
ENDROOT
BRANCH   1   2
ATOM      2  CB  ARG D 557     -26.789   1.319 -17.183  1.00 35.49     0.034 C 
BRANCH   2   3
ATOM      3  CG  ARG D 557     -28.229   1.227 -17.454  1.00 35.49     0.027 C 
BRANCH   3   4
ATOM      4  CD  ARG D 557     -28.921   0.307 -16.523  1.00 35.49     0.116 C 
BRANCH   4   5
ATOM      5  NE  ARG D 557     -29.289  -0.931 -17.157  1.00 35.49    -0.212 N 
ATOM      6  CZ  ARG D 557     -28.652  -2.074 -17.038  1.00 35.49     0.666 C 
ATOM      7  NH1 ARG D 557     -27.560  -2.205 -16.308  1.00 35.49    -0.235 N 
ATOM      8  NH2 ARG D 557     -29.141  -3.102 -17.668  1.00 35.49    -0.235 N 
ATOM      9  HH  ARG D 557     -27.222  -1.542 -15.883  1.00 35.49     0.174 HD
ATOM     10  HH  ARG D 557     -27.188  -2.976 -16.265  1.00 35.49     0.174 HD
ATOM     11  HH  ARG D 557     -29.852  -2.990 -18.126  1.00 35.49     0.174 HD
ATOM     12  HH  ARG D 557     -28.760  -3.858 -17.613  1.00 35.49     0.174 HD
ATOM     13  HE  ARG D 557     -29.940  -0.921 -17.704  1.00 35.49     0.178 HD
ENDBRANCH   4   5
ENDBRANCH   3   4
ENDBRANCH   2   3
ENDBRANCH   1   2
END_RES ARG D 557
BEGIN_RES GLU D 570
REMARK  3 active torsions:
REMARK  status: ('A' for Active; 'I' for Inactive)
REMARK    5  A    between atoms: CA   and  CB  
REMARK    6  A    between atoms: CB   and  CG  
REMARK    7  A    between atoms: CG   and  CD  
ROOT
ATOM     14  CA  GLU D 570     -18.033  -6.348 -13.375  1.00 32.92     0.160 C 
ENDROOT
BRANCH  14  15
ATOM     15  CB  GLU D 570     -19.500  -6.345 -13.794  1.00 32.92     0.043 C 
BRANCH  15  16
ATOM     16  CG  GLU D 570     -20.453  -5.586 -12.944  1.00 32.92     0.100 C 
BRANCH  16  17
ATOM     17  CD  GLU D 570     -21.715  -5.196 -13.678  1.00 32.92     0.185 C 
ATOM     18  OE1 GLU D 570     -22.174  -5.965 -14.544  1.00 32.92    -0.647 OA
ATOM     19  OE2 GLU D 570     -22.241  -4.101 -13.395  1.00 32.92    -0.647 OA
ENDBRANCH  16  17
ENDBRANCH  15  16
ENDBRANCH  14  15
END_RES GLU D 570
ENDMDL
MODEL 9
REMARK VINA RESULT:      -6.8      3.988      8.116
REMARK  16 active torsions:
REMARK  status: ('A' for Active; 'I' for Inactive)
REMARK    1  A    between atoms: C_2  and  C_3 
REMARK    2  A    between atoms: C_3  and  C_4 
REMARK    3  A    between atoms: C_4  and  C_5 
REMARK    4  A    between atoms: C_5  and  C_6 
REMARK    5  A    between atoms: C_6  and  C_7 
REMARK    6  A    between atoms: C_7  and  C_8 
REMARK    7  A    between atoms: C_8  and  O_10 
REMARK    8  A    between atoms: O_10  and  C_11 
REMARK    9  A    between atoms: C_18  and  O_19 
REMARK   10  A    between atoms: O_19  and  C_20 
REMARK   11  A    between atoms: C_20  and  C_22 
REMARK   12  A    between atoms: C_22  and  C_23 
REMARK   13  A    between atoms: C_23  and  C_24 
REMARK   14  A    between atoms: C_24  and  C_25 
REMARK   15  A    between atoms: C_25  and  C_26 
REMARK   16  A    between atoms: C_26  and  C_27 
ROOT
HETATM    1  C   UNL     1     -20.396  -8.786  -4.891  1.00  0.00     0.187 C 
HETATM    2  C   UNL     1     -20.402 -10.219  -5.404  1.00  0.00     0.203 C 
HETATM    3  O   UNL     1     -20.943 -11.055  -4.364  1.00  0.00    -0.378 OA
HETATM    4  C   UNL     1     -20.827 -10.368  -3.101  1.00  0.00     0.184 C 
HETATM    5  C   UNL     1     -20.267  -8.980  -3.384  1.00  0.00     0.184 C 
HETATM    6  O   UNL     1     -18.870  -9.000  -3.025  1.00  0.00    -0.378 OA
HETATM    7  C   UNL     1     -18.500 -10.357  -2.713  1.00  0.00     0.203 C 
HETATM    8  C   UNL     1     -19.769 -11.048  -2.240  1.00  0.00     0.187 C 
ENDROOT
BRANCH   1   9
HETATM    9  O   UNL     1     -21.631  -8.119  -5.220  1.00  0.00    -0.311 OA
BRANCH   9  10
HETATM   10  C   UNL     1     -21.565  -6.748  -5.186  1.00  0.00     0.259 C 
HETATM   11  O   UNL     1     -22.162  -6.039  -4.391  1.00  0.00    -0.265 OA
BRANCH  10  12
HETATM   12  C   UNL     1     -20.596  -6.226  -6.224  1.00  0.00     0.111 C 
BRANCH  12  13
HETATM   13  C   UNL     1     -20.349  -4.730  -6.046  1.00  0.00     0.010 C 
BRANCH  13  14
HETATM   14  C   UNL     1     -21.081  -3.882  -7.088  1.00  0.00     0.000 C 
BRANCH  14  15
HETATM   15  C   UNL     1     -21.414  -4.716  -8.325  1.00  0.00     0.000 C 
BRANCH  15  16
HETATM   16  C   UNL     1     -22.128  -3.881  -9.386  1.00  0.00    -0.000 C 
BRANCH  16  17
HETATM   17  C   UNL     1     -23.628  -3.788  -9.110  1.00  0.00    -0.005 C 
HETATM   18  C   UNL     1     -24.401  -3.470 -10.380  1.00  0.00     0.005 C 
ENDBRANCH  16  17
ENDBRANCH  15  16
ENDBRANCH  14  15
ENDBRANCH  13  14
ENDBRANCH  12  13
ENDBRANCH  10  12
ENDBRANCH   9  10
ENDBRANCH   1   9
BRANCH   8  19
HETATM   19  O   UNL     1     -19.989 -10.793  -0.837  1.00  0.00    -0.311 OA
BRANCH  19  20
HETATM   20  C   UNL     1     -19.579 -11.819  -0.026  1.00  0.00     0.259 C 
HETATM   21  O   UNL     1     -18.456 -11.933   0.442  1.00  0.00    -0.265 OA
BRANCH  20  22
HETATM   22  C   UNL     1     -20.706 -12.776   0.267  1.00  0.00     0.111 C 
BRANCH  22  23
HETATM   23  C   UNL     1     -21.986 -12.030   0.644  1.00  0.00     0.010 C 
BRANCH  23  24
HETATM   24  C   UNL     1     -23.123 -12.280  -0.348  1.00  0.00     0.000 C 
BRANCH  24  25
HETATM   25  C   UNL     1     -23.686 -10.960  -0.880  1.00  0.00     0.000 C 
BRANCH  25  26
HETATM   26  C   UNL     1     -23.595  -9.854   0.170  1.00  0.00    -0.000 C 
BRANCH  26  27
HETATM   27  C   UNL     1     -22.663  -8.730  -0.281  1.00  0.00    -0.005 C 
HETATM   28  C   UNL     1     -21.845  -8.194   0.883  1.00  0.00     0.005 C 
ENDBRANCH  26  27
ENDBRANCH  25  26
ENDBRANCH  24  25
ENDBRANCH  23  24
ENDBRANCH  22  23
ENDBRANCH  20  22
ENDBRANCH  19  20
ENDBRANCH   8  19
TORSDOF 16
BEGIN_RES ARG D 557
REMARK  4 active torsions:
REMARK  status: ('A' for Active; 'I' for Inactive)
REMARK    1  A    between atoms: CA   and  CB  
REMARK    2  A    between atoms: CB   and  CG  
REMARK    3  A    between atoms: CG   and  CD  
REMARK    4  A    between atoms: CD   and  NE  
REMARK       I    between atoms: NE   and  CZ  
REMARK       I    between atoms: CZ   and  NH1 
REMARK       I    between atoms: CZ   and  NH2 
ROOT
ATOM      1  CA  ARG D 557     -26.217   2.705 -17.014  1.00 35.49     0.159 C 
ENDROOT
BRANCH   1   2
ATOM      2  CB  ARG D 557     -26.789   1.319 -17.183  1.00 35.49     0.034 C 
BRANCH   2   3
ATOM      3  CG  ARG D 557     -25.935   0.197 -16.775  1.00 35.49     0.027 C 
BRANCH   3   4
ATOM      4  CD  ARG D 557     -26.690  -0.857 -16.060  1.00 35.49     0.116 C 
BRANCH   4   5
ATOM      5  NE  ARG D 557     -25.866  -1.575 -15.124  1.00 35.49    -0.212 N 
ATOM      6  CZ  ARG D 557     -25.948  -2.860 -14.857  1.00 35.49     0.666 C 
ATOM      7  NH1 ARG D 557     -26.837  -3.648 -15.432  1.00 35.49    -0.235 N 
ATOM      8  NH2 ARG D 557     -25.104  -3.348 -13.995  1.00 35.49    -0.235 N 
ATOM      9  HH  ARG D 557     -27.401  -3.348 -16.004  1.00 35.49     0.174 HD
ATOM     10  HH  ARG D 557     -26.842  -4.479 -15.220  1.00 35.49     0.174 HD
ATOM     11  HH  ARG D 557     -24.536  -2.817 -13.646  1.00 35.49     0.174 HD
ATOM     12  HH  ARG D 557     -25.123  -4.173 -13.800  1.00 35.49     0.174 HD
ATOM     13  HE  ARG D 557     -25.313  -1.131 -14.655  1.00 35.49     0.178 HD
ENDBRANCH   4   5
ENDBRANCH   3   4
ENDBRANCH   2   3
ENDBRANCH   1   2
END_RES ARG D 557
BEGIN_RES GLU D 570
REMARK  3 active torsions:
REMARK  status: ('A' for Active; 'I' for Inactive)
REMARK    5  A    between atoms: CA   and  CB  
REMARK    6  A    between atoms: CB   and  CG  
REMARK    7  A    between atoms: CG   and  CD  
ROOT
ATOM     14  CA  GLU D 570     -18.033  -6.348 -13.375  1.00 32.92     0.160 C 
ENDROOT
BRANCH  14  15
ATOM     15  CB  GLU D 570     -19.500  -6.345 -13.794  1.00 32.92     0.043 C 
BRANCH  15  16
ATOM     16  CG  GLU D 570     -20.441  -5.525 -12.988  1.00 32.92     0.100 C 
BRANCH  16  17
ATOM     17  CD  GLU D 570     -21.710  -5.181 -13.732  1.00 32.92     0.185 C 
ATOM     18  OE1 GLU D 570     -22.781  -5.110 -13.101  1.00 32.92    -0.647 OA
ATOM     19  OE2 GLU D 570     -21.634  -4.997 -14.963  1.00 32.92    -0.647 OA
ENDBRANCH  16  17
ENDBRANCH  15  16
ENDBRANCH  14  15
END_RES GLU D 570
ENDMDL
