MODEL 1
REMARK VINA RESULT:      -5.8      0.000      0.000
REMARK WARNING: 32 MAX_TORS EXCEEDED!!!
REMARK  80 active torsions:
REMARK  status: ('A' for Active; 'I' for Inactive)
REMARK    1  A    between atoms: C_2  and  C_3 
REMARK    2  A    between atoms: C_3  and  C_4 
REMARK    3  A    between atoms: C_4  and  C_5 
REMARK    4  A    between atoms: C_5  and  C_6 
REMARK    5  A    between atoms: C_6  and  C_7 
REMARK    6  A    between atoms: C_7  and  C_8 
REMARK    7  A    between atoms: C_8  and  C_9 
REMARK    8  A    between atoms: C_9  and  C_10 
REMARK    9  A    between atoms: C_10  and  C_11 
REMARK   10  A    between atoms: C_11  and  C_12 
REMARK   11  A    between atoms: C_12  and  O_13 
REMARK   12  A    between atoms: O_13  and  C_14 
REMARK   13  A    between atoms: C_14  and  C_15 
REMARK   14  A    between atoms: C_15  and  O_16 
REMARK   15  A    between atoms: O_16  and  C_17 
REMARK   16  A    between atoms: C_17  and  C_18 
REMARK   17  A    between atoms: C_18  and  O_19 
REMARK   18  A    between atoms: O_19  and  C_20 
REMARK   19  A    between atoms: C_20  and  C_21 
REMARK   20  A    between atoms: C_21  and  O_22 
REMARK   21  A    between atoms: O_22  and  C_23 
REMARK   22  A    between atoms: C_23  and  C_24 
REMARK   23  A    between atoms: C_24  and  O_25 
REMARK   24  A    between atoms: O_25  and  C_26 
REMARK   25  A    between atoms: C_26  and  C_27 
REMARK   26  A    between atoms: C_27  and  O_28 
REMARK   27  A    between atoms: O_28  and  C_29 
REMARK   28  A    between atoms: C_29  and  C_30 
REMARK   29  A    between atoms: C_30  and  O_31 
REMARK   30  A    between atoms: O_31  and  C_32 
REMARK   31  A    between atoms: C_32  and  C_33 
REMARK   32  A    between atoms: C_33  and  O_34 
REMARK   33  A    between atoms: O_34  and  C_35 
REMARK   34  A    between atoms: C_35  and  C_36 
REMARK   35  A    between atoms: C_36  and  O_37 
REMARK   36  A    between atoms: O_37  and  C_38 
REMARK   37  A    between atoms: C_38  and  C_39 
REMARK   38  A    between atoms: C_39  and  O_40 
REMARK   39  A    between atoms: O_40  and  C_41 
REMARK   40  A    between atoms: C_41  and  C_42 
REMARK   41  A    between atoms: C_42  and  O_43 
REMARK   42  A    between atoms: O_43  and  C_44 
REMARK   43  A    between atoms: C_44  and  C_45 
REMARK   44  A    between atoms: C_45  and  O_46 
REMARK   45  A    between atoms: O_46  and  C_47 
REMARK   46  A    between atoms: C_47  and  C_48 
REMARK   47  A    between atoms: C_48  and  O_49 
REMARK   48  A    between atoms: O_49  and  C_50 
REMARK   49  A    between atoms: C_50  and  C_51 
REMARK   50  A    between atoms: C_51  and  O_52 
REMARK   51  A    between atoms: O_52  and  C_53 
REMARK   52  A    between atoms: C_53  and  C_54 
REMARK   53  A    between atoms: C_54  and  O_55 
REMARK   54  A    between atoms: O_55  and  C_56 
REMARK   55  A    between atoms: C_56  and  C_57 
REMARK   56  A    between atoms: C_57  and  O_58 
REMARK   57  A    between atoms: O_58  and  C_59 
REMARK   58  A    between atoms: C_59  and  C_60 
REMARK   59  A    between atoms: C_60  and  O_61 
REMARK   60  A    between atoms: O_61  and  C_62 
REMARK   61  A    between atoms: C_62  and  C_63 
REMARK   62  A    between atoms: C_63  and  O_64 
REMARK   63  A    between atoms: O_64  and  C_65 
REMARK   64  A    between atoms: C_65  and  C_66 
REMARK   65  A    between atoms: C_66  and  O_67 
REMARK   66  A    between atoms: O_67  and  C_68 
REMARK   67  A    between atoms: C_68  and  C_69 
REMARK   68  A    between atoms: C_69  and  O_70 
REMARK   69  A    between atoms: O_70  and  C_71 
REMARK   70  A    between atoms: C_71  and  C_72 
REMARK   71  A    between atoms: C_72  and  O_73 
REMARK   72  A    between atoms: O_73  and  C_74 
REMARK   73  A    between atoms: C_74  and  C_75 
REMARK   74  A    between atoms: C_75  and  O_76 
REMARK   75  A    between atoms: O_76  and  C_77 
REMARK   76  A    between atoms: C_77  and  C_78 
REMARK   77  A    between atoms: C_78  and  O_79 
REMARK   78  A    between atoms: O_79  and  C_80 
REMARK   79  A    between atoms: C_80  and  C_81 
REMARK   80  A    between atoms: C_81  and  O_82 
ROOT
HETATM    1  C   UNL     1     -21.303  -7.429  -5.428  1.00  0.00     0.193 C 
ENDROOT
BRANCH   1   2
HETATM    2  C   UNL     1     -21.598  -6.435  -4.318  1.00  0.00     0.193 C 
BRANCH   2   3
HETATM    3  O   UNL     1     -21.604  -7.132  -3.073  1.00  0.00    -0.387 OA
BRANCH   3   4
HETATM    4  C   UNL     1     -21.960  -6.268  -2.003  1.00  0.00     0.193 C 
BRANCH   4   5
HETATM    5  C   UNL     1     -22.444  -7.105  -0.835  1.00  0.00     0.193 C 
BRANCH   5   6
HETATM    6  O   UNL     1     -21.333  -7.802  -0.287  1.00  0.00    -0.387 OA
BRANCH   6   7
HETATM    7  C   UNL     1     -21.664  -8.414   0.957  1.00  0.00     0.193 C 
BRANCH   7   8
HETATM    8  C   UNL     1     -20.817  -9.657   1.134  1.00  0.00     0.193 C 
BRANCH   8   9
HETATM    9  O   UNL     1     -20.964 -10.463  -0.023  1.00  0.00    -0.387 OA
BRANCH   9  10
HETATM   10  C   UNL     1     -22.221 -11.137  -0.025  1.00  0.00     0.193 C 
BRANCH  10  11
HETATM   11  C   UNL     1     -22.839 -11.037  -1.409  1.00  0.00     0.193 C 
BRANCH  11  12
HETATM   12  O   UNL     1     -23.061 -12.353  -1.914  1.00  0.00    -0.387 OA
BRANCH  12  13
HETATM   13  C   UNL     1     -21.835 -12.997  -2.244  1.00  0.00     0.193 C 
BRANCH  13  14
HETATM   14  C   UNL     1     -21.843 -13.337  -3.723  1.00  0.00     0.193 C 
BRANCH  14  15
HETATM   15  O   UNL     1     -22.703 -12.425  -4.392  1.00  0.00    -0.387 OA
BRANCH  15  16
HETATM   16  C   UNL     1     -21.961 -11.413  -5.063  1.00  0.00     0.193 C 
BRANCH  16  17
HETATM   17  C   UNL     1     -21.485 -11.959  -6.395  1.00  0.00     0.193 C 
BRANCH  17  18
HETATM   18  O   UNL     1     -20.340 -11.223  -6.793  1.00  0.00    -0.387 OA
BRANCH  18  19
HETATM   19  C   UNL     1     -19.407 -11.114  -5.725  1.00  0.00     0.193 C 
BRANCH  19  20
HETATM   20  C   UNL     1     -18.010 -11.074  -6.307  1.00  0.00     0.193 C 
BRANCH  20  21
HETATM   21  O   UNL     1     -17.467  -9.793  -6.038  1.00  0.00    -0.387 OA
BRANCH  21  22
HETATM   22  C   UNL     1     -16.053  -9.866  -5.852  1.00  0.00     0.193 C 
BRANCH  22  23
HETATM   23  C   UNL     1     -15.751 -10.322  -4.436  1.00  0.00     0.193 C 
BRANCH  23  24
HETATM   24  O   UNL     1     -16.554  -9.574  -3.531  1.00  0.00    -0.387 OA
BRANCH  24  25
HETATM   25  C   UNL     1     -16.834 -10.329  -2.356  1.00  0.00     0.193 C 
BRANCH  25  26
HETATM   26  C   UNL     1     -15.621 -11.174  -2.020  1.00  0.00     0.193 C 
BRANCH  26  27
HETATM   27  O   UNL     1     -16.020 -12.243  -1.166  1.00  0.00    -0.387 OA
BRANCH  27  28
HETATM   28  C   UNL     1     -15.752 -11.932   0.191  1.00  0.00     0.193 C 
BRANCH  28  29
HETATM   29  C   UNL     1     -16.221 -13.097   1.036  1.00  0.00     0.193 C 
BRANCH  29  30
HETATM   30  O   UNL     1     -15.482 -14.252   0.665  1.00  0.00    -0.389 OA
BRANCH  30  31
HETATM   31  C   UNL     1     -14.120 -14.113   1.047  1.00  0.00     0.167 C 
BRANCH  31  32
HETATM   32  C   UNL     1     -13.274 -15.018   0.172  1.00  0.00     0.026 C 
BRANCH  32  33
HETATM   33  C   UNL     1     -12.750 -14.235  -1.020  1.00  0.00     0.002 C 
BRANCH  33  34
HETATM   34  C   UNL     1     -13.488 -14.625  -2.289  1.00  0.00     0.000 C 
BRANCH  34  35
HETATM   35  C   UNL     1     -13.040 -13.743  -3.444  1.00  0.00     0.000 C 
BRANCH  35  36
HETATM   36  C   UNL     1     -14.139 -13.650  -4.489  1.00  0.00     0.000 C 
BRANCH  36  37
HETATM   37  C   UNL     1     -15.380 -14.390  -4.013  1.00  0.00     0.000 C 
BRANCH  37  38
HETATM   38  C   UNL     1     -16.601 -13.913  -4.782  1.00  0.00     0.000 C 
BRANCH  38  39
HETATM   39  C   UNL     1     -17.153 -15.037  -5.644  1.00  0.00     0.000 C 
BRANCH  39  40
HETATM   40  C   UNL     1     -17.242 -14.593  -7.097  1.00  0.00    -0.000 C 
BRANCH  40  41
HETATM   41  C   UNL     1     -18.688 -14.605  -7.579  1.00  0.00    -0.005 C 
HETATM   42  C   UNL     1     -18.841 -13.759  -8.829  1.00  0.00     0.005 C 
ENDBRANCH  40  41
ENDBRANCH  39  40
ENDBRANCH  38  39
ENDBRANCH  37  38
ENDBRANCH  36  37
ENDBRANCH  35  36
ENDBRANCH  34  35
ENDBRANCH  33  34
ENDBRANCH  32  33
ENDBRANCH  31  32
ENDBRANCH  30  31
ENDBRANCH  29  30
ENDBRANCH  28  29
ENDBRANCH  27  28
ENDBRANCH  26  27
ENDBRANCH  25  26
ENDBRANCH  24  25
ENDBRANCH  23  24
ENDBRANCH  22  23
ENDBRANCH  21  22
ENDBRANCH  20  21
ENDBRANCH  19  20
ENDBRANCH  18  19
ENDBRANCH  17  18
ENDBRANCH  16  17
ENDBRANCH  15  16
ENDBRANCH  14  15
ENDBRANCH  13  14
ENDBRANCH  12  13
ENDBRANCH  11  12
ENDBRANCH  10  11
ENDBRANCH   9  10
ENDBRANCH   8   9
ENDBRANCH   7   8
ENDBRANCH   6   7
ENDBRANCH   5   6
ENDBRANCH   4   5
ENDBRANCH   3   4
ENDBRANCH   2   3
ENDBRANCH   1   2
BRANCH   1  43
HETATM   43  O   UNL     1     -20.705  -6.730  -6.519  1.00  0.00    -0.387 OA
BRANCH  43  44
HETATM   44  C   UNL     1     -20.342  -5.403  -6.143  1.00  0.00     0.193 C 
BRANCH  44  45
HETATM   45  C   UNL     1     -19.475  -4.801  -7.233  1.00  0.00     0.193 C 
BRANCH  45  46
HETATM   46  O   UNL     1     -20.287  -3.951  -8.035  1.00  0.00    -0.387 OA
BRANCH  46  47
HETATM   47  C   UNL     1     -20.402  -4.450  -9.365  1.00  0.00     0.193 C 
BRANCH  47  48
HETATM   48  C   UNL     1     -21.857  -4.387  -9.797  1.00  0.00     0.193 C 
BRANCH  48  49
HETATM   49  O   UNL     1     -22.623  -3.776  -8.760  1.00  0.00    -0.387 OA
BRANCH  49  50
HETATM   50  C   UNL     1     -23.993  -3.687  -9.128  1.00  0.00     0.193 C 
BRANCH  50  51
HETATM   51  C   UNL     1     -24.126  -4.119 -10.575  1.00  0.00     0.193 C 
BRANCH  51  52
HETATM   52  O   UNL     1     -24.667  -3.039 -11.326  1.00  0.00    -0.387 OA
BRANCH  52  53
HETATM   53  C   UNL     1     -23.891  -2.775 -12.486  1.00  0.00     0.193 C 
BRANCH  53  54
HETATM   54  C   UNL     1     -24.822  -2.666 -13.678  1.00  0.00     0.193 C 
BRANCH  54  55
HETATM   55  O   UNL     1     -24.421  -3.621 -14.649  1.00  0.00    -0.387 OA
BRANCH  55  56
HETATM   56  C   UNL     1     -23.265  -4.333 -14.224  1.00  0.00     0.193 C 
BRANCH  56  57
HETATM   57  C   UNL     1     -23.542  -5.819 -14.329  1.00  0.00     0.193 C 
BRANCH  57  58
HETATM   58  O   UNL     1     -23.748  -6.139 -15.700  1.00  0.00    -0.387 OA
BRANCH  58  59
HETATM   59  C   UNL     1     -24.741  -7.151 -15.850  1.00  0.00     0.193 C 
BRANCH  59  60
HETATM   60  C   UNL     1     -26.113  -6.501 -15.889  1.00  0.00     0.193 C 
BRANCH  60  61
HETATM   61  O   UNL     1     -27.070  -7.417 -15.369  1.00  0.00    -0.387 OA
BRANCH  61  62
HETATM   62  C   UNL     1     -28.341  -7.222 -15.974  1.00  0.00     0.193 C 
BRANCH  62  63
HETATM   63  C   UNL     1     -28.140  -6.482 -17.282  1.00  0.00     0.193 C 
BRANCH  63  64
HETATM   64  O   UNL     1     -29.171  -5.511 -17.418  1.00  0.00    -0.387 OA
BRANCH  64  65
HETATM   65  C   UNL     1     -30.181  -5.690 -16.434  1.00  0.00     0.193 C 
BRANCH  65  66
HETATM   66  C   UNL     1     -31.528  -5.413 -17.071  1.00  0.00     0.193 C 
BRANCH  66  67
HETATM   67  O   UNL     1     -31.963  -4.123 -16.658  1.00  0.00    -0.387 OA
BRANCH  67  68
HETATM   68  C   UNL     1     -33.348  -4.128 -16.322  1.00  0.00     0.193 C 
BRANCH  68  69
HETATM   69  C   UNL     1     -34.012  -2.904 -16.933  1.00  0.00     0.193 C 
BRANCH  69  70
HETATM   70  O   UNL     1     -34.850  -2.293 -15.954  1.00  0.00    -0.387 OA
BRANCH  70  71
HETATM   71  C   UNL     1     -35.632  -1.249 -16.522  1.00  0.00     0.193 C 
BRANCH  71  72
HETATM   72  C   UNL     1     -35.871  -0.192 -15.463  1.00  0.00     0.193 C 
BRANCH  72  73
HETATM   73  O   UNL     1     -34.619   0.213 -14.930  1.00  0.00    -0.387 OA
BRANCH  73  74
HETATM   74  C   UNL     1     -34.781   0.975 -13.741  1.00  0.00     0.193 C 
BRANCH  74  75
HETATM   75  C   UNL     1     -35.367   0.079 -12.665  1.00  0.00     0.193 C 
BRANCH  75  76
HETATM   76  O   UNL     1     -34.304  -0.565 -11.980  1.00  0.00    -0.387 OA
BRANCH  76  77
HETATM   77  C   UNL     1     -34.732  -1.790 -11.395  1.00  0.00     0.193 C 
BRANCH  77  78
HETATM   78  C   UNL     1     -33.534  -2.712 -11.264  1.00  0.00     0.193 C 
BRANCH  78  79
HETATM   79  O   UNL     1     -33.889  -3.816 -10.434  1.00  0.00    -0.387 OA
BRANCH  79  80
HETATM   80  C   UNL     1     -35.060  -4.474 -10.933  1.00  0.00     0.193 C 
BRANCH  80  81
HETATM   81  C   UNL     1     -34.640  -5.594 -11.878  1.00  0.00     0.190 C 
BRANCH  81  82
HETATM   82  O   UNL     1     -34.991  -5.271 -13.223  1.00  0.00    -0.399 OA
HETATM   83  H   UNL     1     -35.326  -4.354 -13.188  1.00  0.00     0.209 HD
ENDBRANCH  81  82
ENDBRANCH  80  81
ENDBRANCH  79  80
ENDBRANCH  78  79
ENDBRANCH  77  78
ENDBRANCH  76  77
ENDBRANCH  75  76
ENDBRANCH  74  75
ENDBRANCH  73  74
ENDBRANCH  72  73
ENDBRANCH  71  72
ENDBRANCH  70  71
ENDBRANCH  69  70
ENDBRANCH  68  69
ENDBRANCH  67  68
ENDBRANCH  66  67
ENDBRANCH  65  66
ENDBRANCH  64  65
ENDBRANCH  63  64
ENDBRANCH  62  63
ENDBRANCH  61  62
ENDBRANCH  60  61
ENDBRANCH  59  60
ENDBRANCH  58  59
ENDBRANCH  57  58
ENDBRANCH  56  57
ENDBRANCH  55  56
ENDBRANCH  54  55
ENDBRANCH  53  54
ENDBRANCH  52  53
ENDBRANCH  51  52
ENDBRANCH  50  51
ENDBRANCH  49  50
ENDBRANCH  48  49
ENDBRANCH  47  48
ENDBRANCH  46  47
ENDBRANCH  45  46
ENDBRANCH  44  45
ENDBRANCH  43  44
ENDBRANCH   1  43
TORSDOF 80
BEGIN_RES ARG D 557
REMARK  4 active torsions:
REMARK  status: ('A' for Active; 'I' for Inactive)
REMARK    1  A    between atoms: CA   and  CB  
REMARK    2  A    between atoms: CB   and  CG  
REMARK    3  A    between atoms: CG   and  CD  
REMARK    4  A    between atoms: CD   and  NE  
REMARK       I    between atoms: NE   and  CZ  
REMARK       I    between atoms: CZ   and  NH1 
REMARK       I    between atoms: CZ   and  NH2 
ROOT
ATOM      1  CA  ARG D 557     -26.217   2.705 -17.014  1.00 35.49     0.159 C 
ENDROOT
BRANCH   1   2
ATOM      2  CB  ARG D 557     -26.789   1.319 -17.183  1.00 35.49     0.034 C 
BRANCH   2   3
ATOM      3  CG  ARG D 557     -28.210   1.230 -17.540  1.00 35.49     0.027 C 
BRANCH   3   4
ATOM      4  CD  ARG D 557     -28.953   0.292 -16.668  1.00 35.49     0.116 C 
BRANCH   4   5
ATOM      5  NE  ARG D 557     -28.179  -0.877 -16.344  1.00 35.49    -0.212 N 
ATOM      6  CZ  ARG D 557     -28.433  -2.102 -16.746  1.00 35.49     0.666 C 
ATOM      7  NH1 ARG D 557     -29.472  -2.399 -17.504  1.00 35.49    -0.235 N 
ATOM      8  NH2 ARG D 557     -27.610  -3.039 -16.372  1.00 35.49    -0.235 N 
ATOM      9  HH  ARG D 557     -30.025  -1.798 -17.763  1.00 35.49     0.174 HD
ATOM     10  HH  ARG D 557     -29.586  -3.216 -17.737  1.00 35.49     0.174 HD
ATOM     11  HH  ARG D 557     -26.943  -2.817 -15.889  1.00 35.49     0.174 HD
ATOM     12  HH  ARG D 557     -27.739  -3.841 -16.615  1.00 35.49     0.174 HD
ATOM     13  HE  ARG D 557     -27.532  -0.789 -15.800  1.00 35.49     0.178 HD
ENDBRANCH   4   5
ENDBRANCH   3   4
ENDBRANCH   2   3
ENDBRANCH   1   2
END_RES ARG D 557
BEGIN_RES GLU D 570
REMARK  3 active torsions:
REMARK  status: ('A' for Active; 'I' for Inactive)
REMARK    5  A    between atoms: CA   and  CB  
REMARK    6  A    between atoms: CB   and  CG  
REMARK    7  A    between atoms: CG   and  CD  
ROOT
ATOM     14  CA  GLU D 570     -18.033  -6.348 -13.375  1.00 32.92     0.160 C 
ENDROOT
BRANCH  14  15
ATOM     15  CB  GLU D 570     -19.500  -6.345 -13.794  1.00 32.92     0.043 C 
BRANCH  15  16
ATOM     16  CG  GLU D 570     -19.863  -5.570 -15.009  1.00 32.92     0.100 C 
BRANCH  16  17
ATOM     17  CD  GLU D 570     -20.446  -6.432 -16.105  1.00 32.92     0.185 C 
ATOM     18  OE1 GLU D 570     -20.643  -5.931 -17.228  1.00 32.92    -0.647 OA
ATOM     19  OE2 GLU D 570     -20.724  -7.616 -15.832  1.00 32.92    -0.647 OA
ENDBRANCH  16  17
ENDBRANCH  15  16
ENDBRANCH  14  15
END_RES GLU D 570
ENDMDL
MODEL 2
REMARK VINA RESULT:      -5.6      1.862      3.545
REMARK WARNING: 32 MAX_TORS EXCEEDED!!!
REMARK  80 active torsions:
REMARK  status: ('A' for Active; 'I' for Inactive)
REMARK    1  A    between atoms: C_2  and  C_3 
REMARK    2  A    between atoms: C_3  and  C_4 
REMARK    3  A    between atoms: C_4  and  C_5 
REMARK    4  A    between atoms: C_5  and  C_6 
REMARK    5  A    between atoms: C_6  and  C_7 
REMARK    6  A    between atoms: C_7  and  C_8 
REMARK    7  A    between atoms: C_8  and  C_9 
REMARK    8  A    between atoms: C_9  and  C_10 
REMARK    9  A    between atoms: C_10  and  C_11 
REMARK   10  A    between atoms: C_11  and  C_12 
REMARK   11  A    between atoms: C_12  and  O_13 
REMARK   12  A    between atoms: O_13  and  C_14 
REMARK   13  A    between atoms: C_14  and  C_15 
REMARK   14  A    between atoms: C_15  and  O_16 
REMARK   15  A    between atoms: O_16  and  C_17 
REMARK   16  A    between atoms: C_17  and  C_18 
REMARK   17  A    between atoms: C_18  and  O_19 
REMARK   18  A    between atoms: O_19  and  C_20 
REMARK   19  A    between atoms: C_20  and  C_21 
REMARK   20  A    between atoms: C_21  and  O_22 
REMARK   21  A    between atoms: O_22  and  C_23 
REMARK   22  A    between atoms: C_23  and  C_24 
REMARK   23  A    between atoms: C_24  and  O_25 
REMARK   24  A    between atoms: O_25  and  C_26 
REMARK   25  A    between atoms: C_26  and  C_27 
REMARK   26  A    between atoms: C_27  and  O_28 
REMARK   27  A    between atoms: O_28  and  C_29 
REMARK   28  A    between atoms: C_29  and  C_30 
REMARK   29  A    between atoms: C_30  and  O_31 
REMARK   30  A    between atoms: O_31  and  C_32 
REMARK   31  A    between atoms: C_32  and  C_33 
REMARK   32  A    between atoms: C_33  and  O_34 
REMARK   33  A    between atoms: O_34  and  C_35 
REMARK   34  A    between atoms: C_35  and  C_36 
REMARK   35  A    between atoms: C_36  and  O_37 
REMARK   36  A    between atoms: O_37  and  C_38 
REMARK   37  A    between atoms: C_38  and  C_39 
REMARK   38  A    between atoms: C_39  and  O_40 
REMARK   39  A    between atoms: O_40  and  C_41 
REMARK   40  A    between atoms: C_41  and  C_42 
REMARK   41  A    between atoms: C_42  and  O_43 
REMARK   42  A    between atoms: O_43  and  C_44 
REMARK   43  A    between atoms: C_44  and  C_45 
REMARK   44  A    between atoms: C_45  and  O_46 
REMARK   45  A    between atoms: O_46  and  C_47 
REMARK   46  A    between atoms: C_47  and  C_48 
REMARK   47  A    between atoms: C_48  and  O_49 
REMARK   48  A    between atoms: O_49  and  C_50 
REMARK   49  A    between atoms: C_50  and  C_51 
REMARK   50  A    between atoms: C_51  and  O_52 
REMARK   51  A    between atoms: O_52  and  C_53 
REMARK   52  A    between atoms: C_53  and  C_54 
REMARK   53  A    between atoms: C_54  and  O_55 
REMARK   54  A    between atoms: O_55  and  C_56 
REMARK   55  A    between atoms: C_56  and  C_57 
REMARK   56  A    between atoms: C_57  and  O_58 
REMARK   57  A    between atoms: O_58  and  C_59 
REMARK   58  A    between atoms: C_59  and  C_60 
REMARK   59  A    between atoms: C_60  and  O_61 
REMARK   60  A    between atoms: O_61  and  C_62 
REMARK   61  A    between atoms: C_62  and  C_63 
REMARK   62  A    between atoms: C_63  and  O_64 
REMARK   63  A    between atoms: O_64  and  C_65 
REMARK   64  A    between atoms: C_65  and  C_66 
REMARK   65  A    between atoms: C_66  and  O_67 
REMARK   66  A    between atoms: O_67  and  C_68 
REMARK   67  A    between atoms: C_68  and  C_69 
REMARK   68  A    between atoms: C_69  and  O_70 
REMARK   69  A    between atoms: O_70  and  C_71 
REMARK   70  A    between atoms: C_71  and  C_72 
REMARK   71  A    between atoms: C_72  and  O_73 
REMARK   72  A    between atoms: O_73  and  C_74 
REMARK   73  A    between atoms: C_74  and  C_75 
REMARK   74  A    between atoms: C_75  and  O_76 
REMARK   75  A    between atoms: O_76  and  C_77 
REMARK   76  A    between atoms: C_77  and  C_78 
REMARK   77  A    between atoms: C_78  and  O_79 
REMARK   78  A    between atoms: O_79  and  C_80 
REMARK   79  A    between atoms: C_80  and  C_81 
REMARK   80  A    between atoms: C_81  and  O_82 
ROOT
HETATM    1  C   UNL     1     -21.960  -6.284  -5.262  1.00  0.00     0.193 C 
ENDROOT
BRANCH   1   2
HETATM    2  C   UNL     1     -21.648  -6.384  -3.778  1.00  0.00     0.193 C 
BRANCH   2   3
HETATM    3  O   UNL     1     -20.978  -7.620  -3.537  1.00  0.00    -0.387 OA
BRANCH   3   4
HETATM    4  C   UNL     1     -20.793  -7.841  -2.146  1.00  0.00     0.193 C 
BRANCH   4   5
HETATM    5  C   UNL     1     -20.025  -9.134  -1.951  1.00  0.00     0.193 C 
BRANCH   5   6
HETATM    6  O   UNL     1     -20.886 -10.083  -1.338  1.00  0.00    -0.387 OA
BRANCH   6   7
HETATM    7  C   UNL     1     -21.369  -9.613  -0.082  1.00  0.00     0.193 C 
BRANCH   7   8
HETATM    8  C   UNL     1     -20.798 -10.480   1.020  1.00  0.00     0.193 C 
BRANCH   8   9
HETATM    9  O   UNL     1     -20.607 -11.787   0.504  1.00  0.00    -0.387 OA
BRANCH   9  10
HETATM   10  C   UNL     1     -21.652 -12.663   0.921  1.00  0.00     0.193 C 
BRANCH  10  11
HETATM   11  C   UNL     1     -21.230 -14.099   0.666  1.00  0.00     0.193 C 
BRANCH  11  12
HETATM   12  O   UNL     1     -19.965 -14.102   0.009  1.00  0.00    -0.387 OA
BRANCH  12  13
HETATM   13  C   UNL     1     -19.040 -14.964   0.664  1.00  0.00     0.193 C 
BRANCH  13  14
HETATM   14  C   UNL     1     -18.436 -15.905  -0.362  1.00  0.00     0.193 C 
BRANCH  14  15
HETATM   15  O   UNL     1     -17.109 -15.481  -0.640  1.00  0.00    -0.387 OA
BRANCH  15  16
HETATM   16  C   UNL     1     -16.958 -15.123  -2.010  1.00  0.00     0.193 C 
BRANCH  16  17
HETATM   17  C   UNL     1     -16.473 -13.689  -2.088  1.00  0.00     0.193 C 
BRANCH  17  18
HETATM   18  O   UNL     1     -17.605 -12.835  -2.047  1.00  0.00    -0.387 OA
BRANCH  18  19
HETATM   19  C   UNL     1     -17.473 -11.862  -1.019  1.00  0.00     0.193 C 
BRANCH  19  20
HETATM   20  C   UNL     1     -16.003 -11.696  -0.698  1.00  0.00     0.193 C 
BRANCH  20  21
HETATM   21  O   UNL     1     -15.872 -11.639   0.712  1.00  0.00    -0.387 OA
BRANCH  21  22
HETATM   22  C   UNL     1     -14.921 -12.597   1.176  1.00  0.00     0.193 C 
BRANCH  22  23
HETATM   23  C   UNL     1     -15.620 -13.622   2.051  1.00  0.00     0.193 C 
BRANCH  23  24
HETATM   24  O   UNL     1     -15.050 -14.903   1.803  1.00  0.00    -0.387 OA
BRANCH  24  25
HETATM   25  C   UNL     1     -13.954 -14.804   0.900  1.00  0.00     0.193 C 
BRANCH  25  26
HETATM   26  C   UNL     1     -13.786 -16.134   0.191  1.00  0.00     0.193 C 
BRANCH  26  27
HETATM   27  O   UNL     1     -12.933 -15.957  -0.937  1.00  0.00    -0.387 OA
BRANCH  27  28
HETATM   28  C   UNL     1     -12.887 -14.595  -1.328  1.00  0.00     0.193 C 
BRANCH  28  29
HETATM   29  C   UNL     1     -12.546 -14.545  -2.801  1.00  0.00     0.193 C 
BRANCH  29  30
HETATM   30  O   UNL     1     -13.180 -13.410  -3.374  1.00  0.00    -0.389 OA
BRANCH  30  31
HETATM   31  C   UNL     1     -13.403 -13.614  -4.763  1.00  0.00     0.167 C 
BRANCH  31  32
HETATM   32  C   UNL     1     -13.617 -12.266  -5.425  1.00  0.00     0.026 C 
BRANCH  32  33
HETATM   33  C   UNL     1     -15.105 -12.009  -5.595  1.00  0.00     0.002 C 
BRANCH  33  34
HETATM   34  C   UNL     1     -15.424 -10.536  -5.407  1.00  0.00     0.000 C 
BRANCH  34  35
HETATM   35  C   UNL     1     -16.362 -10.352  -4.225  1.00  0.00     0.000 C 
BRANCH  35  36
HETATM   36  C   UNL     1     -17.608  -9.599  -4.658  1.00  0.00     0.000 C 
BRANCH  36  37
HETATM   37  C   UNL     1     -18.187 -10.222  -5.919  1.00  0.00     0.000 C 
BRANCH  37  38
HETATM   38  C   UNL     1     -19.335 -11.153  -5.564  1.00  0.00     0.000 C 
BRANCH  38  39
HETATM   39  C   UNL     1     -19.214 -12.457  -6.338  1.00  0.00     0.000 C 
BRANCH  39  40
HETATM   40  C   UNL     1     -18.824 -12.179  -7.783  1.00  0.00    -0.000 C 
BRANCH  40  41
HETATM   41  C   UNL     1     -17.650 -13.055  -8.204  1.00  0.00    -0.005 C 
HETATM   42  C   UNL     1     -18.110 -14.141  -9.159  1.00  0.00     0.005 C 
ENDBRANCH  40  41
ENDBRANCH  39  40
ENDBRANCH  38  39
ENDBRANCH  37  38
ENDBRANCH  36  37
ENDBRANCH  35  36
ENDBRANCH  34  35
ENDBRANCH  33  34
ENDBRANCH  32  33
ENDBRANCH  31  32
ENDBRANCH  30  31
ENDBRANCH  29  30
ENDBRANCH  28  29
ENDBRANCH  27  28
ENDBRANCH  26  27
ENDBRANCH  25  26
ENDBRANCH  24  25
ENDBRANCH  23  24
ENDBRANCH  22  23
ENDBRANCH  21  22
ENDBRANCH  20  21
ENDBRANCH  19  20
ENDBRANCH  18  19
ENDBRANCH  17  18
ENDBRANCH  16  17
ENDBRANCH  15  16
ENDBRANCH  14  15
ENDBRANCH  13  14
ENDBRANCH  12  13
ENDBRANCH  11  12
ENDBRANCH  10  11
ENDBRANCH   9  10
ENDBRANCH   8   9
ENDBRANCH   7   8
ENDBRANCH   6   7
ENDBRANCH   5   6
ENDBRANCH   4   5
ENDBRANCH   3   4
ENDBRANCH   2   3
ENDBRANCH   1   2
BRANCH   1  43
HETATM   43  O   UNL     1     -20.730  -6.277  -5.986  1.00  0.00    -0.387 OA
BRANCH  43  44
HETATM   44  C   UNL     1     -20.090  -5.006  -5.902  1.00  0.00     0.193 C 
BRANCH  44  45
HETATM   45  C   UNL     1     -19.323  -4.754  -7.186  1.00  0.00     0.193 C 
BRANCH  45  46
HETATM   46  O   UNL     1     -20.063  -3.834  -7.979  1.00  0.00    -0.387 OA
BRANCH  46  47
HETATM   47  C   UNL     1     -20.617  -4.469  -9.128  1.00  0.00     0.193 C 
BRANCH  47  48
HETATM   48  C   UNL     1     -22.106  -4.677  -8.913  1.00  0.00     0.193 C 
BRANCH  48  49
HETATM   49  O   UNL     1     -22.758  -3.409  -8.922  1.00  0.00    -0.387 OA
BRANCH  49  50
HETATM   50  C   UNL     1     -24.076  -3.520  -9.441  1.00  0.00     0.193 C 
BRANCH  50  51
HETATM   51  C   UNL     1     -23.983  -4.029 -10.867  1.00  0.00     0.193 C 
BRANCH  51  52
HETATM   52  O   UNL     1     -23.421  -3.006 -11.680  1.00  0.00    -0.387 OA
BRANCH  52  53
HETATM   53  C   UNL     1     -22.441  -3.528 -12.566  1.00  0.00     0.193 C 
BRANCH  53  54
HETATM   54  C   UNL     1     -22.711  -2.994 -13.959  1.00  0.00     0.193 C 
BRANCH  54  55
HETATM   55  O   UNL     1     -23.123  -4.076 -14.780  1.00  0.00    -0.387 OA
BRANCH  55  56
HETATM   56  C   UNL     1     -23.031  -5.314 -14.086  1.00  0.00     0.193 C 
BRANCH  56  57
HETATM   57  C   UNL     1     -24.114  -6.243 -14.600  1.00  0.00     0.193 C 
BRANCH  57  58
HETATM   58  O   UNL     1     -24.371  -5.918 -15.960  1.00  0.00    -0.387 OA
BRANCH  58  59
HETATM   59  C   UNL     1     -25.075  -6.970 -16.617  1.00  0.00     0.193 C 
BRANCH  59  60
HETATM   60  C   UNL     1     -26.307  -6.396 -17.297  1.00  0.00     0.193 C 
BRANCH  60  61
HETATM   61  O   UNL     1     -27.426  -6.559 -16.433  1.00  0.00    -0.387 OA
BRANCH  61  62
HETATM   62  C   UNL     1     -28.644  -6.338 -17.132  1.00  0.00     0.193 C 
BRANCH  62  63
HETATM   63  C   UNL     1     -28.338  -5.544 -18.386  1.00  0.00     0.193 C 
BRANCH  63  64
HETATM   64  O   UNL     1     -29.469  -4.743 -18.703  1.00  0.00    -0.387 OA
BRANCH  64  65
HETATM   65  C   UNL     1     -29.759  -3.821 -17.661  1.00  0.00     0.193 C 
BRANCH  65  66
HETATM   66  C   UNL     1     -31.261  -3.646 -17.574  1.00  0.00     0.193 C 
BRANCH  66  67
HETATM   67  O   UNL     1     -31.800  -4.747 -16.851  1.00  0.00    -0.387 OA
BRANCH  67  68
HETATM   68  C   UNL     1     -33.119  -4.466 -16.391  1.00  0.00     0.193 C 
BRANCH  68  69
HETATM   69  C   UNL     1     -33.609  -3.181 -17.040  1.00  0.00     0.193 C 
BRANCH  69  70
HETATM   70  O   UNL     1     -34.828  -2.782 -16.417  1.00  0.00    -0.387 OA
BRANCH  70  71
HETATM   71  C   UNL     1     -35.007  -1.372 -16.485  1.00  0.00     0.193 C 
BRANCH  71  72
HETATM   72  C   UNL     1     -36.468  -1.081 -16.758  1.00  0.00     0.193 C 
BRANCH  72  73
HETATM   73  O   UNL     1     -36.765   0.231 -16.305  1.00  0.00    -0.387 OA
BRANCH  73  74
HETATM   74  C   UNL     1     -36.327   0.433 -14.968  1.00  0.00     0.193 C 
BRANCH  74  75
HETATM   75  C   UNL     1     -37.427  -0.014 -14.023  1.00  0.00     0.193 C 
BRANCH  75  76
HETATM   76  O   UNL     1     -36.927  -1.058 -13.202  1.00  0.00    -0.387 OA
BRANCH  76  77
HETATM   77  C   UNL     1     -36.041  -0.555 -12.207  1.00  0.00     0.193 C 
BRANCH  77  78
HETATM   78  C   UNL     1     -34.887  -1.527 -12.046  1.00  0.00     0.193 C 
BRANCH  78  79
HETATM   79  O   UNL     1     -35.361  -2.850 -12.288  1.00  0.00    -0.387 OA
BRANCH  79  80
HETATM   80  C   UNL     1     -34.326  -3.669 -12.846  1.00  0.00     0.193 C 
BRANCH  80  81
HETATM   81  C   UNL     1     -33.818  -4.631 -11.777  1.00  0.00     0.190 C 
BRANCH  81  82
HETATM   82  O   UNL     1     -34.351  -5.937 -11.987  1.00  0.00    -0.399 OA
HETATM   83  H   UNL     1     -35.039  -5.827 -12.671  1.00  0.00     0.209 HD
ENDBRANCH  81  82
ENDBRANCH  80  81
ENDBRANCH  79  80
ENDBRANCH  78  79
ENDBRANCH  77  78
ENDBRANCH  76  77
ENDBRANCH  75  76
ENDBRANCH  74  75
ENDBRANCH  73  74
ENDBRANCH  72  73
ENDBRANCH  71  72
ENDBRANCH  70  71
ENDBRANCH  69  70
ENDBRANCH  68  69
ENDBRANCH  67  68
ENDBRANCH  66  67
ENDBRANCH  65  66
ENDBRANCH  64  65
ENDBRANCH  63  64
ENDBRANCH  62  63
ENDBRANCH  61  62
ENDBRANCH  60  61
ENDBRANCH  59  60
ENDBRANCH  58  59
ENDBRANCH  57  58
ENDBRANCH  56  57
ENDBRANCH  55  56
ENDBRANCH  54  55
ENDBRANCH  53  54
ENDBRANCH  52  53
ENDBRANCH  51  52
ENDBRANCH  50  51
ENDBRANCH  49  50
ENDBRANCH  48  49
ENDBRANCH  47  48
ENDBRANCH  46  47
ENDBRANCH  45  46
ENDBRANCH  44  45
ENDBRANCH  43  44
ENDBRANCH   1  43
TORSDOF 80
BEGIN_RES ARG D 557
REMARK  4 active torsions:
REMARK  status: ('A' for Active; 'I' for Inactive)
REMARK    1  A    between atoms: CA   and  CB  
REMARK    2  A    between atoms: CB   and  CG  
REMARK    3  A    between atoms: CG   and  CD  
REMARK    4  A    between atoms: CD   and  NE  
REMARK       I    between atoms: NE   and  CZ  
REMARK       I    between atoms: CZ   and  NH1 
REMARK       I    between atoms: CZ   and  NH2 
ROOT
ATOM      1  CA  ARG D 557     -26.217   2.705 -17.014  1.00 35.49     0.159 C 
ENDROOT
BRANCH   1   2
ATOM      2  CB  ARG D 557     -26.789   1.319 -17.183  1.00 35.49     0.034 C 
BRANCH   2   3
ATOM      3  CG  ARG D 557     -26.002   0.208 -16.634  1.00 35.49     0.027 C 
BRANCH   3   4
ATOM      4  CD  ARG D 557     -26.851  -0.930 -16.213  1.00 35.49     0.116 C 
BRANCH   4   5
ATOM      5  NE  ARG D 557     -26.397  -1.518 -14.980  1.00 35.49    -0.212 N 
ATOM      6  CZ  ARG D 557     -26.349  -2.805 -14.715  1.00 35.49     0.666 C 
ATOM      7  NH1 ARG D 557     -26.740  -3.722 -15.579  1.00 35.49    -0.235 N 
ATOM      8  NH2 ARG D 557     -25.889  -3.160 -13.550  1.00 35.49    -0.235 N 
ATOM      9  HH  ARG D 557     -27.044  -3.511 -16.352  1.00 35.49     0.174 HD
ATOM     10  HH  ARG D 557     -26.683  -4.546 -15.352  1.00 35.49     0.174 HD
ATOM     11  HH  ARG D 557     -25.637  -2.546 -13.015  1.00 35.49     0.174 HD
ATOM     12  HH  ARG D 557     -25.839  -3.981 -13.344  1.00 35.49     0.174 HD
ATOM     13  HE  ARG D 557     -26.194  -0.997 -14.340  1.00 35.49     0.178 HD
ENDBRANCH   4   5
ENDBRANCH   3   4
ENDBRANCH   2   3
ENDBRANCH   1   2
END_RES ARG D 557
BEGIN_RES GLU D 570
REMARK  3 active torsions:
REMARK  status: ('A' for Active; 'I' for Inactive)
REMARK    5  A    between atoms: CA   and  CB  
REMARK    6  A    between atoms: CB   and  CG  
REMARK    7  A    between atoms: CG   and  CD  
ROOT
ATOM     14  CA  GLU D 570     -18.033  -6.348 -13.375  1.00 32.92     0.160 C 
ENDROOT
BRANCH  14  15
ATOM     15  CB  GLU D 570     -19.500  -6.345 -13.794  1.00 32.92     0.043 C 
BRANCH  15  16
ATOM     16  CG  GLU D 570     -19.798  -6.188 -15.241  1.00 32.92     0.100 C 
BRANCH  16  17
ATOM     17  CD  GLU D 570     -20.665  -7.298 -15.788  1.00 32.92     0.185 C 
ATOM     18  OE1 GLU D 570     -20.689  -8.394 -15.197  1.00 32.92    -0.647 OA
ATOM     19  OE2 GLU D 570     -21.313  -7.074 -16.829  1.00 32.92    -0.647 OA
ENDBRANCH  16  17
ENDBRANCH  15  16
ENDBRANCH  14  15
END_RES GLU D 570
ENDMDL
MODEL 3
REMARK VINA RESULT:      -5.5      1.936      3.892
REMARK WARNING: 32 MAX_TORS EXCEEDED!!!
REMARK  80 active torsions:
REMARK  status: ('A' for Active; 'I' for Inactive)
REMARK    1  A    between atoms: C_2  and  C_3 
REMARK    2  A    between atoms: C_3  and  C_4 
REMARK    3  A    between atoms: C_4  and  C_5 
REMARK    4  A    between atoms: C_5  and  C_6 
REMARK    5  A    between atoms: C_6  and  C_7 
REMARK    6  A    between atoms: C_7  and  C_8 
REMARK    7  A    between atoms: C_8  and  C_9 
REMARK    8  A    between atoms: C_9  and  C_10 
REMARK    9  A    between atoms: C_10  and  C_11 
REMARK   10  A    between atoms: C_11  and  C_12 
REMARK   11  A    between atoms: C_12  and  O_13 
REMARK   12  A    between atoms: O_13  and  C_14 
REMARK   13  A    between atoms: C_14  and  C_15 
REMARK   14  A    between atoms: C_15  and  O_16 
REMARK   15  A    between atoms: O_16  and  C_17 
REMARK   16  A    between atoms: C_17  and  C_18 
REMARK   17  A    between atoms: C_18  and  O_19 
REMARK   18  A    between atoms: O_19  and  C_20 
REMARK   19  A    between atoms: C_20  and  C_21 
REMARK   20  A    between atoms: C_21  and  O_22 
REMARK   21  A    between atoms: O_22  and  C_23 
REMARK   22  A    between atoms: C_23  and  C_24 
REMARK   23  A    between atoms: C_24  and  O_25 
REMARK   24  A    between atoms: O_25  and  C_26 
REMARK   25  A    between atoms: C_26  and  C_27 
REMARK   26  A    between atoms: C_27  and  O_28 
REMARK   27  A    between atoms: O_28  and  C_29 
REMARK   28  A    between atoms: C_29  and  C_30 
REMARK   29  A    between atoms: C_30  and  O_31 
REMARK   30  A    between atoms: O_31  and  C_32 
REMARK   31  A    between atoms: C_32  and  C_33 
REMARK   32  A    between atoms: C_33  and  O_34 
REMARK   33  A    between atoms: O_34  and  C_35 
REMARK   34  A    between atoms: C_35  and  C_36 
REMARK   35  A    between atoms: C_36  and  O_37 
REMARK   36  A    between atoms: O_37  and  C_38 
REMARK   37  A    between atoms: C_38  and  C_39 
REMARK   38  A    between atoms: C_39  and  O_40 
REMARK   39  A    between atoms: O_40  and  C_41 
REMARK   40  A    between atoms: C_41  and  C_42 
REMARK   41  A    between atoms: C_42  and  O_43 
REMARK   42  A    between atoms: O_43  and  C_44 
REMARK   43  A    between atoms: C_44  and  C_45 
REMARK   44  A    between atoms: C_45  and  O_46 
REMARK   45  A    between atoms: O_46  and  C_47 
REMARK   46  A    between atoms: C_47  and  C_48 
REMARK   47  A    between atoms: C_48  and  O_49 
REMARK   48  A    between atoms: O_49  and  C_50 
REMARK   49  A    between atoms: C_50  and  C_51 
REMARK   50  A    between atoms: C_51  and  O_52 
REMARK   51  A    between atoms: O_52  and  C_53 
REMARK   52  A    between atoms: C_53  and  C_54 
REMARK   53  A    between atoms: C_54  and  O_55 
REMARK   54  A    between atoms: O_55  and  C_56 
REMARK   55  A    between atoms: C_56  and  C_57 
REMARK   56  A    between atoms: C_57  and  O_58 
REMARK   57  A    between atoms: O_58  and  C_59 
REMARK   58  A    between atoms: C_59  and  C_60 
REMARK   59  A    between atoms: C_60  and  O_61 
REMARK   60  A    between atoms: O_61  and  C_62 
REMARK   61  A    between atoms: C_62  and  C_63 
REMARK   62  A    between atoms: C_63  and  O_64 
REMARK   63  A    between atoms: O_64  and  C_65 
REMARK   64  A    between atoms: C_65  and  C_66 
REMARK   65  A    between atoms: C_66  and  O_67 
REMARK   66  A    between atoms: O_67  and  C_68 
REMARK   67  A    between atoms: C_68  and  C_69 
REMARK   68  A    between atoms: C_69  and  O_70 
REMARK   69  A    between atoms: O_70  and  C_71 
REMARK   70  A    between atoms: C_71  and  C_72 
REMARK   71  A    between atoms: C_72  and  O_73 
REMARK   72  A    between atoms: O_73  and  C_74 
REMARK   73  A    between atoms: C_74  and  C_75 
REMARK   74  A    between atoms: C_75  and  O_76 
REMARK   75  A    between atoms: O_76  and  C_77 
REMARK   76  A    between atoms: C_77  and  C_78 
REMARK   77  A    between atoms: C_78  and  O_79 
REMARK   78  A    between atoms: O_79  and  C_80 
REMARK   79  A    between atoms: C_80  and  C_81 
REMARK   80  A    between atoms: C_81  and  O_82 
ROOT
HETATM    1  C   UNL     1     -21.625  -6.564  -5.443  1.00  0.00     0.193 C 
ENDROOT
BRANCH   1   2
HETATM    2  C   UNL     1     -21.093  -7.803  -4.744  1.00  0.00     0.193 C 
BRANCH   2   3
HETATM    3  O   UNL     1     -21.009  -7.535  -3.345  1.00  0.00    -0.387 OA
BRANCH   3   4
HETATM    4  C   UNL     1     -21.591  -6.278  -3.028  1.00  0.00     0.193 C 
BRANCH   4   5
HETATM    5  C   UNL     1     -22.240  -6.368  -1.660  1.00  0.00     0.193 C 
BRANCH   5   6
HETATM    6  O   UNL     1     -22.332  -7.738  -1.293  1.00  0.00    -0.387 OA
BRANCH   6   7
HETATM    7  C   UNL     1     -22.771  -7.887   0.055  1.00  0.00     0.193 C 
BRANCH   7   8
HETATM    8  C   UNL     1     -21.595  -8.301   0.913  1.00  0.00     0.193 C 
BRANCH   8   9
HETATM    9  O   UNL     1     -20.861  -9.293   0.212  1.00  0.00    -0.387 OA
BRANCH   9  10
HETATM   10  C   UNL     1     -20.786 -10.504   0.962  1.00  0.00     0.193 C 
BRANCH  10  11
HETATM   11  C   UNL     1     -19.717 -11.398   0.361  1.00  0.00     0.193 C 
BRANCH  11  12
HETATM   12  O   UNL     1     -19.988 -11.578  -1.027  1.00  0.00    -0.387 OA
BRANCH  12  13
HETATM   13  C   UNL     1     -19.844 -12.941  -1.413  1.00  0.00     0.193 C 
BRANCH  13  14
HETATM   14  C   UNL     1     -19.263 -13.721  -0.248  1.00  0.00     0.193 C 
BRANCH  14  15
HETATM   15  O   UNL     1     -19.983 -14.938  -0.115  1.00  0.00    -0.387 OA
BRANCH  15  16
HETATM   16  C   UNL     1     -20.532 -15.073   1.191  1.00  0.00     0.193 C 
BRANCH  16  17
HETATM   17  C   UNL     1     -22.034 -14.888   1.110  1.00  0.00     0.193 C 
BRANCH  17  18
HETATM   18  O   UNL     1     -22.346 -13.583   1.570  1.00  0.00    -0.387 OA
BRANCH  18  19
HETATM   19  C   UNL     1     -23.397 -13.009   0.803  1.00  0.00     0.193 C 
BRANCH  19  20
HETATM   20  C   UNL     1     -23.646 -13.885  -0.406  1.00  0.00     0.193 C 
BRANCH  20  21
HETATM   21  O   UNL     1     -23.345 -13.123  -1.562  1.00  0.00    -0.387 OA
BRANCH  21  22
HETATM   22  C   UNL     1     -23.464 -11.724  -1.297  1.00  0.00     0.193 C 
BRANCH  22  23
HETATM   23  C   UNL     1     -23.117 -10.939  -2.549  1.00  0.00     0.193 C 
BRANCH  23  24
HETATM   24  O   UNL     1     -22.740 -11.853  -3.574  1.00  0.00    -0.387 OA
BRANCH  24  25
HETATM   25  C   UNL     1     -21.543 -11.429  -4.217  1.00  0.00     0.193 C 
BRANCH  25  26
HETATM   26  C   UNL     1     -21.647 -11.745  -5.697  1.00  0.00     0.193 C 
BRANCH  26  27
HETATM   27  O   UNL     1     -20.559 -11.132  -6.382  1.00  0.00    -0.387 OA
BRANCH  27  28
HETATM   28  C   UNL     1     -19.740 -12.107  -7.006  1.00  0.00     0.193 C 
BRANCH  28  29
HETATM   29  C   UNL     1     -18.618 -12.453  -6.051  1.00  0.00     0.193 C 
BRANCH  29  30
HETATM   30  O   UNL     1     -17.395 -11.984  -6.602  1.00  0.00    -0.389 OA
BRANCH  30  31
HETATM   31  C   UNL     1     -16.898 -10.887  -5.846  1.00  0.00     0.167 C 
BRANCH  31  32
HETATM   32  C   UNL     1     -15.395 -11.034  -5.704  1.00  0.00     0.026 C 
BRANCH  32  33
HETATM   33  C   UNL     1     -14.893 -12.104  -6.659  1.00  0.00     0.002 C 
BRANCH  33  34
HETATM   34  C   UNL     1     -13.617 -12.740  -6.134  1.00  0.00     0.000 C 
BRANCH  34  35
HETATM   35  C   UNL     1     -13.780 -14.250  -6.061  1.00  0.00     0.000 C 
BRANCH  35  36
HETATM   36  C   UNL     1     -15.216 -14.637  -6.369  1.00  0.00     0.000 C 
BRANCH  36  37
HETATM   37  C   UNL     1     -15.319 -16.138  -6.593  1.00  0.00     0.000 C 
BRANCH  37  38
HETATM   38  C   UNL     1     -16.360 -16.438  -7.659  1.00  0.00     0.000 C 
BRANCH  38  39
HETATM   39  C   UNL     1     -17.524 -15.465  -7.549  1.00  0.00     0.000 C 
BRANCH  39  40
HETATM   40  C   UNL     1     -18.042 -15.104  -8.934  1.00  0.00    -0.000 C 
BRANCH  40  41
HETATM   41  C   UNL     1     -18.282 -16.358  -9.766  1.00  0.00    -0.005 C 
HETATM   42  C   UNL     1     -17.990 -16.091 -11.230  1.00  0.00     0.005 C 
ENDBRANCH  40  41
ENDBRANCH  39  40
ENDBRANCH  38  39
ENDBRANCH  37  38
ENDBRANCH  36  37
ENDBRANCH  35  36
ENDBRANCH  34  35
ENDBRANCH  33  34
ENDBRANCH  32  33
ENDBRANCH  31  32
ENDBRANCH  30  31
ENDBRANCH  29  30
ENDBRANCH  28  29
ENDBRANCH  27  28
ENDBRANCH  26  27
ENDBRANCH  25  26
ENDBRANCH  24  25
ENDBRANCH  23  24
ENDBRANCH  22  23
ENDBRANCH  21  22
ENDBRANCH  20  21
ENDBRANCH  19  20
ENDBRANCH  18  19
ENDBRANCH  17  18
ENDBRANCH  16  17
ENDBRANCH  15  16
ENDBRANCH  14  15
ENDBRANCH  13  14
ENDBRANCH  12  13
ENDBRANCH  11  12
ENDBRANCH  10  11
ENDBRANCH   9  10
ENDBRANCH   8   9
ENDBRANCH   7   8
ENDBRANCH   6   7
ENDBRANCH   5   6
ENDBRANCH   4   5
ENDBRANCH   3   4
ENDBRANCH   2   3
ENDBRANCH   1   2
BRANCH   1  43
HETATM   43  O   UNL     1     -20.752  -6.241  -6.525  1.00  0.00    -0.387 OA
BRANCH  43  44
HETATM   44  C   UNL     1     -20.044  -5.030  -6.271  1.00  0.00     0.193 C 
BRANCH  44  45
HETATM   45  C   UNL     1     -19.356  -4.584  -7.547  1.00  0.00     0.193 C 
BRANCH  45  46
HETATM   46  O   UNL     1     -20.216  -3.680  -8.230  1.00  0.00    -0.387 OA
BRANCH  46  47
HETATM   47  C   UNL     1     -20.631  -4.210  -9.487  1.00  0.00     0.193 C 
BRANCH  47  48
HETATM   48  C   UNL     1     -22.099  -4.594  -9.405  1.00  0.00     0.193 C 
BRANCH  48  49
HETATM   49  O   UNL     1     -22.832  -3.507  -8.844  1.00  0.00    -0.387 OA
BRANCH  49  50
HETATM   50  C   UNL     1     -24.167  -3.491  -9.331  1.00  0.00     0.193 C 
BRANCH  50  51
HETATM   51  C   UNL     1     -24.158  -3.997 -10.760  1.00  0.00     0.193 C 
BRANCH  51  52
HETATM   52  O   UNL     1     -24.427  -2.906 -11.632  1.00  0.00    -0.387 OA
BRANCH  52  53
HETATM   53  C   UNL     1     -23.281  -2.557 -12.395  1.00  0.00     0.193 C 
BRANCH  53  54
HETATM   54  C   UNL     1     -23.732  -2.118 -13.775  1.00  0.00     0.193 C 
BRANCH  54  55
HETATM   55  O   UNL     1     -23.384  -3.132 -14.704  1.00  0.00    -0.387 OA
BRANCH  55  56
HETATM   56  C   UNL     1     -22.482  -4.070 -14.130  1.00  0.00     0.193 C 
BRANCH  56  57
HETATM   57  C   UNL     1     -23.115  -5.447 -14.177  1.00  0.00     0.193 C 
BRANCH  57  58
HETATM   58  O   UNL     1     -23.754  -5.601 -15.438  1.00  0.00    -0.387 OA
BRANCH  58  59
HETATM   59  C   UNL     1     -23.694  -6.954 -15.885  1.00  0.00     0.193 C 
BRANCH  59  60
HETATM   60  C   UNL     1     -25.037  -7.342 -16.479  1.00  0.00     0.193 C 
BRANCH  60  61
HETATM   61  O   UNL     1     -26.019  -7.316 -15.450  1.00  0.00    -0.387 OA
BRANCH  61  62
HETATM   62  C   UNL     1     -27.166  -6.584 -15.859  1.00  0.00     0.193 C 
BRANCH  62  63
HETATM   63  C   UNL     1     -28.395  -7.428 -15.584  1.00  0.00     0.193 C 
BRANCH  63  64
HETATM   64  O   UNL     1     -29.043  -7.704 -16.820  1.00  0.00    -0.387 OA
BRANCH  64  65
HETATM   65  C   UNL     1     -28.907  -6.619 -17.728  1.00  0.00     0.193 C 
BRANCH  65  66
HETATM   66  C   UNL     1     -30.240  -5.906 -17.832  1.00  0.00     0.193 C 
BRANCH  66  67
HETATM   67  O   UNL     1     -31.260  -6.795 -17.389  1.00  0.00    -0.387 OA
BRANCH  67  68
HETATM   68  C   UNL     1     -32.457  -6.092 -17.075  1.00  0.00     0.193 C 
BRANCH  68  69
HETATM   69  C   UNL     1     -32.146  -4.608 -16.958  1.00  0.00     0.193 C 
BRANCH  69  70
HETATM   70  O   UNL     1     -32.909  -4.056 -15.886  1.00  0.00    -0.387 OA
BRANCH  70  71
HETATM   71  C   UNL     1     -34.291  -3.988 -16.215  1.00  0.00     0.193 C 
BRANCH  71  72
HETATM   72  C   UNL     1     -34.635  -2.556 -16.572  1.00  0.00     0.193 C 
BRANCH  72  73
HETATM   73  O   UNL     1     -34.966  -1.856 -15.382  1.00  0.00    -0.387 OA
BRANCH  73  74
HETATM   74  C   UNL     1     -35.660  -0.648 -15.665  1.00  0.00     0.193 C 
BRANCH  74  75
HETATM   75  C   UNL     1     -34.947   0.497 -14.970  1.00  0.00     0.193 C 
BRANCH  75  76
HETATM   76  O   UNL     1     -34.770   0.160 -13.602  1.00  0.00    -0.387 OA
BRANCH  76  77
HETATM   77  C   UNL     1     -35.997   0.249 -12.884  1.00  0.00     0.193 C 
BRANCH  77  78
HETATM   78  C   UNL     1     -35.939  -0.701 -11.703  1.00  0.00     0.193 C 
BRANCH  78  79
HETATM   79  O   UNL     1     -34.610  -1.203 -11.578  1.00  0.00    -0.387 OA
BRANCH  79  80
HETATM   80  C   UNL     1     -34.611  -2.505 -10.979  1.00  0.00     0.193 C 
BRANCH  80  81
HETATM   81  C   UNL     1     -34.708  -3.560 -12.076  1.00  0.00     0.190 C 
BRANCH  81  82
HETATM   82  O   UNL     1     -33.649  -3.401 -13.018  1.00  0.00    -0.399 OA
HETATM   83  H   UNL     1     -32.834  -3.623 -12.528  1.00  0.00     0.209 HD
ENDBRANCH  81  82
ENDBRANCH  80  81
ENDBRANCH  79  80
ENDBRANCH  78  79
ENDBRANCH  77  78
ENDBRANCH  76  77
ENDBRANCH  75  76
ENDBRANCH  74  75
ENDBRANCH  73  74
ENDBRANCH  72  73
ENDBRANCH  71  72
ENDBRANCH  70  71
ENDBRANCH  69  70
ENDBRANCH  68  69
ENDBRANCH  67  68
ENDBRANCH  66  67
ENDBRANCH  65  66
ENDBRANCH  64  65
ENDBRANCH  63  64
ENDBRANCH  62  63
ENDBRANCH  61  62
ENDBRANCH  60  61
ENDBRANCH  59  60
ENDBRANCH  58  59
ENDBRANCH  57  58
ENDBRANCH  56  57
ENDBRANCH  55  56
ENDBRANCH  54  55
ENDBRANCH  53  54
ENDBRANCH  52  53
ENDBRANCH  51  52
ENDBRANCH  50  51
ENDBRANCH  49  50
ENDBRANCH  48  49
ENDBRANCH  47  48
ENDBRANCH  46  47
ENDBRANCH  45  46
ENDBRANCH  44  45
ENDBRANCH  43  44
ENDBRANCH   1  43
TORSDOF 80
BEGIN_RES ARG D 557
REMARK  4 active torsions:
REMARK  status: ('A' for Active; 'I' for Inactive)
REMARK    1  A    between atoms: CA   and  CB  
REMARK    2  A    between atoms: CB   and  CG  
REMARK    3  A    between atoms: CG   and  CD  
REMARK    4  A    between atoms: CD   and  NE  
REMARK       I    between atoms: NE   and  CZ  
REMARK       I    between atoms: CZ   and  NH1 
REMARK       I    between atoms: CZ   and  NH2 
ROOT
ATOM      1  CA  ARG D 557     -26.217   2.705 -17.014  1.00 35.49     0.159 C 
ENDROOT
BRANCH   1   2
ATOM      2  CB  ARG D 557     -26.789   1.319 -17.183  1.00 35.49     0.034 C 
BRANCH   2   3
ATOM      3  CG  ARG D 557     -28.217   1.153 -16.888  1.00 35.49     0.027 C 
BRANCH   3   4
ATOM      4  CD  ARG D 557     -28.615  -0.271 -16.803  1.00 35.49     0.116 C 
BRANCH   4   5
ATOM      5  NE  ARG D 557     -27.632  -1.068 -16.117  1.00 35.49    -0.212 N 
ATOM      6  CZ  ARG D 557     -27.507  -2.373 -16.202  1.00 35.49     0.666 C 
ATOM      7  NH1 ARG D 557     -28.310  -3.116 -16.940  1.00 35.49    -0.235 N 
ATOM      8  NH2 ARG D 557     -26.543  -2.929 -15.526  1.00 35.49    -0.235 N 
ATOM      9  HH  ARG D 557     -28.950  -2.771 -17.395  1.00 35.49     0.174 HD
ATOM     10  HH  ARG D 557     -28.179  -3.963 -16.959  1.00 35.49     0.174 HD
ATOM     11  HH  ARG D 557     -26.036  -2.424 -15.063  1.00 35.49     0.174 HD
ATOM     12  HH  ARG D 557     -26.429  -3.769 -15.558  1.00 35.49     0.174 HD
ATOM     13  HE  ARG D 557     -27.118  -0.678 -15.562  1.00 35.49     0.178 HD
ENDBRANCH   4   5
ENDBRANCH   3   4
ENDBRANCH   2   3
ENDBRANCH   1   2
END_RES ARG D 557
BEGIN_RES GLU D 570
REMARK  3 active torsions:
REMARK  status: ('A' for Active; 'I' for Inactive)
REMARK    5  A    between atoms: CA   and  CB  
REMARK    6  A    between atoms: CB   and  CG  
REMARK    7  A    between atoms: CG   and  CD  
ROOT
ATOM     14  CA  GLU D 570     -18.033  -6.348 -13.375  1.00 32.92     0.160 C 
ENDROOT
BRANCH  14  15
ATOM     15  CB  GLU D 570     -19.500  -6.345 -13.794  1.00 32.92     0.043 C 
BRANCH  15  16
ATOM     16  CG  GLU D 570     -20.077  -7.627 -14.274  1.00 32.92     0.100 C 
BRANCH  16  17
ATOM     17  CD  GLU D 570     -20.440  -7.598 -15.740  1.00 32.92     0.185 C 
ATOM     18  OE1 GLU D 570     -20.782  -8.657 -16.301  1.00 32.92    -0.647 OA
ATOM     19  OE2 GLU D 570     -20.366  -6.507 -16.339  1.00 32.92    -0.647 OA
ENDBRANCH  16  17
ENDBRANCH  15  16
ENDBRANCH  14  15
END_RES GLU D 570
ENDMDL
MODEL 4
REMARK VINA RESULT:      -5.5      2.031      4.772
REMARK WARNING: 32 MAX_TORS EXCEEDED!!!
REMARK  80 active torsions:
REMARK  status: ('A' for Active; 'I' for Inactive)
REMARK    1  A    between atoms: C_2  and  C_3 
REMARK    2  A    between atoms: C_3  and  C_4 
REMARK    3  A    between atoms: C_4  and  C_5 
REMARK    4  A    between atoms: C_5  and  C_6 
REMARK    5  A    between atoms: C_6  and  C_7 
REMARK    6  A    between atoms: C_7  and  C_8 
REMARK    7  A    between atoms: C_8  and  C_9 
REMARK    8  A    between atoms: C_9  and  C_10 
REMARK    9  A    between atoms: C_10  and  C_11 
REMARK   10  A    between atoms: C_11  and  C_12 
REMARK   11  A    between atoms: C_12  and  O_13 
REMARK   12  A    between atoms: O_13  and  C_14 
REMARK   13  A    between atoms: C_14  and  C_15 
REMARK   14  A    between atoms: C_15  and  O_16 
REMARK   15  A    between atoms: O_16  and  C_17 
REMARK   16  A    between atoms: C_17  and  C_18 
REMARK   17  A    between atoms: C_18  and  O_19 
REMARK   18  A    between atoms: O_19  and  C_20 
REMARK   19  A    between atoms: C_20  and  C_21 
REMARK   20  A    between atoms: C_21  and  O_22 
REMARK   21  A    between atoms: O_22  and  C_23 
REMARK   22  A    between atoms: C_23  and  C_24 
REMARK   23  A    between atoms: C_24  and  O_25 
REMARK   24  A    between atoms: O_25  and  C_26 
REMARK   25  A    between atoms: C_26  and  C_27 
REMARK   26  A    between atoms: C_27  and  O_28 
REMARK   27  A    between atoms: O_28  and  C_29 
REMARK   28  A    between atoms: C_29  and  C_30 
REMARK   29  A    between atoms: C_30  and  O_31 
REMARK   30  A    between atoms: O_31  and  C_32 
REMARK   31  A    between atoms: C_32  and  C_33 
REMARK   32  A    between atoms: C_33  and  O_34 
REMARK   33  A    between atoms: O_34  and  C_35 
REMARK   34  A    between atoms: C_35  and  C_36 
REMARK   35  A    between atoms: C_36  and  O_37 
REMARK   36  A    between atoms: O_37  and  C_38 
REMARK   37  A    between atoms: C_38  and  C_39 
REMARK   38  A    between atoms: C_39  and  O_40 
REMARK   39  A    between atoms: O_40  and  C_41 
REMARK   40  A    between atoms: C_41  and  C_42 
REMARK   41  A    between atoms: C_42  and  O_43 
REMARK   42  A    between atoms: O_43  and  C_44 
REMARK   43  A    between atoms: C_44  and  C_45 
REMARK   44  A    between atoms: C_45  and  O_46 
REMARK   45  A    between atoms: O_46  and  C_47 
REMARK   46  A    between atoms: C_47  and  C_48 
REMARK   47  A    between atoms: C_48  and  O_49 
REMARK   48  A    between atoms: O_49  and  C_50 
REMARK   49  A    between atoms: C_50  and  C_51 
REMARK   50  A    between atoms: C_51  and  O_52 
REMARK   51  A    between atoms: O_52  and  C_53 
REMARK   52  A    between atoms: C_53  and  C_54 
REMARK   53  A    between atoms: C_54  and  O_55 
REMARK   54  A    between atoms: O_55  and  C_56 
REMARK   55  A    between atoms: C_56  and  C_57 
REMARK   56  A    between atoms: C_57  and  O_58 
REMARK   57  A    between atoms: O_58  and  C_59 
REMARK   58  A    between atoms: C_59  and  C_60 
REMARK   59  A    between atoms: C_60  and  O_61 
REMARK   60  A    between atoms: O_61  and  C_62 
REMARK   61  A    between atoms: C_62  and  C_63 
REMARK   62  A    between atoms: C_63  and  O_64 
REMARK   63  A    between atoms: O_64  and  C_65 
REMARK   64  A    between atoms: C_65  and  C_66 
REMARK   65  A    between atoms: C_66  and  O_67 
REMARK   66  A    between atoms: O_67  and  C_68 
REMARK   67  A    between atoms: C_68  and  C_69 
REMARK   68  A    between atoms: C_69  and  O_70 
REMARK   69  A    between atoms: O_70  and  C_71 
REMARK   70  A    between atoms: C_71  and  C_72 
REMARK   71  A    between atoms: C_72  and  O_73 
REMARK   72  A    between atoms: O_73  and  C_74 
REMARK   73  A    between atoms: C_74  and  C_75 
REMARK   74  A    between atoms: C_75  and  O_76 
REMARK   75  A    between atoms: O_76  and  C_77 
REMARK   76  A    between atoms: C_77  and  C_78 
REMARK   77  A    between atoms: C_78  and  O_79 
REMARK   78  A    between atoms: O_79  and  C_80 
REMARK   79  A    between atoms: C_80  and  C_81 
REMARK   80  A    between atoms: C_81  and  O_82 
ROOT
HETATM    1  C   UNL     1     -21.965  -6.408  -5.221  1.00  0.00     0.193 C 
ENDROOT
BRANCH   1   2
HETATM    2  C   UNL     1     -21.365  -7.707  -4.710  1.00  0.00     0.193 C 
BRANCH   2   3
HETATM    3  O   UNL     1     -21.164  -7.592  -3.302  1.00  0.00    -0.387 OA
BRANCH   3   4
HETATM    4  C   UNL     1     -21.548  -6.308  -2.832  1.00  0.00     0.193 C 
BRANCH   4   5
HETATM    5  C   UNL     1     -22.273  -6.465  -1.509  1.00  0.00     0.193 C 
BRANCH   5   6
HETATM    6  O   UNL     1     -22.291  -7.844  -1.166  1.00  0.00    -0.387 OA
BRANCH   6   7
HETATM    7  C   UNL     1     -22.652  -8.036   0.200  1.00  0.00     0.193 C 
BRANCH   7   8
HETATM    8  C   UNL     1     -21.445  -8.539   0.962  1.00  0.00     0.193 C 
BRANCH   8   9
HETATM    9  O   UNL     1     -20.860  -9.596   0.220  1.00  0.00    -0.387 OA
BRANCH   9  10
HETATM   10  C   UNL     1     -20.432 -10.652   1.078  1.00  0.00     0.193 C 
BRANCH  10  11
HETATM   11  C   UNL     1     -19.482 -11.560   0.317  1.00  0.00     0.193 C 
BRANCH  11  12
HETATM   12  O   UNL     1     -19.963 -11.722  -1.016  1.00  0.00    -0.387 OA
BRANCH  12  13
HETATM   13  C   UNL     1     -18.891 -11.822  -1.947  1.00  0.00     0.193 C 
BRANCH  13  14
HETATM   14  C   UNL     1     -18.403 -13.258  -1.980  1.00  0.00     0.193 C 
BRANCH  14  15
HETATM   15  O   UNL     1     -19.525 -14.115  -2.136  1.00  0.00    -0.387 OA
BRANCH  15  16
HETATM   16  C   UNL     1     -19.374 -15.308  -1.376  1.00  0.00     0.193 C 
BRANCH  16  17
HETATM   17  C   UNL     1     -20.600 -15.488  -0.502  1.00  0.00     0.193 C 
BRANCH  17  18
HETATM   18  O   UNL     1     -20.405 -16.638   0.305  1.00  0.00    -0.387 OA
BRANCH  18  19
HETATM   19  C   UNL     1     -21.318 -16.658   1.394  1.00  0.00     0.193 C 
BRANCH  19  20
HETATM   20  C   UNL     1     -20.791 -15.746   2.482  1.00  0.00     0.193 C 
BRANCH  20  21
HETATM   21  O   UNL     1     -21.905 -15.163   3.135  1.00  0.00    -0.387 OA
BRANCH  21  22
HETATM   22  C   UNL     1     -23.064 -15.202   2.301  1.00  0.00     0.193 C 
BRANCH  22  23
HETATM   23  C   UNL     1     -23.551 -13.787   2.044  1.00  0.00     0.193 C 
BRANCH  23  24
HETATM   24  O   UNL     1     -22.826 -13.244   0.946  1.00  0.00    -0.387 OA
BRANCH  24  25
HETATM   25  C   UNL     1     -23.541 -12.167   0.349  1.00  0.00     0.193 C 
BRANCH  25  26
HETATM   26  C   UNL     1     -23.549 -12.362  -1.155  1.00  0.00     0.193 C 
BRANCH  26  27
HETATM   27  O   UNL     1     -23.586 -11.087  -1.790  1.00  0.00    -0.387 OA
BRANCH  27  28
HETATM   28  C   UNL     1     -22.728 -11.059  -2.919  1.00  0.00     0.193 C 
BRANCH  28  29
HETATM   29  C   UNL     1     -22.476 -12.489  -3.347  1.00  0.00     0.193 C 
BRANCH  29  30
HETATM   30  O   UNL     1     -22.069 -12.487  -4.709  1.00  0.00    -0.389 OA
BRANCH  30  31
HETATM   31  C   UNL     1     -21.003 -11.569  -4.907  1.00  0.00     0.167 C 
BRANCH  31  32
HETATM   32  C   UNL     1     -20.789 -11.385  -6.398  1.00  0.00     0.026 C 
BRANCH  32  33
HETATM   33  C   UNL     1     -21.270 -12.620  -7.141  1.00  0.00     0.002 C 
BRANCH  33  34
HETATM   34  C   UNL     1     -20.098 -13.494  -7.552  1.00  0.00     0.000 C 
BRANCH  34  35
HETATM   35  C   UNL     1     -18.910 -12.626  -7.935  1.00  0.00     0.000 C 
BRANCH  35  36
HETATM   36  C   UNL     1     -17.612 -13.377  -7.689  1.00  0.00     0.000 C 
BRANCH  36  37
HETATM   37  C   UNL     1     -16.913 -12.826  -6.456  1.00  0.00     0.000 C 
BRANCH  37  38
HETATM   38  C   UNL     1     -15.733 -11.960  -6.866  1.00  0.00     0.000 C 
BRANCH  38  39
HETATM   39  C   UNL     1     -14.898 -11.596  -5.649  1.00  0.00     0.000 C 
BRANCH  39  40
HETATM   40  C   UNL     1     -15.799 -11.325  -4.452  1.00  0.00    -0.000 C 
BRANCH  40  41
HETATM   41  C   UNL     1     -15.934  -9.827  -4.206  1.00  0.00    -0.005 C 
HETATM   42  C   UNL     1     -16.018  -9.536  -2.719  1.00  0.00     0.005 C 
ENDBRANCH  40  41
ENDBRANCH  39  40
ENDBRANCH  38  39
ENDBRANCH  37  38
ENDBRANCH  36  37
ENDBRANCH  35  36
ENDBRANCH  34  35
ENDBRANCH  33  34
ENDBRANCH  32  33
ENDBRANCH  31  32
ENDBRANCH  30  31
ENDBRANCH  29  30
ENDBRANCH  28  29
ENDBRANCH  27  28
ENDBRANCH  26  27
ENDBRANCH  25  26
ENDBRANCH  24  25
ENDBRANCH  23  24
ENDBRANCH  22  23
ENDBRANCH  21  22
ENDBRANCH  20  21
ENDBRANCH  19  20
ENDBRANCH  18  19
ENDBRANCH  17  18
ENDBRANCH  16  17
ENDBRANCH  15  16
ENDBRANCH  14  15
ENDBRANCH  13  14
ENDBRANCH  12  13
ENDBRANCH  11  12
ENDBRANCH  10  11
ENDBRANCH   9  10
ENDBRANCH   8   9
ENDBRANCH   7   8
ENDBRANCH   6   7
ENDBRANCH   5   6
ENDBRANCH   4   5
ENDBRANCH   3   4
ENDBRANCH   2   3
ENDBRANCH   1   2
BRANCH   1  43
HETATM   43  O   UNL     1     -21.249  -6.003  -6.386  1.00  0.00    -0.387 OA
BRANCH  43  44
HETATM   44  C   UNL     1     -20.266  -5.019  -6.071  1.00  0.00     0.193 C 
BRANCH  44  45
HETATM   45  C   UNL     1     -19.489  -4.677  -7.328  1.00  0.00     0.193 C 
BRANCH  45  46
HETATM   46  O   UNL     1     -20.240  -3.729  -8.078  1.00  0.00    -0.387 OA
BRANCH  46  47
HETATM   47  C   UNL     1     -20.415  -4.158  -9.426  1.00  0.00     0.193 C 
BRANCH  47  48
HETATM   48  C   UNL     1     -21.883  -4.471  -9.661  1.00  0.00     0.193 C 
BRANCH  48  49
HETATM   49  O   UNL     1     -22.673  -3.706  -8.754  1.00  0.00    -0.387 OA
BRANCH  49  50
HETATM   50  C   UNL     1     -24.034  -3.680  -9.162  1.00  0.00     0.193 C 
BRANCH  50  51
HETATM   51  C   UNL     1     -24.096  -4.053 -10.631  1.00  0.00     0.193 C 
BRANCH  51  52
HETATM   52  O   UNL     1     -24.549  -2.924 -11.369  1.00  0.00    -0.387 OA
BRANCH  52  53
HETATM   53  C   UNL     1     -23.643  -2.587 -12.409  1.00  0.00     0.193 C 
BRANCH  53  54
HETATM   54  C   UNL     1     -24.405  -2.530 -13.718  1.00  0.00     0.193 C 
BRANCH  54  55
HETATM   55  O   UNL     1     -23.734  -3.347 -14.664  1.00  0.00    -0.387 OA
BRANCH  55  56
HETATM   56  C   UNL     1     -22.644  -4.038 -14.066  1.00  0.00     0.193 C 
BRANCH  56  57
HETATM   57  C   UNL     1     -23.016  -5.501 -13.918  1.00  0.00     0.193 C 
BRANCH  57  58
HETATM   58  O   UNL     1     -24.076  -5.785 -14.823  1.00  0.00    -0.387 OA
BRANCH  58  59
HETATM   59  C   UNL     1     -23.648  -6.666 -15.859  1.00  0.00     0.193 C 
BRANCH  59  60
HETATM   60  C   UNL     1     -24.852  -7.415 -16.404  1.00  0.00     0.193 C 
BRANCH  60  61
HETATM   61  O   UNL     1     -25.876  -7.421 -15.417  1.00  0.00    -0.387 OA
BRANCH  61  62
HETATM   62  C   UNL     1     -26.996  -6.655 -15.842  1.00  0.00     0.193 C 
BRANCH  62  63
HETATM   63  C   UNL     1     -28.256  -7.438 -15.530  1.00  0.00     0.193 C 
BRANCH  63  64
HETATM   64  O   UNL     1     -28.986  -7.623 -16.737  1.00  0.00    -0.387 OA
BRANCH  64  65
HETATM   65  C   UNL     1     -28.815  -6.520 -17.618  1.00  0.00     0.193 C 
BRANCH  65  66
HETATM   66  C   UNL     1     -30.144  -5.806 -17.759  1.00  0.00     0.193 C 
BRANCH  66  67
HETATM   67  O   UNL     1     -31.178  -6.699 -17.363  1.00  0.00    -0.387 OA
BRANCH  67  68
HETATM   68  C   UNL     1     -32.405  -6.007 -17.150  1.00  0.00     0.193 C 
BRANCH  68  69
HETATM   69  C   UNL     1     -32.110  -4.534 -16.913  1.00  0.00     0.193 C 
BRANCH  69  70
HETATM   70  O   UNL     1     -32.878  -4.079 -15.801  1.00  0.00    -0.387 OA
BRANCH  70  71
HETATM   71  C   UNL     1     -34.256  -3.967 -16.135  1.00  0.00     0.193 C 
BRANCH  71  72
HETATM   72  C   UNL     1     -34.504  -2.589 -16.715  1.00  0.00     0.193 C 
BRANCH  72  73
HETATM   73  O   UNL     1     -35.704  -2.070 -16.163  1.00  0.00    -0.387 OA
BRANCH  73  74
HETATM   74  C   UNL     1     -35.911  -0.717 -16.546  1.00  0.00     0.193 C 
BRANCH  74  75
HETATM   75  C   UNL     1     -36.860  -0.070 -15.555  1.00  0.00     0.193 C 
BRANCH  75  76
HETATM   76  O   UNL     1     -36.850  -0.827 -14.354  1.00  0.00    -0.387 OA
BRANCH  76  77
HETATM   77  C   UNL     1     -36.543  -0.009 -13.229  1.00  0.00     0.193 C 
BRANCH  77  78
HETATM   78  C   UNL     1     -35.048  -0.070 -12.977  1.00  0.00     0.193 C 
BRANCH  78  79
HETATM   79  O   UNL     1     -34.608  -1.418 -13.130  1.00  0.00    -0.387 OA
BRANCH  79  80
HETATM   80  C   UNL     1     -34.771  -2.149 -11.908  1.00  0.00     0.193 C 
BRANCH  80  81
HETATM   81  C   UNL     1     -33.688  -3.219 -11.817  1.00  0.00     0.190 C 
BRANCH  81  82
HETATM   82  O   UNL     1     -33.699  -3.833 -10.530  1.00  0.00    -0.399 OA
HETATM   83  H   UNL     1     -32.851  -4.312 -10.466  1.00  0.00     0.209 HD
ENDBRANCH  81  82
ENDBRANCH  80  81
ENDBRANCH  79  80
ENDBRANCH  78  79
ENDBRANCH  77  78
ENDBRANCH  76  77
ENDBRANCH  75  76
ENDBRANCH  74  75
ENDBRANCH  73  74
ENDBRANCH  72  73
ENDBRANCH  71  72
ENDBRANCH  70  71
ENDBRANCH  69  70
ENDBRANCH  68  69
ENDBRANCH  67  68
ENDBRANCH  66  67
ENDBRANCH  65  66
ENDBRANCH  64  65
ENDBRANCH  63  64
ENDBRANCH  62  63
ENDBRANCH  61  62
ENDBRANCH  60  61
ENDBRANCH  59  60
ENDBRANCH  58  59
ENDBRANCH  57  58
ENDBRANCH  56  57
ENDBRANCH  55  56
ENDBRANCH  54  55
ENDBRANCH  53  54
ENDBRANCH  52  53
ENDBRANCH  51  52
ENDBRANCH  50  51
ENDBRANCH  49  50
ENDBRANCH  48  49
ENDBRANCH  47  48
ENDBRANCH  46  47
ENDBRANCH  45  46
ENDBRANCH  44  45
ENDBRANCH  43  44
ENDBRANCH   1  43
TORSDOF 80
BEGIN_RES ARG D 557
REMARK  4 active torsions:
REMARK  status: ('A' for Active; 'I' for Inactive)
REMARK    1  A    between atoms: CA   and  CB  
REMARK    2  A    between atoms: CB   and  CG  
REMARK    3  A    between atoms: CG   and  CD  
REMARK    4  A    between atoms: CD   and  NE  
REMARK       I    between atoms: NE   and  CZ  
REMARK       I    between atoms: CZ   and  NH1 
REMARK       I    between atoms: CZ   and  NH2 
ROOT
ATOM      1  CA  ARG D 557     -26.217   2.705 -17.014  1.00 35.49     0.159 C 
ENDROOT
BRANCH   1   2
ATOM      2  CB  ARG D 557     -26.789   1.319 -17.183  1.00 35.49     0.034 C 
BRANCH   2   3
ATOM      3  CG  ARG D 557     -28.235   1.225 -17.420  1.00 35.49     0.027 C 
BRANCH   3   4
ATOM      4  CD  ARG D 557     -28.887   0.229 -16.541  1.00 35.49     0.116 C 
BRANCH   4   5
ATOM      5  NE  ARG D 557     -27.998  -0.846 -16.186  1.00 35.49    -0.212 N 
ATOM      6  CZ  ARG D 557     -28.099  -2.092 -16.592  1.00 35.49     0.666 C 
ATOM      7  NH1 ARG D 557     -29.071  -2.503 -17.385  1.00 35.49    -0.235 N 
ATOM      8  NH2 ARG D 557     -27.190  -2.931 -16.187  1.00 35.49    -0.235 N 
ATOM      9  HH  ARG D 557     -29.679  -1.968 -17.665  1.00 35.49     0.174 HD
ATOM     10  HH  ARG D 557     -29.084  -3.327 -17.619  1.00 35.49     0.174 HD
ATOM     11  HH  ARG D 557     -26.570  -2.635 -15.681  1.00 35.49     0.174 HD
ATOM     12  HH  ARG D 557     -27.220  -3.742 -16.431  1.00 35.49     0.174 HD
ATOM     13  HE  ARG D 557     -27.385  -0.686 -15.619  1.00 35.49     0.178 HD
ENDBRANCH   4   5
ENDBRANCH   3   4
ENDBRANCH   2   3
ENDBRANCH   1   2
END_RES ARG D 557
BEGIN_RES GLU D 570
REMARK  3 active torsions:
REMARK  status: ('A' for Active; 'I' for Inactive)
REMARK    5  A    between atoms: CA   and  CB  
REMARK    6  A    between atoms: CB   and  CG  
REMARK    7  A    between atoms: CG   and  CD  
ROOT
ATOM     14  CA  GLU D 570     -18.033  -6.348 -13.375  1.00 32.92     0.160 C 
ENDROOT
BRANCH  14  15
ATOM     15  CB  GLU D 570     -19.500  -6.345 -13.794  1.00 32.92     0.043 C 
BRANCH  15  16
ATOM     16  CG  GLU D 570     -20.077  -7.626 -14.277  1.00 32.92     0.100 C 
BRANCH  16  17
ATOM     17  CD  GLU D 570     -20.443  -7.592 -15.742  1.00 32.92     0.185 C 
ATOM     18  OE1 GLU D 570     -20.817  -8.643 -16.297  1.00 32.92    -0.647 OA
ATOM     19  OE2 GLU D 570     -20.340  -6.506 -16.346  1.00 32.92    -0.647 OA
ENDBRANCH  16  17
ENDBRANCH  15  16
ENDBRANCH  14  15
END_RES GLU D 570
ENDMDL
MODEL 5
REMARK VINA RESULT:      -5.4      2.141      6.271
REMARK WARNING: 32 MAX_TORS EXCEEDED!!!
REMARK  80 active torsions:
REMARK  status: ('A' for Active; 'I' for Inactive)
REMARK    1  A    between atoms: C_2  and  C_3 
REMARK    2  A    between atoms: C_3  and  C_4 
REMARK    3  A    between atoms: C_4  and  C_5 
REMARK    4  A    between atoms: C_5  and  C_6 
REMARK    5  A    between atoms: C_6  and  C_7 
REMARK    6  A    between atoms: C_7  and  C_8 
REMARK    7  A    between atoms: C_8  and  C_9 
REMARK    8  A    between atoms: C_9  and  C_10 
REMARK    9  A    between atoms: C_10  and  C_11 
REMARK   10  A    between atoms: C_11  and  C_12 
REMARK   11  A    between atoms: C_12  and  O_13 
REMARK   12  A    between atoms: O_13  and  C_14 
REMARK   13  A    between atoms: C_14  and  C_15 
REMARK   14  A    between atoms: C_15  and  O_16 
REMARK   15  A    between atoms: O_16  and  C_17 
REMARK   16  A    between atoms: C_17  and  C_18 
REMARK   17  A    between atoms: C_18  and  O_19 
REMARK   18  A    between atoms: O_19  and  C_20 
REMARK   19  A    between atoms: C_20  and  C_21 
REMARK   20  A    between atoms: C_21  and  O_22 
REMARK   21  A    between atoms: O_22  and  C_23 
REMARK   22  A    between atoms: C_23  and  C_24 
REMARK   23  A    between atoms: C_24  and  O_25 
REMARK   24  A    between atoms: O_25  and  C_26 
REMARK   25  A    between atoms: C_26  and  C_27 
REMARK   26  A    between atoms: C_27  and  O_28 
REMARK   27  A    between atoms: O_28  and  C_29 
REMARK   28  A    between atoms: C_29  and  C_30 
REMARK   29  A    between atoms: C_30  and  O_31 
REMARK   30  A    between atoms: O_31  and  C_32 
REMARK   31  A    between atoms: C_32  and  C_33 
REMARK   32  A    between atoms: C_33  and  O_34 
REMARK   33  A    between atoms: O_34  and  C_35 
REMARK   34  A    between atoms: C_35  and  C_36 
REMARK   35  A    between atoms: C_36  and  O_37 
REMARK   36  A    between atoms: O_37  and  C_38 
REMARK   37  A    between atoms: C_38  and  C_39 
REMARK   38  A    between atoms: C_39  and  O_40 
REMARK   39  A    between atoms: O_40  and  C_41 
REMARK   40  A    between atoms: C_41  and  C_42 
REMARK   41  A    between atoms: C_42  and  O_43 
REMARK   42  A    between atoms: O_43  and  C_44 
REMARK   43  A    between atoms: C_44  and  C_45 
REMARK   44  A    between atoms: C_45  and  O_46 
REMARK   45  A    between atoms: O_46  and  C_47 
REMARK   46  A    between atoms: C_47  and  C_48 
REMARK   47  A    between atoms: C_48  and  O_49 
REMARK   48  A    between atoms: O_49  and  C_50 
REMARK   49  A    between atoms: C_50  and  C_51 
REMARK   50  A    between atoms: C_51  and  O_52 
REMARK   51  A    between atoms: O_52  and  C_53 
REMARK   52  A    between atoms: C_53  and  C_54 
REMARK   53  A    between atoms: C_54  and  O_55 
REMARK   54  A    between atoms: O_55  and  C_56 
REMARK   55  A    between atoms: C_56  and  C_57 
REMARK   56  A    between atoms: C_57  and  O_58 
REMARK   57  A    between atoms: O_58  and  C_59 
REMARK   58  A    between atoms: C_59  and  C_60 
REMARK   59  A    between atoms: C_60  and  O_61 
REMARK   60  A    between atoms: O_61  and  C_62 
REMARK   61  A    between atoms: C_62  and  C_63 
REMARK   62  A    between atoms: C_63  and  O_64 
REMARK   63  A    between atoms: O_64  and  C_65 
REMARK   64  A    between atoms: C_65  and  C_66 
REMARK   65  A    between atoms: C_66  and  O_67 
REMARK   66  A    between atoms: O_67  and  C_68 
REMARK   67  A    between atoms: C_68  and  C_69 
REMARK   68  A    between atoms: C_69  and  O_70 
REMARK   69  A    between atoms: O_70  and  C_71 
REMARK   70  A    between atoms: C_71  and  C_72 
REMARK   71  A    between atoms: C_72  and  O_73 
REMARK   72  A    between atoms: O_73  and  C_74 
REMARK   73  A    between atoms: C_74  and  C_75 
REMARK   74  A    between atoms: C_75  and  O_76 
REMARK   75  A    between atoms: O_76  and  C_77 
REMARK   76  A    between atoms: C_77  and  C_78 
REMARK   77  A    between atoms: C_78  and  O_79 
REMARK   78  A    between atoms: O_79  and  C_80 
REMARK   79  A    between atoms: C_80  and  C_81 
REMARK   80  A    between atoms: C_81  and  O_82 
ROOT
HETATM    1  C   UNL     1     -24.200  -3.328 -11.542  1.00  0.00     0.193 C 
ENDROOT
BRANCH   1   2
HETATM    2  C   UNL     1     -23.686  -4.271 -10.467  1.00  0.00     0.193 C 
BRANCH   2   3
HETATM    3  O   UNL     1     -22.346  -3.904 -10.144  1.00  0.00    -0.387 OA
BRANCH   3   4
HETATM    4  C   UNL     1     -22.014  -4.288  -8.817  1.00  0.00     0.193 C 
BRANCH   4   5
HETATM    5  C   UNL     1     -20.641  -4.933  -8.820  1.00  0.00     0.193 C 
BRANCH   5   6
HETATM    6  O   UNL     1     -20.465  -5.625  -7.592  1.00  0.00    -0.387 OA
BRANCH   6   7
HETATM    7  C   UNL     1     -20.001  -4.753  -6.564  1.00  0.00     0.193 C 
BRANCH   7   8
HETATM    8  C   UNL     1     -20.461  -5.284  -5.223  1.00  0.00     0.193 C 
BRANCH   8   9
HETATM    9  O   UNL     1     -21.853  -5.547  -5.302  1.00  0.00    -0.387 OA
BRANCH   9  10
HETATM   10  C   UNL     1     -22.216  -6.649  -4.473  1.00  0.00     0.193 C 
BRANCH  10  11
HETATM   11  C   UNL     1     -21.513  -7.900  -4.970  1.00  0.00     0.193 C 
BRANCH  11  12
HETATM   12  O   UNL     1     -20.885  -8.549  -3.866  1.00  0.00    -0.387 OA
BRANCH  12  13
HETATM   13  C   UNL     1     -20.409  -9.842  -4.224  1.00  0.00     0.193 C 
BRANCH  13  14
HETATM   14  C   UNL     1     -19.217  -9.685  -5.151  1.00  0.00     0.193 C 
BRANCH  14  15
HETATM   15  O   UNL     1     -19.372 -10.582  -6.242  1.00  0.00    -0.387 OA
BRANCH  15  16
HETATM   16  C   UNL     1     -18.193 -11.352  -6.448  1.00  0.00     0.193 C 
BRANCH  16  17
HETATM   17  C   UNL     1     -18.374 -12.196  -7.695  1.00  0.00     0.193 C 
BRANCH  17  18
HETATM   18  O   UNL     1     -17.468 -13.285  -7.629  1.00  0.00    -0.387 OA
BRANCH  18  19
HETATM   19  C   UNL     1     -18.161 -14.514  -7.449  1.00  0.00     0.193 C 
BRANCH  19  20
HETATM   20  C   UNL     1     -17.204 -15.653  -7.728  1.00  0.00     0.193 C 
BRANCH  20  21
HETATM   21  O   UNL     1     -16.767 -16.166  -6.481  1.00  0.00    -0.387 OA
BRANCH  21  22
HETATM   22  C   UNL     1     -15.420 -15.776  -6.211  1.00  0.00     0.193 C 
BRANCH  22  23
HETATM   23  C   UNL     1     -15.379 -14.936  -4.947  1.00  0.00     0.193 C 
BRANCH  23  24
HETATM   24  O   UNL     1     -16.564 -15.178  -4.196  1.00  0.00    -0.387 OA
BRANCH  24  25
HETATM   25  C   UNL     1     -17.241 -13.959  -3.910  1.00  0.00     0.193 C 
BRANCH  25  26
HETATM   26  C   UNL     1     -16.290 -13.035  -3.173  1.00  0.00     0.193 C 
BRANCH  26  27
HETATM   27  O   UNL     1     -17.007 -11.886  -2.729  1.00  0.00    -0.387 OA
BRANCH  27  28
HETATM   28  C   UNL     1     -16.685 -11.579  -1.382  1.00  0.00     0.193 C 
BRANCH  28  29
HETATM   29  C   UNL     1     -17.591 -12.398  -0.489  1.00  0.00     0.193 C 
BRANCH  29  30
HETATM   30  O   UNL     1     -18.912 -12.341  -1.011  1.00  0.00    -0.389 OA
BRANCH  30  31
HETATM   31  C   UNL     1     -19.475 -11.054  -0.797  1.00  0.00     0.167 C 
BRANCH  31  32
HETATM   32  C   UNL     1     -20.141 -11.035   0.566  1.00  0.00     0.026 C 
BRANCH  32  33
HETATM   33  C   UNL     1     -21.311 -10.066   0.551  1.00  0.00     0.002 C 
BRANCH  33  34
HETATM   34  C   UNL     1     -22.189 -10.297  -0.667  1.00  0.00     0.000 C 
BRANCH  34  35
HETATM   35  C   UNL     1     -23.632 -10.503  -0.237  1.00  0.00     0.000 C 
BRANCH  35  36
HETATM   36  C   UNL     1     -24.215 -11.725  -0.927  1.00  0.00     0.000 C 
BRANCH  36  37
HETATM   37  C   UNL     1     -23.637 -12.995  -0.322  1.00  0.00     0.000 C 
BRANCH  37  38
HETATM   38  C   UNL     1     -23.589 -12.878   1.193  1.00  0.00     0.000 C 
BRANCH  38  39
HETATM   39  C   UNL     1     -22.641 -13.917   1.772  1.00  0.00     0.000 C 
BRANCH  39  40
HETATM   40  C   UNL     1     -21.844 -14.583   0.659  1.00  0.00    -0.000 C 
BRANCH  40  41
HETATM   41  C   UNL     1     -20.382 -14.739   1.061  1.00  0.00    -0.005 C 
HETATM   42  C   UNL     1     -20.115 -16.143   1.570  1.00  0.00     0.005 C 
ENDBRANCH  40  41
ENDBRANCH  39  40
ENDBRANCH  38  39
ENDBRANCH  37  38
ENDBRANCH  36  37
ENDBRANCH  35  36
ENDBRANCH  34  35
ENDBRANCH  33  34
ENDBRANCH  32  33
ENDBRANCH  31  32
ENDBRANCH  30  31
ENDBRANCH  29  30
ENDBRANCH  28  29
ENDBRANCH  27  28
ENDBRANCH  26  27
ENDBRANCH  25  26
ENDBRANCH  24  25
ENDBRANCH  23  24
ENDBRANCH  22  23
ENDBRANCH  21  22
ENDBRANCH  20  21
ENDBRANCH  19  20
ENDBRANCH  18  19
ENDBRANCH  17  18
ENDBRANCH  16  17
ENDBRANCH  15  16
ENDBRANCH  14  15
ENDBRANCH  13  14
ENDBRANCH  12  13
ENDBRANCH  11  12
ENDBRANCH  10  11
ENDBRANCH   9  10
ENDBRANCH   8   9
ENDBRANCH   7   8
ENDBRANCH   6   7
ENDBRANCH   5   6
ENDBRANCH   4   5
ENDBRANCH   3   4
ENDBRANCH   2   3
ENDBRANCH   1   2
BRANCH   1  43
HETATM   43  O   UNL     1     -23.082  -2.735 -12.200  1.00  0.00    -0.387 OA
BRANCH  43  44
HETATM   44  C   UNL     1     -23.283  -2.679 -13.610  1.00  0.00     0.193 C 
BRANCH  44  45
HETATM   45  C   UNL     1     -24.650  -3.250 -13.937  1.00  0.00     0.193 C 
BRANCH  45  46
HETATM   46  O   UNL     1     -24.506  -4.182 -15.002  1.00  0.00    -0.387 OA
BRANCH  46  47
HETATM   47  C   UNL     1     -25.576  -5.123 -15.015  1.00  0.00     0.193 C 
BRANCH  47  48
HETATM   48  C   UNL     1     -25.071  -6.443 -15.573  1.00  0.00     0.193 C 
BRANCH  48  49
HETATM   49  O   UNL     1     -24.921  -6.324 -16.986  1.00  0.00    -0.387 OA
BRANCH  49  50
HETATM   50  C   UNL     1     -24.209  -7.434 -17.516  1.00  0.00     0.193 C 
BRANCH  50  51
HETATM   51  C   UNL     1     -23.707  -7.060 -18.897  1.00  0.00     0.193 C 
BRANCH  51  52
HETATM   52  O   UNL     1     -24.537  -7.686 -19.869  1.00  0.00    -0.387 OA
BRANCH  52  53
HETATM   53  C   UNL     1     -25.335  -6.736 -20.559  1.00  0.00     0.193 C 
BRANCH  53  54
HETATM   54  C   UNL     1     -26.795  -7.026 -20.270  1.00  0.00     0.193 C 
BRANCH  54  55
HETATM   55  O   UNL     1     -27.257  -6.088 -19.310  1.00  0.00    -0.387 OA
BRANCH  55  56
HETATM   56  C   UNL     1     -28.482  -6.511 -18.725  1.00  0.00     0.193 C 
BRANCH  56  57
HETATM   57  C   UNL     1     -28.308  -6.569 -17.220  1.00  0.00     0.193 C 
BRANCH  57  58
HETATM   58  O   UNL     1     -29.547  -6.220 -16.614  1.00  0.00    -0.387 OA
BRANCH  58  59
HETATM   59  C   UNL     1     -30.640  -6.857 -17.271  1.00  0.00     0.193 C 
BRANCH  59  60
HETATM   60  C   UNL     1     -31.862  -5.958 -17.191  1.00  0.00     0.193 C 
BRANCH  60  61
HETATM   61  O   UNL     1     -31.443  -4.643 -16.845  1.00  0.00    -0.387 OA
BRANCH  61  62
HETATM   62  C   UNL     1     -32.276  -3.667 -17.456  1.00  0.00     0.193 C 
BRANCH  62  63
HETATM   63  C   UNL     1     -33.547  -3.543 -16.639  1.00  0.00     0.193 C 
BRANCH  63  64
HETATM   64  O   UNL     1     -34.348  -2.509 -17.198  1.00  0.00    -0.387 OA
BRANCH  64  65
HETATM   65  C   UNL     1     -35.186  -1.917 -16.215  1.00  0.00     0.193 C 
BRANCH  65  66
HETATM   66  C   UNL     1     -36.219  -1.058 -16.916  1.00  0.00     0.193 C 
BRANCH  66  67
HETATM   67  O   UNL     1     -36.486   0.077 -16.101  1.00  0.00    -0.387 OA
BRANCH  67  68
HETATM   68  C   UNL     1     -37.876   0.183 -15.804  1.00  0.00     0.193 C 
BRANCH  68  69
HETATM   69  C   UNL     1     -38.048   0.422 -14.312  1.00  0.00     0.193 C 
BRANCH  69  70
HETATM   70  O   UNL     1     -37.614  -0.736 -13.602  1.00  0.00    -0.387 OA
BRANCH  70  71
HETATM   71  C   UNL     1     -37.059  -0.391 -12.338  1.00  0.00     0.193 C 
BRANCH  71  72
HETATM   72  C   UNL     1     -35.645   0.109 -12.550  1.00  0.00     0.193 C 
BRANCH  72  73
HETATM   73  O   UNL     1     -34.778  -0.577 -11.659  1.00  0.00    -0.387 OA
BRANCH  73  74
HETATM   74  C   UNL     1     -34.569  -1.922 -12.069  1.00  0.00     0.193 C 
BRANCH  74  75
HETATM   75  C   UNL     1     -33.419  -2.501 -11.265  1.00  0.00     0.193 C 
BRANCH  75  76
HETATM   76  O   UNL     1     -33.016  -3.724 -11.862  1.00  0.00    -0.387 OA
BRANCH  76  77
HETATM   77  C   UNL     1     -34.128  -4.420 -12.417  1.00  0.00     0.193 C 
BRANCH  77  78
HETATM   78  C   UNL     1     -34.782  -5.243 -11.324  1.00  0.00     0.193 C 
BRANCH  78  79
HETATM   79  O   UNL     1     -33.827  -6.167 -10.806  1.00  0.00    -0.387 OA
BRANCH  79  80
HETATM   80  C   UNL     1     -34.423  -7.017  -9.819  1.00  0.00     0.193 C 
BRANCH  80  81
HETATM   81  C   UNL     1     -34.091  -8.470 -10.145  1.00  0.00     0.190 C 
BRANCH  81  82
HETATM   82  O   UNL     1     -34.189  -9.279  -8.974  1.00  0.00    -0.399 OA
HETATM   83  H   UNL     1     -33.770  -8.756  -8.264  1.00  0.00     0.209 HD
ENDBRANCH  81  82
ENDBRANCH  80  81
ENDBRANCH  79  80
ENDBRANCH  78  79
ENDBRANCH  77  78
ENDBRANCH  76  77
ENDBRANCH  75  76
ENDBRANCH  74  75
ENDBRANCH  73  74
ENDBRANCH  72  73
ENDBRANCH  71  72
ENDBRANCH  70  71
ENDBRANCH  69  70
ENDBRANCH  68  69
ENDBRANCH  67  68
ENDBRANCH  66  67
ENDBRANCH  65  66
ENDBRANCH  64  65
ENDBRANCH  63  64
ENDBRANCH  62  63
ENDBRANCH  61  62
ENDBRANCH  60  61
ENDBRANCH  59  60
ENDBRANCH  58  59
ENDBRANCH  57  58
ENDBRANCH  56  57
ENDBRANCH  55  56
ENDBRANCH  54  55
ENDBRANCH  53  54
ENDBRANCH  52  53
ENDBRANCH  51  52
ENDBRANCH  50  51
ENDBRANCH  49  50
ENDBRANCH  48  49
ENDBRANCH  47  48
ENDBRANCH  46  47
ENDBRANCH  45  46
ENDBRANCH  44  45
ENDBRANCH  43  44
ENDBRANCH   1  43
TORSDOF 80
BEGIN_RES ARG D 557
REMARK  4 active torsions:
REMARK  status: ('A' for Active; 'I' for Inactive)
REMARK    1  A    between atoms: CA   and  CB  
REMARK    2  A    between atoms: CB   and  CG  
REMARK    3  A    between atoms: CG   and  CD  
REMARK    4  A    between atoms: CD   and  NE  
REMARK       I    between atoms: NE   and  CZ  
REMARK       I    between atoms: CZ   and  NH1 
REMARK       I    between atoms: CZ   and  NH2 
ROOT
ATOM      1  CA  ARG D 557     -26.217   2.705 -17.014  1.00 35.49     0.159 C 
ENDROOT
BRANCH   1   2
ATOM      2  CB  ARG D 557     -26.789   1.319 -17.183  1.00 35.49     0.034 C 
BRANCH   2   3
ATOM      3  CG  ARG D 557     -28.228   1.227 -17.461  1.00 35.49     0.027 C 
BRANCH   3   4
ATOM      4  CD  ARG D 557     -28.926   0.315 -16.526  1.00 35.49     0.116 C 
BRANCH   4   5
ATOM      5  NE  ARG D 557     -29.182  -0.973 -17.115  1.00 35.49    -0.212 N 
ATOM      6  CZ  ARG D 557     -28.466  -2.059 -16.928  1.00 35.49     0.666 C 
ATOM      7  NH1 ARG D 557     -27.391  -2.076 -16.162  1.00 35.49    -0.235 N 
ATOM      8  NH2 ARG D 557     -28.858  -3.147 -17.526  1.00 35.49    -0.235 N 
ATOM      9  HH  ARG D 557     -27.116  -1.373 -15.757  1.00 35.49     0.174 HD
ATOM     10  HH  ARG D 557     -26.965  -2.815 -16.074  1.00 35.49     0.174 HD
ATOM     11  HH  ARG D 557     -29.560  -3.107 -18.008  1.00 35.49     0.174 HD
ATOM     12  HH  ARG D 557     -28.424  -3.868 -17.425  1.00 35.49     0.174 HD
ATOM     13  HE  ARG D 557     -29.814  -1.035 -17.681  1.00 35.49     0.178 HD
ENDBRANCH   4   5
ENDBRANCH   3   4
ENDBRANCH   2   3
ENDBRANCH   1   2
END_RES ARG D 557
BEGIN_RES GLU D 570
REMARK  3 active torsions:
REMARK  status: ('A' for Active; 'I' for Inactive)
REMARK    5  A    between atoms: CA   and  CB  
REMARK    6  A    between atoms: CB   and  CG  
REMARK    7  A    between atoms: CG   and  CD  
ROOT
ATOM     14  CA  GLU D 570     -18.033  -6.348 -13.375  1.00 32.92     0.160 C 
ENDROOT
BRANCH  14  15
ATOM     15  CB  GLU D 570     -19.500  -6.345 -13.794  1.00 32.92     0.043 C 
BRANCH  15  16
ATOM     16  CG  GLU D 570     -20.089  -7.636 -14.233  1.00 32.92     0.100 C 
BRANCH  16  17
ATOM     17  CD  GLU D 570     -20.982  -7.495 -15.444  1.00 32.92     0.185 C 
ATOM     18  OE1 GLU D 570     -21.562  -6.411 -15.645  1.00 32.92    -0.647 OA
ATOM     19  OE2 GLU D 570     -21.116  -8.485 -16.190  1.00 32.92    -0.647 OA
ENDBRANCH  16  17
ENDBRANCH  15  16
ENDBRANCH  14  15
END_RES GLU D 570
ENDMDL
MODEL 6
REMARK VINA RESULT:      -5.4      1.773      5.989
REMARK WARNING: 32 MAX_TORS EXCEEDED!!!
REMARK  80 active torsions:
REMARK  status: ('A' for Active; 'I' for Inactive)
REMARK    1  A    between atoms: C_2  and  C_3 
REMARK    2  A    between atoms: C_3  and  C_4 
REMARK    3  A    between atoms: C_4  and  C_5 
REMARK    4  A    between atoms: C_5  and  C_6 
REMARK    5  A    between atoms: C_6  and  C_7 
REMARK    6  A    between atoms: C_7  and  C_8 
REMARK    7  A    between atoms: C_8  and  C_9 
REMARK    8  A    between atoms: C_9  and  C_10 
REMARK    9  A    between atoms: C_10  and  C_11 
REMARK   10  A    between atoms: C_11  and  C_12 
REMARK   11  A    between atoms: C_12  and  O_13 
REMARK   12  A    between atoms: O_13  and  C_14 
REMARK   13  A    between atoms: C_14  and  C_15 
REMARK   14  A    between atoms: C_15  and  O_16 
REMARK   15  A    between atoms: O_16  and  C_17 
REMARK   16  A    between atoms: C_17  and  C_18 
REMARK   17  A    between atoms: C_18  and  O_19 
REMARK   18  A    between atoms: O_19  and  C_20 
REMARK   19  A    between atoms: C_20  and  C_21 
REMARK   20  A    between atoms: C_21  and  O_22 
REMARK   21  A    between atoms: O_22  and  C_23 
REMARK   22  A    between atoms: C_23  and  C_24 
REMARK   23  A    between atoms: C_24  and  O_25 
REMARK   24  A    between atoms: O_25  and  C_26 
REMARK   25  A    between atoms: C_26  and  C_27 
REMARK   26  A    between atoms: C_27  and  O_28 
REMARK   27  A    between atoms: O_28  and  C_29 
REMARK   28  A    between atoms: C_29  and  C_30 
REMARK   29  A    between atoms: C_30  and  O_31 
REMARK   30  A    between atoms: O_31  and  C_32 
REMARK   31  A    between atoms: C_32  and  C_33 
REMARK   32  A    between atoms: C_33  and  O_34 
REMARK   33  A    between atoms: O_34  and  C_35 
REMARK   34  A    between atoms: C_35  and  C_36 
REMARK   35  A    between atoms: C_36  and  O_37 
REMARK   36  A    between atoms: O_37  and  C_38 
REMARK   37  A    between atoms: C_38  and  C_39 
REMARK   38  A    between atoms: C_39  and  O_40 
REMARK   39  A    between atoms: O_40  and  C_41 
REMARK   40  A    between atoms: C_41  and  C_42 
REMARK   41  A    between atoms: C_42  and  O_43 
REMARK   42  A    between atoms: O_43  and  C_44 
REMARK   43  A    between atoms: C_44  and  C_45 
REMARK   44  A    between atoms: C_45  and  O_46 
REMARK   45  A    between atoms: O_46  and  C_47 
REMARK   46  A    between atoms: C_47  and  C_48 
REMARK   47  A    between atoms: C_48  and  O_49 
REMARK   48  A    between atoms: O_49  and  C_50 
REMARK   49  A    between atoms: C_50  and  C_51 
REMARK   50  A    between atoms: C_51  and  O_52 
REMARK   51  A    between atoms: O_52  and  C_53 
REMARK   52  A    between atoms: C_53  and  C_54 
REMARK   53  A    between atoms: C_54  and  O_55 
REMARK   54  A    between atoms: O_55  and  C_56 
REMARK   55  A    between atoms: C_56  and  C_57 
REMARK   56  A    between atoms: C_57  and  O_58 
REMARK   57  A    between atoms: O_58  and  C_59 
REMARK   58  A    between atoms: C_59  and  C_60 
REMARK   59  A    between atoms: C_60  and  O_61 
REMARK   60  A    between atoms: O_61  and  C_62 
REMARK   61  A    between atoms: C_62  and  C_63 
REMARK   62  A    between atoms: C_63  and  O_64 
REMARK   63  A    between atoms: O_64  and  C_65 
REMARK   64  A    between atoms: C_65  and  C_66 
REMARK   65  A    between atoms: C_66  and  O_67 
REMARK   66  A    between atoms: O_67  and  C_68 
REMARK   67  A    between atoms: C_68  and  C_69 
REMARK   68  A    between atoms: C_69  and  O_70 
REMARK   69  A    between atoms: O_70  and  C_71 
REMARK   70  A    between atoms: C_71  and  C_72 
REMARK   71  A    between atoms: C_72  and  O_73 
REMARK   72  A    between atoms: O_73  and  C_74 
REMARK   73  A    between atoms: C_74  and  C_75 
REMARK   74  A    between atoms: C_75  and  O_76 
REMARK   75  A    between atoms: O_76  and  C_77 
REMARK   76  A    between atoms: C_77  and  C_78 
REMARK   77  A    between atoms: C_78  and  O_79 
REMARK   78  A    between atoms: O_79  and  C_80 
REMARK   79  A    between atoms: C_80  and  C_81 
REMARK   80  A    between atoms: C_81  and  O_82 
ROOT
HETATM    1  C   UNL     1     -24.495  -3.309 -11.330  1.00  0.00     0.193 C 
ENDROOT
BRANCH   1   2
HETATM    2  C   UNL     1     -24.208  -3.715  -9.895  1.00  0.00     0.193 C 
BRANCH   2   3
HETATM    3  O   UNL     1     -22.932  -3.196  -9.522  1.00  0.00    -0.387 OA
BRANCH   3   4
HETATM    4  C   UNL     1     -22.182  -4.155  -8.789  1.00  0.00     0.193 C 
BRANCH   4   5
HETATM    5  C   UNL     1     -20.770  -4.202  -9.342  1.00  0.00     0.193 C 
BRANCH   5   6
HETATM    6  O   UNL     1     -20.018  -5.134  -8.576  1.00  0.00    -0.387 OA
BRANCH   6   7
HETATM    7  C   UNL     1     -19.691  -4.609  -7.292  1.00  0.00     0.193 C 
BRANCH   7   8
HETATM    8  C   UNL     1     -19.773  -5.722  -6.270  1.00  0.00     0.193 C 
BRANCH   8   9
HETATM    9  O   UNL     1     -20.660  -6.714  -6.763  1.00  0.00    -0.387 OA
BRANCH   9  10
HETATM   10  C   UNL     1     -21.424  -7.292  -5.706  1.00  0.00     0.193 C 
BRANCH  10  11
HETATM   11  C   UNL     1     -21.361  -6.385  -4.490  1.00  0.00     0.193 C 
BRANCH  11  12
HETATM   12  O   UNL     1     -22.035  -7.018  -3.404  1.00  0.00    -0.387 OA
BRANCH  12  13
HETATM   13  C   UNL     1     -22.008  -6.208  -2.233  1.00  0.00     0.193 C 
BRANCH  13  14
HETATM   14  C   UNL     1     -22.064  -7.109  -1.013  1.00  0.00     0.193 C 
BRANCH  14  15
HETATM   15  O   UNL     1     -20.942  -7.979  -1.041  1.00  0.00    -0.387 OA
BRANCH  15  16
HETATM   16  C   UNL     1     -21.337  -9.337  -0.877  1.00  0.00     0.193 C 
BRANCH  16  17
HETATM   17  C   UNL     1     -22.722  -9.371  -0.263  1.00  0.00     0.193 C 
BRANCH  17  18
HETATM   18  O   UNL     1     -23.047 -10.720   0.027  1.00  0.00    -0.387 OA
BRANCH  18  19
HETATM   19  C   UNL     1     -23.992 -11.229  -0.906  1.00  0.00     0.193 C 
BRANCH  19  20
HETATM   20  C   UNL     1     -23.559 -12.619  -1.323  1.00  0.00     0.193 C 
BRANCH  20  21
HETATM   21  O   UNL     1     -23.066 -13.281  -0.171  1.00  0.00    -0.387 OA
BRANCH  21  22
HETATM   22  C   UNL     1     -22.653 -14.612  -0.484  1.00  0.00     0.193 C 
BRANCH  22  23
HETATM   23  C   UNL     1     -21.214 -14.595  -0.968  1.00  0.00     0.193 C 
BRANCH  23  24
HETATM   24  O   UNL     1     -20.364 -14.289   0.131  1.00  0.00    -0.387 OA
BRANCH  24  25
HETATM   25  C   UNL     1     -19.027 -14.071  -0.307  1.00  0.00     0.193 C 
BRANCH  25  26
HETATM   26  C   UNL     1     -18.080 -14.417   0.826  1.00  0.00     0.193 C 
BRANCH  26  27
HETATM   27  O   UNL     1     -17.083 -13.404   0.927  1.00  0.00    -0.387 OA
BRANCH  27  28
HETATM   28  C   UNL     1     -16.263 -13.383  -0.229  1.00  0.00     0.193 C 
BRANCH  28  29
HETATM   29  C   UNL     1     -15.811 -11.957  -0.454  1.00  0.00     0.193 C 
BRANCH  29  30
HETATM   30  O   UNL     1     -16.717 -11.333  -1.354  1.00  0.00    -0.389 OA
BRANCH  30  31
HETATM   31  C   UNL     1     -16.041 -10.366  -2.147  1.00  0.00     0.167 C 
BRANCH  31  32
HETATM   32  C   UNL     1     -16.525 -10.488  -3.580  1.00  0.00     0.026 C 
BRANCH  32  33
HETATM   33  C   UNL     1     -15.359 -10.850  -4.485  1.00  0.00     0.002 C 
BRANCH  33  34
HETATM   34  C   UNL     1     -15.731 -10.663  -5.946  1.00  0.00     0.000 C 
BRANCH  34  35
HETATM   35  C   UNL     1     -15.157 -11.798  -6.779  1.00  0.00     0.000 C 
BRANCH  35  36
HETATM   36  C   UNL     1     -16.268 -12.736  -7.220  1.00  0.00     0.000 C 
BRANCH  36  37
HETATM   37  C   UNL     1     -17.588 -12.321  -6.589  1.00  0.00     0.000 C 
BRANCH  37  38
HETATM   38  C   UNL     1     -18.726 -12.516  -7.578  1.00  0.00     0.000 C 
BRANCH  38  39
HETATM   39  C   UNL     1     -19.821 -13.371  -6.960  1.00  0.00     0.000 C 
BRANCH  39  40
HETATM   40  C   UNL     1     -21.184 -12.942  -7.483  1.00  0.00    -0.000 C 
BRANCH  40  41
HETATM   41  C   UNL     1     -21.939 -12.139  -6.431  1.00  0.00    -0.005 C 
HETATM   42  C   UNL     1     -21.537 -12.576  -5.035  1.00  0.00     0.005 C 
ENDBRANCH  40  41
ENDBRANCH  39  40
ENDBRANCH  38  39
ENDBRANCH  37  38
ENDBRANCH  36  37
ENDBRANCH  35  36
ENDBRANCH  34  35
ENDBRANCH  33  34
ENDBRANCH  32  33
ENDBRANCH  31  32
ENDBRANCH  30  31
ENDBRANCH  29  30
ENDBRANCH  28  29
ENDBRANCH  27  28
ENDBRANCH  26  27
ENDBRANCH  25  26
ENDBRANCH  24  25
ENDBRANCH  23  24
ENDBRANCH  22  23
ENDBRANCH  21  22
ENDBRANCH  20  21
ENDBRANCH  19  20
ENDBRANCH  18  19
ENDBRANCH  17  18
ENDBRANCH  16  17
ENDBRANCH  15  16
ENDBRANCH  14  15
ENDBRANCH  13  14
ENDBRANCH  12  13
ENDBRANCH  11  12
ENDBRANCH  10  11
ENDBRANCH   9  10
ENDBRANCH   8   9
ENDBRANCH   7   8
ENDBRANCH   6   7
ENDBRANCH   5   6
ENDBRANCH   4   5
ENDBRANCH   3   4
ENDBRANCH   2   3
ENDBRANCH   1   2
BRANCH   1  43
HETATM   43  O   UNL     1     -23.278  -2.866 -11.930  1.00  0.00    -0.387 OA
BRANCH  43  44
HETATM   44  C   UNL     1     -23.423  -2.720 -13.341  1.00  0.00     0.193 C 
BRANCH  44  45
HETATM   45  C   UNL     1     -24.854  -3.044 -13.728  1.00  0.00     0.193 C 
BRANCH  45  46
HETATM   46  O   UNL     1     -24.839  -3.737 -14.969  1.00  0.00    -0.387 OA
BRANCH  46  47
HETATM   47  C   UNL     1     -25.693  -4.878 -14.935  1.00  0.00     0.193 C 
BRANCH  47  48
HETATM   48  C   UNL     1     -24.903  -6.105 -15.355  1.00  0.00     0.193 C 
BRANCH  48  49
HETATM   49  O   UNL     1     -25.059  -6.301 -16.759  1.00  0.00    -0.387 OA
BRANCH  49  50
HETATM   50  C   UNL     1     -24.220  -7.351 -17.221  1.00  0.00     0.193 C 
BRANCH  50  51
HETATM   51  C   UNL     1     -23.779  -7.020 -18.634  1.00  0.00     0.193 C 
BRANCH  51  52
HETATM   52  O   UNL     1     -24.693  -7.614 -19.547  1.00  0.00    -0.387 OA
BRANCH  52  53
HETATM   53  C   UNL     1     -25.375  -6.631 -20.312  1.00  0.00     0.193 C 
BRANCH  53  54
HETATM   54  C   UNL     1     -26.868  -6.858 -20.177  1.00  0.00     0.193 C 
BRANCH  54  55
HETATM   55  O   UNL     1     -27.348  -6.057 -19.109  1.00  0.00    -0.387 OA
BRANCH  55  56
HETATM   56  C   UNL     1     -28.553  -6.586 -18.568  1.00  0.00     0.193 C 
BRANCH  56  57
HETATM   57  C   UNL     1     -28.434  -6.621 -17.057  1.00  0.00     0.193 C 
BRANCH  57  58
HETATM   58  O   UNL     1     -29.607  -6.039 -16.504  1.00  0.00    -0.387 OA
BRANCH  58  59
HETATM   59  C   UNL     1     -30.771  -6.436 -17.226  1.00  0.00     0.193 C 
BRANCH  59  60
HETATM   60  C   UNL     1     -31.922  -5.515 -16.861  1.00  0.00     0.193 C 
BRANCH  60  61
HETATM   61  O   UNL     1     -31.446  -4.174 -16.830  1.00  0.00    -0.387 OA
BRANCH  61  62
HETATM   62  C   UNL     1     -32.299  -3.315 -17.573  1.00  0.00     0.193 C 
BRANCH  62  63
HETATM   63  C   UNL     1     -33.655  -3.282 -16.895  1.00  0.00     0.193 C 
BRANCH  63  64
HETATM   64  O   UNL     1     -34.310  -2.070 -17.247  1.00  0.00    -0.387 OA
BRANCH  64  65
HETATM   65  C   UNL     1     -35.211  -1.655 -16.229  1.00  0.00     0.193 C 
BRANCH  65  66
HETATM   66  C   UNL     1     -36.399  -0.979 -16.882  1.00  0.00     0.193 C 
BRANCH  66  67
HETATM   67  O   UNL     1     -36.834   0.079 -16.036  1.00  0.00    -0.387 OA
BRANCH  67  68
HETATM   68  C   UNL     1     -38.074  -0.237 -15.410  1.00  0.00     0.193 C 
BRANCH  68  69
HETATM   69  C   UNL     1     -37.958   0.022 -13.916  1.00  0.00     0.193 C 
BRANCH  69  70
HETATM   70  O   UNL     1     -37.042  -0.915 -13.352  1.00  0.00    -0.387 OA
BRANCH  70  71
HETATM   71  C   UNL     1     -35.973  -0.255 -12.684  1.00  0.00     0.193 C 
BRANCH  71  72
HETATM   72  C   UNL     1     -34.873  -1.262 -12.419  1.00  0.00     0.193 C 
BRANCH  72  73
HETATM   73  O   UNL     1     -34.807  -1.511 -11.023  1.00  0.00    -0.387 OA
BRANCH  73  74
HETATM   74  C   UNL     1     -33.531  -2.008 -10.641  1.00  0.00     0.193 C 
BRANCH  74  75
HETATM   75  C   UNL     1     -33.263  -3.293 -11.404  1.00  0.00     0.193 C 
BRANCH  75  76
HETATM   76  O   UNL     1     -33.660  -4.392 -10.599  1.00  0.00    -0.387 OA
BRANCH  76  77
HETATM   77  C   UNL     1     -34.126  -5.476 -11.396  1.00  0.00     0.193 C 
BRANCH  77  78
HETATM   78  C   UNL     1     -34.640  -4.925 -12.713  1.00  0.00     0.193 C 
BRANCH  78  79
HETATM   79  O   UNL     1     -35.396  -5.938 -13.374  1.00  0.00    -0.387 OA
BRANCH  79  80
HETATM   80  C   UNL     1     -35.113  -5.951 -14.779  1.00  0.00     0.193 C 
BRANCH  80  81
HETATM   81  C   UNL     1     -35.925  -7.058 -15.443  1.00  0.00     0.190 C 
BRANCH  81  82
HETATM   82  O   UNL     1     -36.022  -8.192 -14.582  1.00  0.00    -0.399 OA
HETATM   83  H   UNL     1     -36.716  -7.964 -13.934  1.00  0.00     0.209 HD
ENDBRANCH  81  82
ENDBRANCH  80  81
ENDBRANCH  79  80
ENDBRANCH  78  79
ENDBRANCH  77  78
ENDBRANCH  76  77
ENDBRANCH  75  76
ENDBRANCH  74  75
ENDBRANCH  73  74
ENDBRANCH  72  73
ENDBRANCH  71  72
ENDBRANCH  70  71
ENDBRANCH  69  70
ENDBRANCH  68  69
ENDBRANCH  67  68
ENDBRANCH  66  67
ENDBRANCH  65  66
ENDBRANCH  64  65
ENDBRANCH  63  64
ENDBRANCH  62  63
ENDBRANCH  61  62
ENDBRANCH  60  61
ENDBRANCH  59  60
ENDBRANCH  58  59
ENDBRANCH  57  58
ENDBRANCH  56  57
ENDBRANCH  55  56
ENDBRANCH  54  55
ENDBRANCH  53  54
ENDBRANCH  52  53
ENDBRANCH  51  52
ENDBRANCH  50  51
ENDBRANCH  49  50
ENDBRANCH  48  49
ENDBRANCH  47  48
ENDBRANCH  46  47
ENDBRANCH  45  46
ENDBRANCH  44  45
ENDBRANCH  43  44
ENDBRANCH   1  43
TORSDOF 80
BEGIN_RES ARG D 557
REMARK  4 active torsions:
REMARK  status: ('A' for Active; 'I' for Inactive)
REMARK    1  A    between atoms: CA   and  CB  
REMARK    2  A    between atoms: CB   and  CG  
REMARK    3  A    between atoms: CG   and  CD  
REMARK    4  A    between atoms: CD   and  NE  
REMARK       I    between atoms: NE   and  CZ  
REMARK       I    between atoms: CZ   and  NH1 
REMARK       I    between atoms: CZ   and  NH2 
ROOT
ATOM      1  CA  ARG D 557     -26.217   2.705 -17.014  1.00 35.49     0.159 C 
ENDROOT
BRANCH   1   2
ATOM      2  CB  ARG D 557     -26.789   1.319 -17.183  1.00 35.49     0.034 C 
BRANCH   2   3
ATOM      3  CG  ARG D 557     -28.222   1.228 -17.489  1.00 35.49     0.027 C 
BRANCH   3   4
ATOM      4  CD  ARG D 557     -28.940   0.320 -16.566  1.00 35.49     0.116 C 
BRANCH   4   5
ATOM      5  NE  ARG D 557     -29.205  -0.962 -17.164  1.00 35.49    -0.212 N 
ATOM      6  CZ  ARG D 557     -28.496  -2.054 -16.986  1.00 35.49     0.666 C 
ATOM      7  NH1 ARG D 557     -27.419  -2.084 -16.223  1.00 35.49    -0.235 N 
ATOM      8  NH2 ARG D 557     -28.896  -3.134 -17.591  1.00 35.49    -0.235 N 
ATOM      9  HH  ARG D 557     -27.139  -1.385 -15.814  1.00 35.49     0.174 HD
ATOM     10  HH  ARG D 557     -26.998  -2.826 -16.143  1.00 35.49     0.174 HD
ATOM     11  HH  ARG D 557     -29.600  -3.087 -18.071  1.00 35.49     0.174 HD
ATOM     12  HH  ARG D 557     -28.467  -3.859 -17.498  1.00 35.49     0.174 HD
ATOM     13  HE  ARG D 557     -29.840  -1.016 -17.728  1.00 35.49     0.178 HD
ENDBRANCH   4   5
ENDBRANCH   3   4
ENDBRANCH   2   3
ENDBRANCH   1   2
END_RES ARG D 557
BEGIN_RES GLU D 570
REMARK  3 active torsions:
REMARK  status: ('A' for Active; 'I' for Inactive)
REMARK    5  A    between atoms: CA   and  CB  
REMARK    6  A    between atoms: CB   and  CG  
REMARK    7  A    between atoms: CG   and  CD  
ROOT
ATOM     14  CA  GLU D 570     -18.033  -6.348 -13.375  1.00 32.92     0.160 C 
ENDROOT
BRANCH  14  15
ATOM     15  CB  GLU D 570     -19.500  -6.345 -13.794  1.00 32.92     0.043 C 
BRANCH  15  16
ATOM     16  CG  GLU D 570     -19.907  -5.386 -14.853  1.00 32.92     0.100 C 
BRANCH  16  17
ATOM     17  CD  GLU D 570     -20.854  -5.991 -15.864  1.00 32.92     0.185 C 
ATOM     18  OE1 GLU D 570     -20.857  -7.226 -16.026  1.00 32.92    -0.647 OA
ATOM     19  OE2 GLU D 570     -21.589  -5.220 -16.512  1.00 32.92    -0.647 OA
ENDBRANCH  16  17
ENDBRANCH  15  16
ENDBRANCH  14  15
END_RES GLU D 570
ENDMDL
MODEL 7
REMARK VINA RESULT:      -5.3      2.022     17.370
REMARK WARNING: 32 MAX_TORS EXCEEDED!!!
REMARK  80 active torsions:
REMARK  status: ('A' for Active; 'I' for Inactive)
REMARK    1  A    between atoms: C_2  and  C_3 
REMARK    2  A    between atoms: C_3  and  C_4 
REMARK    3  A    between atoms: C_4  and  C_5 
REMARK    4  A    between atoms: C_5  and  C_6 
REMARK    5  A    between atoms: C_6  and  C_7 
REMARK    6  A    between atoms: C_7  and  C_8 
REMARK    7  A    between atoms: C_8  and  C_9 
REMARK    8  A    between atoms: C_9  and  C_10 
REMARK    9  A    between atoms: C_10  and  C_11 
REMARK   10  A    between atoms: C_11  and  C_12 
REMARK   11  A    between atoms: C_12  and  O_13 
REMARK   12  A    between atoms: O_13  and  C_14 
REMARK   13  A    between atoms: C_14  and  C_15 
REMARK   14  A    between atoms: C_15  and  O_16 
REMARK   15  A    between atoms: O_16  and  C_17 
REMARK   16  A    between atoms: C_17  and  C_18 
REMARK   17  A    between atoms: C_18  and  O_19 
REMARK   18  A    between atoms: O_19  and  C_20 
REMARK   19  A    between atoms: C_20  and  C_21 
REMARK   20  A    between atoms: C_21  and  O_22 
REMARK   21  A    between atoms: O_22  and  C_23 
REMARK   22  A    between atoms: C_23  and  C_24 
REMARK   23  A    between atoms: C_24  and  O_25 
REMARK   24  A    between atoms: O_25  and  C_26 
REMARK   25  A    between atoms: C_26  and  C_27 
REMARK   26  A    between atoms: C_27  and  O_28 
REMARK   27  A    between atoms: O_28  and  C_29 
REMARK   28  A    between atoms: C_29  and  C_30 
REMARK   29  A    between atoms: C_30  and  O_31 
REMARK   30  A    between atoms: O_31  and  C_32 
REMARK   31  A    between atoms: C_32  and  C_33 
REMARK   32  A    between atoms: C_33  and  O_34 
REMARK   33  A    between atoms: O_34  and  C_35 
REMARK   34  A    between atoms: C_35  and  C_36 
REMARK   35  A    between atoms: C_36  and  O_37 
REMARK   36  A    between atoms: O_37  and  C_38 
REMARK   37  A    between atoms: C_38  and  C_39 
REMARK   38  A    between atoms: C_39  and  O_40 
REMARK   39  A    between atoms: O_40  and  C_41 
REMARK   40  A    between atoms: C_41  and  C_42 
REMARK   41  A    between atoms: C_42  and  O_43 
REMARK   42  A    between atoms: O_43  and  C_44 
REMARK   43  A    between atoms: C_44  and  C_45 
REMARK   44  A    between atoms: C_45  and  O_46 
REMARK   45  A    between atoms: O_46  and  C_47 
REMARK   46  A    between atoms: C_47  and  C_48 
REMARK   47  A    between atoms: C_48  and  O_49 
REMARK   48  A    between atoms: O_49  and  C_50 
REMARK   49  A    between atoms: C_50  and  C_51 
REMARK   50  A    between atoms: C_51  and  O_52 
REMARK   51  A    between atoms: O_52  and  C_53 
REMARK   52  A    between atoms: C_53  and  C_54 
REMARK   53  A    between atoms: C_54  and  O_55 
REMARK   54  A    between atoms: O_55  and  C_56 
REMARK   55  A    between atoms: C_56  and  C_57 
REMARK   56  A    between atoms: C_57  and  O_58 
REMARK   57  A    between atoms: O_58  and  C_59 
REMARK   58  A    between atoms: C_59  and  C_60 
REMARK   59  A    between atoms: C_60  and  O_61 
REMARK   60  A    between atoms: O_61  and  C_62 
REMARK   61  A    between atoms: C_62  and  C_63 
REMARK   62  A    between atoms: C_63  and  O_64 
REMARK   63  A    between atoms: O_64  and  C_65 
REMARK   64  A    between atoms: C_65  and  C_66 
REMARK   65  A    between atoms: C_66  and  O_67 
REMARK   66  A    between atoms: O_67  and  C_68 
REMARK   67  A    between atoms: C_68  and  C_69 
REMARK   68  A    between atoms: C_69  and  O_70 
REMARK   69  A    between atoms: O_70  and  C_71 
REMARK   70  A    between atoms: C_71  and  C_72 
REMARK   71  A    between atoms: C_72  and  O_73 
REMARK   72  A    between atoms: O_73  and  C_74 
REMARK   73  A    between atoms: C_74  and  C_75 
REMARK   74  A    between atoms: C_75  and  O_76 
REMARK   75  A    between atoms: O_76  and  C_77 
REMARK   76  A    between atoms: C_77  and  C_78 
REMARK   77  A    between atoms: C_78  and  O_79 
REMARK   78  A    between atoms: O_79  and  C_80 
REMARK   79  A    between atoms: C_80  and  C_81 
REMARK   80  A    between atoms: C_81  and  O_82 
ROOT
HETATM    1  C   UNL     1     -21.197  -8.181  -5.344  1.00  0.00     0.193 C 
ENDROOT
BRANCH   1   2
HETATM    2  C   UNL     1     -20.824  -7.298  -4.165  1.00  0.00     0.193 C 
BRANCH   2   3
HETATM    3  O   UNL     1     -21.155  -5.947  -4.486  1.00  0.00    -0.387 OA
BRANCH   3   4
HETATM    4  C   UNL     1     -21.165  -5.742  -5.892  1.00  0.00     0.193 C 
BRANCH   4   5
HETATM    5  C   UNL     1     -20.452  -4.440  -6.204  1.00  0.00     0.193 C 
BRANCH   5   6
HETATM    6  O   UNL     1     -21.182  -3.757  -7.214  1.00  0.00    -0.387 OA
BRANCH   6   7
HETATM    7  C   UNL     1     -21.843  -4.670  -8.086  1.00  0.00     0.193 C 
BRANCH   7   8
HETATM    8  C   UNL     1     -23.073  -4.000  -8.661  1.00  0.00     0.193 C 
BRANCH   8   9
HETATM    9  O   UNL     1     -23.365  -4.604  -9.911  1.00  0.00    -0.387 OA
BRANCH   9  10
HETATM   10  C   UNL     1     -22.290  -4.429 -10.831  1.00  0.00     0.193 C 
BRANCH  10  11
HETATM   11  C   UNL     1     -22.430  -3.078 -11.511  1.00  0.00     0.193 C 
BRANCH  11  12
HETATM   12  O   UNL     1     -22.653  -3.281 -12.905  1.00  0.00    -0.387 OA
BRANCH  12  13
HETATM   13  C   UNL     1     -22.607  -4.663 -13.244  1.00  0.00     0.193 C 
BRANCH  13  14
HETATM   14  C   UNL     1     -22.840  -4.809 -14.736  1.00  0.00     0.193 C 
BRANCH  14  15
HETATM   15  O   UNL     1     -24.125  -5.378 -14.940  1.00  0.00    -0.387 OA
BRANCH  15  16
HETATM   16  C   UNL     1     -24.028  -6.700 -15.458  1.00  0.00     0.193 C 
BRANCH  16  17
HETATM   17  C   UNL     1     -25.339  -7.057 -16.131  1.00  0.00     0.193 C 
BRANCH  17  18
HETATM   18  O   UNL     1     -26.397  -6.518 -15.356  1.00  0.00    -0.387 OA
BRANCH  18  19
HETATM   19  C   UNL     1     -27.607  -7.233 -15.576  1.00  0.00     0.193 C 
BRANCH  19  20
HETATM   20  C   UNL     1     -28.771  -6.334 -15.216  1.00  0.00     0.193 C 
BRANCH  20  21
HETATM   21  O   UNL     1     -29.856  -6.673 -16.061  1.00  0.00    -0.387 OA
BRANCH  21  22
HETATM   22  C   UNL     1     -29.483  -7.693 -16.989  1.00  0.00     0.193 C 
BRANCH  22  23
HETATM   23  C   UNL     1     -29.733  -7.206 -18.405  1.00  0.00     0.193 C 
BRANCH  23  24
HETATM   24  O   UNL     1     -28.484  -7.082 -19.076  1.00  0.00    -0.387 OA
BRANCH  24  25
HETATM   25  C   UNL     1     -27.953  -5.770 -18.922  1.00  0.00     0.193 C 
BRANCH  25  26
HETATM   26  C   UNL     1     -29.098  -4.809 -18.662  1.00  0.00     0.193 C 
BRANCH  26  27
HETATM   27  O   UNL     1     -28.705  -3.876 -17.660  1.00  0.00    -0.387 OA
BRANCH  27  28
HETATM   28  C   UNL     1     -29.794  -3.048 -17.284  1.00  0.00     0.193 C 
BRANCH  28  29
HETATM   29  C   UNL     1     -31.071  -3.827 -17.512  1.00  0.00     0.193 C 
BRANCH  29  30
HETATM   30  O   UNL     1     -32.143  -2.905 -17.654  1.00  0.00    -0.389 OA
BRANCH  30  31
HETATM   31  C   UNL     1     -33.269  -3.333 -16.901  1.00  0.00     0.167 C 
BRANCH  31  32
HETATM   32  C   UNL     1     -34.461  -2.472 -17.274  1.00  0.00     0.026 C 
BRANCH  32  33
HETATM   33  C   UNL     1     -35.076  -1.877 -16.018  1.00  0.00     0.002 C 
BRANCH  33  34
HETATM   34  C   UNL     1     -35.833  -0.600 -16.341  1.00  0.00     0.000 C 
BRANCH  34  35
HETATM   35  C   UNL     1     -36.505  -0.063 -15.087  1.00  0.00     0.000 C 
BRANCH  35  36
HETATM   36  C   UNL     1     -35.478   0.602 -14.186  1.00  0.00     0.000 C 
BRANCH  36  37
HETATM   37  C   UNL     1     -35.627   0.098 -12.759  1.00  0.00     0.000 C 
BRANCH  37  38
HETATM   38  C   UNL     1     -34.494  -0.857 -12.420  1.00  0.00     0.000 C 
BRANCH  38  39
HETATM   39  C   UNL     1     -35.007  -1.996 -11.552  1.00  0.00     0.000 C 
BRANCH  39  40
HETATM   40  C   UNL     1     -33.934  -2.433 -10.565  1.00  0.00    -0.000 C 
BRANCH  40  41
HETATM   41  C   UNL     1     -33.439  -3.837 -10.892  1.00  0.00    -0.005 C 
HETATM   42  C   UNL     1     -34.540  -4.857 -10.668  1.00  0.00     0.005 C 
ENDBRANCH  40  41
ENDBRANCH  39  40
ENDBRANCH  38  39
ENDBRANCH  37  38
ENDBRANCH  36  37
ENDBRANCH  35  36
ENDBRANCH  34  35
ENDBRANCH  33  34
ENDBRANCH  32  33
ENDBRANCH  31  32
ENDBRANCH  30  31
ENDBRANCH  29  30
ENDBRANCH  28  29
ENDBRANCH  27  28
ENDBRANCH  26  27
ENDBRANCH  25  26
ENDBRANCH  24  25
ENDBRANCH  23  24
ENDBRANCH  22  23
ENDBRANCH  21  22
ENDBRANCH  20  21
ENDBRANCH  19  20
ENDBRANCH  18  19
ENDBRANCH  17  18
ENDBRANCH  16  17
ENDBRANCH  15  16
ENDBRANCH  14  15
ENDBRANCH  13  14
ENDBRANCH  12  13
ENDBRANCH  11  12
ENDBRANCH  10  11
ENDBRANCH   9  10
ENDBRANCH   8   9
ENDBRANCH   7   8
ENDBRANCH   6   7
ENDBRANCH   5   6
ENDBRANCH   4   5
ENDBRANCH   3   4
ENDBRANCH   2   3
ENDBRANCH   1   2
BRANCH   1  43
HETATM   43  O   UNL     1     -20.127  -9.093  -5.586  1.00  0.00    -0.387 OA
BRANCH  43  44
HETATM   44  C   UNL     1     -19.088  -8.936  -4.623  1.00  0.00     0.193 C 
BRANCH  44  45
HETATM   45  C   UNL     1     -18.020  -9.984  -4.872  1.00  0.00     0.193 C 
BRANCH  45  46
HETATM   46  O   UNL     1     -16.918  -9.717  -4.013  1.00  0.00    -0.387 OA
BRANCH  46  47
HETATM   47  C   UNL     1     -16.994 -10.490  -2.818  1.00  0.00     0.193 C 
BRANCH  47  48
HETATM   48  C   UNL     1     -15.593 -10.914  -2.409  1.00  0.00     0.193 C 
BRANCH  48  49
HETATM   49  O   UNL     1     -15.297 -12.175  -3.005  1.00  0.00    -0.387 OA
BRANCH  49  50
HETATM   50  C   UNL     1     -14.167 -12.079  -3.861  1.00  0.00     0.193 C 
BRANCH  50  51
HETATM   51  C   UNL     1     -13.717 -13.483  -4.214  1.00  0.00     0.193 C 
BRANCH  51  52
HETATM   52  O   UNL     1     -13.902 -14.320  -3.079  1.00  0.00    -0.387 OA
BRANCH  52  53
HETATM   53  C   UNL     1     -12.672 -14.882  -2.644  1.00  0.00     0.193 C 
BRANCH  53  54
HETATM   54  C   UNL     1     -12.468 -14.532  -1.182  1.00  0.00     0.193 C 
BRANCH  54  55
HETATM   55  O   UNL     1     -13.664 -13.947  -0.691  1.00  0.00    -0.387 OA
BRANCH  55  56
HETATM   56  C   UNL     1     -13.717 -13.997   0.730  1.00  0.00     0.193 C 
BRANCH  56  57
HETATM   57  C   UNL     1     -14.806 -13.058   1.210  1.00  0.00     0.193 C 
BRANCH  57  58
HETATM   58  O   UNL     1     -16.019 -13.794   1.306  1.00  0.00    -0.387 OA
BRANCH  58  59
HETATM   59  C   UNL     1     -17.001 -13.292   0.402  1.00  0.00     0.193 C 
BRANCH  59  60
HETATM   60  C   UNL     1     -17.107 -14.228  -0.789  1.00  0.00     0.193 C 
BRANCH  60  61
HETATM   61  O   UNL     1     -18.371 -14.037  -1.413  1.00  0.00    -0.387 OA
BRANCH  61  62
HETATM   62  C   UNL     1     -18.244 -14.028  -2.828  1.00  0.00     0.193 C 
BRANCH  62  63
HETATM   63  C   UNL     1     -17.788 -15.403  -3.275  1.00  0.00     0.193 C 
BRANCH  63  64
HETATM   64  O   UNL     1     -16.973 -15.257  -4.432  1.00  0.00    -0.387 OA
BRANCH  64  65
HETATM   65  C   UNL     1     -17.207 -14.011  -5.075  1.00  0.00     0.193 C 
BRANCH  65  66
HETATM   66  C   UNL     1     -16.817 -14.140  -6.534  1.00  0.00     0.193 C 
BRANCH  66  67
HETATM   67  O   UNL     1     -17.177 -12.936  -7.202  1.00  0.00    -0.387 OA
BRANCH  67  68
HETATM   68  C   UNL     1     -17.924 -13.206  -8.385  1.00  0.00     0.193 C 
BRANCH  68  69
HETATM   69  C   UNL     1     -18.620 -14.550  -8.237  1.00  0.00     0.193 C 
BRANCH  69  70
HETATM   70  O   UNL     1     -19.924 -14.341  -7.698  1.00  0.00    -0.387 OA
BRANCH  70  71
HETATM   71  C   UNL     1     -20.451 -13.079  -8.091  1.00  0.00     0.193 C 
BRANCH  71  72
HETATM   72  C   UNL     1     -20.937 -12.350  -6.855  1.00  0.00     0.193 C 
BRANCH  72  73
HETATM   73  O   UNL     1     -20.466 -13.036  -5.705  1.00  0.00    -0.387 OA
BRANCH  73  74
HETATM   74  C   UNL     1     -20.862 -12.378  -4.508  1.00  0.00     0.193 C 
BRANCH  74  75
HETATM   75  C   UNL     1     -22.338 -12.043  -4.603  1.00  0.00     0.193 C 
BRANCH  75  76
HETATM   76  O   UNL     1     -22.613 -10.948  -3.742  1.00  0.00    -0.387 OA
BRANCH  76  77
HETATM   77  C   UNL     1     -21.681 -10.888  -2.667  1.00  0.00     0.193 C 
BRANCH  77  78
HETATM   78  C   UNL     1     -21.957  -9.638  -1.853  1.00  0.00     0.193 C 
BRANCH  78  79
HETATM   79  O   UNL     1     -22.413 -10.021  -0.557  1.00  0.00    -0.387 OA
BRANCH  79  80
HETATM   80  C   UNL     1     -21.844  -9.180   0.454  1.00  0.00     0.193 C 
BRANCH  80  81
HETATM   81  C   UNL     1     -22.421  -7.775   0.318  1.00  0.00     0.190 C 
BRANCH  81  82
HETATM   82  O   UNL     1     -23.804  -7.767   0.667  1.00  0.00    -0.399 OA
HETATM   83  H   UNL     1     -23.885  -7.107   1.382  1.00  0.00     0.209 HD
ENDBRANCH  81  82
ENDBRANCH  80  81
ENDBRANCH  79  80
ENDBRANCH  78  79
ENDBRANCH  77  78
ENDBRANCH  76  77
ENDBRANCH  75  76
ENDBRANCH  74  75
ENDBRANCH  73  74
ENDBRANCH  72  73
ENDBRANCH  71  72
ENDBRANCH  70  71
ENDBRANCH  69  70
ENDBRANCH  68  69
ENDBRANCH  67  68
ENDBRANCH  66  67
ENDBRANCH  65  66
ENDBRANCH  64  65
ENDBRANCH  63  64
ENDBRANCH  62  63
ENDBRANCH  61  62
ENDBRANCH  60  61
ENDBRANCH  59  60
ENDBRANCH  58  59
ENDBRANCH  57  58
ENDBRANCH  56  57
ENDBRANCH  55  56
ENDBRANCH  54  55
ENDBRANCH  53  54
ENDBRANCH  52  53
ENDBRANCH  51  52
ENDBRANCH  50  51
ENDBRANCH  49  50
ENDBRANCH  48  49
ENDBRANCH  47  48
ENDBRANCH  46  47
ENDBRANCH  45  46
ENDBRANCH  44  45
ENDBRANCH  43  44
ENDBRANCH   1  43
TORSDOF 80
BEGIN_RES ARG D 557
REMARK  4 active torsions:
REMARK  status: ('A' for Active; 'I' for Inactive)
REMARK    1  A    between atoms: CA   and  CB  
REMARK    2  A    between atoms: CB   and  CG  
REMARK    3  A    between atoms: CG   and  CD  
REMARK    4  A    between atoms: CD   and  NE  
REMARK       I    between atoms: NE   and  CZ  
REMARK       I    between atoms: CZ   and  NH1 
REMARK       I    between atoms: CZ   and  NH2 
ROOT
ATOM      1  CA  ARG D 557     -26.217   2.705 -17.014  1.00 35.49     0.159 C 
ENDROOT
BRANCH   1   2
ATOM      2  CB  ARG D 557     -26.789   1.319 -17.183  1.00 35.49     0.034 C 
BRANCH   2   3
ATOM      3  CG  ARG D 557     -25.958   0.201 -16.721  1.00 35.49     0.027 C 
BRANCH   3   4
ATOM      4  CD  ARG D 557     -26.766  -0.917 -16.181  1.00 35.49     0.116 C 
BRANCH   4   5
ATOM      5  NE  ARG D 557     -26.219  -1.440 -14.956  1.00 35.49    -0.212 N 
ATOM      6  CZ  ARG D 557     -26.158  -2.709 -14.623  1.00 35.49     0.666 C 
ATOM      7  NH1 ARG D 557     -26.622  -3.670 -15.400  1.00 35.49    -0.235 N 
ATOM      8  NH2 ARG D 557     -25.608  -3.004 -13.481  1.00 35.49    -0.235 N 
ATOM      9  HH  ARG D 557     -26.986  -3.499 -16.157  1.00 35.49     0.174 HD
ATOM     10  HH  ARG D 557     -26.552  -4.481 -15.132  1.00 35.49     0.174 HD
ATOM     11  HH  ARG D 557     -25.310  -2.364 -13.003  1.00 35.49     0.174 HD
ATOM     12  HH  ARG D 557     -25.546  -3.813 -13.233  1.00 35.49     0.174 HD
ATOM     13  HE  ARG D 557     -25.963  -0.885 -14.365  1.00 35.49     0.178 HD
ENDBRANCH   4   5
ENDBRANCH   3   4
ENDBRANCH   2   3
ENDBRANCH   1   2
END_RES ARG D 557
BEGIN_RES GLU D 570
REMARK  3 active torsions:
REMARK  status: ('A' for Active; 'I' for Inactive)
REMARK    5  A    between atoms: CA   and  CB  
REMARK    6  A    between atoms: CB   and  CG  
REMARK    7  A    between atoms: CG   and  CD  
ROOT
ATOM     14  CA  GLU D 570     -18.033  -6.348 -13.375  1.00 32.92     0.160 C 
ENDROOT
BRANCH  14  15
ATOM     15  CB  GLU D 570     -19.500  -6.345 -13.794  1.00 32.92     0.043 C 
BRANCH  15  16
ATOM     16  CG  GLU D 570     -20.080  -7.629 -14.267  1.00 32.92     0.100 C 
BRANCH  16  17
ATOM     17  CD  GLU D 570     -20.527  -7.578 -15.709  1.00 32.92     0.185 C 
ATOM     18  OE1 GLU D 570     -20.457  -6.498 -16.326  1.00 32.92    -0.647 OA
ATOM     19  OE2 GLU D 570     -20.968  -8.625 -16.222  1.00 32.92    -0.647 OA
ENDBRANCH  16  17
ENDBRANCH  15  16
ENDBRANCH  14  15
END_RES GLU D 570
ENDMDL
MODEL 8
REMARK VINA RESULT:      -5.1      2.234     17.630
REMARK WARNING: 32 MAX_TORS EXCEEDED!!!
REMARK  80 active torsions:
REMARK  status: ('A' for Active; 'I' for Inactive)
REMARK    1  A    between atoms: C_2  and  C_3 
REMARK    2  A    between atoms: C_3  and  C_4 
REMARK    3  A    between atoms: C_4  and  C_5 
REMARK    4  A    between atoms: C_5  and  C_6 
REMARK    5  A    between atoms: C_6  and  C_7 
REMARK    6  A    between atoms: C_7  and  C_8 
REMARK    7  A    between atoms: C_8  and  C_9 
REMARK    8  A    between atoms: C_9  and  C_10 
REMARK    9  A    between atoms: C_10  and  C_11 
REMARK   10  A    between atoms: C_11  and  C_12 
REMARK   11  A    between atoms: C_12  and  O_13 
REMARK   12  A    between atoms: O_13  and  C_14 
REMARK   13  A    between atoms: C_14  and  C_15 
REMARK   14  A    between atoms: C_15  and  O_16 
REMARK   15  A    between atoms: O_16  and  C_17 
REMARK   16  A    between atoms: C_17  and  C_18 
REMARK   17  A    between atoms: C_18  and  O_19 
REMARK   18  A    between atoms: O_19  and  C_20 
REMARK   19  A    between atoms: C_20  and  C_21 
REMARK   20  A    between atoms: C_21  and  O_22 
REMARK   21  A    between atoms: O_22  and  C_23 
REMARK   22  A    between atoms: C_23  and  C_24 
REMARK   23  A    between atoms: C_24  and  O_25 
REMARK   24  A    between atoms: O_25  and  C_26 
REMARK   25  A    between atoms: C_26  and  C_27 
REMARK   26  A    between atoms: C_27  and  O_28 
REMARK   27  A    between atoms: O_28  and  C_29 
REMARK   28  A    between atoms: C_29  and  C_30 
REMARK   29  A    between atoms: C_30  and  O_31 
REMARK   30  A    between atoms: O_31  and  C_32 
REMARK   31  A    between atoms: C_32  and  C_33 
REMARK   32  A    between atoms: C_33  and  O_34 
REMARK   33  A    between atoms: O_34  and  C_35 
REMARK   34  A    between atoms: C_35  and  C_36 
REMARK   35  A    between atoms: C_36  and  O_37 
REMARK   36  A    between atoms: O_37  and  C_38 
REMARK   37  A    between atoms: C_38  and  C_39 
REMARK   38  A    between atoms: C_39  and  O_40 
REMARK   39  A    between atoms: O_40  and  C_41 
REMARK   40  A    between atoms: C_41  and  C_42 
REMARK   41  A    between atoms: C_42  and  O_43 
REMARK   42  A    between atoms: O_43  and  C_44 
REMARK   43  A    between atoms: C_44  and  C_45 
REMARK   44  A    between atoms: C_45  and  O_46 
REMARK   45  A    between atoms: O_46  and  C_47 
REMARK   46  A    between atoms: C_47  and  C_48 
REMARK   47  A    between atoms: C_48  and  O_49 
REMARK   48  A    between atoms: O_49  and  C_50 
REMARK   49  A    between atoms: C_50  and  C_51 
REMARK   50  A    between atoms: C_51  and  O_52 
REMARK   51  A    between atoms: O_52  and  C_53 
REMARK   52  A    between atoms: C_53  and  C_54 
REMARK   53  A    between atoms: C_54  and  O_55 
REMARK   54  A    between atoms: O_55  and  C_56 
REMARK   55  A    between atoms: C_56  and  C_57 
REMARK   56  A    between atoms: C_57  and  O_58 
REMARK   57  A    between atoms: O_58  and  C_59 
REMARK   58  A    between atoms: C_59  and  C_60 
REMARK   59  A    between atoms: C_60  and  O_61 
REMARK   60  A    between atoms: O_61  and  C_62 
REMARK   61  A    between atoms: C_62  and  C_63 
REMARK   62  A    between atoms: C_63  and  O_64 
REMARK   63  A    between atoms: O_64  and  C_65 
REMARK   64  A    between atoms: C_65  and  C_66 
REMARK   65  A    between atoms: C_66  and  O_67 
REMARK   66  A    between atoms: O_67  and  C_68 
REMARK   67  A    between atoms: C_68  and  C_69 
REMARK   68  A    between atoms: C_69  and  O_70 
REMARK   69  A    between atoms: O_70  and  C_71 
REMARK   70  A    between atoms: C_71  and  C_72 
REMARK   71  A    between atoms: C_72  and  O_73 
REMARK   72  A    between atoms: O_73  and  C_74 
REMARK   73  A    between atoms: C_74  and  C_75 
REMARK   74  A    between atoms: C_75  and  O_76 
REMARK   75  A    between atoms: O_76  and  C_77 
REMARK   76  A    between atoms: C_77  and  C_78 
REMARK   77  A    between atoms: C_78  and  O_79 
REMARK   78  A    between atoms: O_79  and  C_80 
REMARK   79  A    between atoms: C_80  and  C_81 
REMARK   80  A    between atoms: C_81  and  O_82 
ROOT
HETATM    1  C   UNL     1     -21.261  -8.785  -5.122  1.00  0.00     0.193 C 
ENDROOT
BRANCH   1   2
HETATM    2  C   UNL     1     -20.074  -7.871  -4.863  1.00  0.00     0.193 C 
BRANCH   2   3
HETATM    3  O   UNL     1     -20.454  -6.533  -5.183  1.00  0.00    -0.387 OA
BRANCH   3   4
HETATM    4  C   UNL     1     -20.248  -6.256  -6.561  1.00  0.00     0.193 C 
BRANCH   4   5
HETATM    5  C   UNL     1     -19.797  -4.816  -6.711  1.00  0.00     0.193 C 
BRANCH   5   6
HETATM    6  O   UNL     1     -20.943  -4.007  -6.942  1.00  0.00    -0.387 OA
BRANCH   6   7
HETATM    7  C   UNL     1     -21.925  -4.701  -7.707  1.00  0.00     0.193 C 
BRANCH   7   8
HETATM    8  C   UNL     1     -22.668  -3.705  -8.573  1.00  0.00     0.193 C 
BRANCH   8   9
HETATM    9  O   UNL     1     -22.819  -4.267  -9.867  1.00  0.00    -0.387 OA
BRANCH   9  10
HETATM   10  C   UNL     1     -21.641  -4.080 -10.649  1.00  0.00     0.193 C 
BRANCH  10  11
HETATM   11  C   UNL     1     -21.931  -3.085 -11.758  1.00  0.00     0.193 C 
BRANCH  11  12
HETATM   12  O   UNL     1     -22.988  -3.591 -12.572  1.00  0.00    -0.387 OA
BRANCH  12  13
HETATM   13  C   UNL     1     -22.651  -4.855 -13.134  1.00  0.00     0.193 C 
BRANCH  13  14
HETATM   14  C   UNL     1     -23.015  -4.848 -14.608  1.00  0.00     0.193 C 
BRANCH  14  15
HETATM   15  O   UNL     1     -24.251  -5.529 -14.771  1.00  0.00    -0.387 OA
BRANCH  15  16
HETATM   16  C   UNL     1     -24.094  -6.700 -15.565  1.00  0.00     0.193 C 
BRANCH  16  17
HETATM   17  C   UNL     1     -25.435  -7.062 -16.171  1.00  0.00     0.193 C 
BRANCH  17  18
HETATM   18  O   UNL     1     -26.455  -6.510 -15.355  1.00  0.00    -0.387 OA
BRANCH  18  19
HETATM   19  C   UNL     1     -27.669  -7.236 -15.494  1.00  0.00     0.193 C 
BRANCH  19  20
HETATM   20  C   UNL     1     -28.825  -6.303 -15.204  1.00  0.00     0.193 C 
BRANCH  20  21
HETATM   21  O   UNL     1     -29.886  -6.642 -16.080  1.00  0.00    -0.387 OA
BRANCH  21  22
HETATM   22  C   UNL     1     -29.486  -7.665 -16.994  1.00  0.00     0.193 C 
BRANCH  22  23
HETATM   23  C   UNL     1     -29.847  -7.250 -18.409  1.00  0.00     0.193 C 
BRANCH  23  24
HETATM   24  O   UNL     1     -28.649  -7.094 -19.161  1.00  0.00    -0.387 OA
BRANCH  24  25
HETATM   25  C   UNL     1     -27.995  -5.874 -18.829  1.00  0.00     0.193 C 
BRANCH  25  26
HETATM   26  C   UNL     1     -29.039  -4.780 -18.706  1.00  0.00     0.193 C 
BRANCH  26  27
HETATM   27  O   UNL     1     -28.670  -3.901 -17.648  1.00  0.00    -0.387 OA
BRANCH  27  28
HETATM   28  C   UNL     1     -29.763  -3.081 -17.267  1.00  0.00     0.193 C 
BRANCH  28  29
HETATM   29  C   UNL     1     -31.038  -3.796 -17.655  1.00  0.00     0.193 C 
BRANCH  29  30
HETATM   30  O   UNL     1     -32.117  -2.874 -17.568  1.00  0.00    -0.389 OA
BRANCH  30  31
HETATM   31  C   UNL     1     -33.273  -3.512 -17.042  1.00  0.00     0.167 C 
BRANCH  31  32
HETATM   32  C   UNL     1     -34.473  -2.614 -17.274  1.00  0.00     0.026 C 
BRANCH  32  33
HETATM   33  C   UNL     1     -34.797  -1.851 -16.001  1.00  0.00     0.002 C 
BRANCH  33  34
HETATM   34  C   UNL     1     -35.634  -0.620 -16.306  1.00  0.00     0.000 C 
BRANCH  34  35
HETATM   35  C   UNL     1     -36.091   0.032 -15.011  1.00  0.00     0.000 C 
BRANCH  35  36
HETATM   36  C   UNL     1     -34.892   0.545 -14.232  1.00  0.00     0.000 C 
BRANCH  36  37
HETATM   37  C   UNL     1     -35.173   0.486 -12.738  1.00  0.00     0.000 C 
BRANCH  37  38
HETATM   38  C   UNL     1     -35.691  -0.890 -12.356  1.00  0.00     0.000 C 
BRANCH  38  39
HETATM   39  C   UNL     1     -34.557  -1.903 -12.367  1.00  0.00     0.000 C 
BRANCH  39  40
HETATM   40  C   UNL     1     -34.303  -2.426 -10.961  1.00  0.00    -0.000 C 
BRANCH  40  41
HETATM   41  C   UNL     1     -33.322  -3.593 -10.987  1.00  0.00    -0.005 C 
HETATM   42  C   UNL     1     -34.014  -4.881 -10.585  1.00  0.00     0.005 C 
ENDBRANCH  40  41
ENDBRANCH  39  40
ENDBRANCH  38  39
ENDBRANCH  37  38
ENDBRANCH  36  37
ENDBRANCH  35  36
ENDBRANCH  34  35
ENDBRANCH  33  34
ENDBRANCH  32  33
ENDBRANCH  31  32
ENDBRANCH  30  31
ENDBRANCH  29  30
ENDBRANCH  28  29
ENDBRANCH  27  28
ENDBRANCH  26  27
ENDBRANCH  25  26
ENDBRANCH  24  25
ENDBRANCH  23  24
ENDBRANCH  22  23
ENDBRANCH  21  22
ENDBRANCH  20  21
ENDBRANCH  19  20
ENDBRANCH  18  19
ENDBRANCH  17  18
ENDBRANCH  16  17
ENDBRANCH  15  16
ENDBRANCH  14  15
ENDBRANCH  13  14
ENDBRANCH  12  13
ENDBRANCH  11  12
ENDBRANCH  10  11
ENDBRANCH   9  10
ENDBRANCH   8   9
ENDBRANCH   7   8
ENDBRANCH   6   7
ENDBRANCH   5   6
ENDBRANCH   4   5
ENDBRANCH   3   4
ENDBRANCH   2   3
ENDBRANCH   1   2
BRANCH   1  43
HETATM   43  O   UNL     1     -20.838  -9.848  -5.975  1.00  0.00    -0.387 OA
BRANCH  43  44
HETATM   44  C   UNL     1     -21.154 -11.118  -5.411  1.00  0.00     0.193 C 
BRANCH  44  45
HETATM   45  C   UNL     1     -21.868 -11.958  -6.452  1.00  0.00     0.193 C 
BRANCH  45  46
HETATM   46  O   UNL     1     -21.763 -13.326  -6.077  1.00  0.00    -0.387 OA
BRANCH  46  47
HETATM   47  C   UNL     1     -23.046 -13.942  -6.001  1.00  0.00     0.193 C 
BRANCH  47  48
HETATM   48  C   UNL     1     -22.995 -15.289  -6.701  1.00  0.00     0.193 C 
BRANCH  48  49
HETATM   49  O   UNL     1     -21.678 -15.823  -6.586  1.00  0.00    -0.387 OA
BRANCH  49  50
HETATM   50  C   UNL     1     -21.653 -16.924  -5.689  1.00  0.00     0.193 C 
BRANCH  50  51
HETATM   51  C   UNL     1     -20.614 -16.643  -4.621  1.00  0.00     0.193 C 
BRANCH  51  52
HETATM   52  O   UNL     1     -19.644 -15.749  -5.152  1.00  0.00    -0.387 OA
BRANCH  52  53
HETATM   53  C   UNL     1     -18.323 -16.198  -4.884  1.00  0.00     0.193 C 
BRANCH  53  54
HETATM   54  C   UNL     1     -17.773 -16.862  -6.131  1.00  0.00     0.193 C 
BRANCH  54  55
HETATM   55  O   UNL     1     -18.391 -16.270  -7.264  1.00  0.00    -0.387 OA
BRANCH  55  56
HETATM   56  C   UNL     1     -17.466 -16.116  -8.333  1.00  0.00     0.193 C 
BRANCH  56  57
HETATM   57  C   UNL     1     -18.179 -15.467  -9.504  1.00  0.00     0.193 C 
BRANCH  57  58
HETATM   58  O   UNL     1     -17.905 -14.072  -9.476  1.00  0.00    -0.387 OA
BRANCH  58  59
HETATM   59  C   UNL     1     -19.026 -13.335  -8.993  1.00  0.00     0.193 C 
BRANCH  59  60
HETATM   60  C   UNL     1     -18.549 -12.315  -7.974  1.00  0.00     0.193 C 
BRANCH  60  61
HETATM   61  O   UNL     1     -18.470 -12.941  -6.699  1.00  0.00    -0.387 OA
BRANCH  61  62
HETATM   62  C   UNL     1     -17.126 -12.985  -6.236  1.00  0.00     0.193 C 
BRANCH  62  63
HETATM   63  C   UNL     1     -17.084 -12.412  -4.834  1.00  0.00     0.193 C 
BRANCH  63  64
HETATM   64  O   UNL     1     -15.913 -11.616  -4.703  1.00  0.00    -0.387 OA
BRANCH  64  65
HETATM   65  C   UNL     1     -15.091 -11.713  -5.859  1.00  0.00     0.193 C 
BRANCH  65  66
HETATM   66  C   UNL     1     -13.712 -12.174  -5.433  1.00  0.00     0.193 C 
BRANCH  66  67
HETATM   67  O   UNL     1     -13.608 -13.570  -5.686  1.00  0.00    -0.387 OA
BRANCH  67  68
HETATM   68  C   UNL     1     -13.437 -14.302  -4.476  1.00  0.00     0.193 C 
BRANCH  68  69
HETATM   69  C   UNL     1     -13.046 -13.341  -3.364  1.00  0.00     0.193 C 
BRANCH  69  70
HETATM   70  O   UNL     1     -13.731 -13.710  -2.169  1.00  0.00    -0.387 OA
BRANCH  70  71
HETATM   71  C   UNL     1     -14.977 -14.333  -2.458  1.00  0.00     0.193 C 
BRANCH  71  72
HETATM   72  C   UNL     1     -16.047 -13.703  -1.589  1.00  0.00     0.193 C 
BRANCH  72  73
HETATM   73  O   UNL     1     -15.553 -12.477  -1.072  1.00  0.00    -0.387 OA
BRANCH  73  74
HETATM   74  C   UNL     1     -16.479 -11.880  -0.174  1.00  0.00     0.193 C 
BRANCH  74  75
HETATM   75  C   UNL     1     -17.883 -12.092  -0.711  1.00  0.00     0.193 C 
BRANCH  75  76
HETATM   76  O   UNL     1     -18.117 -11.158  -1.754  1.00  0.00    -0.387 OA
BRANCH  76  77
HETATM   77  C   UNL     1     -19.511 -10.938  -1.948  1.00  0.00     0.193 C 
BRANCH  77  78
HETATM   78  C   UNL     1     -19.919  -9.696  -1.179  1.00  0.00     0.193 C 
BRANCH  78  79
HETATM   79  O   UNL     1     -21.297  -9.802  -0.826  1.00  0.00    -0.387 OA
BRANCH  79  80
HETATM   80  C   UNL     1     -21.921  -8.513  -0.811  1.00  0.00     0.193 C 
BRANCH  80  81
HETATM   81  C   UNL     1     -23.190  -8.581   0.033  1.00  0.00     0.190 C 
BRANCH  81  82
HETATM   82  O   UNL     1     -23.675  -9.921   0.097  1.00  0.00    -0.399 OA
HETATM   83  H   UNL     1     -24.290  -9.936   0.856  1.00  0.00     0.209 HD
ENDBRANCH  81  82
ENDBRANCH  80  81
ENDBRANCH  79  80
ENDBRANCH  78  79
ENDBRANCH  77  78
ENDBRANCH  76  77
ENDBRANCH  75  76
ENDBRANCH  74  75
ENDBRANCH  73  74
ENDBRANCH  72  73
ENDBRANCH  71  72
ENDBRANCH  70  71
ENDBRANCH  69  70
ENDBRANCH  68  69
ENDBRANCH  67  68
ENDBRANCH  66  67
ENDBRANCH  65  66
ENDBRANCH  64  65
ENDBRANCH  63  64
ENDBRANCH  62  63
ENDBRANCH  61  62
ENDBRANCH  60  61
ENDBRANCH  59  60
ENDBRANCH  58  59
ENDBRANCH  57  58
ENDBRANCH  56  57
ENDBRANCH  55  56
ENDBRANCH  54  55
ENDBRANCH  53  54
ENDBRANCH  52  53
ENDBRANCH  51  52
ENDBRANCH  50  51
ENDBRANCH  49  50
ENDBRANCH  48  49
ENDBRANCH  47  48
ENDBRANCH  46  47
ENDBRANCH  45  46
ENDBRANCH  44  45
ENDBRANCH  43  44
ENDBRANCH   1  43
TORSDOF 80
BEGIN_RES ARG D 557
REMARK  4 active torsions:
REMARK  status: ('A' for Active; 'I' for Inactive)
REMARK    1  A    between atoms: CA   and  CB  
REMARK    2  A    between atoms: CB   and  CG  
REMARK    3  A    between atoms: CG   and  CD  
REMARK    4  A    between atoms: CD   and  NE  
REMARK       I    between atoms: NE   and  CZ  
REMARK       I    between atoms: CZ   and  NH1 
REMARK       I    between atoms: CZ   and  NH2 
ROOT
ATOM      1  CA  ARG D 557     -26.217   2.705 -17.014  1.00 35.49     0.159 C 
ENDROOT
BRANCH   1   2
ATOM      2  CB  ARG D 557     -26.789   1.319 -17.183  1.00 35.49     0.034 C 
BRANCH   2   3
ATOM      3  CG  ARG D 557     -25.935   0.197 -16.773  1.00 35.49     0.027 C 
BRANCH   3   4
ATOM      4  CD  ARG D 557     -26.720  -0.954 -16.271  1.00 35.49     0.116 C 
BRANCH   4   5
ATOM      5  NE  ARG D 557     -26.230  -1.433 -15.005  1.00 35.49    -0.212 N 
ATOM      6  CZ  ARG D 557     -26.180  -2.691 -14.627  1.00 35.49     0.666 C 
ATOM      7  NH1 ARG D 557     -26.603  -3.679 -15.394  1.00 35.49    -0.235 N 
ATOM      8  NH2 ARG D 557     -25.684  -2.945 -13.451  1.00 35.49    -0.235 N 
ATOM      9  HH  ARG D 557     -26.931  -3.535 -16.172  1.00 35.49     0.174 HD
ATOM     10  HH  ARG D 557     -26.543  -4.480 -15.095  1.00 35.49     0.174 HD
ATOM     11  HH  ARG D 557     -25.412  -2.288 -12.981  1.00 35.49     0.174 HD
ATOM     12  HH  ARG D 557     -25.632  -3.745 -13.174  1.00 35.49     0.174 HD
ATOM     13  HE  ARG D 557     -26.004  -0.858 -14.421  1.00 35.49     0.178 HD
ENDBRANCH   4   5
ENDBRANCH   3   4
ENDBRANCH   2   3
ENDBRANCH   1   2
END_RES ARG D 557
BEGIN_RES GLU D 570
REMARK  3 active torsions:
REMARK  status: ('A' for Active; 'I' for Inactive)
REMARK    5  A    between atoms: CA   and  CB  
REMARK    6  A    between atoms: CB   and  CG  
REMARK    7  A    between atoms: CG   and  CD  
ROOT
ATOM     14  CA  GLU D 570     -18.033  -6.348 -13.375  1.00 32.92     0.160 C 
ENDROOT
BRANCH  14  15
ATOM     15  CB  GLU D 570     -19.500  -6.345 -13.794  1.00 32.92     0.043 C 
BRANCH  15  16
ATOM     16  CG  GLU D 570     -20.079  -7.628 -14.269  1.00 32.92     0.100 C 
BRANCH  16  17
ATOM     17  CD  GLU D 570     -20.620  -7.545 -15.677  1.00 32.92     0.185 C 
ATOM     18  OE1 GLU D 570     -20.506  -6.476 -16.307  1.00 32.92    -0.647 OA
ATOM     19  OE2 GLU D 570     -21.180  -8.554 -16.149  1.00 32.92    -0.647 OA
ENDBRANCH  16  17
ENDBRANCH  15  16
ENDBRANCH  14  15
END_RES GLU D 570
ENDMDL
MODEL 9
REMARK VINA RESULT:      -5.1      1.618      5.318
REMARK WARNING: 32 MAX_TORS EXCEEDED!!!
REMARK  80 active torsions:
REMARK  status: ('A' for Active; 'I' for Inactive)
REMARK    1  A    between atoms: C_2  and  C_3 
REMARK    2  A    between atoms: C_3  and  C_4 
REMARK    3  A    between atoms: C_4  and  C_5 
REMARK    4  A    between atoms: C_5  and  C_6 
REMARK    5  A    between atoms: C_6  and  C_7 
REMARK    6  A    between atoms: C_7  and  C_8 
REMARK    7  A    between atoms: C_8  and  C_9 
REMARK    8  A    between atoms: C_9  and  C_10 
REMARK    9  A    between atoms: C_10  and  C_11 
REMARK   10  A    between atoms: C_11  and  C_12 
REMARK   11  A    between atoms: C_12  and  O_13 
REMARK   12  A    between atoms: O_13  and  C_14 
REMARK   13  A    between atoms: C_14  and  C_15 
REMARK   14  A    between atoms: C_15  and  O_16 
REMARK   15  A    between atoms: O_16  and  C_17 
REMARK   16  A    between atoms: C_17  and  C_18 
REMARK   17  A    between atoms: C_18  and  O_19 
REMARK   18  A    between atoms: O_19  and  C_20 
REMARK   19  A    between atoms: C_20  and  C_21 
REMARK   20  A    between atoms: C_21  and  O_22 
REMARK   21  A    between atoms: O_22  and  C_23 
REMARK   22  A    between atoms: C_23  and  C_24 
REMARK   23  A    between atoms: C_24  and  O_25 
REMARK   24  A    between atoms: O_25  and  C_26 
REMARK   25  A    between atoms: C_26  and  C_27 
REMARK   26  A    between atoms: C_27  and  O_28 
REMARK   27  A    between atoms: O_28  and  C_29 
REMARK   28  A    between atoms: C_29  and  C_30 
REMARK   29  A    between atoms: C_30  and  O_31 
REMARK   30  A    between atoms: O_31  and  C_32 
REMARK   31  A    between atoms: C_32  and  C_33 
REMARK   32  A    between atoms: C_33  and  O_34 
REMARK   33  A    between atoms: O_34  and  C_35 
REMARK   34  A    between atoms: C_35  and  C_36 
REMARK   35  A    between atoms: C_36  and  O_37 
REMARK   36  A    between atoms: O_37  and  C_38 
REMARK   37  A    between atoms: C_38  and  C_39 
REMARK   38  A    between atoms: C_39  and  O_40 
REMARK   39  A    between atoms: O_40  and  C_41 
REMARK   40  A    between atoms: C_41  and  C_42 
REMARK   41  A    between atoms: C_42  and  O_43 
REMARK   42  A    between atoms: O_43  and  C_44 
REMARK   43  A    between atoms: C_44  and  C_45 
REMARK   44  A    between atoms: C_45  and  O_46 
REMARK   45  A    between atoms: O_46  and  C_47 
REMARK   46  A    between atoms: C_47  and  C_48 
REMARK   47  A    between atoms: C_48  and  O_49 
REMARK   48  A    between atoms: O_49  and  C_50 
REMARK   49  A    between atoms: C_50  and  C_51 
REMARK   50  A    between atoms: C_51  and  O_52 
REMARK   51  A    between atoms: O_52  and  C_53 
REMARK   52  A    between atoms: C_53  and  C_54 
REMARK   53  A    between atoms: C_54  and  O_55 
REMARK   54  A    between atoms: O_55  and  C_56 
REMARK   55  A    between atoms: C_56  and  C_57 
REMARK   56  A    between atoms: C_57  and  O_58 
REMARK   57  A    between atoms: O_58  and  C_59 
REMARK   58  A    between atoms: C_59  and  C_60 
REMARK   59  A    between atoms: C_60  and  O_61 
REMARK   60  A    between atoms: O_61  and  C_62 
REMARK   61  A    between atoms: C_62  and  C_63 
REMARK   62  A    between atoms: C_63  and  O_64 
REMARK   63  A    between atoms: O_64  and  C_65 
REMARK   64  A    between atoms: C_65  and  C_66 
REMARK   65  A    between atoms: C_66  and  O_67 
REMARK   66  A    between atoms: O_67  and  C_68 
REMARK   67  A    between atoms: C_68  and  C_69 
REMARK   68  A    between atoms: C_69  and  O_70 
REMARK   69  A    between atoms: O_70  and  C_71 
REMARK   70  A    between atoms: C_71  and  C_72 
REMARK   71  A    between atoms: C_72  and  O_73 
REMARK   72  A    between atoms: O_73  and  C_74 
REMARK   73  A    between atoms: C_74  and  C_75 
REMARK   74  A    between atoms: C_75  and  O_76 
REMARK   75  A    between atoms: O_76  and  C_77 
REMARK   76  A    between atoms: C_77  and  C_78 
REMARK   77  A    between atoms: C_78  and  O_79 
REMARK   78  A    between atoms: O_79  and  C_80 
REMARK   79  A    between atoms: C_80  and  C_81 
REMARK   80  A    between atoms: C_81  and  O_82 
ROOT
HETATM    1  C   UNL     1     -21.592  -6.171  -4.855  1.00  0.00     0.193 C 
ENDROOT
BRANCH   1   2
HETATM    2  C   UNL     1     -21.955  -7.646  -4.880  1.00  0.00     0.193 C 
BRANCH   2   3
HETATM    3  O   UNL     1     -20.985  -8.340  -5.664  1.00  0.00    -0.387 OA
BRANCH   3   4
HETATM    4  C   UNL     1     -20.225  -9.235  -4.865  1.00  0.00     0.193 C 
BRANCH   4   5
HETATM    5  C   UNL     1     -18.767  -9.143  -5.275  1.00  0.00     0.193 C 
BRANCH   5   6
HETATM    6  O   UNL     1     -18.008 -10.003  -4.436  1.00  0.00    -0.387 OA
BRANCH   6   7
HETATM    7  C   UNL     1     -17.819  -9.435  -3.142  1.00  0.00     0.193 C 
BRANCH   7   8
HETATM    8  C   UNL     1     -17.392 -10.525  -2.183  1.00  0.00     0.193 C 
BRANCH   8   9
HETATM    9  O   UNL     1     -18.554 -11.208  -1.740  1.00  0.00    -0.387 OA
BRANCH   9  10
HETATM   10  C   UNL     1     -18.297 -11.936  -0.541  1.00  0.00     0.193 C 
BRANCH  10  11
HETATM   11  C   UNL     1     -16.797 -12.096  -0.366  1.00  0.00     0.193 C 
BRANCH  11  12
HETATM   12  O   UNL     1     -16.511 -12.315   1.014  1.00  0.00    -0.387 OA
BRANCH  12  13
HETATM   13  C   UNL     1     -16.705 -13.679   1.375  1.00  0.00     0.193 C 
BRANCH  13  14
HETATM   14  C   UNL     1     -15.496 -14.154   2.160  1.00  0.00     0.193 C 
BRANCH  14  15
HETATM   15  O   UNL     1     -14.344 -13.484   1.667  1.00  0.00    -0.387 OA
BRANCH  15  16
HETATM   16  C   UNL     1     -13.427 -14.399   1.079  1.00  0.00     0.193 C 
BRANCH  16  17
HETATM   17  C   UNL     1     -13.469 -14.231  -0.428  1.00  0.00     0.193 C 
BRANCH  17  18
HETATM   18  O   UNL     1     -12.538 -15.134  -1.001  1.00  0.00    -0.387 OA
BRANCH  18  19
HETATM   19  C   UNL     1     -13.131 -15.874  -2.061  1.00  0.00     0.193 C 
BRANCH  19  20
HETATM   20  C   UNL     1     -14.521 -15.329  -2.310  1.00  0.00     0.193 C 
BRANCH  20  21
HETATM   21  O   UNL     1     -14.691 -15.203  -3.712  1.00  0.00    -0.387 OA
BRANCH  21  22
HETATM   22  C   UNL     1     -13.538 -14.615  -4.316  1.00  0.00     0.193 C 
BRANCH  22  23
HETATM   23  C   UNL     1     -13.604 -14.803  -5.821  1.00  0.00     0.193 C 
BRANCH  23  24
HETATM   24  O   UNL     1     -14.931 -14.536  -6.260  1.00  0.00    -0.387 OA
BRANCH  24  25
HETATM   25  C   UNL     1     -15.153 -13.135  -6.381  1.00  0.00     0.193 C 
BRANCH  25  26
HETATM   26  C   UNL     1     -16.430 -12.779  -5.645  1.00  0.00     0.193 C 
BRANCH  26  27
HETATM   27  O   UNL     1     -17.447 -12.477  -6.595  1.00  0.00    -0.387 OA
BRANCH  27  28
HETATM   28  C   UNL     1     -18.294 -13.596  -6.803  1.00  0.00     0.193 C 
BRANCH  28  29
HETATM   29  C   UNL     1     -19.165 -13.754  -5.576  1.00  0.00     0.193 C 
BRANCH  29  30
HETATM   30  O   UNL     1     -20.043 -12.639  -5.498  1.00  0.00    -0.389 OA
BRANCH  30  31
HETATM   31  C   UNL     1     -21.327 -12.983  -6.001  1.00  0.00     0.167 C 
BRANCH  31  32
HETATM   32  C   UNL     1     -21.801 -14.245  -5.305  1.00  0.00     0.026 C 
BRANCH  32  33
HETATM   33  C   UNL     1     -23.012 -13.930  -4.443  1.00  0.00     0.002 C 
BRANCH  33  34
HETATM   34  C   UNL     1     -22.610 -13.761  -2.988  1.00  0.00     0.000 C 
BRANCH  34  35
HETATM   35  C   UNL     1     -23.315 -14.799  -2.129  1.00  0.00     0.000 C 
BRANCH  35  36
HETATM   36  C   UNL     1     -23.859 -14.152  -0.866  1.00  0.00     0.000 C 
BRANCH  36  37
HETATM   37  C   UNL     1     -24.125 -12.674  -1.106  1.00  0.00     0.000 C 
BRANCH  37  38
HETATM   38  C   UNL     1     -23.675 -11.859   0.095  1.00  0.00     0.000 C 
BRANCH  38  39
HETATM   39  C   UNL     1     -23.549 -10.391  -0.282  1.00  0.00     0.000 C 
BRANCH  39  40
HETATM   40  C   UNL     1     -22.113 -10.067  -0.668  1.00  0.00    -0.000 C 
BRANCH  40  41
HETATM   41  C   UNL     1     -21.988  -8.615  -1.116  1.00  0.00    -0.005 C 
HETATM   42  C   UNL     1     -22.180  -7.676   0.059  1.00  0.00     0.005 C 
ENDBRANCH  40  41
ENDBRANCH  39  40
ENDBRANCH  38  39
ENDBRANCH  37  38
ENDBRANCH  36  37
ENDBRANCH  35  36
ENDBRANCH  34  35
ENDBRANCH  33  34
ENDBRANCH  32  33
ENDBRANCH  31  32
ENDBRANCH  30  31
ENDBRANCH  29  30
ENDBRANCH  28  29
ENDBRANCH  27  28
ENDBRANCH  26  27
ENDBRANCH  25  26
ENDBRANCH  24  25
ENDBRANCH  23  24
ENDBRANCH  22  23
ENDBRANCH  21  22
ENDBRANCH  20  21
ENDBRANCH  19  20
ENDBRANCH  18  19
ENDBRANCH  17  18
ENDBRANCH  16  17
ENDBRANCH  15  16
ENDBRANCH  14  15
ENDBRANCH  13  14
ENDBRANCH  12  13
ENDBRANCH  11  12
ENDBRANCH  10  11
ENDBRANCH   9  10
ENDBRANCH   8   9
ENDBRANCH   7   8
ENDBRANCH   6   7
ENDBRANCH   5   6
ENDBRANCH   4   5
ENDBRANCH   3   4
ENDBRANCH   2   3
ENDBRANCH   1   2
BRANCH   1  43
HETATM   43  O   UNL     1     -21.071  -5.809  -6.133  1.00  0.00    -0.387 OA
BRANCH  43  44
HETATM   44  C   UNL     1     -20.081  -4.789  -6.017  1.00  0.00     0.193 C 
BRANCH  44  45
HETATM   45  C   UNL     1     -19.308  -4.699  -7.319  1.00  0.00     0.193 C 
BRANCH  45  46
HETATM   46  O   UNL     1     -19.992  -3.805  -8.187  1.00  0.00    -0.387 OA
BRANCH  46  47
HETATM   47  C   UNL     1     -20.278  -4.419  -9.442  1.00  0.00     0.193 C 
BRANCH  47  48
HETATM   48  C   UNL     1     -21.783  -4.512  -9.619  1.00  0.00     0.193 C 
BRANCH  48  49
HETATM   49  O   UNL     1     -22.419  -3.702  -8.633  1.00  0.00    -0.387 OA
BRANCH  49  50
HETATM   50  C   UNL     1     -23.829  -3.704  -8.806  1.00  0.00     0.193 C 
BRANCH  50  51
HETATM   51  C   UNL     1     -24.142  -4.333 -10.150  1.00  0.00     0.193 C 
BRANCH  51  52
HETATM   52  O   UNL     1     -24.761  -3.355 -10.977  1.00  0.00    -0.387 OA
BRANCH  52  53
HETATM   53  C   UNL     1     -23.888  -2.923 -12.011  1.00  0.00     0.193 C 
BRANCH  53  54
HETATM   54  C   UNL     1     -24.639  -2.960 -13.328  1.00  0.00     0.193 C 
BRANCH  54  55
HETATM   55  O   UNL     1     -23.774  -3.487 -14.322  1.00  0.00    -0.387 OA
BRANCH  55  56
HETATM   56  C   UNL     1     -22.878  -4.445 -13.770  1.00  0.00     0.193 C 
BRANCH  56  57
HETATM   57  C   UNL     1     -23.396  -5.834 -14.087  1.00  0.00     0.193 C 
BRANCH  57  58
HETATM   58  O   UNL     1     -23.679  -5.899 -15.479  1.00  0.00    -0.387 OA
BRANCH  58  59
HETATM   59  C   UNL     1     -24.549  -6.988 -15.778  1.00  0.00     0.193 C 
BRANCH  59  60
HETATM   60  C   UNL     1     -25.251  -6.717 -17.097  1.00  0.00     0.193 C 
BRANCH  60  61
HETATM   61  O   UNL     1     -26.242  -5.716 -16.893  1.00  0.00    -0.387 OA
BRANCH  61  62
HETATM   62  C   UNL     1     -27.479  -6.098 -17.478  1.00  0.00     0.193 C 
BRANCH  62  63
HETATM   63  C   UNL     1     -28.445  -6.454 -16.365  1.00  0.00     0.193 C 
BRANCH  63  64
HETATM   64  O   UNL     1     -29.516  -7.209 -16.917  1.00  0.00    -0.387 OA
BRANCH  64  65
HETATM   65  C   UNL     1     -30.388  -6.387 -17.682  1.00  0.00     0.193 C 
BRANCH  65  66
HETATM   66  C   UNL     1     -30.958  -5.315 -16.776  1.00  0.00     0.193 C 
BRANCH  66  67
HETATM   67  O   UNL     1     -32.369  -5.277 -16.958  1.00  0.00    -0.387 OA
BRANCH  67  68
HETATM   68  C   UNL     1     -32.937  -4.120 -16.351  1.00  0.00     0.193 C 
BRANCH  68  69
HETATM   69  C   UNL     1     -33.853  -3.433 -17.352  1.00  0.00     0.193 C 
BRANCH  69  70
HETATM   70  O   UNL     1     -33.977  -2.057 -16.999  1.00  0.00    -0.387 OA
BRANCH  70  71
HETATM   71  C   UNL     1     -35.096  -1.840 -16.147  1.00  0.00     0.193 C 
BRANCH  71  72
HETATM   72  C   UNL     1     -36.164  -1.101 -16.927  1.00  0.00     0.193 C 
BRANCH  72  73
HETATM   73  O   UNL     1     -36.278   0.217 -16.410  1.00  0.00    -0.387 OA
BRANCH  73  74
HETATM   74  C   UNL     1     -35.879   0.278 -15.048  1.00  0.00     0.193 C 
BRANCH  74  75
HETATM   75  C   UNL     1     -37.091   0.015 -14.174  1.00  0.00     0.193 C 
BRANCH  75  76
HETATM   76  O   UNL     1     -36.807  -1.081 -13.317  1.00  0.00    -0.387 OA
BRANCH  76  77
HETATM   77  C   UNL     1     -35.890  -0.712 -12.292  1.00  0.00     0.193 C 
BRANCH  77  78
HETATM   78  C   UNL     1     -34.795  -1.759 -12.218  1.00  0.00     0.193 C 
BRANCH  78  79
HETATM   79  O   UNL     1     -35.280  -2.884 -11.488  1.00  0.00    -0.387 OA
BRANCH  79  80
HETATM   80  C   UNL     1     -34.287  -3.915 -11.420  1.00  0.00     0.193 C 
BRANCH  80  81
HETATM   81  C   UNL     1     -34.820  -5.170 -12.104  1.00  0.00     0.190 C 
BRANCH  81  82
HETATM   82  O   UNL     1     -34.181  -6.333 -11.582  1.00  0.00    -0.399 OA
HETATM   83  H   UNL     1     -34.757  -6.638 -10.855  1.00  0.00     0.209 HD
ENDBRANCH  81  82
ENDBRANCH  80  81
ENDBRANCH  79  80
ENDBRANCH  78  79
ENDBRANCH  77  78
ENDBRANCH  76  77
ENDBRANCH  75  76
ENDBRANCH  74  75
ENDBRANCH  73  74
ENDBRANCH  72  73
ENDBRANCH  71  72
ENDBRANCH  70  71
ENDBRANCH  69  70
ENDBRANCH  68  69
ENDBRANCH  67  68
ENDBRANCH  66  67
ENDBRANCH  65  66
ENDBRANCH  64  65
ENDBRANCH  63  64
ENDBRANCH  62  63
ENDBRANCH  61  62
ENDBRANCH  60  61
ENDBRANCH  59  60
ENDBRANCH  58  59
ENDBRANCH  57  58
ENDBRANCH  56  57
ENDBRANCH  55  56
ENDBRANCH  54  55
ENDBRANCH  53  54
ENDBRANCH  52  53
ENDBRANCH  51  52
ENDBRANCH  50  51
ENDBRANCH  49  50
ENDBRANCH  48  49
ENDBRANCH  47  48
ENDBRANCH  46  47
ENDBRANCH  45  46
ENDBRANCH  44  45
ENDBRANCH  43  44
ENDBRANCH   1  43
TORSDOF 80
BEGIN_RES ARG D 557
REMARK  4 active torsions:
REMARK  status: ('A' for Active; 'I' for Inactive)
REMARK    1  A    between atoms: CA   and  CB  
REMARK    2  A    between atoms: CB   and  CG  
REMARK    3  A    between atoms: CG   and  CD  
REMARK    4  A    between atoms: CD   and  NE  
REMARK       I    between atoms: NE   and  CZ  
REMARK       I    between atoms: CZ   and  NH1 
REMARK       I    between atoms: CZ   and  NH2 
ROOT
ATOM      1  CA  ARG D 557     -26.217   2.705 -17.014  1.00 35.49     0.159 C 
ENDROOT
BRANCH   1   2
ATOM      2  CB  ARG D 557     -26.789   1.319 -17.183  1.00 35.49     0.034 C 
BRANCH   2   3
ATOM      3  CG  ARG D 557     -28.252   1.210 -17.235  1.00 35.49     0.027 C 
BRANCH   3   4
ATOM      4  CD  ARG D 557     -28.744  -0.062 -16.659  1.00 35.49     0.116 C 
BRANCH   4   5
ATOM      5  NE  ARG D 557     -27.672  -0.880 -16.156  1.00 35.49    -0.212 N 
ATOM      6  CZ  ARG D 557     -27.567  -2.183 -16.299  1.00 35.49     0.666 C 
ATOM      7  NH1 ARG D 557     -28.476  -2.902 -16.931  1.00 35.49    -0.235 N 
ATOM      8  NH2 ARG D 557     -26.514  -2.759 -15.796  1.00 35.49    -0.235 N 
ATOM      9  HH  ARG D 557     -29.176  -2.543 -17.272  1.00 35.49     0.174 HD
ATOM     10  HH  ARG D 557     -28.353  -3.747 -16.995  1.00 35.49     0.174 HD
ATOM     11  HH  ARG D 557     -25.940  -2.268 -15.400  1.00 35.49     0.174 HD
ATOM     12  HH  ARG D 557     -26.410  -3.597 -15.872  1.00 35.49     0.174 HD
ATOM     13  HE  ARG D 557     -27.078  -0.509 -15.673  1.00 35.49     0.178 HD
ENDBRANCH   4   5
ENDBRANCH   3   4
ENDBRANCH   2   3
ENDBRANCH   1   2
END_RES ARG D 557
BEGIN_RES GLU D 570
REMARK  3 active torsions:
REMARK  status: ('A' for Active; 'I' for Inactive)
REMARK    5  A    between atoms: CA   and  CB  
REMARK    6  A    between atoms: CB   and  CG  
REMARK    7  A    between atoms: CG   and  CD  
ROOT
ATOM     14  CA  GLU D 570     -18.033  -6.348 -13.375  1.00 32.92     0.160 C 
ENDROOT
BRANCH  14  15
ATOM     15  CB  GLU D 570     -19.500  -6.345 -13.794  1.00 32.92     0.043 C 
BRANCH  15  16
ATOM     16  CG  GLU D 570     -20.077  -7.627 -14.275  1.00 32.92     0.100 C 
BRANCH  16  17
ATOM     17  CD  GLU D 570     -20.603  -7.543 -15.689  1.00 32.92     0.185 C 
ATOM     18  OE1 GLU D 570     -20.455  -6.483 -16.327  1.00 32.92    -0.647 OA
ATOM     19  OE2 GLU D 570     -21.183  -8.542 -16.157  1.00 32.92    -0.647 OA
ENDBRANCH  16  17
ENDBRANCH  15  16
ENDBRANCH  14  15
END_RES GLU D 570
ENDMDL
