MODEL 1
REMARK VINA RESULT:      -7.4      0.000      0.000
REMARK  30 active torsions:
REMARK  status: ('A' for Active; 'I' for Inactive)
REMARK    1  A    between atoms: C_2  and  C_3 
REMARK    2  A    between atoms: C_3  and  C_4 
REMARK    3  A    between atoms: C_4  and  C_5 
REMARK    4  A    between atoms: C_5  and  C_6 
REMARK    5  A    between atoms: C_6  and  C_7 
REMARK    6  A    between atoms: C_7  and  C_8 
REMARK    7  A    between atoms: C_8  and  C_9 
REMARK    8  A    between atoms: C_9  and  C_10 
REMARK    9  A    between atoms: C_10  and  C_11 
REMARK   10  A    between atoms: C_11  and  C_12 
REMARK   11  A    between atoms: C_12  and  C_13 
REMARK   12  A    between atoms: C_13  and  C_14 
REMARK   13  A    between atoms: C_14  and  C_15 
REMARK   14  A    between atoms: C_15  and  C_16 
REMARK   15  A    between atoms: C_16  and  O_17 
REMARK   16  A    between atoms: O_17  and  C_18 
REMARK   17  A    between atoms: C_18  and  C_20 
REMARK   18  A    between atoms: C_20  and  C_21 
REMARK   19  A    between atoms: C_21  and  C_22 
REMARK   20  A    between atoms: C_22  and  C_23 
REMARK   21  A    between atoms: C_23  and  C_24 
REMARK   22  A    between atoms: C_24  and  C_25 
REMARK   23  A    between atoms: C_25  and  C_26 
REMARK   24  A    between atoms: C_26  and  C_27 
REMARK   25  A    between atoms: C_27  and  C_28 
REMARK   26  A    between atoms: C_28  and  C_29 
REMARK   27  A    between atoms: C_29  and  C_30 
REMARK   28  A    between atoms: C_30  and  C_31 
REMARK   29  A    between atoms: C_31  and  C_32 
REMARK   30  A    between atoms: C_32  and  C_33 
ROOT
HETATM    1  O   UNL     1     -32.916  -3.988 -16.675  1.00  0.00    -0.321 OA
ENDROOT
BRANCH   1   2
HETATM    2  C   UNL     1     -33.725  -2.964 -17.262  1.00  0.00     0.178 C 
BRANCH   2   3
HETATM    3  C   UNL     1     -34.878  -2.592 -16.349  1.00  0.00     0.027 C 
BRANCH   3   4
HETATM    4  C   UNL     1     -35.267  -1.128 -16.547  1.00  0.00     0.002 C 
BRANCH   4   5
HETATM    5  C   UNL     1     -36.637  -0.842 -15.946  1.00  0.00     0.000 C 
BRANCH   5   6
HETATM    6  C   UNL     1     -36.570   0.349 -14.998  1.00  0.00     0.000 C 
BRANCH   6   7
HETATM    7  C   UNL     1     -35.121   0.718 -14.712  1.00  0.00     0.000 C 
BRANCH   7   8
HETATM    8  C   UNL     1     -34.791   0.472 -13.249  1.00  0.00     0.000 C 
BRANCH   8   9
HETATM    9  C   UNL     1     -36.032   0.016 -12.499  1.00  0.00     0.000 C 
BRANCH   9  10
HETATM   10  C   UNL     1     -35.796  -1.351 -11.879  1.00  0.00     0.000 C 
BRANCH  10  11
HETATM   11  C   UNL     1     -34.374  -1.811 -12.151  1.00  0.00     0.000 C 
BRANCH  11  12
HETATM   12  C   UNL     1     -33.646  -2.066 -10.842  1.00  0.00     0.000 C 
BRANCH  12  13
HETATM   13  C   UNL     1     -33.818  -3.516 -10.419  1.00  0.00     0.000 C 
BRANCH  13  14
HETATM   14  C   UNL     1     -33.384  -4.448 -11.541  1.00  0.00     0.000 C 
BRANCH  14  15
HETATM   15  C   UNL     1     -34.263  -5.690 -11.565  1.00  0.00    -0.000 C 
BRANCH  15  16
HETATM   16  C   UNL     1     -34.607  -6.137 -10.149  1.00  0.00    -0.005 C 
HETATM   17  C   UNL     1     -34.743  -7.646 -10.081  1.00  0.00     0.005 C 
ENDBRANCH  15  16
ENDBRANCH  14  15
ENDBRANCH  13  14
ENDBRANCH  12  13
ENDBRANCH  11  12
ENDBRANCH  10  11
ENDBRANCH   9  10
ENDBRANCH   8   9
ENDBRANCH   7   8
ENDBRANCH   6   7
ENDBRANCH   5   6
ENDBRANCH   4   5
ENDBRANCH   3   4
ENDBRANCH   2   3
ENDBRANCH   1   2
BRANCH   1  18
HETATM   18  C   UNL     1     -31.627  -3.954 -17.104  1.00  0.00     0.258 C 
HETATM   19  O   UNL     1     -31.059  -2.955 -17.538  1.00  0.00    -0.265 OA
BRANCH  18  20
HETATM   20  C   UNL     1     -30.975  -5.295 -16.873  1.00  0.00     0.111 C 
BRANCH  20  21
HETATM   21  C   UNL     1     -30.024  -5.624 -18.019  1.00  0.00     0.010 C 
BRANCH  21  22
HETATM   22  C   UNL     1     -28.853  -6.486 -17.563  1.00  0.00     0.000 C 
BRANCH  22  23
HETATM   23  C   UNL     1     -28.869  -6.631 -16.044  1.00  0.00     0.000 C 
BRANCH  23  24
HETATM   24  C   UNL     1     -27.518  -7.108 -15.531  1.00  0.00     0.000 C 
BRANCH  24  25
HETATM   25  C   UNL     1     -26.390  -6.371 -16.238  1.00  0.00     0.000 C 
BRANCH  25  26
HETATM   26  C   UNL     1     -25.046  -6.795 -15.666  1.00  0.00     0.000 C 
BRANCH  26  27
HETATM   27  C   UNL     1     -24.330  -5.600 -15.056  1.00  0.00     0.000 C 
BRANCH  27  28
HETATM   28  C   UNL     1     -23.652  -6.003 -13.758  1.00  0.00     0.000 C 
BRANCH  28  29
HETATM   29  C   UNL     1     -22.825  -4.848 -13.217  1.00  0.00     0.000 C 
BRANCH  29  30
HETATM   30  C   UNL     1     -23.682  -3.598 -13.097  1.00  0.00     0.000 C 
BRANCH  30  31
HETATM   31  C   UNL     1     -23.448  -2.924 -11.752  1.00  0.00     0.000 C 
BRANCH  31  32
HETATM   32  C   UNL     1     -24.224  -3.644 -10.657  1.00  0.00    -0.000 C 
BRANCH  32  33
HETATM   33  C   UNL     1     -23.413  -3.703  -9.370  1.00  0.00    -0.005 C 
HETATM   34  C   UNL     1     -21.980  -4.114  -9.655  1.00  0.00     0.005 C 
ENDBRANCH  32  33
ENDBRANCH  31  32
ENDBRANCH  30  31
ENDBRANCH  29  30
ENDBRANCH  28  29
ENDBRANCH  27  28
ENDBRANCH  26  27
ENDBRANCH  25  26
ENDBRANCH  24  25
ENDBRANCH  23  24
ENDBRANCH  22  23
ENDBRANCH  21  22
ENDBRANCH  20  21
ENDBRANCH  18  20
ENDBRANCH   1  18
TORSDOF 30
BEGIN_RES ARG D 557
REMARK  4 active torsions:
REMARK  status: ('A' for Active; 'I' for Inactive)
REMARK    1  A    between atoms: CA   and  CB  
REMARK    2  A    between atoms: CB   and  CG  
REMARK    3  A    between atoms: CG   and  CD  
REMARK    4  A    between atoms: CD   and  NE  
REMARK       I    between atoms: NE   and  CZ  
REMARK       I    between atoms: CZ   and  NH1 
REMARK       I    between atoms: CZ   and  NH2 
ROOT
ATOM      1  CA  ARG D 557     -26.217   2.705 -17.014  1.00 35.49     0.159 C 
ENDROOT
BRANCH   1   2
ATOM      2  CB  ARG D 557     -26.789   1.319 -17.183  1.00 35.49     0.034 C 
BRANCH   2   3
ATOM      3  CG  ARG D 557     -28.233   1.169 -16.966  1.00 35.49     0.027 C 
BRANCH   3   4
ATOM      4  CD  ARG D 557     -28.611  -0.220 -16.619  1.00 35.49     0.116 C 
BRANCH   4   5
ATOM      5  NE  ARG D 557     -27.557  -0.910 -15.922  1.00 35.49    -0.212 N 
ATOM      6  CZ  ARG D 557     -27.317  -2.201 -15.977  1.00 35.49     0.666 C 
ATOM      7  NH1 ARG D 557     -28.054  -3.029 -16.694  1.00 35.49    -0.235 N 
ATOM      8  NH2 ARG D 557     -26.304  -2.653 -15.296  1.00 35.49    -0.235 N 
ATOM      9  HH  ARG D 557     -28.724  -2.754 -17.152  1.00 35.49     0.174 HD
ATOM     10  HH  ARG D 557     -27.848  -3.861 -16.694  1.00 35.49     0.174 HD
ATOM     11  HH  ARG D 557     -25.842  -2.093 -14.848  1.00 35.49     0.174 HD
ATOM     12  HH  ARG D 557     -26.116  -3.479 -15.310  1.00 35.49     0.174 HD
ATOM     13  HE  ARG D 557     -27.078  -0.464 -15.380  1.00 35.49     0.178 HD
ENDBRANCH   4   5
ENDBRANCH   3   4
ENDBRANCH   2   3
ENDBRANCH   1   2
END_RES ARG D 557
BEGIN_RES GLU D 570
REMARK  3 active torsions:
REMARK  status: ('A' for Active; 'I' for Inactive)
REMARK    5  A    between atoms: CA   and  CB  
REMARK    6  A    between atoms: CB   and  CG  
REMARK    7  A    between atoms: CG   and  CD  
ROOT
ATOM     14  CA  GLU D 570     -18.033  -6.348 -13.375  1.00 32.92     0.160 C 
ENDROOT
BRANCH  14  15
ATOM     15  CB  GLU D 570     -19.500  -6.345 -13.794  1.00 32.92     0.043 C 
BRANCH  15  16
ATOM     16  CG  GLU D 570     -19.797  -6.230 -15.245  1.00 32.92     0.100 C 
BRANCH  16  17
ATOM     17  CD  GLU D 570     -20.721  -7.316 -15.745  1.00 32.92     0.185 C 
ATOM     18  OE1 GLU D 570     -21.547  -7.044 -16.638  1.00 32.92    -0.647 OA
ATOM     19  OE2 GLU D 570     -20.628  -8.447 -15.228  1.00 32.92    -0.647 OA
ENDBRANCH  16  17
ENDBRANCH  15  16
ENDBRANCH  14  15
END_RES GLU D 570
ENDMDL
MODEL 2
REMARK VINA RESULT:      -7.2      0.906      8.882
REMARK  30 active torsions:
REMARK  status: ('A' for Active; 'I' for Inactive)
REMARK    1  A    between atoms: C_2  and  C_3 
REMARK    2  A    between atoms: C_3  and  C_4 
REMARK    3  A    between atoms: C_4  and  C_5 
REMARK    4  A    between atoms: C_5  and  C_6 
REMARK    5  A    between atoms: C_6  and  C_7 
REMARK    6  A    between atoms: C_7  and  C_8 
REMARK    7  A    between atoms: C_8  and  C_9 
REMARK    8  A    between atoms: C_9  and  C_10 
REMARK    9  A    between atoms: C_10  and  C_11 
REMARK   10  A    between atoms: C_11  and  C_12 
REMARK   11  A    between atoms: C_12  and  C_13 
REMARK   12  A    between atoms: C_13  and  C_14 
REMARK   13  A    between atoms: C_14  and  C_15 
REMARK   14  A    between atoms: C_15  and  C_16 
REMARK   15  A    between atoms: C_16  and  O_17 
REMARK   16  A    between atoms: O_17  and  C_18 
REMARK   17  A    between atoms: C_18  and  C_20 
REMARK   18  A    between atoms: C_20  and  C_21 
REMARK   19  A    between atoms: C_21  and  C_22 
REMARK   20  A    between atoms: C_22  and  C_23 
REMARK   21  A    between atoms: C_23  and  C_24 
REMARK   22  A    between atoms: C_24  and  C_25 
REMARK   23  A    between atoms: C_25  and  C_26 
REMARK   24  A    between atoms: C_26  and  C_27 
REMARK   25  A    between atoms: C_27  and  C_28 
REMARK   26  A    between atoms: C_28  and  C_29 
REMARK   27  A    between atoms: C_29  and  C_30 
REMARK   28  A    between atoms: C_30  and  C_31 
REMARK   29  A    between atoms: C_31  and  C_32 
REMARK   30  A    between atoms: C_32  and  C_33 
ROOT
HETATM    1  O   UNL     1     -33.574  -2.963 -17.109  1.00  0.00    -0.321 OA
ENDROOT
BRANCH   1   2
HETATM    2  C   UNL     1     -32.935  -4.205 -16.801  1.00  0.00     0.178 C 
BRANCH   2   3
HETATM    3  C   UNL     1     -31.480  -4.189 -17.231  1.00  0.00     0.027 C 
BRANCH   3   4
HETATM    4  C   UNL     1     -30.692  -5.271 -16.496  1.00  0.00     0.002 C 
BRANCH   4   5
HETATM    5  C   UNL     1     -30.172  -6.321 -17.467  1.00  0.00     0.000 C 
BRANCH   5   6
HETATM    6  C   UNL     1     -29.045  -7.129 -16.834  1.00  0.00     0.000 C 
BRANCH   6   7
HETATM    7  C   UNL     1     -27.751  -6.329 -16.840  1.00  0.00     0.000 C 
BRANCH   7   8
HETATM    8  C   UNL     1     -26.781  -6.882 -15.808  1.00  0.00     0.000 C 
BRANCH   8   9
HETATM    9  C   UNL     1     -25.570  -5.971 -15.684  1.00  0.00     0.000 C 
BRANCH   9  10
HETATM   10  C   UNL     1     -24.341  -6.781 -15.308  1.00  0.00     0.000 C 
BRANCH  10  11
HETATM   11  C   UNL     1     -23.627  -6.135 -14.133  1.00  0.00     0.000 C 
BRANCH  11  12
HETATM   12  C   UNL     1     -23.960  -4.655 -14.067  1.00  0.00     0.000 C 
BRANCH  12  13
HETATM   13  C   UNL     1     -22.686  -3.827 -14.116  1.00  0.00     0.000 C 
BRANCH  13  14
HETATM   14  C   UNL     1     -22.649  -2.847 -12.952  1.00  0.00     0.000 C 
BRANCH  14  15
HETATM   15  C   UNL     1     -23.832  -3.084 -12.024  1.00  0.00    -0.000 C 
BRANCH  15  16
HETATM   16  C   UNL     1     -23.358  -3.539 -10.649  1.00  0.00    -0.005 C 
HETATM   17  C   UNL     1     -24.107  -4.782 -10.208  1.00  0.00     0.005 C 
ENDBRANCH  15  16
ENDBRANCH  14  15
ENDBRANCH  13  14
ENDBRANCH  12  13
ENDBRANCH  11  12
ENDBRANCH  10  11
ENDBRANCH   9  10
ENDBRANCH   8   9
ENDBRANCH   7   8
ENDBRANCH   6   7
ENDBRANCH   5   6
ENDBRANCH   4   5
ENDBRANCH   3   4
ENDBRANCH   2   3
ENDBRANCH   1   2
BRANCH   1  18
HETATM   18  C   UNL     1     -34.531  -2.623 -16.205  1.00  0.00     0.258 C 
HETATM   19  O   UNL     1     -34.681  -3.157 -15.108  1.00  0.00    -0.265 OA
BRANCH  18  20
HETATM   20  C   UNL     1     -35.310  -1.433 -16.708  1.00  0.00     0.111 C 
BRANCH  20  21
HETATM   21  C   UNL     1     -35.901  -0.656 -15.536  1.00  0.00     0.010 C 
BRANCH  21  22
HETATM   22  C   UNL     1     -34.981   0.466 -15.068  1.00  0.00     0.000 C 
BRANCH  22  23
HETATM   23  C   UNL     1     -34.961   0.523 -13.544  1.00  0.00     0.000 C 
BRANCH  23  24
HETATM   24  C   UNL     1     -35.797  -0.600 -12.948  1.00  0.00     0.000 C 
BRANCH  24  25
HETATM   25  C   UNL     1     -36.300  -0.213 -11.565  1.00  0.00     0.000 C 
BRANCH  25  26
HETATM   26  C   UNL     1     -35.983  -1.312 -10.563  1.00  0.00     0.000 C 
BRANCH  26  27
HETATM   27  C   UNL     1     -35.168  -2.412 -11.226  1.00  0.00     0.000 C 
BRANCH  27  28
HETATM   28  C   UNL     1     -33.810  -2.532 -10.555  1.00  0.00     0.000 C 
BRANCH  28  29
HETATM   29  C   UNL     1     -32.924  -3.490 -11.335  1.00  0.00     0.000 C 
BRANCH  29  30
HETATM   30  C   UNL     1     -33.760  -4.605 -11.942  1.00  0.00     0.000 C 
BRANCH  30  31
HETATM   31  C   UNL     1     -33.673  -5.858 -11.081  1.00  0.00     0.000 C 
BRANCH  31  32
HETATM   32  C   UNL     1     -34.943  -6.024 -10.258  1.00  0.00    -0.000 C 
BRANCH  32  33
HETATM   33  C   UNL     1     -34.935  -7.351  -9.512  1.00  0.00    -0.005 C 
HETATM   34  C   UNL     1     -33.863  -8.272 -10.066  1.00  0.00     0.005 C 
ENDBRANCH  32  33
ENDBRANCH  31  32
ENDBRANCH  30  31
ENDBRANCH  29  30
ENDBRANCH  28  29
ENDBRANCH  27  28
ENDBRANCH  26  27
ENDBRANCH  25  26
ENDBRANCH  24  25
ENDBRANCH  23  24
ENDBRANCH  22  23
ENDBRANCH  21  22
ENDBRANCH  20  21
ENDBRANCH  18  20
ENDBRANCH   1  18
TORSDOF 30
BEGIN_RES ARG D 557
REMARK  4 active torsions:
REMARK  status: ('A' for Active; 'I' for Inactive)
REMARK    1  A    between atoms: CA   and  CB  
REMARK    2  A    between atoms: CB   and  CG  
REMARK    3  A    between atoms: CG   and  CD  
REMARK    4  A    between atoms: CD   and  NE  
REMARK       I    between atoms: NE   and  CZ  
REMARK       I    between atoms: CZ   and  NH1 
REMARK       I    between atoms: CZ   and  NH2 
ROOT
ATOM      1  CA  ARG D 557     -26.217   2.705 -17.014  1.00 35.49     0.159 C 
ENDROOT
BRANCH   1   2
ATOM      2  CB  ARG D 557     -26.789   1.319 -17.183  1.00 35.49     0.034 C 
BRANCH   2   3
ATOM      3  CG  ARG D 557     -28.244   1.183 -17.044  1.00 35.49     0.027 C 
BRANCH   3   4
ATOM      4  CD  ARG D 557     -28.652  -0.199 -16.704  1.00 35.49     0.116 C 
BRANCH   4   5
ATOM      5  NE  ARG D 557     -27.639  -0.895 -15.957  1.00 35.49    -0.212 N 
ATOM      6  CZ  ARG D 557     -27.384  -2.183 -16.022  1.00 35.49     0.666 C 
ATOM      7  NH1 ARG D 557     -28.067  -3.002 -16.800  1.00 35.49    -0.235 N 
ATOM      8  NH2 ARG D 557     -26.412  -2.641 -15.288  1.00 35.49    -0.235 N 
ATOM      9  HH  ARG D 557     -28.709  -2.722 -17.294  1.00 35.49     0.174 HD
ATOM     10  HH  ARG D 557     -27.854  -3.832 -16.804  1.00 35.49     0.174 HD
ATOM     11  HH  ARG D 557     -25.983  -2.087 -14.801  1.00 35.49     0.174 HD
ATOM     12  HH  ARG D 557     -26.216  -3.465 -15.306  1.00 35.49     0.174 HD
ATOM     13  HE  ARG D 557     -27.198  -0.456 -15.376  1.00 35.49     0.178 HD
ENDBRANCH   4   5
ENDBRANCH   3   4
ENDBRANCH   2   3
ENDBRANCH   1   2
END_RES ARG D 557
BEGIN_RES GLU D 570
REMARK  3 active torsions:
REMARK  status: ('A' for Active; 'I' for Inactive)
REMARK    5  A    between atoms: CA   and  CB  
REMARK    6  A    between atoms: CB   and  CG  
REMARK    7  A    between atoms: CG   and  CD  
ROOT
ATOM     14  CA  GLU D 570     -18.033  -6.348 -13.375  1.00 32.92     0.160 C 
ENDROOT
BRANCH  14  15
ATOM     15  CB  GLU D 570     -19.500  -6.345 -13.794  1.00 32.92     0.043 C 
BRANCH  15  16
ATOM     16  CG  GLU D 570     -19.799  -6.181 -15.240  1.00 32.92     0.100 C 
BRANCH  16  17
ATOM     17  CD  GLU D 570     -20.611  -7.321 -15.807  1.00 32.92     0.185 C 
ATOM     18  OE1 GLU D 570     -21.208  -7.160 -16.889  1.00 32.92    -0.647 OA
ATOM     19  OE2 GLU D 570     -20.665  -8.382 -15.155  1.00 32.92    -0.647 OA
ENDBRANCH  16  17
ENDBRANCH  15  16
ENDBRANCH  14  15
END_RES GLU D 570
ENDMDL
MODEL 3
REMARK VINA RESULT:      -6.9      8.582     15.101
REMARK  30 active torsions:
REMARK  status: ('A' for Active; 'I' for Inactive)
REMARK    1  A    between atoms: C_2  and  C_3 
REMARK    2  A    between atoms: C_3  and  C_4 
REMARK    3  A    between atoms: C_4  and  C_5 
REMARK    4  A    between atoms: C_5  and  C_6 
REMARK    5  A    between atoms: C_6  and  C_7 
REMARK    6  A    between atoms: C_7  and  C_8 
REMARK    7  A    between atoms: C_8  and  C_9 
REMARK    8  A    between atoms: C_9  and  C_10 
REMARK    9  A    between atoms: C_10  and  C_11 
REMARK   10  A    between atoms: C_11  and  C_12 
REMARK   11  A    between atoms: C_12  and  C_13 
REMARK   12  A    between atoms: C_13  and  C_14 
REMARK   13  A    between atoms: C_14  and  C_15 
REMARK   14  A    between atoms: C_15  and  C_16 
REMARK   15  A    between atoms: C_16  and  O_17 
REMARK   16  A    between atoms: O_17  and  C_18 
REMARK   17  A    between atoms: C_18  and  C_20 
REMARK   18  A    between atoms: C_20  and  C_21 
REMARK   19  A    between atoms: C_21  and  C_22 
REMARK   20  A    between atoms: C_22  and  C_23 
REMARK   21  A    between atoms: C_23  and  C_24 
REMARK   22  A    between atoms: C_24  and  C_25 
REMARK   23  A    between atoms: C_25  and  C_26 
REMARK   24  A    between atoms: C_26  and  C_27 
REMARK   25  A    between atoms: C_27  and  C_28 
REMARK   26  A    between atoms: C_28  and  C_29 
REMARK   27  A    between atoms: C_29  and  C_30 
REMARK   28  A    between atoms: C_30  and  C_31 
REMARK   29  A    between atoms: C_31  and  C_32 
REMARK   30  A    between atoms: C_32  and  C_33 
ROOT
HETATM    1  O   UNL     1     -22.790 -11.459   0.370  1.00  0.00    -0.321 OA
ENDROOT
BRANCH   1   2
HETATM    2  C   UNL     1     -21.425 -11.870   0.490  1.00  0.00     0.178 C 
BRANCH   2   3
HETATM    3  C   UNL     1     -20.488 -10.681   0.378  1.00  0.00     0.027 C 
BRANCH   3   4
HETATM    4  C   UNL     1     -21.218  -9.388   0.736  1.00  0.00     0.002 C 
BRANCH   4   5
HETATM    5  C   UNL     1     -21.167  -8.396  -0.418  1.00  0.00     0.000 C 
BRANCH   5   6
HETATM    6  C   UNL     1     -22.415  -7.521  -0.432  1.00  0.00     0.000 C 
BRANCH   6   7
HETATM    7  C   UNL     1     -22.334  -6.501  -1.558  1.00  0.00     0.000 C 
BRANCH   7   8
HETATM    8  C   UNL     1     -21.203  -6.853  -2.511  1.00  0.00     0.000 C 
BRANCH   8   9
HETATM    9  C   UNL     1     -21.310  -6.025  -3.782  1.00  0.00     0.000 C 
BRANCH   9  10
HETATM   10  C   UNL     1     -21.629  -6.923  -4.965  1.00  0.00     0.000 C 
BRANCH  10  11
HETATM   11  C   UNL     1     -20.855  -6.468  -6.191  1.00  0.00     0.000 C 
BRANCH  11  12
HETATM   12  C   UNL     1     -20.186  -5.131  -5.921  1.00  0.00     0.000 C 
BRANCH  12  13
HETATM   13  C   UNL     1     -20.670  -4.091  -6.919  1.00  0.00     0.000 C 
BRANCH  13  14
HETATM   14  C   UNL     1     -19.795  -4.107  -8.164  1.00  0.00     0.000 C 
BRANCH  14  15
HETATM   15  C   UNL     1     -20.641  -4.377  -9.400  1.00  0.00    -0.000 C 
BRANCH  15  16
HETATM   16  C   UNL     1     -22.109  -4.067  -9.129  1.00  0.00    -0.005 C 
HETATM   17  C   UNL     1     -22.994  -4.697 -10.187  1.00  0.00     0.005 C 
ENDBRANCH  15  16
ENDBRANCH  14  15
ENDBRANCH  13  14
ENDBRANCH  12  13
ENDBRANCH  11  12
ENDBRANCH  10  11
ENDBRANCH   9  10
ENDBRANCH   8   9
ENDBRANCH   7   8
ENDBRANCH   6   7
ENDBRANCH   5   6
ENDBRANCH   4   5
ENDBRANCH   3   4
ENDBRANCH   2   3
ENDBRANCH   1   2
BRANCH   1  18
HETATM   18  C   UNL     1     -23.406 -11.986  -0.720  1.00  0.00     0.258 C 
HETATM   19  O   UNL     1     -23.839 -13.135  -0.794  1.00  0.00    -0.265 OA
BRANCH  18  20
HETATM   20  C   UNL     1     -23.568 -10.925  -1.781  1.00  0.00     0.111 C 
BRANCH  20  21
HETATM   21  C   UNL     1     -22.875 -11.356  -3.068  1.00  0.00     0.010 C 
BRANCH  21  22
HETATM   22  C   UNL     1     -21.896 -10.303  -3.574  1.00  0.00     0.000 C 
BRANCH  22  23
HETATM   23  C   UNL     1     -20.463 -10.804  -3.419  1.00  0.00     0.000 C 
BRANCH  23  24
HETATM   24  C   UNL     1     -19.468  -9.749  -3.880  1.00  0.00     0.000 C 
BRANCH  24  25
HETATM   25  C   UNL     1     -18.543  -9.354  -2.738  1.00  0.00     0.000 C 
BRANCH  25  26
HETATM   26  C   UNL     1     -17.647 -10.522  -2.358  1.00  0.00     0.000 C 
BRANCH  26  27
HETATM   27  C   UNL     1     -16.187 -10.100  -2.389  1.00  0.00     0.000 C 
BRANCH  27  28
HETATM   28  C   UNL     1     -15.501 -10.680  -3.615  1.00  0.00     0.000 C 
BRANCH  28  29
HETATM   29  C   UNL     1     -15.573  -9.696  -4.771  1.00  0.00     0.000 C 
BRANCH  29  30
HETATM   30  C   UNL     1     -16.259 -10.337  -5.966  1.00  0.00     0.000 C 
BRANCH  30  31
HETATM   31  C   UNL     1     -16.002 -11.837  -5.981  1.00  0.00     0.000 C 
BRANCH  31  32
HETATM   32  C   UNL     1     -14.885 -12.174  -6.959  1.00  0.00    -0.000 C 
BRANCH  32  33
HETATM   33  C   UNL     1     -13.593 -12.489  -6.217  1.00  0.00    -0.005 C 
HETATM   34  C   UNL     1     -13.342 -13.985  -6.186  1.00  0.00     0.005 C 
ENDBRANCH  32  33
ENDBRANCH  31  32
ENDBRANCH  30  31
ENDBRANCH  29  30
ENDBRANCH  28  29
ENDBRANCH  27  28
ENDBRANCH  26  27
ENDBRANCH  25  26
ENDBRANCH  24  25
ENDBRANCH  23  24
ENDBRANCH  22  23
ENDBRANCH  21  22
ENDBRANCH  20  21
ENDBRANCH  18  20
ENDBRANCH   1  18
TORSDOF 30
BEGIN_RES ARG D 557
REMARK  4 active torsions:
REMARK  status: ('A' for Active; 'I' for Inactive)
REMARK    1  A    between atoms: CA   and  CB  
REMARK    2  A    between atoms: CB   and  CG  
REMARK    3  A    between atoms: CG   and  CD  
REMARK    4  A    between atoms: CD   and  NE  
REMARK       I    between atoms: NE   and  CZ  
REMARK       I    between atoms: CZ   and  NH1 
REMARK       I    between atoms: CZ   and  NH2 
ROOT
ATOM      1  CA  ARG D 557     -26.217   2.705 -17.014  1.00 35.49     0.159 C 
ENDROOT
BRANCH   1   2
ATOM      2  CB  ARG D 557     -26.789   1.319 -17.183  1.00 35.49     0.034 C 
BRANCH   2   3
ATOM      3  CG  ARG D 557     -25.839   0.201 -17.127  1.00 35.49     0.027 C 
BRANCH   3   4
ATOM      4  CD  ARG D 557     -24.749   0.435 -16.152  1.00 35.49     0.116 C 
BRANCH   4   5
ATOM      5  NE  ARG D 557     -24.858  -0.423 -15.002  1.00 35.49    -0.212 N 
ATOM      6  CZ  ARG D 557     -24.019  -1.380 -14.675  1.00 35.49     0.666 C 
ATOM      7  NH1 ARG D 557     -22.958  -1.673 -15.405  1.00 35.49    -0.235 N 
ATOM      8  NH2 ARG D 557     -24.262  -2.046 -13.583  1.00 35.49    -0.235 N 
ATOM      9  HH  ARG D 557     -22.778  -1.247 -16.126  1.00 35.49     0.174 HD
ATOM     10  HH  ARG D 557     -22.444  -2.306 -15.141  1.00 35.49     0.174 HD
ATOM     11  HH  ARG D 557     -24.950  -1.830 -13.128  1.00 35.49     0.174 HD
ATOM     12  HH  ARG D 557     -23.741  -2.668 -13.338  1.00 35.49     0.174 HD
ATOM     13  HE  ARG D 557     -25.551  -0.352 -14.515  1.00 35.49     0.178 HD
ENDBRANCH   4   5
ENDBRANCH   3   4
ENDBRANCH   2   3
ENDBRANCH   1   2
END_RES ARG D 557
BEGIN_RES GLU D 570
REMARK  3 active torsions:
REMARK  status: ('A' for Active; 'I' for Inactive)
REMARK    5  A    between atoms: CA   and  CB  
REMARK    6  A    between atoms: CB   and  CG  
REMARK    7  A    between atoms: CG   and  CD  
ROOT
ATOM     14  CA  GLU D 570     -18.033  -6.348 -13.375  1.00 32.92     0.160 C 
ENDROOT
BRANCH  14  15
ATOM     15  CB  GLU D 570     -19.500  -6.345 -13.794  1.00 32.92     0.043 C 
BRANCH  15  16
ATOM     16  CG  GLU D 570     -19.796  -6.294 -15.249  1.00 32.92     0.100 C 
BRANCH  16  17
ATOM     17  CD  GLU D 570     -21.036  -5.492 -15.570  1.00 32.92     0.185 C 
ATOM     18  OE1 GLU D 570     -21.826  -5.205 -14.650  1.00 32.92    -0.647 OA
ATOM     19  OE2 GLU D 570     -21.228  -5.163 -16.757  1.00 32.92    -0.647 OA
ENDBRANCH  16  17
ENDBRANCH  15  16
ENDBRANCH  14  15
END_RES GLU D 570
ENDMDL
MODEL 4
REMARK VINA RESULT:      -6.8      8.373     15.546
REMARK  30 active torsions:
REMARK  status: ('A' for Active; 'I' for Inactive)
REMARK    1  A    between atoms: C_2  and  C_3 
REMARK    2  A    between atoms: C_3  and  C_4 
REMARK    3  A    between atoms: C_4  and  C_5 
REMARK    4  A    between atoms: C_5  and  C_6 
REMARK    5  A    between atoms: C_6  and  C_7 
REMARK    6  A    between atoms: C_7  and  C_8 
REMARK    7  A    between atoms: C_8  and  C_9 
REMARK    8  A    between atoms: C_9  and  C_10 
REMARK    9  A    between atoms: C_10  and  C_11 
REMARK   10  A    between atoms: C_11  and  C_12 
REMARK   11  A    between atoms: C_12  and  C_13 
REMARK   12  A    between atoms: C_13  and  C_14 
REMARK   13  A    between atoms: C_14  and  C_15 
REMARK   14  A    between atoms: C_15  and  C_16 
REMARK   15  A    between atoms: C_16  and  O_17 
REMARK   16  A    between atoms: O_17  and  C_18 
REMARK   17  A    between atoms: C_18  and  C_20 
REMARK   18  A    between atoms: C_20  and  C_21 
REMARK   19  A    between atoms: C_21  and  C_22 
REMARK   20  A    between atoms: C_22  and  C_23 
REMARK   21  A    between atoms: C_23  and  C_24 
REMARK   22  A    between atoms: C_24  and  C_25 
REMARK   23  A    between atoms: C_25  and  C_26 
REMARK   24  A    between atoms: C_26  and  C_27 
REMARK   25  A    between atoms: C_27  and  C_28 
REMARK   26  A    between atoms: C_28  and  C_29 
REMARK   27  A    between atoms: C_29  and  C_30 
REMARK   28  A    between atoms: C_30  and  C_31 
REMARK   29  A    between atoms: C_31  and  C_32 
REMARK   30  A    between atoms: C_32  and  C_33 
ROOT
HETATM    1  O   UNL     1     -22.213 -10.445   0.140  1.00  0.00    -0.321 OA
ENDROOT
BRANCH   1   2
HETATM    2  C   UNL     1     -23.633 -10.507  -0.021  1.00  0.00     0.178 C 
BRANCH   2   3
HETATM    3  C   UNL     1     -24.005 -11.311  -1.253  1.00  0.00     0.027 C 
BRANCH   3   4
HETATM    4  C   UNL     1     -22.757 -11.662  -2.060  1.00  0.00     0.002 C 
BRANCH   4   5
HETATM    5  C   UNL     1     -22.723 -10.893  -3.374  1.00  0.00     0.000 C 
BRANCH   5   6
HETATM    6  C   UNL     1     -21.350 -11.002  -4.026  1.00  0.00     0.000 C 
BRANCH   6   7
HETATM    7  C   UNL     1     -20.263 -11.071  -2.964  1.00  0.00     0.000 C 
BRANCH   7   8
HETATM    8  C   UNL     1     -19.333  -9.873  -3.078  1.00  0.00     0.000 C 
BRANCH   8   9
HETATM    9  C   UNL     1     -18.633  -9.879  -4.427  1.00  0.00     0.000 C 
BRANCH   9  10
HETATM   10  C   UNL     1     -17.129  -9.773  -4.237  1.00  0.00     0.000 C 
BRANCH  10  11
HETATM   11  C   UNL     1     -16.801  -9.567  -2.767  1.00  0.00     0.000 C 
BRANCH  11  12
HETATM   12  C   UNL     1     -15.566 -10.366  -2.390  1.00  0.00     0.000 C 
BRANCH  12  13
HETATM   13  C   UNL     1     -15.969 -11.697  -1.774  1.00  0.00     0.000 C 
BRANCH  13  14
HETATM   14  C   UNL     1     -15.606 -11.726  -0.297  1.00  0.00     0.000 C 
BRANCH  14  15
HETATM   15  C   UNL     1     -16.722 -12.376   0.509  1.00  0.00    -0.000 C 
BRANCH  15  16
HETATM   16  C   UNL     1     -17.962 -12.581  -0.354  1.00  0.00    -0.005 C 
HETATM   17  C   UNL     1     -19.165 -11.892   0.263  1.00  0.00     0.005 C 
ENDBRANCH  15  16
ENDBRANCH  14  15
ENDBRANCH  13  14
ENDBRANCH  12  13
ENDBRANCH  11  12
ENDBRANCH  10  11
ENDBRANCH   9  10
ENDBRANCH   8   9
ENDBRANCH   7   8
ENDBRANCH   6   7
ENDBRANCH   5   6
ENDBRANCH   4   5
ENDBRANCH   3   4
ENDBRANCH   2   3
ENDBRANCH   1   2
BRANCH   1  18
HETATM   18  C   UNL     1     -21.790  -9.257   0.647  1.00  0.00     0.258 C 
HETATM   19  O   UNL     1     -20.902  -9.129   1.487  1.00  0.00    -0.265 OA
BRANCH  18  20
HETATM   20  C   UNL     1     -22.501  -8.122  -0.047  1.00  0.00     0.111 C 
BRANCH  20  21
HETATM   21  C   UNL     1     -21.696  -7.653  -1.254  1.00  0.00     0.010 C 
BRANCH  21  22
HETATM   22  C   UNL     1     -22.233  -6.349  -1.832  1.00  0.00     0.000 C 
BRANCH  22  23
HETATM   23  C   UNL     1     -21.477  -5.992  -3.108  1.00  0.00     0.000 C 
BRANCH  23  24
HETATM   24  C   UNL     1     -21.507  -7.148  -4.097  1.00  0.00     0.000 C 
BRANCH  24  25
HETATM   25  C   UNL     1     -20.570  -6.875  -5.265  1.00  0.00     0.000 C 
BRANCH  25  26
HETATM   26  C   UNL     1     -20.466  -5.379  -5.517  1.00  0.00     0.000 C 
BRANCH  26  27
HETATM   27  C   UNL     1     -20.184  -5.107  -6.986  1.00  0.00     0.000 C 
BRANCH  27  28
HETATM   28  C   UNL     1     -20.932  -3.865  -7.441  1.00  0.00     0.000 C 
BRANCH  28  29
HETATM   29  C   UNL     1     -21.386  -4.026  -8.883  1.00  0.00     0.000 C 
BRANCH  29  30
HETATM   30  C   UNL     1     -20.214  -4.435  -9.761  1.00  0.00     0.000 C 
BRANCH  30  31
HETATM   31  C   UNL     1     -20.505  -4.104 -11.219  1.00  0.00     0.000 C 
BRANCH  31  32
HETATM   32  C   UNL     1     -21.716  -3.188 -11.322  1.00  0.00    -0.000 C 
BRANCH  32  33
HETATM   33  C   UNL     1     -22.753  -3.767 -12.275  1.00  0.00    -0.005 C 
HETATM   34  C   UNL     1     -23.763  -2.709 -12.678  1.00  0.00     0.005 C 
ENDBRANCH  32  33
ENDBRANCH  31  32
ENDBRANCH  30  31
ENDBRANCH  29  30
ENDBRANCH  28  29
ENDBRANCH  27  28
ENDBRANCH  26  27
ENDBRANCH  25  26
ENDBRANCH  24  25
ENDBRANCH  23  24
ENDBRANCH  22  23
ENDBRANCH  21  22
ENDBRANCH  20  21
ENDBRANCH  18  20
ENDBRANCH   1  18
TORSDOF 30
BEGIN_RES ARG D 557
REMARK  4 active torsions:
REMARK  status: ('A' for Active; 'I' for Inactive)
REMARK    1  A    between atoms: CA   and  CB  
REMARK    2  A    between atoms: CB   and  CG  
REMARK    3  A    between atoms: CG   and  CD  
REMARK    4  A    between atoms: CD   and  NE  
REMARK       I    between atoms: NE   and  CZ  
REMARK       I    between atoms: CZ   and  NH1 
REMARK       I    between atoms: CZ   and  NH2 
ROOT
ATOM      1  CA  ARG D 557     -26.217   2.705 -17.014  1.00 35.49     0.159 C 
ENDROOT
BRANCH   1   2
ATOM      2  CB  ARG D 557     -26.789   1.319 -17.183  1.00 35.49     0.034 C 
BRANCH   2   3
ATOM      3  CG  ARG D 557     -28.220   1.156 -16.900  1.00 35.49     0.027 C 
BRANCH   3   4
ATOM      4  CD  ARG D 557     -28.616  -0.267 -16.795  1.00 35.49     0.116 C 
BRANCH   4   5
ATOM      5  NE  ARG D 557     -27.635  -1.052 -16.093  1.00 35.49    -0.212 N 
ATOM      6  CZ  ARG D 557     -27.504  -2.358 -16.161  1.00 35.49     0.666 C 
ATOM      7  NH1 ARG D 557     -28.299  -3.113 -16.897  1.00 35.49    -0.235 N 
ATOM      8  NH2 ARG D 557     -26.543  -2.902 -15.472  1.00 35.49    -0.235 N 
ATOM      9  HH  ARG D 557     -28.937  -2.776 -17.360  1.00 35.49     0.174 HD
ATOM     10  HH  ARG D 557     -28.165  -3.959 -16.905  1.00 35.49     0.174 HD
ATOM     11  HH  ARG D 557     -26.041  -2.390 -15.012  1.00 35.49     0.174 HD
ATOM     12  HH  ARG D 557     -26.426  -3.742 -15.494  1.00 35.49     0.174 HD
ATOM     13  HE  ARG D 557     -27.127  -0.654 -15.539  1.00 35.49     0.178 HD
ENDBRANCH   4   5
ENDBRANCH   3   4
ENDBRANCH   2   3
ENDBRANCH   1   2
END_RES ARG D 557
BEGIN_RES GLU D 570
REMARK  3 active torsions:
REMARK  status: ('A' for Active; 'I' for Inactive)
REMARK    5  A    between atoms: CA   and  CB  
REMARK    6  A    between atoms: CB   and  CG  
REMARK    7  A    between atoms: CG   and  CD  
ROOT
ATOM     14  CA  GLU D 570     -18.033  -6.348 -13.375  1.00 32.92     0.160 C 
ENDROOT
BRANCH  14  15
ATOM     15  CB  GLU D 570     -19.500  -6.345 -13.794  1.00 32.92     0.043 C 
BRANCH  15  16
ATOM     16  CG  GLU D 570     -19.814  -5.922 -15.183  1.00 32.92     0.100 C 
BRANCH  16  17
ATOM     17  CD  GLU D 570     -21.298  -5.876 -15.464  1.00 32.92     0.185 C 
ATOM     18  OE1 GLU D 570     -21.696  -5.384 -16.537  1.00 32.92    -0.647 OA
ATOM     19  OE2 GLU D 570     -22.072  -6.321 -14.593  1.00 32.92    -0.647 OA
ENDBRANCH  16  17
ENDBRANCH  15  16
ENDBRANCH  14  15
END_RES GLU D 570
ENDMDL
MODEL 5
REMARK VINA RESULT:      -6.7      8.023     14.372
REMARK  30 active torsions:
REMARK  status: ('A' for Active; 'I' for Inactive)
REMARK    1  A    between atoms: C_2  and  C_3 
REMARK    2  A    between atoms: C_3  and  C_4 
REMARK    3  A    between atoms: C_4  and  C_5 
REMARK    4  A    between atoms: C_5  and  C_6 
REMARK    5  A    between atoms: C_6  and  C_7 
REMARK    6  A    between atoms: C_7  and  C_8 
REMARK    7  A    between atoms: C_8  and  C_9 
REMARK    8  A    between atoms: C_9  and  C_10 
REMARK    9  A    between atoms: C_10  and  C_11 
REMARK   10  A    between atoms: C_11  and  C_12 
REMARK   11  A    between atoms: C_12  and  C_13 
REMARK   12  A    between atoms: C_13  and  C_14 
REMARK   13  A    between atoms: C_14  and  C_15 
REMARK   14  A    between atoms: C_15  and  C_16 
REMARK   15  A    between atoms: C_16  and  O_17 
REMARK   16  A    between atoms: O_17  and  C_18 
REMARK   17  A    between atoms: C_18  and  C_20 
REMARK   18  A    between atoms: C_20  and  C_21 
REMARK   19  A    between atoms: C_21  and  C_22 
REMARK   20  A    between atoms: C_22  and  C_23 
REMARK   21  A    between atoms: C_23  and  C_24 
REMARK   22  A    between atoms: C_24  and  C_25 
REMARK   23  A    between atoms: C_25  and  C_26 
REMARK   24  A    between atoms: C_26  and  C_27 
REMARK   25  A    between atoms: C_27  and  C_28 
REMARK   26  A    between atoms: C_28  and  C_29 
REMARK   27  A    between atoms: C_29  and  C_30 
REMARK   28  A    between atoms: C_30  and  C_31 
REMARK   29  A    between atoms: C_31  and  C_32 
REMARK   30  A    between atoms: C_32  and  C_33 
ROOT
HETATM    1  O   UNL     1     -21.755 -10.304   0.743  1.00  0.00    -0.321 OA
ENDROOT
BRANCH   1   2
HETATM    2  C   UNL     1     -21.311  -8.975   0.448  1.00  0.00     0.178 C 
BRANCH   2   3
HETATM    3  C   UNL     1     -22.472  -7.999   0.466  1.00  0.00     0.027 C 
BRANCH   3   4
HETATM    4  C   UNL     1     -22.347  -6.998  -0.681  1.00  0.00     0.002 C 
BRANCH   4   5
HETATM    5  C   UNL     1     -21.378  -7.502  -1.742  1.00  0.00     0.000 C 
BRANCH   5   6
HETATM    6  C   UNL     1     -21.264  -6.502  -2.886  1.00  0.00     0.000 C 
BRANCH   6   7
HETATM    7  C   UNL     1     -22.286  -6.816  -3.968  1.00  0.00     0.000 C 
BRANCH   7   8
HETATM    8  C   UNL     1     -21.774  -6.367  -5.327  1.00  0.00     0.000 C 
BRANCH   8   9
HETATM    9  C   UNL     1     -20.433  -7.018  -5.625  1.00  0.00     0.000 C 
BRANCH   9  10
HETATM   10  C   UNL     1     -19.714  -6.256  -6.725  1.00  0.00     0.000 C 
BRANCH  10  11
HETATM   11  C   UNL     1     -19.745  -4.764  -6.435  1.00  0.00     0.000 C 
BRANCH  11  12
HETATM   12  C   UNL     1     -20.188  -4.000  -7.672  1.00  0.00     0.000 C 
BRANCH  12  13
HETATM   13  C   UNL     1     -21.574  -3.414  -7.458  1.00  0.00     0.000 C 
BRANCH  13  14
HETATM   14  C   UNL     1     -22.624  -4.282  -8.136  1.00  0.00     0.000 C 
BRANCH  14  15
HETATM   15  C   UNL     1     -22.339  -4.389  -9.627  1.00  0.00    -0.000 C 
BRANCH  15  16
HETATM   16  C   UNL     1     -23.315  -3.534 -10.427  1.00  0.00    -0.005 C 
HETATM   17  C   UNL     1     -24.624  -3.373  -9.678  1.00  0.00     0.005 C 
ENDBRANCH  15  16
ENDBRANCH  14  15
ENDBRANCH  13  14
ENDBRANCH  12  13
ENDBRANCH  11  12
ENDBRANCH  10  11
ENDBRANCH   9  10
ENDBRANCH   8   9
ENDBRANCH   7   8
ENDBRANCH   6   7
ENDBRANCH   5   6
ENDBRANCH   4   5
ENDBRANCH   3   4
ENDBRANCH   2   3
ENDBRANCH   1   2
BRANCH   1  18
HETATM   18  C   UNL     1     -22.615 -10.792  -0.189  1.00  0.00     0.258 C 
HETATM   19  O   UNL     1     -23.820 -10.959  -0.011  1.00  0.00    -0.265 OA
BRANCH  18  20
HETATM   20  C   UNL     1     -21.891 -11.001  -1.495  1.00  0.00     0.111 C 
BRANCH  20  21
HETATM   21  C   UNL     1     -22.888 -11.302  -2.609  1.00  0.00     0.010 C 
BRANCH  21  22
HETATM   22  C   UNL     1     -22.195 -11.653  -3.921  1.00  0.00     0.000 C 
BRANCH  22  23
HETATM   23  C   UNL     1     -21.618 -10.394  -4.561  1.00  0.00     0.000 C 
BRANCH  23  24
HETATM   24  C   UNL     1     -20.820 -10.738  -5.810  1.00  0.00     0.000 C 
BRANCH  24  25
HETATM   25  C   UNL     1     -19.642 -11.636  -5.459  1.00  0.00     0.000 C 
BRANCH  25  26
HETATM   26  C   UNL     1     -18.435 -11.277  -6.312  1.00  0.00     0.000 C 
BRANCH  26  27
HETATM   27  C   UNL     1     -17.504 -12.472  -6.440  1.00  0.00     0.000 C 
BRANCH  27  28
HETATM   28  C   UNL     1     -16.092 -12.080  -6.038  1.00  0.00     0.000 C 
BRANCH  28  29
HETATM   29  C   UNL     1     -15.707 -12.767  -4.738  1.00  0.00     0.000 C 
BRANCH  29  30
HETATM   30  C   UNL     1     -15.006 -11.786  -3.812  1.00  0.00     0.000 C 
BRANCH  30  31
HETATM   31  C   UNL     1     -15.986 -11.239  -2.783  1.00  0.00     0.000 C 
BRANCH  31  32
HETATM   32  C   UNL     1     -16.120  -9.729  -2.930  1.00  0.00    -0.000 C 
BRANCH  32  33
HETATM   33  C   UNL     1     -17.506  -9.357  -3.441  1.00  0.00    -0.005 C 
HETATM   34  C   UNL     1     -18.579  -9.837  -2.482  1.00  0.00     0.005 C 
ENDBRANCH  32  33
ENDBRANCH  31  32
ENDBRANCH  30  31
ENDBRANCH  29  30
ENDBRANCH  28  29
ENDBRANCH  27  28
ENDBRANCH  26  27
ENDBRANCH  25  26
ENDBRANCH  24  25
ENDBRANCH  23  24
ENDBRANCH  22  23
ENDBRANCH  21  22
ENDBRANCH  20  21
ENDBRANCH  18  20
ENDBRANCH   1  18
TORSDOF 30
BEGIN_RES ARG D 557
REMARK  4 active torsions:
REMARK  status: ('A' for Active; 'I' for Inactive)
REMARK    1  A    between atoms: CA   and  CB  
REMARK    2  A    between atoms: CB   and  CG  
REMARK    3  A    between atoms: CG   and  CD  
REMARK    4  A    between atoms: CD   and  NE  
REMARK       I    between atoms: NE   and  CZ  
REMARK       I    between atoms: CZ   and  NH1 
REMARK       I    between atoms: CZ   and  NH2 
ROOT
ATOM      1  CA  ARG D 557     -26.217   2.705 -17.014  1.00 35.49     0.159 C 
ENDROOT
BRANCH   1   2
ATOM      2  CB  ARG D 557     -26.789   1.319 -17.183  1.00 35.49     0.034 C 
BRANCH   2   3
ATOM      3  CG  ARG D 557     -25.837   0.202 -17.148  1.00 35.49     0.027 C 
BRANCH   3   4
ATOM      4  CD  ARG D 557     -24.738   0.428 -16.181  1.00 35.49     0.116 C 
BRANCH   4   5
ATOM      5  NE  ARG D 557     -24.854  -0.418 -15.022  1.00 35.49    -0.212 N 
ATOM      6  CZ  ARG D 557     -24.018  -1.373 -14.681  1.00 35.49     0.666 C 
ATOM      7  NH1 ARG D 557     -22.954  -1.675 -15.402  1.00 35.49    -0.235 N 
ATOM      8  NH2 ARG D 557     -24.268  -2.026 -13.584  1.00 35.49    -0.235 N 
ATOM      9  HH  ARG D 557     -22.769  -1.256 -16.127  1.00 35.49     0.174 HD
ATOM     10  HH  ARG D 557     -22.443  -2.306 -15.129  1.00 35.49     0.174 HD
ATOM     11  HH  ARG D 557     -24.958  -1.804 -13.134  1.00 35.49     0.174 HD
ATOM     12  HH  ARG D 557     -23.749  -2.647 -13.329  1.00 35.49     0.174 HD
ATOM     13  HE  ARG D 557     -25.550  -0.341 -14.540  1.00 35.49     0.178 HD
ENDBRANCH   4   5
ENDBRANCH   3   4
ENDBRANCH   2   3
ENDBRANCH   1   2
END_RES ARG D 557
BEGIN_RES GLU D 570
REMARK  3 active torsions:
REMARK  status: ('A' for Active; 'I' for Inactive)
REMARK    5  A    between atoms: CA   and  CB  
REMARK    6  A    between atoms: CB   and  CG  
REMARK    7  A    between atoms: CG   and  CD  
ROOT
ATOM     14  CA  GLU D 570     -18.033  -6.348 -13.375  1.00 32.92     0.160 C 
ENDROOT
BRANCH  14  15
ATOM     15  CB  GLU D 570     -19.500  -6.345 -13.794  1.00 32.92     0.043 C 
BRANCH  15  16
ATOM     16  CG  GLU D 570     -20.438  -5.515 -12.995  1.00 32.92     0.100 C 
BRANCH  16  17
ATOM     17  CD  GLU D 570     -21.738  -5.237 -13.714  1.00 32.92     0.185 C 
ATOM     18  OE1 GLU D 570     -22.283  -6.156 -14.355  1.00 32.92    -0.647 OA
ATOM     19  OE2 GLU D 570     -22.207  -4.084 -13.649  1.00 32.92    -0.647 OA
ENDBRANCH  16  17
ENDBRANCH  15  16
ENDBRANCH  14  15
END_RES GLU D 570
ENDMDL
MODEL 6
REMARK VINA RESULT:      -6.7      7.550     14.212
REMARK  30 active torsions:
REMARK  status: ('A' for Active; 'I' for Inactive)
REMARK    1  A    between atoms: C_2  and  C_3 
REMARK    2  A    between atoms: C_3  and  C_4 
REMARK    3  A    between atoms: C_4  and  C_5 
REMARK    4  A    between atoms: C_5  and  C_6 
REMARK    5  A    between atoms: C_6  and  C_7 
REMARK    6  A    between atoms: C_7  and  C_8 
REMARK    7  A    between atoms: C_8  and  C_9 
REMARK    8  A    between atoms: C_9  and  C_10 
REMARK    9  A    between atoms: C_10  and  C_11 
REMARK   10  A    between atoms: C_11  and  C_12 
REMARK   11  A    between atoms: C_12  and  C_13 
REMARK   12  A    between atoms: C_13  and  C_14 
REMARK   13  A    between atoms: C_14  and  C_15 
REMARK   14  A    between atoms: C_15  and  C_16 
REMARK   15  A    between atoms: C_16  and  O_17 
REMARK   16  A    between atoms: O_17  and  C_18 
REMARK   17  A    between atoms: C_18  and  C_20 
REMARK   18  A    between atoms: C_20  and  C_21 
REMARK   19  A    between atoms: C_21  and  C_22 
REMARK   20  A    between atoms: C_22  and  C_23 
REMARK   21  A    between atoms: C_23  and  C_24 
REMARK   22  A    between atoms: C_24  and  C_25 
REMARK   23  A    between atoms: C_25  and  C_26 
REMARK   24  A    between atoms: C_26  and  C_27 
REMARK   25  A    between atoms: C_27  and  C_28 
REMARK   26  A    between atoms: C_28  and  C_29 
REMARK   27  A    between atoms: C_29  and  C_30 
REMARK   28  A    between atoms: C_30  and  C_31 
REMARK   29  A    between atoms: C_31  and  C_32 
REMARK   30  A    between atoms: C_32  and  C_33 
ROOT
HETATM    1  O   UNL     1     -21.005  -9.935  -0.410  1.00  0.00    -0.321 OA
ENDROOT
BRANCH   1   2
HETATM    2  C   UNL     1     -21.645  -8.986   0.448  1.00  0.00     0.178 C 
BRANCH   2   3
HETATM    3  C   UNL     1     -22.333  -7.901  -0.359  1.00  0.00     0.027 C 
BRANCH   3   4
HETATM    4  C   UNL     1     -21.379  -7.325  -1.404  1.00  0.00     0.002 C 
BRANCH   4   5
HETATM    5  C   UNL     1     -22.103  -6.352  -2.325  1.00  0.00     0.000 C 
BRANCH   5   6
HETATM    6  C   UNL     1     -21.347  -6.191  -3.639  1.00  0.00     0.000 C 
BRANCH   6   7
HETATM    7  C   UNL     1     -22.272  -6.459  -4.817  1.00  0.00     0.000 C 
BRANCH   7   8
HETATM    8  C   UNL     1     -21.498  -7.087  -5.965  1.00  0.00     0.000 C 
BRANCH   8   9
HETATM    9  C   UNL     1     -20.114  -6.467  -6.069  1.00  0.00     0.000 C 
BRANCH   9  10
HETATM   10  C   UNL     1     -19.993  -5.669  -7.355  1.00  0.00     0.000 C 
BRANCH  10  11
HETATM   11  C   UNL     1     -20.212  -4.191  -7.077  1.00  0.00     0.000 C 
BRANCH  11  12
HETATM   12  C   UNL     1     -21.605  -3.775  -7.520  1.00  0.00     0.000 C 
BRANCH  12  13
HETATM   13  C   UNL     1     -21.767  -3.995  -9.016  1.00  0.00     0.000 C 
BRANCH  13  14
HETATM   14  C   UNL     1     -23.175  -4.478  -9.329  1.00  0.00     0.000 C 
BRANCH  14  15
HETATM   15  C   UNL     1     -23.353  -4.652 -10.830  1.00  0.00    -0.000 C 
BRANCH  15  16
HETATM   16  C   UNL     1     -22.169  -4.061 -11.587  1.00  0.00    -0.005 C 
HETATM   17  C   UNL     1     -22.596  -2.845 -12.386  1.00  0.00     0.005 C 
ENDBRANCH  15  16
ENDBRANCH  14  15
ENDBRANCH  13  14
ENDBRANCH  12  13
ENDBRANCH  11  12
ENDBRANCH  10  11
ENDBRANCH   9  10
ENDBRANCH   8   9
ENDBRANCH   7   8
ENDBRANCH   6   7
ENDBRANCH   5   6
ENDBRANCH   4   5
ENDBRANCH   3   4
ENDBRANCH   2   3
ENDBRANCH   1   2
BRANCH   1  18
HETATM   18  C   UNL     1     -21.711 -11.089  -0.540  1.00  0.00     0.258 C 
HETATM   19  O   UNL     1     -22.424 -11.578   0.334  1.00  0.00    -0.265 OA
BRANCH  18  20
HETATM   20  C   UNL     1     -21.568 -11.621  -1.945  1.00  0.00     0.111 C 
BRANCH  20  21
HETATM   21  C   UNL     1     -22.559 -10.930  -2.875  1.00  0.00     0.010 C 
BRANCH  21  22
HETATM   22  C   UNL     1     -21.868  -9.975  -3.842  1.00  0.00     0.000 C 
BRANCH  22  23
HETATM   23  C   UNL     1     -20.887 -10.742  -4.723  1.00  0.00     0.000 C 
BRANCH  23  24
HETATM   24  C   UNL     1     -19.605  -9.948  -4.924  1.00  0.00     0.000 C 
BRANCH  24  25
HETATM   25  C   UNL     1     -19.211  -9.238  -3.637  1.00  0.00     0.000 C 
BRANCH  25  26
HETATM   26  C   UNL     1     -18.218 -10.082  -2.854  1.00  0.00     0.000 C 
BRANCH  26  27
HETATM   27  C   UNL     1     -16.863  -9.395  -2.802  1.00  0.00     0.000 C 
BRANCH  27  28
HETATM   28  C   UNL     1     -15.803 -10.280  -3.434  1.00  0.00     0.000 C 
BRANCH  28  29
HETATM   29  C   UNL     1     -15.761 -10.057  -4.937  1.00  0.00     0.000 C 
BRANCH  29  30
HETATM   30  C   UNL     1     -15.619 -11.385  -5.663  1.00  0.00     0.000 C 
BRANCH  30  31
HETATM   31  C   UNL     1     -16.766 -11.574  -6.647  1.00  0.00     0.000 C 
BRANCH  31  32
HETATM   32  C   UNL     1     -17.580 -12.807  -6.280  1.00  0.00    -0.000 C 
BRANCH  32  33
HETATM   33  C   UNL     1     -18.878 -12.854  -7.074  1.00  0.00    -0.005 C 
HETATM   34  C   UNL     1     -18.602 -12.749  -8.562  1.00  0.00     0.005 C 
ENDBRANCH  32  33
ENDBRANCH  31  32
ENDBRANCH  30  31
ENDBRANCH  29  30
ENDBRANCH  28  29
ENDBRANCH  27  28
ENDBRANCH  26  27
ENDBRANCH  25  26
ENDBRANCH  24  25
ENDBRANCH  23  24
ENDBRANCH  22  23
ENDBRANCH  21  22
ENDBRANCH  20  21
ENDBRANCH  18  20
ENDBRANCH   1  18
TORSDOF 30
BEGIN_RES ARG D 557
REMARK  4 active torsions:
REMARK  status: ('A' for Active; 'I' for Inactive)
REMARK    1  A    between atoms: CA   and  CB  
REMARK    2  A    between atoms: CB   and  CG  
REMARK    3  A    between atoms: CG   and  CD  
REMARK    4  A    between atoms: CD   and  NE  
REMARK       I    between atoms: NE   and  CZ  
REMARK       I    between atoms: CZ   and  NH1 
REMARK       I    between atoms: CZ   and  NH2 
ROOT
ATOM      1  CA  ARG D 557     -26.217   2.705 -17.014  1.00 35.49     0.159 C 
ENDROOT
BRANCH   1   2
ATOM      2  CB  ARG D 557     -26.789   1.319 -17.183  1.00 35.49     0.034 C 
BRANCH   2   3
ATOM      3  CG  ARG D 557     -28.151   1.100 -16.680  1.00 35.49     0.027 C 
BRANCH   3   4
ATOM      4  CD  ARG D 557     -28.682  -0.231 -17.051  1.00 35.49     0.116 C 
BRANCH   4   5
ATOM      5  NE  ARG D 557     -27.934  -1.301 -16.445  1.00 35.49    -0.212 N 
ATOM      6  CZ  ARG D 557     -28.107  -2.584 -16.673  1.00 35.49     0.666 C 
ATOM      7  NH1 ARG D 557     -29.029  -3.039 -17.501  1.00 35.49    -0.235 N 
ATOM      8  NH2 ARG D 557     -27.323  -3.415 -16.050  1.00 35.49    -0.235 N 
ATOM      9  HH  ARG D 557     -29.555  -2.510 -17.923  1.00 35.49     0.174 HD
ATOM     10  HH  ARG D 557     -29.094  -3.886 -17.612  1.00 35.49     0.174 HD
ATOM     11  HH  ARG D 557     -26.732  -3.092 -15.527  1.00 35.49     0.174 HD
ATOM     12  HH  ARG D 557     -27.402  -4.250 -16.175  1.00 35.49     0.174 HD
ATOM     13  HE  ARG D 557     -27.368  -1.102 -15.843  1.00 35.49     0.178 HD
ENDBRANCH   4   5
ENDBRANCH   3   4
ENDBRANCH   2   3
ENDBRANCH   1   2
END_RES ARG D 557
BEGIN_RES GLU D 570
REMARK  3 active torsions:
REMARK  status: ('A' for Active; 'I' for Inactive)
REMARK    5  A    between atoms: CA   and  CB  
REMARK    6  A    between atoms: CB   and  CG  
REMARK    7  A    between atoms: CG   and  CD  
ROOT
ATOM     14  CA  GLU D 570     -18.033  -6.348 -13.375  1.00 32.92     0.160 C 
ENDROOT
BRANCH  14  15
ATOM     15  CB  GLU D 570     -19.500  -6.345 -13.794  1.00 32.92     0.043 C 
BRANCH  15  16
ATOM     16  CG  GLU D 570     -19.805  -6.633 -15.219  1.00 32.92     0.100 C 
BRANCH  16  17
ATOM     17  CD  GLU D 570     -20.807  -5.671 -15.813  1.00 32.92     0.185 C 
ATOM     18  OE1 GLU D 570     -20.848  -5.526 -17.050  1.00 32.92    -0.647 OA
ATOM     19  OE2 GLU D 570     -21.548  -5.042 -15.032  1.00 32.92    -0.647 OA
ENDBRANCH  16  17
ENDBRANCH  15  16
ENDBRANCH  14  15
END_RES GLU D 570
ENDMDL
MODEL 7
REMARK VINA RESULT:      -6.6      8.058     14.829
REMARK  30 active torsions:
REMARK  status: ('A' for Active; 'I' for Inactive)
REMARK    1  A    between atoms: C_2  and  C_3 
REMARK    2  A    between atoms: C_3  and  C_4 
REMARK    3  A    between atoms: C_4  and  C_5 
REMARK    4  A    between atoms: C_5  and  C_6 
REMARK    5  A    between atoms: C_6  and  C_7 
REMARK    6  A    between atoms: C_7  and  C_8 
REMARK    7  A    between atoms: C_8  and  C_9 
REMARK    8  A    between atoms: C_9  and  C_10 
REMARK    9  A    between atoms: C_10  and  C_11 
REMARK   10  A    between atoms: C_11  and  C_12 
REMARK   11  A    between atoms: C_12  and  C_13 
REMARK   12  A    between atoms: C_13  and  C_14 
REMARK   13  A    between atoms: C_14  and  C_15 
REMARK   14  A    between atoms: C_15  and  C_16 
REMARK   15  A    between atoms: C_16  and  O_17 
REMARK   16  A    between atoms: O_17  and  C_18 
REMARK   17  A    between atoms: C_18  and  C_20 
REMARK   18  A    between atoms: C_20  and  C_21 
REMARK   19  A    between atoms: C_21  and  C_22 
REMARK   20  A    between atoms: C_22  and  C_23 
REMARK   21  A    between atoms: C_23  and  C_24 
REMARK   22  A    between atoms: C_24  and  C_25 
REMARK   23  A    between atoms: C_25  and  C_26 
REMARK   24  A    between atoms: C_26  and  C_27 
REMARK   25  A    between atoms: C_27  and  C_28 
REMARK   26  A    between atoms: C_28  and  C_29 
REMARK   27  A    between atoms: C_29  and  C_30 
REMARK   28  A    between atoms: C_30  and  C_31 
REMARK   29  A    between atoms: C_31  and  C_32 
REMARK   30  A    between atoms: C_32  and  C_33 
ROOT
HETATM    1  O   UNL     1     -21.188  -9.581  -0.016  1.00  0.00    -0.321 OA
ENDROOT
BRANCH   1   2
HETATM    2  C   UNL     1     -22.143  -8.735   0.633  1.00  0.00     0.178 C 
BRANCH   2   3
HETATM    3  C   UNL     1     -22.643  -7.657  -0.310  1.00  0.00     0.027 C 
BRANCH   3   4
HETATM    4  C   UNL     1     -21.685  -7.491  -1.489  1.00  0.00     0.002 C 
BRANCH   4   5
HETATM    5  C   UNL     1     -21.997  -6.221  -2.269  1.00  0.00     0.000 C 
BRANCH   5   6
HETATM    6  C   UNL     1     -21.237  -6.201  -3.590  1.00  0.00     0.000 C 
BRANCH   6   7
HETATM    7  C   UNL     1     -22.166  -6.562  -4.741  1.00  0.00     0.000 C 
BRANCH   7   8
HETATM    8  C   UNL     1     -21.433  -6.448  -6.068  1.00  0.00     0.000 C 
BRANCH   8   9
HETATM    9  C   UNL     1     -20.110  -5.724  -5.878  1.00  0.00     0.000 C 
BRANCH   9  10
HETATM   10  C   UNL     1     -19.878  -4.749  -7.020  1.00  0.00     0.000 C 
BRANCH  10  11
HETATM   11  C   UNL     1     -21.098  -3.861  -7.206  1.00  0.00     0.000 C 
BRANCH  11  12
HETATM   12  C   UNL     1     -21.562  -3.905  -8.652  1.00  0.00     0.000 C 
BRANCH  12  13
HETATM   13  C   UNL     1     -20.449  -4.429  -9.545  1.00  0.00     0.000 C 
BRANCH  13  14
HETATM   14  C   UNL     1     -20.818  -4.247 -11.010  1.00  0.00     0.000 C 
BRANCH  14  15
HETATM   15  C   UNL     1     -21.946  -3.234 -11.148  1.00  0.00    -0.000 C 
BRANCH  15  16
HETATM   16  C   UNL     1     -23.153  -3.859 -11.836  1.00  0.00    -0.005 C 
HETATM   17  C   UNL     1     -22.715  -4.754 -12.980  1.00  0.00     0.005 C 
ENDBRANCH  15  16
ENDBRANCH  14  15
ENDBRANCH  13  14
ENDBRANCH  12  13
ENDBRANCH  11  12
ENDBRANCH  10  11
ENDBRANCH   9  10
ENDBRANCH   8   9
ENDBRANCH   7   8
ENDBRANCH   6   7
ENDBRANCH   5   6
ENDBRANCH   4   5
ENDBRANCH   3   4
ENDBRANCH   2   3
ENDBRANCH   1   2
BRANCH   1  18
HETATM   18  C   UNL     1     -20.452 -10.315   0.859  1.00  0.00     0.258 C 
HETATM   19  O   UNL     1     -20.209  -9.987   2.019  1.00  0.00    -0.265 OA
BRANCH  18  20
HETATM   20  C   UNL     1     -20.066 -11.629   0.227  1.00  0.00     0.111 C 
BRANCH  20  21
HETATM   21  C   UNL     1     -18.548 -11.779   0.207  1.00  0.00     0.010 C 
BRANCH  21  22
HETATM   22  C   UNL     1     -17.999 -11.870  -1.212  1.00  0.00     0.000 C 
BRANCH  22  23
HETATM   23  C   UNL     1     -16.521 -11.493  -1.225  1.00  0.00     0.000 C 
BRANCH  23  24
HETATM   24  C   UNL     1     -16.231 -10.477  -2.320  1.00  0.00     0.000 C 
BRANCH  24  25
HETATM   25  C   UNL     1     -17.504  -9.745  -2.719  1.00  0.00     0.000 C 
BRANCH  25  26
HETATM   26  C   UNL     1     -17.616  -9.672  -4.233  1.00  0.00     0.000 C 
BRANCH  26  27
HETATM   27  C   UNL     1     -18.958  -9.081  -4.636  1.00  0.00     0.000 C 
BRANCH  27  28
HETATM   28  C   UNL     1     -20.090  -9.876  -4.007  1.00  0.00     0.000 C 
BRANCH  28  29
HETATM   29  C   UNL     1     -21.206 -10.087  -5.016  1.00  0.00     0.000 C 
BRANCH  29  30
HETATM   30  C   UNL     1     -22.197 -11.117  -4.497  1.00  0.00     0.000 C 
BRANCH  30  31
HETATM   31  C   UNL     1     -21.481 -12.158  -3.648  1.00  0.00     0.000 C 
BRANCH  31  32
HETATM   32  C   UNL     1     -22.118 -12.246  -2.269  1.00  0.00    -0.000 C 
BRANCH  32  33
HETATM   33  C   UNL     1     -23.236 -11.222  -2.123  1.00  0.00    -0.005 C 
HETATM   34  C   UNL     1     -24.080 -11.519  -0.898  1.00  0.00     0.005 C 
ENDBRANCH  32  33
ENDBRANCH  31  32
ENDBRANCH  30  31
ENDBRANCH  29  30
ENDBRANCH  28  29
ENDBRANCH  27  28
ENDBRANCH  26  27
ENDBRANCH  25  26
ENDBRANCH  24  25
ENDBRANCH  23  24
ENDBRANCH  22  23
ENDBRANCH  21  22
ENDBRANCH  20  21
ENDBRANCH  18  20
ENDBRANCH   1  18
TORSDOF 30
BEGIN_RES ARG D 557
REMARK  4 active torsions:
REMARK  status: ('A' for Active; 'I' for Inactive)
REMARK    1  A    between atoms: CA   and  CB  
REMARK    2  A    between atoms: CB   and  CG  
REMARK    3  A    between atoms: CG   and  CD  
REMARK    4  A    between atoms: CD   and  NE  
REMARK       I    between atoms: NE   and  CZ  
REMARK       I    between atoms: CZ   and  NH1 
REMARK       I    between atoms: CZ   and  NH2 
ROOT
ATOM      1  CA  ARG D 557     -26.217   2.705 -17.014  1.00 35.49     0.159 C 
ENDROOT
BRANCH   1   2
ATOM      2  CB  ARG D 557     -26.789   1.319 -17.183  1.00 35.49     0.034 C 
BRANCH   2   3
ATOM      3  CG  ARG D 557     -28.181   1.122 -16.759  1.00 35.49     0.027 C 
BRANCH   3   4
ATOM      4  CD  ARG D 557     -28.718  -0.192 -17.179  1.00 35.49     0.116 C 
BRANCH   4   5
ATOM      5  NE  ARG D 557     -27.961  -1.287 -16.632  1.00 35.49    -0.212 N 
ATOM      6  CZ  ARG D 557     -28.227  -2.564 -16.798  1.00 35.49     0.666 C 
ATOM      7  NH1 ARG D 557     -29.263  -2.987 -17.498  1.00 35.49    -0.235 N 
ATOM      8  NH2 ARG D 557     -27.419  -3.422 -16.246  1.00 35.49    -0.235 N 
ATOM      9  HH  ARG D 557     -29.806  -2.440 -17.871  1.00 35.49     0.174 HD
ATOM     10  HH  ARG D 557     -29.385  -3.831 -17.574  1.00 35.49     0.174 HD
ATOM     11  HH  ARG D 557     -26.754  -3.120 -15.805  1.00 35.49     0.174 HD
ATOM     12  HH  ARG D 557     -27.556  -4.254 -16.334  1.00 35.49     0.174 HD
ATOM     13  HE  ARG D 557     -27.317  -1.105 -16.106  1.00 35.49     0.178 HD
ENDBRANCH   4   5
ENDBRANCH   3   4
ENDBRANCH   2   3
ENDBRANCH   1   2
END_RES ARG D 557
BEGIN_RES GLU D 570
REMARK  3 active torsions:
REMARK  status: ('A' for Active; 'I' for Inactive)
REMARK    5  A    between atoms: CA   and  CB  
REMARK    6  A    between atoms: CB   and  CG  
REMARK    7  A    between atoms: CG   and  CD  
ROOT
ATOM     14  CA  GLU D 570     -18.033  -6.348 -13.375  1.00 32.92     0.160 C 
ENDROOT
BRANCH  14  15
ATOM     15  CB  GLU D 570     -19.500  -6.345 -13.794  1.00 32.92     0.043 C 
BRANCH  15  16
ATOM     16  CG  GLU D 570     -20.092  -7.638 -14.223  1.00 32.92     0.100 C 
BRANCH  16  17
ATOM     17  CD  GLU D 570     -20.731  -7.569 -15.590  1.00 32.92     0.185 C 
ATOM     18  OE1 GLU D 570     -21.209  -6.487 -15.981  1.00 32.92    -0.647 OA
ATOM     19  OE2 GLU D 570     -20.770  -8.613 -16.271  1.00 32.92    -0.647 OA
ENDBRANCH  16  17
ENDBRANCH  15  16
ENDBRANCH  14  15
END_RES GLU D 570
ENDMDL
MODEL 8
REMARK VINA RESULT:      -6.6      1.545      9.216
REMARK  30 active torsions:
REMARK  status: ('A' for Active; 'I' for Inactive)
REMARK    1  A    between atoms: C_2  and  C_3 
REMARK    2  A    between atoms: C_3  and  C_4 
REMARK    3  A    between atoms: C_4  and  C_5 
REMARK    4  A    between atoms: C_5  and  C_6 
REMARK    5  A    between atoms: C_6  and  C_7 
REMARK    6  A    between atoms: C_7  and  C_8 
REMARK    7  A    between atoms: C_8  and  C_9 
REMARK    8  A    between atoms: C_9  and  C_10 
REMARK    9  A    between atoms: C_10  and  C_11 
REMARK   10  A    between atoms: C_11  and  C_12 
REMARK   11  A    between atoms: C_12  and  C_13 
REMARK   12  A    between atoms: C_13  and  C_14 
REMARK   13  A    between atoms: C_14  and  C_15 
REMARK   14  A    between atoms: C_15  and  C_16 
REMARK   15  A    between atoms: C_16  and  O_17 
REMARK   16  A    between atoms: O_17  and  C_18 
REMARK   17  A    between atoms: C_18  and  C_20 
REMARK   18  A    between atoms: C_20  and  C_21 
REMARK   19  A    between atoms: C_21  and  C_22 
REMARK   20  A    between atoms: C_22  and  C_23 
REMARK   21  A    between atoms: C_23  and  C_24 
REMARK   22  A    between atoms: C_24  and  C_25 
REMARK   23  A    between atoms: C_25  and  C_26 
REMARK   24  A    between atoms: C_26  and  C_27 
REMARK   25  A    between atoms: C_27  and  C_28 
REMARK   26  A    between atoms: C_28  and  C_29 
REMARK   27  A    between atoms: C_29  and  C_30 
REMARK   28  A    between atoms: C_30  and  C_31 
REMARK   29  A    between atoms: C_31  and  C_32 
REMARK   30  A    between atoms: C_32  and  C_33 
ROOT
HETATM    1  O   UNL     1     -32.709  -4.130 -15.794  1.00  0.00    -0.321 OA
ENDROOT
BRANCH   1   2
HETATM    2  C   UNL     1     -31.979  -4.373 -17.000  1.00  0.00     0.178 C 
BRANCH   2   3
HETATM    3  C   UNL     1     -31.887  -5.860 -17.288  1.00  0.00     0.027 C 
BRANCH   3   4
HETATM    4  C   UNL     1     -30.469  -6.368 -17.030  1.00  0.00     0.002 C 
BRANCH   4   5
HETATM    5  C   UNL     1     -29.433  -5.367 -17.522  1.00  0.00     0.000 C 
BRANCH   5   6
HETATM    6  C   UNL     1     -28.092  -6.052 -17.757  1.00  0.00     0.000 C 
BRANCH   6   7
HETATM    7  C   UNL     1     -27.069  -5.576 -16.736  1.00  0.00     0.000 C 
BRANCH   7   8
HETATM    8  C   UNL     1     -26.420  -6.763 -16.042  1.00  0.00     0.000 C 
BRANCH   8   9
HETATM    9  C   UNL     1     -24.925  -6.781 -16.320  1.00  0.00     0.000 C 
BRANCH   9  10
HETATM   10  C   UNL     1     -24.150  -6.806 -15.014  1.00  0.00     0.000 C 
BRANCH  10  11
HETATM   11  C   UNL     1     -23.797  -5.391 -14.587  1.00  0.00     0.000 C 
BRANCH  11  12
HETATM   12  C   UNL     1     -23.315  -5.384 -13.146  1.00  0.00     0.000 C 
BRANCH  12  13
HETATM   13  C   UNL     1     -22.036  -4.572 -13.024  1.00  0.00     0.000 C 
BRANCH  13  14
HETATM   14  C   UNL     1     -22.058  -3.740 -11.751  1.00  0.00     0.000 C 
BRANCH  14  15
HETATM   15  C   UNL     1     -20.928  -4.163 -10.823  1.00  0.00    -0.000 C 
BRANCH  15  16
HETATM   16  C   UNL     1     -21.450  -4.411  -9.413  1.00  0.00    -0.005 C 
HETATM   17  C   UNL     1     -22.967  -4.413  -9.396  1.00  0.00     0.005 C 
ENDBRANCH  15  16
ENDBRANCH  14  15
ENDBRANCH  13  14
ENDBRANCH  12  13
ENDBRANCH  11  12
ENDBRANCH  10  11
ENDBRANCH   9  10
ENDBRANCH   8   9
ENDBRANCH   7   8
ENDBRANCH   6   7
ENDBRANCH   5   6
ENDBRANCH   4   5
ENDBRANCH   3   4
ENDBRANCH   2   3
ENDBRANCH   1   2
BRANCH   1  18
HETATM   18  C   UNL     1     -34.053  -4.081 -15.991  1.00  0.00     0.258 C 
HETATM   19  O   UNL     1     -34.863  -4.862 -15.497  1.00  0.00    -0.265 OA
BRANCH  18  20
HETATM   20  C   UNL     1     -34.405  -2.871 -16.820  1.00  0.00     0.111 C 
BRANCH  20  21
HETATM   21  C   UNL     1     -35.031  -1.793 -15.942  1.00  0.00     0.010 C 
BRANCH  21  22
HETATM   22  C   UNL     1     -36.175  -1.072 -16.644  1.00  0.00     0.000 C 
BRANCH  22  23
HETATM   23  C   UNL     1     -36.303   0.352 -16.110  1.00  0.00     0.000 C 
BRANCH  23  24
HETATM   24  C   UNL     1     -36.419   0.352 -14.593  1.00  0.00     0.000 C 
BRANCH  24  25
HETATM   25  C   UNL     1     -35.171   0.954 -13.963  1.00  0.00     0.000 C 
BRANCH  25  26
HETATM   26  C   UNL     1     -34.805   0.197 -12.697  1.00  0.00     0.000 C 
BRANCH  26  27
HETATM   27  C   UNL     1     -35.922  -0.758 -12.309  1.00  0.00     0.000 C 
BRANCH  27  28
HETATM   28  C   UNL     1     -35.349  -2.124 -11.970  1.00  0.00     0.000 C 
BRANCH  28  29
HETATM   29  C   UNL     1     -34.318  -2.000 -10.860  1.00  0.00     0.000 C 
BRANCH  29  30
HETATM   30  C   UNL     1     -33.127  -2.900 -11.145  1.00  0.00     0.000 C 
BRANCH  30  31
HETATM   31  C   UNL     1     -33.549  -4.074 -12.018  1.00  0.00     0.000 C 
BRANCH  31  32
HETATM   32  C   UNL     1     -33.165  -5.391 -11.357  1.00  0.00    -0.000 C 
BRANCH  32  33
HETATM   33  C   UNL     1     -34.166  -5.762 -10.271  1.00  0.00    -0.005 C 
HETATM   34  C   UNL     1     -34.821  -7.096 -10.577  1.00  0.00     0.005 C 
ENDBRANCH  32  33
ENDBRANCH  31  32
ENDBRANCH  30  31
ENDBRANCH  29  30
ENDBRANCH  28  29
ENDBRANCH  27  28
ENDBRANCH  26  27
ENDBRANCH  25  26
ENDBRANCH  24  25
ENDBRANCH  23  24
ENDBRANCH  22  23
ENDBRANCH  21  22
ENDBRANCH  20  21
ENDBRANCH  18  20
ENDBRANCH   1  18
TORSDOF 30
BEGIN_RES ARG D 557
REMARK  4 active torsions:
REMARK  status: ('A' for Active; 'I' for Inactive)
REMARK    1  A    between atoms: CA   and  CB  
REMARK    2  A    between atoms: CB   and  CG  
REMARK    3  A    between atoms: CG   and  CD  
REMARK    4  A    between atoms: CD   and  NE  
REMARK       I    between atoms: NE   and  CZ  
REMARK       I    between atoms: CZ   and  NH1 
REMARK       I    between atoms: CZ   and  NH2 
ROOT
ATOM      1  CA  ARG D 557     -26.217   2.705 -17.014  1.00 35.49     0.159 C 
ENDROOT
BRANCH   1   2
ATOM      2  CB  ARG D 557     -26.789   1.319 -17.183  1.00 35.49     0.034 C 
BRANCH   2   3
ATOM      3  CG  ARG D 557     -25.835   0.204 -17.165  1.00 35.49     0.027 C 
BRANCH   3   4
ATOM      4  CD  ARG D 557     -24.732   0.421 -16.201  1.00 35.49     0.116 C 
BRANCH   4   5
ATOM      5  NE  ARG D 557     -24.880  -0.383 -15.017  1.00 35.49    -0.212 N 
ATOM      6  CZ  ARG D 557     -24.089  -1.367 -14.652  1.00 35.49     0.666 C 
ATOM      7  NH1 ARG D 557     -23.045  -1.741 -15.369  1.00 35.49    -0.235 N 
ATOM      8  NH2 ARG D 557     -24.362  -1.975 -13.534  1.00 35.49    -0.235 N 
ATOM      9  HH  ARG D 557     -22.845  -1.354 -16.107  1.00 35.49     0.174 HD
ATOM     10  HH  ARG D 557     -22.563  -2.388 -15.080  1.00 35.49     0.174 HD
ATOM     11  HH  ARG D 557     -25.038  -1.707 -13.088  1.00 35.49     0.174 HD
ATOM     12  HH  ARG D 557     -23.872  -2.612 -13.264  1.00 35.49     0.174 HD
ATOM     13  HE  ARG D 557     -25.568  -0.259 -14.533  1.00 35.49     0.178 HD
ENDBRANCH   4   5
ENDBRANCH   3   4
ENDBRANCH   2   3
ENDBRANCH   1   2
END_RES ARG D 557
BEGIN_RES GLU D 570
REMARK  3 active torsions:
REMARK  status: ('A' for Active; 'I' for Inactive)
REMARK    5  A    between atoms: CA   and  CB  
REMARK    6  A    between atoms: CB   and  CG  
REMARK    7  A    between atoms: CG   and  CD  
ROOT
ATOM     14  CA  GLU D 570     -18.033  -6.348 -13.375  1.00 32.92     0.160 C 
ENDROOT
BRANCH  14  15
ATOM     15  CB  GLU D 570     -19.500  -6.345 -13.794  1.00 32.92     0.043 C 
BRANCH  15  16
ATOM     16  CG  GLU D 570     -20.091  -7.637 -14.228  1.00 32.92     0.100 C 
BRANCH  16  17
ATOM     17  CD  GLU D 570     -20.602  -7.604 -15.649  1.00 32.92     0.185 C 
ATOM     18  OE1 GLU D 570     -20.783  -6.502 -16.201  1.00 32.92    -0.647 OA
ATOM     19  OE2 GLU D 570     -20.840  -8.692 -16.210  1.00 32.92    -0.647 OA
ENDBRANCH  16  17
ENDBRANCH  15  16
ENDBRANCH  14  15
END_RES GLU D 570
ENDMDL
MODEL 9
REMARK VINA RESULT:      -6.6      8.478     14.911
REMARK  30 active torsions:
REMARK  status: ('A' for Active; 'I' for Inactive)
REMARK    1  A    between atoms: C_2  and  C_3 
REMARK    2  A    between atoms: C_3  and  C_4 
REMARK    3  A    between atoms: C_4  and  C_5 
REMARK    4  A    between atoms: C_5  and  C_6 
REMARK    5  A    between atoms: C_6  and  C_7 
REMARK    6  A    between atoms: C_7  and  C_8 
REMARK    7  A    between atoms: C_8  and  C_9 
REMARK    8  A    between atoms: C_9  and  C_10 
REMARK    9  A    between atoms: C_10  and  C_11 
REMARK   10  A    between atoms: C_11  and  C_12 
REMARK   11  A    between atoms: C_12  and  C_13 
REMARK   12  A    between atoms: C_13  and  C_14 
REMARK   13  A    between atoms: C_14  and  C_15 
REMARK   14  A    between atoms: C_15  and  C_16 
REMARK   15  A    between atoms: C_16  and  O_17 
REMARK   16  A    between atoms: O_17  and  C_18 
REMARK   17  A    between atoms: C_18  and  C_20 
REMARK   18  A    between atoms: C_20  and  C_21 
REMARK   19  A    between atoms: C_21  and  C_22 
REMARK   20  A    between atoms: C_22  and  C_23 
REMARK   21  A    between atoms: C_23  and  C_24 
REMARK   22  A    between atoms: C_24  and  C_25 
REMARK   23  A    between atoms: C_25  and  C_26 
REMARK   24  A    between atoms: C_26  and  C_27 
REMARK   25  A    between atoms: C_27  and  C_28 
REMARK   26  A    between atoms: C_28  and  C_29 
REMARK   27  A    between atoms: C_29  and  C_30 
REMARK   28  A    between atoms: C_30  and  C_31 
REMARK   29  A    between atoms: C_31  and  C_32 
REMARK   30  A    between atoms: C_32  and  C_33 
ROOT
HETATM    1  O   UNL     1     -23.580 -10.798  -1.374  1.00  0.00    -0.321 OA
ENDROOT
BRANCH   1   2
HETATM    2  C   UNL     1     -22.829 -10.336  -0.247  1.00  0.00     0.178 C 
BRANCH   2   3
HETATM    3  C   UNL     1     -23.452  -9.086   0.345  1.00  0.00     0.027 C 
BRANCH   3   4
HETATM    4  C   UNL     1     -22.656  -7.847  -0.063  1.00  0.00     0.002 C 
BRANCH   4   5
HETATM    5  C   UNL     1     -21.204  -8.202  -0.350  1.00  0.00     0.000 C 
BRANCH   5   6
HETATM    6  C   UNL     1     -20.717  -7.497  -1.610  1.00  0.00     0.000 C 
BRANCH   6   7
HETATM    7  C   UNL     1     -21.831  -6.649  -2.206  1.00  0.00     0.000 C 
BRANCH   7   8
HETATM    8  C   UNL     1     -21.411  -6.099  -3.560  1.00  0.00     0.000 C 
BRANCH   8   9
HETATM    9  C   UNL     1     -22.249  -6.724  -4.664  1.00  0.00     0.000 C 
BRANCH   9  10
HETATM   10  C   UNL     1     -21.367  -7.542  -5.591  1.00  0.00     0.000 C 
BRANCH  10  11
HETATM   11  C   UNL     1     -20.041  -6.833  -5.813  1.00  0.00     0.000 C 
BRANCH  11  12
HETATM   12  C   UNL     1     -20.099  -6.000  -7.082  1.00  0.00     0.000 C 
BRANCH  12  13
HETATM   13  C   UNL     1     -19.925  -4.526  -6.752  1.00  0.00     0.000 C 
BRANCH  13  14
HETATM   14  C   UNL     1     -21.178  -3.749  -7.130  1.00  0.00     0.000 C 
BRANCH  14  15
HETATM   15  C   UNL     1     -22.059  -4.583  -8.049  1.00  0.00    -0.000 C 
BRANCH  15  16
HETATM   16  C   UNL     1     -22.189  -3.924  -9.417  1.00  0.00    -0.005 C 
HETATM   17  C   UNL     1     -23.648  -3.708  -9.772  1.00  0.00     0.005 C 
ENDBRANCH  15  16
ENDBRANCH  14  15
ENDBRANCH  13  14
ENDBRANCH  12  13
ENDBRANCH  11  12
ENDBRANCH  10  11
ENDBRANCH   9  10
ENDBRANCH   8   9
ENDBRANCH   7   8
ENDBRANCH   6   7
ENDBRANCH   5   6
ENDBRANCH   4   5
ENDBRANCH   3   4
ENDBRANCH   2   3
ENDBRANCH   1   2
BRANCH   1  18
HETATM   18  C   UNL     1     -22.803 -11.385  -2.322  1.00  0.00     0.258 C 
HETATM   19  O   UNL     1     -22.626 -12.596  -2.432  1.00  0.00    -0.265 OA
BRANCH  18  20
HETATM   20  C   UNL     1     -22.276 -10.338  -3.272  1.00  0.00     0.111 C 
BRANCH  20  21
HETATM   21  C   UNL     1     -20.977 -10.813  -3.913  1.00  0.00     0.010 C 
BRANCH  21  22
HETATM   22  C   UNL     1     -19.771 -10.575  -3.012  1.00  0.00     0.000 C 
BRANCH  22  23
HETATM   23  C   UNL     1     -18.763  -9.670  -3.715  1.00  0.00     0.000 C 
BRANCH  23  24
HETATM   24  C   UNL     1     -17.491  -9.535  -2.892  1.00  0.00     0.000 C 
BRANCH  24  25
HETATM   25  C   UNL     1     -16.264  -9.654  -3.785  1.00  0.00     0.000 C 
BRANCH  25  26
HETATM   26  C   UNL     1     -16.683  -9.930  -5.220  1.00  0.00     0.000 C 
BRANCH  26  27
HETATM   27  C   UNL     1     -15.533 -10.552  -5.997  1.00  0.00     0.000 C 
BRANCH  27  28
HETATM   28  C   UNL     1     -15.294 -11.977  -5.526  1.00  0.00     0.000 C 
BRANCH  28  29
HETATM   29  C   UNL     1     -13.865 -12.133  -5.032  1.00  0.00     0.000 C 
BRANCH  29  30
HETATM   30  C   UNL     1     -13.789 -13.228  -3.980  1.00  0.00     0.000 C 
BRANCH  30  31
HETATM   31  C   UNL     1     -14.558 -12.815  -2.732  1.00  0.00     0.000 C 
BRANCH  31  32
HETATM   32  C   UNL     1     -15.689 -13.797  -2.458  1.00  0.00    -0.000 C 
BRANCH  32  33
HETATM   33  C   UNL     1     -17.009 -13.061  -2.268  1.00  0.00    -0.005 C 
HETATM   34  C   UNL     1     -18.141 -14.041  -2.025  1.00  0.00     0.005 C 
ENDBRANCH  32  33
ENDBRANCH  31  32
ENDBRANCH  30  31
ENDBRANCH  29  30
ENDBRANCH  28  29
ENDBRANCH  27  28
ENDBRANCH  26  27
ENDBRANCH  25  26
ENDBRANCH  24  25
ENDBRANCH  23  24
ENDBRANCH  22  23
ENDBRANCH  21  22
ENDBRANCH  20  21
ENDBRANCH  18  20
ENDBRANCH   1  18
TORSDOF 30
BEGIN_RES ARG D 557
REMARK  4 active torsions:
REMARK  status: ('A' for Active; 'I' for Inactive)
REMARK    1  A    between atoms: CA   and  CB  
REMARK    2  A    between atoms: CB   and  CG  
REMARK    3  A    between atoms: CG   and  CD  
REMARK    4  A    between atoms: CD   and  NE  
REMARK       I    between atoms: NE   and  CZ  
REMARK       I    between atoms: CZ   and  NH1 
REMARK       I    between atoms: CZ   and  NH2 
ROOT
ATOM      1  CA  ARG D 557     -26.217   2.705 -17.014  1.00 35.49     0.159 C 
ENDROOT
BRANCH   1   2
ATOM      2  CB  ARG D 557     -26.789   1.319 -17.183  1.00 35.49     0.034 C 
BRANCH   2   3
ATOM      3  CG  ARG D 557     -25.926   0.196 -16.795  1.00 35.49     0.027 C 
BRANCH   3   4
ATOM      4  CD  ARG D 557     -26.683  -0.900 -16.148  1.00 35.49     0.116 C 
BRANCH   4   5
ATOM      5  NE  ARG D 557     -25.930  -1.533 -15.098  1.00 35.49    -0.212 N 
ATOM      6  CZ  ARG D 557     -25.964  -2.810 -14.790  1.00 35.49     0.666 C 
ATOM      7  NH1 ARG D 557     -26.734  -3.672 -15.428  1.00 35.49    -0.235 N 
ATOM      8  NH2 ARG D 557     -25.197  -3.214 -13.820  1.00 35.49    -0.235 N 
ATOM      9  HH  ARG D 557     -27.245  -3.428 -16.071  1.00 35.49     0.174 HD
ATOM     10  HH  ARG D 557     -26.712  -4.494 -15.186  1.00 35.49     0.174 HD
ATOM     11  HH  ARG D 557     -24.706  -2.636 -13.431  1.00 35.49     0.174 HD
ATOM     12  HH  ARG D 557     -25.189  -4.032 -13.595  1.00 35.49     0.174 HD
ATOM     13  HE  ARG D 557     -25.462  -1.038 -14.588  1.00 35.49     0.178 HD
ENDBRANCH   4   5
ENDBRANCH   3   4
ENDBRANCH   2   3
ENDBRANCH   1   2
END_RES ARG D 557
BEGIN_RES GLU D 570
REMARK  3 active torsions:
REMARK  status: ('A' for Active; 'I' for Inactive)
REMARK    5  A    between atoms: CA   and  CB  
REMARK    6  A    between atoms: CB   and  CG  
REMARK    7  A    between atoms: CG   and  CD  
ROOT
ATOM     14  CA  GLU D 570     -18.033  -6.348 -13.375  1.00 32.92     0.160 C 
ENDROOT
BRANCH  14  15
ATOM     15  CB  GLU D 570     -19.500  -6.345 -13.794  1.00 32.92     0.043 C 
BRANCH  15  16
ATOM     16  CG  GLU D 570     -20.447  -5.557 -12.964  1.00 32.92     0.100 C 
BRANCH  16  17
ATOM     17  CD  GLU D 570     -21.701  -5.167 -13.711  1.00 32.92     0.185 C 
ATOM     18  OE1 GLU D 570     -22.725  -4.872 -13.064  1.00 32.92    -0.647 OA
ATOM     19  OE2 GLU D 570     -21.665  -5.172 -14.957  1.00 32.92    -0.647 OA
ENDBRANCH  16  17
ENDBRANCH  15  16
ENDBRANCH  14  15
END_RES GLU D 570
ENDMDL
