MODEL 1
REMARK VINA RESULT:      -5.4      0.000      0.000
REMARK WARNING: 32 MAX_TORS EXCEEDED!!!
REMARK  53 active torsions:
REMARK  status: ('A' for Active; 'I' for Inactive)
REMARK    1  A    between atoms: C_2  and  C_3 
REMARK    2  A    between atoms: C_3  and  C_4 
REMARK    3  A    between atoms: C_4  and  C_5 
REMARK    4  A    between atoms: C_5  and  C_6 
REMARK    5  A    between atoms: C_6  and  C_7 
REMARK    6  A    between atoms: C_7  and  C_8 
REMARK    7  A    between atoms: C_8  and  C_9 
REMARK    8  A    between atoms: C_9  and  C_10 
REMARK    9  A    between atoms: C_10  and  C_11 
REMARK   10  A    between atoms: C_11  and  C_12 
REMARK   11  A    between atoms: C_12  and  C_13 
REMARK   12  A    between atoms: C_13  and  C_14 
REMARK   13  A    between atoms: C_14  and  C_15 
REMARK   14  A    between atoms: C_15  and  C_16 
REMARK   15  A    between atoms: C_16  and  C_17 
REMARK   16  A    between atoms: C_17  and  C_18 
REMARK   17  A    between atoms: C_18  and  O_20 
REMARK   18  A    between atoms: O_20  and  C_21 
REMARK   19  A    between atoms: C_21  and  C_22 
REMARK   20  A    between atoms: C_21  and  C_28 
REMARK   21  A    between atoms: C_22  and  C_23 
REMARK   22  A    between atoms: C_23  and  C_24 
REMARK   23  A    between atoms: C_24  and  C_25 
REMARK   24  A    between atoms: C_25  and  C_26 
REMARK   25  A    between atoms: C_28  and  C_29 
REMARK   26  A    between atoms: C_29  and  C_30 
REMARK   27  A    between atoms: C_30  and  C_31 
REMARK   28  A    between atoms: C_31  and  C_32 
REMARK   29  A    between atoms: C_32  and  C_33 
REMARK   30  A    between atoms: C_33  and  C_34 
REMARK   31  A    between atoms: C_34  and  C_35 
REMARK   32  A    between atoms: C_35  and  C_36 
REMARK   33  A    between atoms: C_36  and  C_37 
REMARK   34  A    between atoms: C_37  and  C_38 
REMARK   35  A    between atoms: C_38  and  O_40 
REMARK   36  A    between atoms: O_40  and  C_41 
REMARK   37  A    between atoms: C_41  and  C_42 
REMARK   38  A    between atoms: C_42  and  C_43 
REMARK   39  A    between atoms: C_42  and  C_51 
REMARK   40  A    between atoms: C_43  and  C_44 
REMARK   41  A    between atoms: C_44  and  C_45 
REMARK   42  A    between atoms: C_45  and  C_46 
REMARK   43  A    between atoms: C_46  and  C_47 
REMARK   44  A    between atoms: C_47  and  C_48 
REMARK   45  A    between atoms: C_48  and  C_49 
REMARK   46  A    between atoms: C_51  and  C_52 
REMARK   47  A    between atoms: C_52  and  C_53 
REMARK   48  A    between atoms: C_53  and  C_54 
REMARK   49  A    between atoms: C_54  and  C_55 
REMARK   50  A    between atoms: C_55  and  C_56 
REMARK   51  A    between atoms: C_56  and  C_57 
REMARK   52  A    between atoms: C_57  and  C_58 
REMARK   53  A    between atoms: C_58  and  C_59 
ROOT
HETATM    1  C   UNL     1     -22.224  -6.391  -1.942  1.00  0.00     0.000 C 
ENDROOT
BRANCH   1   2
HETATM    2  C   UNL     1     -21.190  -7.151  -2.764  1.00  0.00     0.002 C 
BRANCH   2   3
HETATM    3  C   UNL     1     -21.540  -7.187  -4.250  1.00  0.00     0.032 C 
BRANCH   3   4
HETATM    4  C   UNL     1     -20.284  -7.183  -5.139  1.00  0.00     0.132 C 
BRANCH   4   5
HETATM    5  O   UNL     1     -20.060  -8.528  -5.624  1.00  0.00    -0.316 OA
BRANCH   5   6
HETATM    6  C   UNL     1     -18.796  -9.019  -5.472  1.00  0.00     0.259 C 
HETATM    7  O   UNL     1     -18.016  -9.247  -6.383  1.00  0.00    -0.265 OA
BRANCH   6   8
HETATM    8  C   UNL     1     -18.470  -9.229  -4.011  1.00  0.00     0.111 C 
BRANCH   8   9
HETATM    9  C   UNL     1     -17.267 -10.155  -3.831  1.00  0.00     0.010 C 
BRANCH   9  10
HETATM   10  C   UNL     1     -16.235  -9.559  -2.880  1.00  0.00     0.000 C 
BRANCH  10  11
HETATM   11  C   UNL     1     -15.524 -10.653  -2.090  1.00  0.00     0.000 C 
BRANCH  11  12
HETATM   12  C   UNL     1     -16.451 -11.843  -1.878  1.00  0.00     0.000 C 
BRANCH  12  13
HETATM   13  C   UNL     1     -16.801 -11.996  -0.405  1.00  0.00     0.000 C 
BRANCH  13  14
HETATM   14  C   UNL     1     -15.556 -11.819   0.452  1.00  0.00     0.000 C 
BRANCH  14  15
HETATM   15  C   UNL     1     -15.387 -13.002   1.392  1.00  0.00     0.000 C 
BRANCH  15  16
HETATM   16  C   UNL     1     -14.151 -13.800   1.014  1.00  0.00     0.000 C 
BRANCH  16  17
HETATM   17  C   UNL     1     -14.546 -15.203   0.581  1.00  0.00     0.000 C 
BRANCH  17  18
HETATM   18  C   UNL     1     -14.218 -15.408  -0.891  1.00  0.00     0.000 C 
BRANCH  18  19
HETATM   19  C   UNL     1     -13.371 -14.253  -1.404  1.00  0.00     0.000 C 
BRANCH  19  20
HETATM   20  C   UNL     1     -13.149 -14.390  -2.902  1.00  0.00     0.000 C 
BRANCH  20  21
HETATM   21  C   UNL     1     -13.233 -13.028  -3.578  1.00  0.00     0.000 C 
BRANCH  21  22
HETATM   22  C   UNL     1     -13.942 -13.145  -4.922  1.00  0.00    -0.000 C 
BRANCH  22  23
HETATM   23  C   UNL     1     -14.387 -11.776  -5.422  1.00  0.00    -0.005 C 
HETATM   24  C   UNL     1     -15.321 -11.914  -6.611  1.00  0.00     0.005 C 
ENDBRANCH  22  23
ENDBRANCH  21  22
ENDBRANCH  20  21
ENDBRANCH  19  20
ENDBRANCH  18  19
ENDBRANCH  17  18
ENDBRANCH  16  17
ENDBRANCH  15  16
ENDBRANCH  14  15
ENDBRANCH  13  14
ENDBRANCH  12  13
ENDBRANCH  11  12
ENDBRANCH  10  11
ENDBRANCH   9  10
ENDBRANCH   8   9
ENDBRANCH   6   8
ENDBRANCH   5   6
ENDBRANCH   4   5
BRANCH   4  25
HETATM   25  C   UNL     1     -20.473  -6.242  -6.342  1.00  0.00     0.032 C 
BRANCH  25  26
HETATM   26  C   UNL     1     -20.449  -4.779  -5.940  1.00  0.00     0.002 C 
BRANCH  26  27
HETATM   27  C   UNL     1     -20.892  -3.866  -7.068  1.00  0.00     0.000 C 
BRANCH  27  28
HETATM   28  C   UNL     1     -20.017  -4.168  -8.279  1.00  0.00    -0.000 C 
BRANCH  28  29
HETATM   29  C   UNL     1     -20.845  -4.242  -9.549  1.00  0.00    -0.005 C 
HETATM   30  C   UNL     1     -22.312  -4.024  -9.233  1.00  0.00     0.005 C 
ENDBRANCH  28  29
ENDBRANCH  27  28
ENDBRANCH  26  27
ENDBRANCH  25  26
ENDBRANCH   4  25
ENDBRANCH   3   4
ENDBRANCH   2   3
ENDBRANCH   1   2
BRANCH   1  31
HETATM   31  C   UNL     1     -22.338  -7.022  -0.555  1.00  0.00     0.000 C 
BRANCH  31  32
HETATM   32  C   UNL     1     -21.326  -8.144  -0.385  1.00  0.00     0.000 C 
BRANCH  32  33
HETATM   33  C   UNL     1     -21.956  -9.332   0.338  1.00  0.00     0.000 C 
BRANCH  33  34
HETATM   34  C   UNL     1     -23.453  -9.381   0.068  1.00  0.00     0.000 C 
BRANCH  34  35
HETATM   35  C   UNL     1     -23.911 -10.795  -0.287  1.00  0.00     0.000 C 
BRANCH  35  36
HETATM   36  C   UNL     1     -23.057 -11.811   0.467  1.00  0.00     0.010 C 
BRANCH  36  37
HETATM   37  C   UNL     1     -23.791 -13.119   0.741  1.00  0.00     0.111 C 
BRANCH  37  38
HETATM   38  C   UNL     1     -23.133 -13.830   1.908  1.00  0.00     0.258 C 
HETATM   39  O   UNL     1     -23.741 -14.365   2.802  1.00  0.00    -0.265 OA
BRANCH  38  40
HETATM   40  O   UNL     1     -21.775 -13.655   1.840  1.00  0.00    -0.321 OA
BRANCH  40  41
HETATM   41  C   UNL     1     -21.049 -14.824   1.431  1.00  0.00     0.183 C 
BRANCH  41  42
HETATM   42  C   UNL     1     -19.994 -14.538   0.354  1.00  0.00     0.010 C 
BRANCH  42  43
HETATM   43  C   UNL     1     -20.031 -13.072  -0.114  1.00  0.00     0.007 C 
BRANCH  43  44
HETATM   44  C   UNL     1     -20.250 -12.937  -1.613  1.00  0.00     0.000 C 
BRANCH  44  45
HETATM   45  C   UNL     1     -20.285 -11.481  -2.039  1.00  0.00     0.000 C 
BRANCH  45  46
HETATM   46  C   UNL     1     -21.314 -11.335  -3.148  1.00  0.00     0.000 C 
BRANCH  46  47
HETATM   47  C   UNL     1     -22.246 -12.530  -3.164  1.00  0.00     0.000 C 
BRANCH  47  48
HETATM   48  C   UNL     1     -22.411 -13.036  -4.589  1.00  0.00    -0.000 C 
BRANCH  48  49
HETATM   49  C   UNL     1     -22.602 -14.545  -4.592  1.00  0.00    -0.005 C 
HETATM   50  C   UNL     1     -22.911 -15.049  -3.196  1.00  0.00     0.005 C 
ENDBRANCH  48  49
ENDBRANCH  47  48
ENDBRANCH  46  47
ENDBRANCH  45  46
ENDBRANCH  44  45
ENDBRANCH  43  44
ENDBRANCH  42  43
BRANCH  42  51
HETATM   51  C   UNL     1     -18.602 -14.895   0.902  1.00  0.00     0.007 C 
BRANCH  51  52
HETATM   52  C   UNL     1     -18.002 -16.127   0.238  1.00  0.00     0.000 C 
BRANCH  52  53
HETATM   53  C   UNL     1     -18.565 -16.338  -1.156  1.00  0.00     0.000 C 
BRANCH  53  54
HETATM   54  C   UNL     1     -17.716 -15.580  -2.169  1.00  0.00     0.000 C 
BRANCH  54  55
HETATM   55  C   UNL     1     -18.434 -15.498  -3.505  1.00  0.00     0.000 C 
BRANCH  55  56
HETATM   56  C   UNL     1     -18.119 -14.182  -4.200  1.00  0.00     0.000 C 
BRANCH  56  57
HETATM   57  C   UNL     1     -18.937 -14.049  -5.478  1.00  0.00     0.000 C 
BRANCH  57  58
HETATM   58  C   UNL     1     -18.964 -12.599  -5.946  1.00  0.00    -0.000 C 
BRANCH  58  59
HETATM   59  C   UNL     1     -19.654 -12.476  -7.300  1.00  0.00    -0.005 C 
HETATM   60  C   UNL     1     -18.638 -12.494  -8.426  1.00  0.00     0.005 C 
ENDBRANCH  58  59
ENDBRANCH  57  58
ENDBRANCH  56  57
ENDBRANCH  55  56
ENDBRANCH  54  55
ENDBRANCH  53  54
ENDBRANCH  52  53
ENDBRANCH  51  52
ENDBRANCH  42  51
ENDBRANCH  41  42
ENDBRANCH  40  41
ENDBRANCH  38  40
ENDBRANCH  37  38
ENDBRANCH  36  37
ENDBRANCH  35  36
ENDBRANCH  34  35
ENDBRANCH  33  34
ENDBRANCH  32  33
ENDBRANCH  31  32
ENDBRANCH   1  31
TORSDOF 53
BEGIN_RES ARG D 557
REMARK  4 active torsions:
REMARK  status: ('A' for Active; 'I' for Inactive)
REMARK    1  A    between atoms: CA   and  CB  
REMARK    2  A    between atoms: CB   and  CG  
REMARK    3  A    between atoms: CG   and  CD  
REMARK    4  A    between atoms: CD   and  NE  
REMARK       I    between atoms: NE   and  CZ  
REMARK       I    between atoms: CZ   and  NH1 
REMARK       I    between atoms: CZ   and  NH2 
ROOT
ATOM      1  CA  ARG D 557     -26.217   2.705 -17.014  1.00 35.49     0.159 C 
ENDROOT
BRANCH   1   2
ATOM      2  CB  ARG D 557     -26.789   1.319 -17.183  1.00 35.49     0.034 C 
BRANCH   2   3
ATOM      3  CG  ARG D 557     -25.871   0.194 -16.967  1.00 35.49     0.027 C 
BRANCH   3   4
ATOM      4  CD  ARG D 557     -26.315  -0.694 -15.869  1.00 35.49     0.116 C 
BRANCH   4   5
ATOM      5  NE  ARG D 557     -25.273  -0.927 -14.904  1.00 35.49    -0.212 N 
ATOM      6  CZ  ARG D 557     -24.982  -2.083 -14.351  1.00 35.49     0.666 C 
ATOM      7  NH1 ARG D 557     -25.651  -3.188 -14.625  1.00 35.49    -0.235 N 
ATOM      8  NH2 ARG D 557     -23.989  -2.114 -13.511  1.00 35.49    -0.235 N 
ATOM      9  HH  ARG D 557     -26.306  -3.192 -15.177  1.00 35.49     0.174 HD
ATOM     10  HH  ARG D 557     -25.414  -3.914 -14.236  1.00 35.49     0.174 HD
ATOM     11  HH  ARG D 557     -23.571  -1.386 -13.359  1.00 35.49     0.174 HD
ATOM     12  HH  ARG D 557     -23.769  -2.842 -13.137  1.00 35.49     0.174 HD
ATOM     13  HE  ARG D 557     -24.839  -0.255 -14.616  1.00 35.49     0.178 HD
ENDBRANCH   4   5
ENDBRANCH   3   4
ENDBRANCH   2   3
ENDBRANCH   1   2
END_RES ARG D 557
BEGIN_RES GLU D 570
REMARK  3 active torsions:
REMARK  status: ('A' for Active; 'I' for Inactive)
REMARK    5  A    between atoms: CA   and  CB  
REMARK    6  A    between atoms: CB   and  CG  
REMARK    7  A    between atoms: CG   and  CD  
ROOT
ATOM     14  CA  GLU D 570     -18.033  -6.348 -13.375  1.00 32.92     0.160 C 
ENDROOT
BRANCH  14  15
ATOM     15  CB  GLU D 570     -19.500  -6.345 -13.794  1.00 32.92     0.043 C 
BRANCH  15  16
ATOM     16  CG  GLU D 570     -20.458  -5.610 -12.928  1.00 32.92     0.100 C 
BRANCH  16  17
ATOM     17  CD  GLU D 570     -21.685  -5.140 -13.673  1.00 32.92     0.185 C 
ATOM     18  OE1 GLU D 570     -21.700  -5.206 -14.917  1.00 32.92    -0.647 OA
ATOM     19  OE2 GLU D 570     -22.636  -4.685 -13.006  1.00 32.92    -0.647 OA
ENDBRANCH  16  17
ENDBRANCH  15  16
ENDBRANCH  14  15
END_RES GLU D 570
ENDMDL
MODEL 2
REMARK VINA RESULT:      -5.3      4.024     11.986
REMARK WARNING: 32 MAX_TORS EXCEEDED!!!
REMARK  53 active torsions:
REMARK  status: ('A' for Active; 'I' for Inactive)
REMARK    1  A    between atoms: C_2  and  C_3 
REMARK    2  A    between atoms: C_3  and  C_4 
REMARK    3  A    between atoms: C_4  and  C_5 
REMARK    4  A    between atoms: C_5  and  C_6 
REMARK    5  A    between atoms: C_6  and  C_7 
REMARK    6  A    between atoms: C_7  and  C_8 
REMARK    7  A    between atoms: C_8  and  C_9 
REMARK    8  A    between atoms: C_9  and  C_10 
REMARK    9  A    between atoms: C_10  and  C_11 
REMARK   10  A    between atoms: C_11  and  C_12 
REMARK   11  A    between atoms: C_12  and  C_13 
REMARK   12  A    between atoms: C_13  and  C_14 
REMARK   13  A    between atoms: C_14  and  C_15 
REMARK   14  A    between atoms: C_15  and  C_16 
REMARK   15  A    between atoms: C_16  and  C_17 
REMARK   16  A    between atoms: C_17  and  C_18 
REMARK   17  A    between atoms: C_18  and  O_20 
REMARK   18  A    between atoms: O_20  and  C_21 
REMARK   19  A    between atoms: C_21  and  C_22 
REMARK   20  A    between atoms: C_21  and  C_28 
REMARK   21  A    between atoms: C_22  and  C_23 
REMARK   22  A    between atoms: C_23  and  C_24 
REMARK   23  A    between atoms: C_24  and  C_25 
REMARK   24  A    between atoms: C_25  and  C_26 
REMARK   25  A    between atoms: C_28  and  C_29 
REMARK   26  A    between atoms: C_29  and  C_30 
REMARK   27  A    between atoms: C_30  and  C_31 
REMARK   28  A    between atoms: C_31  and  C_32 
REMARK   29  A    between atoms: C_32  and  C_33 
REMARK   30  A    between atoms: C_33  and  C_34 
REMARK   31  A    between atoms: C_34  and  C_35 
REMARK   32  A    between atoms: C_35  and  C_36 
REMARK   33  A    between atoms: C_36  and  C_37 
REMARK   34  A    between atoms: C_37  and  C_38 
REMARK   35  A    between atoms: C_38  and  O_40 
REMARK   36  A    between atoms: O_40  and  C_41 
REMARK   37  A    between atoms: C_41  and  C_42 
REMARK   38  A    between atoms: C_42  and  C_43 
REMARK   39  A    between atoms: C_42  and  C_51 
REMARK   40  A    between atoms: C_43  and  C_44 
REMARK   41  A    between atoms: C_44  and  C_45 
REMARK   42  A    between atoms: C_45  and  C_46 
REMARK   43  A    between atoms: C_46  and  C_47 
REMARK   44  A    between atoms: C_47  and  C_48 
REMARK   45  A    between atoms: C_48  and  C_49 
REMARK   46  A    between atoms: C_51  and  C_52 
REMARK   47  A    between atoms: C_52  and  C_53 
REMARK   48  A    between atoms: C_53  and  C_54 
REMARK   49  A    between atoms: C_54  and  C_55 
REMARK   50  A    between atoms: C_55  and  C_56 
REMARK   51  A    between atoms: C_56  and  C_57 
REMARK   52  A    between atoms: C_57  and  C_58 
REMARK   53  A    between atoms: C_58  and  C_59 
ROOT
HETATM    1  C   UNL     1     -23.447  -4.717  -8.413  1.00  0.00     0.000 C 
ENDROOT
BRANCH   1   2
HETATM    2  C   UNL     1     -23.776  -3.425  -9.152  1.00  0.00     0.002 C 
BRANCH   2   3
HETATM    3  C   UNL     1     -24.505  -3.680 -10.471  1.00  0.00     0.032 C 
BRANCH   3   4
HETATM    4  C   UNL     1     -23.531  -3.771 -11.660  1.00  0.00     0.132 C 
BRANCH   4   5
HETATM    5  O   UNL     1     -24.299  -3.739 -12.885  1.00  0.00    -0.316 OA
BRANCH   5   6
HETATM    6  C   UNL     1     -23.695  -4.275 -13.986  1.00  0.00     0.259 C 
HETATM    7  O   UNL     1     -23.141  -3.633 -14.865  1.00  0.00    -0.265 OA
BRANCH   6   8
HETATM    8  C   UNL     1     -23.783  -5.784 -13.970  1.00  0.00     0.111 C 
BRANCH   8   9
HETATM    9  C   UNL     1     -23.871  -6.356 -15.385  1.00  0.00     0.010 C 
BRANCH   9  10
HETATM   10  C   UNL     1     -25.183  -7.100 -15.611  1.00  0.00     0.000 C 
BRANCH  10  11
HETATM   11  C   UNL     1     -26.184  -6.227 -16.359  1.00  0.00     0.000 C 
BRANCH  11  12
HETATM   12  C   UNL     1     -27.608  -6.675 -16.063  1.00  0.00     0.000 C 
BRANCH  12  13
HETATM   13  C   UNL     1     -28.524  -6.370 -17.239  1.00  0.00     0.000 C 
BRANCH  13  14
HETATM   14  C   UNL     1     -29.734  -7.293 -17.218  1.00  0.00     0.000 C 
BRANCH  14  15
HETATM   15  C   UNL     1     -31.019  -6.484 -17.283  1.00  0.00     0.000 C 
BRANCH  15  16
HETATM   16  C   UNL     1     -30.818  -5.125 -16.635  1.00  0.00     0.000 C 
BRANCH  16  17
HETATM   17  C   UNL     1     -32.021  -4.235 -16.900  1.00  0.00     0.000 C 
BRANCH  17  18
HETATM   18  C   UNL     1     -33.277  -4.865 -16.315  1.00  0.00     0.000 C 
BRANCH  18  19
HETATM   19  C   UNL     1     -34.007  -3.860 -15.437  1.00  0.00     0.000 C 
BRANCH  19  20
HETATM   20  C   UNL     1     -34.254  -4.451 -14.058  1.00  0.00     0.000 C 
BRANCH  20  21
HETATM   21  C   UNL     1     -33.985  -3.412 -12.978  1.00  0.00     0.000 C 
BRANCH  21  22
HETATM   22  C   UNL     1     -33.073  -3.989 -11.901  1.00  0.00    -0.000 C 
BRANCH  22  23
HETATM   23  C   UNL     1     -33.850  -4.253 -10.616  1.00  0.00    -0.005 C 
HETATM   24  C   UNL     1     -34.225  -5.719 -10.505  1.00  0.00     0.005 C 
ENDBRANCH  22  23
ENDBRANCH  21  22
ENDBRANCH  20  21
ENDBRANCH  19  20
ENDBRANCH  18  19
ENDBRANCH  17  18
ENDBRANCH  16  17
ENDBRANCH  15  16
ENDBRANCH  14  15
ENDBRANCH  13  14
ENDBRANCH  12  13
ENDBRANCH  11  12
ENDBRANCH  10  11
ENDBRANCH   9  10
ENDBRANCH   8   9
ENDBRANCH   6   8
ENDBRANCH   5   6
ENDBRANCH   4   5
BRANCH   4  25
HETATM   25  C   UNL     1     -22.552  -2.584 -11.651  1.00  0.00     0.032 C 
BRANCH  25  26
HETATM   26  C   UNL     1     -21.121  -3.017 -11.396  1.00  0.00     0.002 C 
BRANCH  26  27
HETATM   27  C   UNL     1     -20.975  -4.528 -11.362  1.00  0.00     0.000 C 
BRANCH  27  28
HETATM   28  C   UNL     1     -19.976  -4.872 -10.264  1.00  0.00    -0.000 C 
BRANCH  28  29
HETATM   29  C   UNL     1     -20.034  -3.862  -9.133  1.00  0.00    -0.005 C 
HETATM   30  C   UNL     1     -19.125  -4.294  -7.998  1.00  0.00     0.005 C 
ENDBRANCH  28  29
ENDBRANCH  27  28
ENDBRANCH  26  27
ENDBRANCH  25  26
ENDBRANCH   4  25
ENDBRANCH   3   4
ENDBRANCH   2   3
ENDBRANCH   1   2
BRANCH   1  31
HETATM   31  C   UNL     1     -22.702  -4.389  -7.120  1.00  0.00     0.000 C 
BRANCH  31  32
HETATM   32  C   UNL     1     -22.581  -5.621  -6.237  1.00  0.00     0.000 C 
BRANCH  32  33
HETATM   33  C   UNL     1     -21.217  -5.660  -5.552  1.00  0.00     0.000 C 
BRANCH  33  34
HETATM   34  C   UNL     1     -20.810  -7.099  -5.266  1.00  0.00     0.000 C 
BRANCH  34  35
HETATM   35  C   UNL     1     -21.606  -7.683  -4.099  1.00  0.00     0.000 C 
BRANCH  35  36
HETATM   36  C   UNL     1     -21.067  -7.126  -2.785  1.00  0.00     0.010 C 
BRANCH  36  37
HETATM   37  C   UNL     1     -22.143  -6.456  -1.936  1.00  0.00     0.111 C 
BRANCH  37  38
HETATM   38  C   UNL     1     -22.369  -7.270  -0.677  1.00  0.00     0.258 C 
HETATM   39  O   UNL     1     -23.361  -7.199   0.005  1.00  0.00    -0.265 OA
BRANCH  38  40
HETATM   40  O   UNL     1     -21.235  -7.984  -0.387  1.00  0.00    -0.321 OA
BRANCH  40  41
HETATM   41  C   UNL     1     -21.428  -9.035   0.572  1.00  0.00     0.183 C 
BRANCH  41  42
HETATM   42  C   UNL     1     -21.492 -10.432  -0.061  1.00  0.00     0.010 C 
BRANCH  42  43
HETATM   43  C   UNL     1     -22.754 -10.616  -0.923  1.00  0.00     0.007 C 
BRANCH  43  44
HETATM   44  C   UNL     1     -23.832 -11.430  -0.225  1.00  0.00     0.000 C 
BRANCH  44  45
HETATM   45  C   UNL     1     -23.233 -12.408   0.768  1.00  0.00     0.000 C 
BRANCH  45  46
HETATM   46  C   UNL     1     -23.394 -13.812   0.209  1.00  0.00     0.000 C 
BRANCH  46  47
HETATM   47  C   UNL     1     -24.224 -13.784  -1.059  1.00  0.00     0.000 C 
BRANCH  47  48
HETATM   48  C   UNL     1     -23.499 -14.531  -2.167  1.00  0.00    -0.000 C 
BRANCH  48  49
HETATM   49  C   UNL     1     -22.025 -14.154  -2.179  1.00  0.00    -0.005 C 
HETATM   50  C   UNL     1     -21.263 -15.006  -3.175  1.00  0.00     0.005 C 
ENDBRANCH  48  49
ENDBRANCH  47  48
ENDBRANCH  46  47
ENDBRANCH  45  46
ENDBRANCH  44  45
ENDBRANCH  43  44
ENDBRANCH  42  43
BRANCH  42  51
HETATM   51  C   UNL     1     -20.225 -10.664  -0.901  1.00  0.00     0.007 C 
BRANCH  51  52
HETATM   52  C   UNL     1     -20.519 -10.820  -2.387  1.00  0.00     0.000 C 
BRANCH  52  53
HETATM   53  C   UNL     1     -19.253 -11.084  -3.181  1.00  0.00     0.000 C 
BRANCH  53  54
HETATM   54  C   UNL     1     -18.516  -9.772  -3.417  1.00  0.00     0.000 C 
BRANCH  54  55
HETATM   55  C   UNL     1     -17.162  -9.794  -2.727  1.00  0.00     0.000 C 
BRANCH  55  56
HETATM   56  C   UNL     1     -16.043  -9.624  -3.742  1.00  0.00     0.000 C 
BRANCH  56  57
HETATM   57  C   UNL     1     -15.925 -10.866  -4.614  1.00  0.00     0.000 C 
BRANCH  57  58
HETATM   58  C   UNL     1     -14.836 -11.790  -4.082  1.00  0.00    -0.000 C 
BRANCH  58  59
HETATM   59  C   UNL     1     -13.880 -12.203  -5.196  1.00  0.00    -0.005 C 
HETATM   60  C   UNL     1     -14.547 -12.080  -6.553  1.00  0.00     0.005 C 
ENDBRANCH  58  59
ENDBRANCH  57  58
ENDBRANCH  56  57
ENDBRANCH  55  56
ENDBRANCH  54  55
ENDBRANCH  53  54
ENDBRANCH  52  53
ENDBRANCH  51  52
ENDBRANCH  42  51
ENDBRANCH  41  42
ENDBRANCH  40  41
ENDBRANCH  38  40
ENDBRANCH  37  38
ENDBRANCH  36  37
ENDBRANCH  35  36
ENDBRANCH  34  35
ENDBRANCH  33  34
ENDBRANCH  32  33
ENDBRANCH  31  32
ENDBRANCH   1  31
TORSDOF 53
BEGIN_RES ARG D 557
REMARK  4 active torsions:
REMARK  status: ('A' for Active; 'I' for Inactive)
REMARK    1  A    between atoms: CA   and  CB  
REMARK    2  A    between atoms: CB   and  CG  
REMARK    3  A    between atoms: CG   and  CD  
REMARK    4  A    between atoms: CD   and  NE  
REMARK       I    between atoms: NE   and  CZ  
REMARK       I    between atoms: CZ   and  NH1 
REMARK       I    between atoms: CZ   and  NH2 
ROOT
ATOM      1  CA  ARG D 557     -26.217   2.705 -17.014  1.00 35.49     0.159 C 
ENDROOT
BRANCH   1   2
ATOM      2  CB  ARG D 557     -26.789   1.319 -17.183  1.00 35.49     0.034 C 
BRANCH   2   3
ATOM      3  CG  ARG D 557     -28.229   1.165 -16.943  1.00 35.49     0.027 C 
BRANCH   3   4
ATOM      4  CD  ARG D 557     -28.590  -0.214 -16.542  1.00 35.49     0.116 C 
BRANCH   4   5
ATOM      5  NE  ARG D 557     -27.523  -0.869 -15.832  1.00 35.49    -0.212 N 
ATOM      6  CZ  ARG D 557     -27.228  -2.148 -15.898  1.00 35.49     0.666 C 
ATOM      7  NH1 ARG D 557     -27.915  -2.997 -16.640  1.00 35.49    -0.235 N 
ATOM      8  NH2 ARG D 557     -26.211  -2.567 -15.201  1.00 35.49    -0.235 N 
ATOM      9  HH  ARG D 557     -28.586  -2.743 -17.108  1.00 35.49     0.174 HD
ATOM     10  HH  ARG D 557     -27.674  -3.820 -16.646  1.00 35.49     0.174 HD
ATOM     11  HH  ARG D 557     -25.781  -1.994 -14.737  1.00 35.49     0.174 HD
ATOM     12  HH  ARG D 557     -25.988  -3.384 -15.222  1.00 35.49     0.174 HD
ATOM     13  HE  ARG D 557     -27.074  -0.411 -15.274  1.00 35.49     0.178 HD
ENDBRANCH   4   5
ENDBRANCH   3   4
ENDBRANCH   2   3
ENDBRANCH   1   2
END_RES ARG D 557
BEGIN_RES GLU D 570
REMARK  3 active torsions:
REMARK  status: ('A' for Active; 'I' for Inactive)
REMARK    5  A    between atoms: CA   and  CB  
REMARK    6  A    between atoms: CB   and  CG  
REMARK    7  A    between atoms: CG   and  CD  
ROOT
ATOM     14  CA  GLU D 570     -18.033  -6.348 -13.375  1.00 32.92     0.160 C 
ENDROOT
BRANCH  14  15
ATOM     15  CB  GLU D 570     -19.500  -6.345 -13.794  1.00 32.92     0.043 C 
BRANCH  15  16
ATOM     16  CG  GLU D 570     -20.080  -7.629 -14.264  1.00 32.92     0.100 C 
BRANCH  16  17
ATOM     17  CD  GLU D 570     -20.601  -7.558 -15.680  1.00 32.92     0.185 C 
ATOM     18  OE1 GLU D 570     -21.170  -8.554 -16.167  1.00 32.92    -0.647 OA
ATOM     19  OE2 GLU D 570     -20.424  -6.499 -16.316  1.00 32.92    -0.647 OA
ENDBRANCH  16  17
ENDBRANCH  15  16
ENDBRANCH  14  15
END_RES GLU D 570
ENDMDL
MODEL 3
REMARK VINA RESULT:      -5.3      7.178     16.027
REMARK WARNING: 32 MAX_TORS EXCEEDED!!!
REMARK  53 active torsions:
REMARK  status: ('A' for Active; 'I' for Inactive)
REMARK    1  A    between atoms: C_2  and  C_3 
REMARK    2  A    between atoms: C_3  and  C_4 
REMARK    3  A    between atoms: C_4  and  C_5 
REMARK    4  A    between atoms: C_5  and  C_6 
REMARK    5  A    between atoms: C_6  and  C_7 
REMARK    6  A    between atoms: C_7  and  C_8 
REMARK    7  A    between atoms: C_8  and  C_9 
REMARK    8  A    between atoms: C_9  and  C_10 
REMARK    9  A    between atoms: C_10  and  C_11 
REMARK   10  A    between atoms: C_11  and  C_12 
REMARK   11  A    between atoms: C_12  and  C_13 
REMARK   12  A    between atoms: C_13  and  C_14 
REMARK   13  A    between atoms: C_14  and  C_15 
REMARK   14  A    between atoms: C_15  and  C_16 
REMARK   15  A    between atoms: C_16  and  C_17 
REMARK   16  A    between atoms: C_17  and  C_18 
REMARK   17  A    between atoms: C_18  and  O_20 
REMARK   18  A    between atoms: O_20  and  C_21 
REMARK   19  A    between atoms: C_21  and  C_22 
REMARK   20  A    between atoms: C_21  and  C_28 
REMARK   21  A    between atoms: C_22  and  C_23 
REMARK   22  A    between atoms: C_23  and  C_24 
REMARK   23  A    between atoms: C_24  and  C_25 
REMARK   24  A    between atoms: C_25  and  C_26 
REMARK   25  A    between atoms: C_28  and  C_29 
REMARK   26  A    between atoms: C_29  and  C_30 
REMARK   27  A    between atoms: C_30  and  C_31 
REMARK   28  A    between atoms: C_31  and  C_32 
REMARK   29  A    between atoms: C_32  and  C_33 
REMARK   30  A    between atoms: C_33  and  C_34 
REMARK   31  A    between atoms: C_34  and  C_35 
REMARK   32  A    between atoms: C_35  and  C_36 
REMARK   33  A    between atoms: C_36  and  C_37 
REMARK   34  A    between atoms: C_37  and  C_38 
REMARK   35  A    between atoms: C_38  and  O_40 
REMARK   36  A    between atoms: O_40  and  C_41 
REMARK   37  A    between atoms: C_41  and  C_42 
REMARK   38  A    between atoms: C_42  and  C_43 
REMARK   39  A    between atoms: C_42  and  C_51 
REMARK   40  A    between atoms: C_43  and  C_44 
REMARK   41  A    between atoms: C_44  and  C_45 
REMARK   42  A    between atoms: C_45  and  C_46 
REMARK   43  A    between atoms: C_46  and  C_47 
REMARK   44  A    between atoms: C_47  and  C_48 
REMARK   45  A    between atoms: C_48  and  C_49 
REMARK   46  A    between atoms: C_51  and  C_52 
REMARK   47  A    between atoms: C_52  and  C_53 
REMARK   48  A    between atoms: C_53  and  C_54 
REMARK   49  A    between atoms: C_54  and  C_55 
REMARK   50  A    between atoms: C_55  and  C_56 
REMARK   51  A    between atoms: C_56  and  C_57 
REMARK   52  A    between atoms: C_57  and  C_58 
REMARK   53  A    between atoms: C_58  and  C_59 
ROOT
HETATM    1  C   UNL     1     -27.355  -6.101 -17.933  1.00  0.00     0.000 C 
ENDROOT
BRANCH   1   2
HETATM    2  C   UNL     1     -27.492  -6.138 -16.415  1.00  0.00     0.002 C 
BRANCH   2   3
HETATM    3  C   UNL     1     -26.460  -7.054 -15.759  1.00  0.00     0.032 C 
BRANCH   3   4
HETATM    4  C   UNL     1     -25.024  -6.535 -15.954  1.00  0.00     0.132 C 
BRANCH   4   5
HETATM    5  O   UNL     1     -24.372  -6.494 -14.664  1.00  0.00    -0.316 OA
BRANCH   5   6
HETATM    6  C   UNL     1     -23.825  -5.296 -14.305  1.00  0.00     0.259 C 
HETATM    7  O   UNL     1     -23.939  -4.255 -14.934  1.00  0.00    -0.265 OA
BRANCH   6   8
HETATM    8  C   UNL     1     -23.066  -5.416 -13.004  1.00  0.00     0.111 C 
BRANCH   8   9
HETATM    9  C   UNL     1     -22.347  -4.115 -12.650  1.00  0.00     0.010 C 
BRANCH   9  10
HETATM   10  C   UNL     1     -21.529  -4.254 -11.370  1.00  0.00     0.000 C 
BRANCH  10  11
HETATM   11  C   UNL     1     -22.259  -3.630 -10.186  1.00  0.00     0.000 C 
BRANCH  11  12
HETATM   12  C   UNL     1     -21.723  -4.189  -8.875  1.00  0.00     0.000 C 
BRANCH  12  13
HETATM   13  C   UNL     1     -20.293  -4.683  -9.047  1.00  0.00     0.000 C 
BRANCH  13  14
HETATM   14  C   UNL     1     -19.596  -4.755  -7.696  1.00  0.00     0.000 C 
BRANCH  14  15
HETATM   15  C   UNL     1     -20.457  -4.114  -6.620  1.00  0.00     0.000 C 
BRANCH  15  16
HETATM   16  C   UNL     1     -20.579  -5.043  -5.423  1.00  0.00     0.000 C 
BRANCH  16  17
HETATM   17  C   UNL     1     -21.737  -6.008  -5.625  1.00  0.00     0.000 C 
BRANCH  17  18
HETATM   18  C   UNL     1     -21.687  -7.111  -4.578  1.00  0.00     0.000 C 
BRANCH  18  19
HETATM   19  C   UNL     1     -20.408  -7.920  -4.732  1.00  0.00     0.000 C 
BRANCH  19  20
HETATM   20  C   UNL     1     -20.203  -8.812  -3.517  1.00  0.00     0.000 C 
BRANCH  20  21
HETATM   21  C   UNL     1     -21.529  -9.407  -3.064  1.00  0.00     0.000 C 
BRANCH  21  22
HETATM   22  C   UNL     1     -21.686  -9.268  -1.555  1.00  0.00    -0.000 C 
BRANCH  22  23
HETATM   23  C   UNL     1     -21.173  -7.914  -1.078  1.00  0.00    -0.005 C 
HETATM   24  C   UNL     1     -22.322  -6.944  -0.872  1.00  0.00     0.005 C 
ENDBRANCH  22  23
ENDBRANCH  21  22
ENDBRANCH  20  21
ENDBRANCH  19  20
ENDBRANCH  18  19
ENDBRANCH  17  18
ENDBRANCH  16  17
ENDBRANCH  15  16
ENDBRANCH  14  15
ENDBRANCH  13  14
ENDBRANCH  12  13
ENDBRANCH  11  12
ENDBRANCH  10  11
ENDBRANCH   9  10
ENDBRANCH   8   9
ENDBRANCH   6   8
ENDBRANCH   5   6
ENDBRANCH   4   5
BRANCH   4  25
HETATM   25  C   UNL     1     -24.232  -7.470 -16.886  1.00  0.00     0.032 C 
BRANCH  25  26
HETATM   26  C   UNL     1     -23.724  -6.755 -18.125  1.00  0.00     0.002 C 
BRANCH  26  27
HETATM   27  C   UNL     1     -23.824  -7.620 -19.368  1.00  0.00     0.000 C 
BRANCH  27  28
HETATM   28  C   UNL     1     -24.963  -7.074 -20.221  1.00  0.00    -0.000 C 
BRANCH  28  29
HETATM   29  C   UNL     1     -25.234  -7.972 -21.415  1.00  0.00    -0.005 C 
HETATM   30  C   UNL     1     -24.071  -7.917 -22.387  1.00  0.00     0.005 C 
ENDBRANCH  28  29
ENDBRANCH  27  28
ENDBRANCH  26  27
ENDBRANCH  25  26
ENDBRANCH   4  25
ENDBRANCH   3   4
ENDBRANCH   2   3
ENDBRANCH   1   2
BRANCH   1  31
HETATM   31  C   UNL     1     -28.738  -5.961 -18.568  1.00  0.00     0.000 C 
BRANCH  31  32
HETATM   32  C   UNL     1     -29.608  -7.165 -18.242  1.00  0.00     0.000 C 
BRANCH  32  33
HETATM   33  C   UNL     1     -30.898  -6.724 -17.556  1.00  0.00     0.000 C 
BRANCH  33  34
HETATM   34  C   UNL     1     -30.906  -5.213 -17.366  1.00  0.00     0.000 C 
BRANCH  34  35
HETATM   35  C   UNL     1     -32.100  -4.763 -16.524  1.00  0.00     0.000 C 
BRANCH  35  36
HETATM   36  C   UNL     1     -32.844  -3.647 -17.252  1.00  0.00     0.010 C 
BRANCH  36  37
HETATM   37  C   UNL     1     -34.124  -3.221 -16.540  1.00  0.00     0.111 C 
BRANCH  37  38
HETATM   38  C   UNL     1     -34.378  -4.148 -15.366  1.00  0.00     0.258 C 
HETATM   39  O   UNL     1     -35.093  -5.118 -15.415  1.00  0.00    -0.265 OA
BRANCH  38  40
HETATM   40  O   UNL     1     -33.774  -3.640 -14.245  1.00  0.00    -0.321 OA
BRANCH  40  41
HETATM   41  C   UNL     1     -34.663  -2.936 -13.364  1.00  0.00     0.183 C 
BRANCH  41  42
HETATM   42  C   UNL     1     -34.446  -3.277 -11.883  1.00  0.00     0.010 C 
BRANCH  42  43
HETATM   43  C   UNL     1     -33.010  -3.761 -11.608  1.00  0.00     0.007 C 
BRANCH  43  44
HETATM   44  C   UNL     1     -32.938  -5.247 -11.298  1.00  0.00     0.000 C 
BRANCH  44  45
HETATM   45  C   UNL     1     -34.312  -5.890 -11.336  1.00  0.00     0.000 C 
BRANCH  45  46
HETATM   46  C   UNL     1     -34.817  -6.017  -9.909  1.00  0.00     0.000 C 
BRANCH  46  47
HETATM   47  C   UNL     1     -34.823  -7.469  -9.477  1.00  0.00     0.000 C 
BRANCH  47  48
HETATM   48  C   UNL     1     -34.046  -8.309 -10.479  1.00  0.00    -0.000 C 
BRANCH  48  49
HETATM   49  C   UNL     1     -33.718  -9.670  -9.883  1.00  0.00    -0.005 C 
HETATM   50  C   UNL     1     -33.628 -10.723 -10.970  1.00  0.00     0.005 C 
ENDBRANCH  48  49
ENDBRANCH  47  48
ENDBRANCH  46  47
ENDBRANCH  45  46
ENDBRANCH  44  45
ENDBRANCH  43  44
ENDBRANCH  42  43
BRANCH  42  51
HETATM   51  C   UNL     1     -34.774  -2.042 -11.027  1.00  0.00     0.007 C 
BRANCH  51  52
HETATM   52  C   UNL     1     -36.188  -2.071 -10.464  1.00  0.00     0.000 C 
BRANCH  52  53
HETATM   53  C   UNL     1     -36.553  -0.750  -9.809  1.00  0.00     0.000 C 
BRANCH  53  54
HETATM   54  C   UNL     1     -36.864   0.283 -10.885  1.00  0.00     0.000 C 
BRANCH  54  55
HETATM   55  C   UNL     1     -37.679  -0.346 -12.002  1.00  0.00     0.000 C 
BRANCH  55  56
HETATM   56  C   UNL     1     -37.118   0.051 -13.359  1.00  0.00     0.000 C 
BRANCH  56  57
HETATM   57  C   UNL     1     -35.657   0.461 -13.230  1.00  0.00     0.000 C 
BRANCH  57  58
HETATM   58  C   UNL     1     -35.052   0.724 -14.604  1.00  0.00    -0.000 C 
BRANCH  58  59
HETATM   59  C   UNL     1     -36.140   1.016 -15.631  1.00  0.00    -0.005 C 
HETATM   60  C   UNL     1     -35.971   2.407 -16.214  1.00  0.00     0.005 C 
ENDBRANCH  58  59
ENDBRANCH  57  58
ENDBRANCH  56  57
ENDBRANCH  55  56
ENDBRANCH  54  55
ENDBRANCH  53  54
ENDBRANCH  52  53
ENDBRANCH  51  52
ENDBRANCH  42  51
ENDBRANCH  41  42
ENDBRANCH  40  41
ENDBRANCH  38  40
ENDBRANCH  37  38
ENDBRANCH  36  37
ENDBRANCH  35  36
ENDBRANCH  34  35
ENDBRANCH  33  34
ENDBRANCH  32  33
ENDBRANCH  31  32
ENDBRANCH   1  31
TORSDOF 53
BEGIN_RES ARG D 557
REMARK  4 active torsions:
REMARK  status: ('A' for Active; 'I' for Inactive)
REMARK    1  A    between atoms: CA   and  CB  
REMARK    2  A    between atoms: CB   and  CG  
REMARK    3  A    between atoms: CG   and  CD  
REMARK    4  A    between atoms: CD   and  NE  
REMARK       I    between atoms: NE   and  CZ  
REMARK       I    between atoms: CZ   and  NH1 
REMARK       I    between atoms: CZ   and  NH2 
ROOT
ATOM      1  CA  ARG D 557     -26.217   2.705 -17.014  1.00 35.49     0.159 C 
ENDROOT
BRANCH   1   2
ATOM      2  CB  ARG D 557     -26.789   1.319 -17.183  1.00 35.49     0.034 C 
BRANCH   2   3
ATOM      3  CG  ARG D 557     -28.252   1.209 -17.230  1.00 35.49     0.027 C 
BRANCH   3   4
ATOM      4  CD  ARG D 557     -28.750   0.004 -16.529  1.00 35.49     0.116 C 
BRANCH   4   5
ATOM      5  NE  ARG D 557     -27.679  -0.791 -15.988  1.00 35.49    -0.212 N 
ATOM      6  CZ  ARG D 557     -27.495  -2.075 -16.197  1.00 35.49     0.666 C 
ATOM      7  NH1 ARG D 557     -28.313  -2.798 -16.940  1.00 35.49    -0.235 N 
ATOM      8  NH2 ARG D 557     -26.456  -2.630 -15.644  1.00 35.49    -0.235 N 
ATOM      9  HH  ARG D 557     -29.002  -2.453 -17.315  1.00 35.49     0.174 HD
ATOM     10  HH  ARG D 557     -28.141  -3.631 -17.042  1.00 35.49     0.174 HD
ATOM     11  HH  ARG D 557     -25.941  -2.138 -15.175  1.00 35.49     0.174 HD
ATOM     12  HH  ARG D 557     -26.302  -3.456 -15.759  1.00 35.49     0.174 HD
ATOM     13  HE  ARG D 557     -27.145  -0.421 -15.439  1.00 35.49     0.178 HD
ENDBRANCH   4   5
ENDBRANCH   3   4
ENDBRANCH   2   3
ENDBRANCH   1   2
END_RES ARG D 557
BEGIN_RES GLU D 570
REMARK  3 active torsions:
REMARK  status: ('A' for Active; 'I' for Inactive)
REMARK    5  A    between atoms: CA   and  CB  
REMARK    6  A    between atoms: CB   and  CG  
REMARK    7  A    between atoms: CG   and  CD  
ROOT
ATOM     14  CA  GLU D 570     -18.033  -6.348 -13.375  1.00 32.92     0.160 C 
ENDROOT
BRANCH  14  15
ATOM     15  CB  GLU D 570     -19.500  -6.345 -13.794  1.00 32.92     0.043 C 
BRANCH  15  16
ATOM     16  CG  GLU D 570     -20.116  -7.652 -14.139  1.00 32.92     0.100 C 
BRANCH  16  17
ATOM     17  CD  GLU D 570     -20.604  -7.715 -15.567  1.00 32.92     0.185 C 
ATOM     18  OE1 GLU D 570     -21.074  -6.687 -16.092  1.00 32.92    -0.647 OA
ATOM     19  OE2 GLU D 570     -20.532  -8.808 -16.162  1.00 32.92    -0.647 OA
ENDBRANCH  16  17
ENDBRANCH  15  16
ENDBRANCH  14  15
END_RES GLU D 570
ENDMDL
MODEL 4
REMARK VINA RESULT:      -5.2      2.199      8.009
REMARK WARNING: 32 MAX_TORS EXCEEDED!!!
REMARK  53 active torsions:
REMARK  status: ('A' for Active; 'I' for Inactive)
REMARK    1  A    between atoms: C_2  and  C_3 
REMARK    2  A    between atoms: C_3  and  C_4 
REMARK    3  A    between atoms: C_4  and  C_5 
REMARK    4  A    between atoms: C_5  and  C_6 
REMARK    5  A    between atoms: C_6  and  C_7 
REMARK    6  A    between atoms: C_7  and  C_8 
REMARK    7  A    between atoms: C_8  and  C_9 
REMARK    8  A    between atoms: C_9  and  C_10 
REMARK    9  A    between atoms: C_10  and  C_11 
REMARK   10  A    between atoms: C_11  and  C_12 
REMARK   11  A    between atoms: C_12  and  C_13 
REMARK   12  A    between atoms: C_13  and  C_14 
REMARK   13  A    between atoms: C_14  and  C_15 
REMARK   14  A    between atoms: C_15  and  C_16 
REMARK   15  A    between atoms: C_16  and  C_17 
REMARK   16  A    between atoms: C_17  and  C_18 
REMARK   17  A    between atoms: C_18  and  O_20 
REMARK   18  A    between atoms: O_20  and  C_21 
REMARK   19  A    between atoms: C_21  and  C_22 
REMARK   20  A    between atoms: C_21  and  C_28 
REMARK   21  A    between atoms: C_22  and  C_23 
REMARK   22  A    between atoms: C_23  and  C_24 
REMARK   23  A    between atoms: C_24  and  C_25 
REMARK   24  A    between atoms: C_25  and  C_26 
REMARK   25  A    between atoms: C_28  and  C_29 
REMARK   26  A    between atoms: C_29  and  C_30 
REMARK   27  A    between atoms: C_30  and  C_31 
REMARK   28  A    between atoms: C_31  and  C_32 
REMARK   29  A    between atoms: C_32  and  C_33 
REMARK   30  A    between atoms: C_33  and  C_34 
REMARK   31  A    between atoms: C_34  and  C_35 
REMARK   32  A    between atoms: C_35  and  C_36 
REMARK   33  A    between atoms: C_36  and  C_37 
REMARK   34  A    between atoms: C_37  and  C_38 
REMARK   35  A    between atoms: C_38  and  O_40 
REMARK   36  A    between atoms: O_40  and  C_41 
REMARK   37  A    between atoms: C_41  and  C_42 
REMARK   38  A    between atoms: C_42  and  C_43 
REMARK   39  A    between atoms: C_42  and  C_51 
REMARK   40  A    between atoms: C_43  and  C_44 
REMARK   41  A    between atoms: C_44  and  C_45 
REMARK   42  A    between atoms: C_45  and  C_46 
REMARK   43  A    between atoms: C_46  and  C_47 
REMARK   44  A    between atoms: C_47  and  C_48 
REMARK   45  A    between atoms: C_48  and  C_49 
REMARK   46  A    between atoms: C_51  and  C_52 
REMARK   47  A    between atoms: C_52  and  C_53 
REMARK   48  A    between atoms: C_53  and  C_54 
REMARK   49  A    between atoms: C_54  and  C_55 
REMARK   50  A    between atoms: C_55  and  C_56 
REMARK   51  A    between atoms: C_56  and  C_57 
REMARK   52  A    between atoms: C_57  and  C_58 
REMARK   53  A    between atoms: C_58  and  C_59 
ROOT
HETATM    1  C   UNL     1     -22.895 -11.070  -3.543  1.00  0.00     0.000 C 
ENDROOT
BRANCH   1   2
HETATM    2  C   UNL     1     -22.219 -12.043  -4.502  1.00  0.00     0.002 C 
BRANCH   2   3
HETATM    3  C   UNL     1     -21.171 -12.911  -3.808  1.00  0.00     0.032 C 
BRANCH   3   4
HETATM    4  C   UNL     1     -19.871 -13.012  -4.627  1.00  0.00     0.132 C 
BRANCH   4   5
HETATM    5  O   UNL     1     -19.380 -14.370  -4.541  1.00  0.00    -0.316 OA
BRANCH   5   6
HETATM    6  C   UNL     1     -18.596 -14.659  -3.461  1.00  0.00     0.259 C 
HETATM    7  O   UNL     1     -18.773 -15.593  -2.695  1.00  0.00    -0.265 OA
BRANCH   6   8
HETATM    8  C   UNL     1     -17.455 -13.674  -3.343  1.00  0.00     0.111 C 
BRANCH   8   9
HETATM    9  C   UNL     1     -16.260 -14.284  -2.610  1.00  0.00     0.010 C 
BRANCH   9  10
HETATM   10  C   UNL     1     -15.277 -13.214  -2.147  1.00  0.00     0.000 C 
BRANCH  10  11
HETATM   11  C   UNL     1     -14.877 -13.434  -0.692  1.00  0.00     0.000 C 
BRANCH  11  12
HETATM   12  C   UNL     1     -15.349 -12.272   0.171  1.00  0.00     0.000 C 
BRANCH  12  13
HETATM   13  C   UNL     1     -16.316 -12.757   1.242  1.00  0.00     0.000 C 
BRANCH  13  14
HETATM   14  C   UNL     1     -17.696 -12.982   0.642  1.00  0.00     0.000 C 
BRANCH  14  15
HETATM   15  C   UNL     1     -18.118 -11.777  -0.183  1.00  0.00     0.000 C 
BRANCH  15  16
HETATM   16  C   UNL     1     -19.553 -11.940  -0.654  1.00  0.00     0.000 C 
BRANCH  16  17
HETATM   17  C   UNL     1     -20.129 -13.249  -0.137  1.00  0.00     0.000 C 
BRANCH  17  18
HETATM   18  C   UNL     1     -21.282 -12.972   0.817  1.00  0.00     0.000 C 
BRANCH  18  19
HETATM   19  C   UNL     1     -22.132 -14.222   0.987  1.00  0.00     0.000 C 
BRANCH  19  20
HETATM   20  C   UNL     1     -23.312 -13.934   1.901  1.00  0.00     0.000 C 
BRANCH  20  21
HETATM   21  C   UNL     1     -23.177 -14.711   3.204  1.00  0.00     0.000 C 
BRANCH  21  22
HETATM   22  C   UNL     1     -24.552 -15.018   3.785  1.00  0.00    -0.000 C 
BRANCH  22  23
HETATM   23  C   UNL     1     -24.448 -16.028   4.922  1.00  0.00    -0.005 C 
HETATM   24  C   UNL     1     -23.457 -15.559   5.971  1.00  0.00     0.005 C 
ENDBRANCH  22  23
ENDBRANCH  21  22
ENDBRANCH  20  21
ENDBRANCH  19  20
ENDBRANCH  18  19
ENDBRANCH  17  18
ENDBRANCH  16  17
ENDBRANCH  15  16
ENDBRANCH  14  15
ENDBRANCH  13  14
ENDBRANCH  12  13
ENDBRANCH  11  12
ENDBRANCH  10  11
ENDBRANCH   9  10
ENDBRANCH   8   9
ENDBRANCH   6   8
ENDBRANCH   5   6
ENDBRANCH   4   5
BRANCH   4  25
HETATM   25  C   UNL     1     -20.132 -12.665  -6.103  1.00  0.00     0.032 C 
BRANCH  25  26
HETATM   26  C   UNL     1     -18.964 -11.937  -6.740  1.00  0.00     0.002 C 
BRANCH  26  27
HETATM   27  C   UNL     1     -18.617 -12.494  -8.109  1.00  0.00     0.000 C 
BRANCH  27  28
HETATM   28  C   UNL     1     -19.462 -13.744  -8.328  1.00  0.00    -0.000 C 
BRANCH  28  29
HETATM   29  C   UNL     1     -18.593 -14.983  -8.436  1.00  0.00    -0.005 C 
HETATM   30  C   UNL     1     -18.079 -15.142  -9.855  1.00  0.00     0.005 C 
ENDBRANCH  28  29
ENDBRANCH  27  28
ENDBRANCH  26  27
ENDBRANCH  25  26
ENDBRANCH   4  25
ENDBRANCH   3   4
ENDBRANCH   2   3
ENDBRANCH   1   2
BRANCH   1  31
HETATM   31  C   UNL     1     -22.814 -11.618  -2.119  1.00  0.00     0.000 C 
BRANCH  31  32
HETATM   32  C   UNL     1     -24.070 -11.272  -1.334  1.00  0.00     0.000 C 
BRANCH  32  33
HETATM   33  C   UNL     1     -23.709 -10.764   0.059  1.00  0.00     0.000 C 
BRANCH  33  34
HETATM   34  C   UNL     1     -23.247  -9.314  -0.010  1.00  0.00     0.000 C 
BRANCH  34  35
HETATM   35  C   UNL     1     -21.779  -9.176   0.389  1.00  0.00     0.000 C 
BRANCH  35  36
HETATM   36  C   UNL     1     -21.067  -8.257  -0.600  1.00  0.00     0.010 C 
BRANCH  36  37
HETATM   37  C   UNL     1     -21.881  -7.995  -1.863  1.00  0.00     0.111 C 
BRANCH  37  38
HETATM   38  C   UNL     1     -22.055  -6.500  -2.047  1.00  0.00     0.258 C 
HETATM   39  O   UNL     1     -22.275  -5.730  -1.145  1.00  0.00    -0.265 OA
BRANCH  38  40
HETATM   40  O   UNL     1     -22.046  -6.202  -3.385  1.00  0.00    -0.321 OA
BRANCH  40  41
HETATM   41  C   UNL     1     -21.656  -7.294  -4.231  1.00  0.00     0.183 C 
BRANCH  41  42
HETATM   42  C   UNL     1     -20.307  -7.070  -4.929  1.00  0.00     0.010 C 
BRANCH  42  43
HETATM   43  C   UNL     1     -19.584  -8.396  -5.224  1.00  0.00     0.007 C 
BRANCH  43  44
HETATM   44  C   UNL     1     -19.692  -9.395  -4.083  1.00  0.00     0.000 C 
BRANCH  44  45
HETATM   45  C   UNL     1     -18.502  -9.298  -3.146  1.00  0.00     0.000 C 
BRANCH  45  46
HETATM   46  C   UNL     1     -17.472 -10.328  -3.578  1.00  0.00     0.000 C 
BRANCH  46  47
HETATM   47  C   UNL     1     -16.104  -9.689  -3.702  1.00  0.00     0.000 C 
BRANCH  47  48
HETATM   48  C   UNL     1     -15.600  -9.820  -5.130  1.00  0.00    -0.000 C 
BRANCH  48  49
HETATM   49  C   UNL     1     -15.564 -11.283  -5.544  1.00  0.00    -0.005 C 
HETATM   50  C   UNL     1     -14.175 -11.859  -5.354  1.00  0.00     0.005 C 
ENDBRANCH  48  49
ENDBRANCH  47  48
ENDBRANCH  46  47
ENDBRANCH  45  46
ENDBRANCH  44  45
ENDBRANCH  43  44
ENDBRANCH  42  43
BRANCH  42  51
HETATM   51  C   UNL     1     -20.536  -6.279  -6.227  1.00  0.00     0.007 C 
BRANCH  51  52
HETATM   52  C   UNL     1     -19.988  -4.859  -6.161  1.00  0.00     0.000 C 
BRANCH  52  53
HETATM   53  C   UNL     1     -20.729  -3.931  -7.106  1.00  0.00     0.000 C 
BRANCH  53  54
HETATM   54  C   UNL     1     -21.984  -4.624  -7.620  1.00  0.00     0.000 C 
BRANCH  54  55
HETATM   55  C   UNL     1     -21.992  -4.645  -9.139  1.00  0.00     0.000 C 
BRANCH  55  56
HETATM   56  C   UNL     1     -20.677  -4.110  -9.687  1.00  0.00     0.000 C 
BRANCH  56  57
HETATM   57  C   UNL     1     -20.725  -4.040 -11.207  1.00  0.00     0.000 C 
BRANCH  57  58
HETATM   58  C   UNL     1     -21.876  -3.152 -11.665  1.00  0.00    -0.000 C 
BRANCH  58  59
HETATM   59  C   UNL     1     -22.820  -3.915 -12.587  1.00  0.00    -0.005 C 
HETATM   60  C   UNL     1     -22.714  -3.403 -14.011  1.00  0.00     0.005 C 
ENDBRANCH  58  59
ENDBRANCH  57  58
ENDBRANCH  56  57
ENDBRANCH  55  56
ENDBRANCH  54  55
ENDBRANCH  53  54
ENDBRANCH  52  53
ENDBRANCH  51  52
ENDBRANCH  42  51
ENDBRANCH  41  42
ENDBRANCH  40  41
ENDBRANCH  38  40
ENDBRANCH  37  38
ENDBRANCH  36  37
ENDBRANCH  35  36
ENDBRANCH  34  35
ENDBRANCH  33  34
ENDBRANCH  32  33
ENDBRANCH  31  32
ENDBRANCH   1  31
TORSDOF 53
BEGIN_RES ARG D 557
REMARK  4 active torsions:
REMARK  status: ('A' for Active; 'I' for Inactive)
REMARK    1  A    between atoms: CA   and  CB  
REMARK    2  A    between atoms: CB   and  CG  
REMARK    3  A    between atoms: CG   and  CD  
REMARK    4  A    between atoms: CD   and  NE  
REMARK       I    between atoms: NE   and  CZ  
REMARK       I    between atoms: CZ   and  NH1 
REMARK       I    between atoms: CZ   and  NH2 
ROOT
ATOM      1  CA  ARG D 557     -26.217   2.705 -17.014  1.00 35.49     0.159 C 
ENDROOT
BRANCH   1   2
ATOM      2  CB  ARG D 557     -26.789   1.319 -17.183  1.00 35.49     0.034 C 
BRANCH   2   3
ATOM      3  CG  ARG D 557     -28.220   1.229 -17.499  1.00 35.49     0.027 C 
BRANCH   3   4
ATOM      4  CD  ARG D 557     -28.927   0.250 -16.642  1.00 35.49     0.116 C 
BRANCH   4   5
ATOM      5  NE  ARG D 557     -28.115  -0.902 -16.351  1.00 35.49    -0.212 N 
ATOM      6  CZ  ARG D 557     -28.364  -2.134 -16.735  1.00 35.49     0.666 C 
ATOM      7  NH1 ARG D 557     -29.432  -2.454 -17.441  1.00 35.49    -0.235 N 
ATOM      8  NH2 ARG D 557     -27.506  -3.053 -16.398  1.00 35.49    -0.235 N 
ATOM      9  HH  ARG D 557     -30.009  -1.865 -17.675  1.00 35.49     0.174 HD
ATOM     10  HH  ARG D 557     -29.541  -3.274 -17.665  1.00 35.49     0.174 HD
ATOM     11  HH  ARG D 557     -26.821  -2.816 -15.948  1.00 35.49     0.174 HD
ATOM     12  HH  ARG D 557     -27.631  -3.858 -16.631  1.00 35.49     0.174 HD
ATOM     13  HE  ARG D 557     -27.444  -0.799 -15.838  1.00 35.49     0.178 HD
ENDBRANCH   4   5
ENDBRANCH   3   4
ENDBRANCH   2   3
ENDBRANCH   1   2
END_RES ARG D 557
BEGIN_RES GLU D 570
REMARK  3 active torsions:
REMARK  status: ('A' for Active; 'I' for Inactive)
REMARK    5  A    between atoms: CA   and  CB  
REMARK    6  A    between atoms: CB   and  CG  
REMARK    7  A    between atoms: CG   and  CD  
ROOT
ATOM     14  CA  GLU D 570     -18.033  -6.348 -13.375  1.00 32.92     0.160 C 
ENDROOT
BRANCH  14  15
ATOM     15  CB  GLU D 570     -19.500  -6.345 -13.794  1.00 32.92     0.043 C 
BRANCH  15  16
ATOM     16  CG  GLU D 570     -19.802  -6.581 -15.229  1.00 32.92     0.100 C 
BRANCH  16  17
ATOM     17  CD  GLU D 570     -21.107  -7.312 -15.445  1.00 32.92     0.185 C 
ATOM     18  OE1 GLU D 570     -22.169  -6.777 -15.073  1.00 32.92    -0.647 OA
ATOM     19  OE2 GLU D 570     -21.065  -8.439 -15.975  1.00 32.92    -0.647 OA
ENDBRANCH  16  17
ENDBRANCH  15  16
ENDBRANCH  14  15
END_RES GLU D 570
ENDMDL
MODEL 5
REMARK VINA RESULT:      -5.2      1.321      4.938
REMARK WARNING: 32 MAX_TORS EXCEEDED!!!
REMARK  53 active torsions:
REMARK  status: ('A' for Active; 'I' for Inactive)
REMARK    1  A    between atoms: C_2  and  C_3 
REMARK    2  A    between atoms: C_3  and  C_4 
REMARK    3  A    between atoms: C_4  and  C_5 
REMARK    4  A    between atoms: C_5  and  C_6 
REMARK    5  A    between atoms: C_6  and  C_7 
REMARK    6  A    between atoms: C_7  and  C_8 
REMARK    7  A    between atoms: C_8  and  C_9 
REMARK    8  A    between atoms: C_9  and  C_10 
REMARK    9  A    between atoms: C_10  and  C_11 
REMARK   10  A    between atoms: C_11  and  C_12 
REMARK   11  A    between atoms: C_12  and  C_13 
REMARK   12  A    between atoms: C_13  and  C_14 
REMARK   13  A    between atoms: C_14  and  C_15 
REMARK   14  A    between atoms: C_15  and  C_16 
REMARK   15  A    between atoms: C_16  and  C_17 
REMARK   16  A    between atoms: C_17  and  C_18 
REMARK   17  A    between atoms: C_18  and  O_20 
REMARK   18  A    between atoms: O_20  and  C_21 
REMARK   19  A    between atoms: C_21  and  C_22 
REMARK   20  A    between atoms: C_21  and  C_28 
REMARK   21  A    between atoms: C_22  and  C_23 
REMARK   22  A    between atoms: C_23  and  C_24 
REMARK   23  A    between atoms: C_24  and  C_25 
REMARK   24  A    between atoms: C_25  and  C_26 
REMARK   25  A    between atoms: C_28  and  C_29 
REMARK   26  A    between atoms: C_29  and  C_30 
REMARK   27  A    between atoms: C_30  and  C_31 
REMARK   28  A    between atoms: C_31  and  C_32 
REMARK   29  A    between atoms: C_32  and  C_33 
REMARK   30  A    between atoms: C_33  and  C_34 
REMARK   31  A    between atoms: C_34  and  C_35 
REMARK   32  A    between atoms: C_35  and  C_36 
REMARK   33  A    between atoms: C_36  and  C_37 
REMARK   34  A    between atoms: C_37  and  C_38 
REMARK   35  A    between atoms: C_38  and  O_40 
REMARK   36  A    between atoms: O_40  and  C_41 
REMARK   37  A    between atoms: C_41  and  C_42 
REMARK   38  A    between atoms: C_42  and  C_43 
REMARK   39  A    between atoms: C_42  and  C_51 
REMARK   40  A    between atoms: C_43  and  C_44 
REMARK   41  A    between atoms: C_44  and  C_45 
REMARK   42  A    between atoms: C_45  and  C_46 
REMARK   43  A    between atoms: C_46  and  C_47 
REMARK   44  A    between atoms: C_47  and  C_48 
REMARK   45  A    between atoms: C_48  and  C_49 
REMARK   46  A    between atoms: C_51  and  C_52 
REMARK   47  A    between atoms: C_52  and  C_53 
REMARK   48  A    between atoms: C_53  and  C_54 
REMARK   49  A    between atoms: C_54  and  C_55 
REMARK   50  A    between atoms: C_55  and  C_56 
REMARK   51  A    between atoms: C_56  and  C_57 
REMARK   52  A    between atoms: C_57  and  C_58 
REMARK   53  A    between atoms: C_58  and  C_59 
ROOT
HETATM    1  C   UNL     1     -22.267  -6.334  -1.548  1.00  0.00     0.000 C 
ENDROOT
BRANCH   1   2
HETATM    2  C   UNL     1     -21.237  -6.819  -2.561  1.00  0.00     0.002 C 
BRANCH   2   3
HETATM    3  C   UNL     1     -21.817  -6.939  -3.969  1.00  0.00     0.032 C 
BRANCH   3   4
HETATM    4  C   UNL     1     -20.731  -6.809  -5.053  1.00  0.00     0.132 C 
BRANCH   4   5
HETATM    5  O   UNL     1     -20.579  -8.091  -5.706  1.00  0.00    -0.316 OA
BRANCH   5   6
HETATM    6  C   UNL     1     -19.943  -9.061  -4.987  1.00  0.00     0.259 C 
HETATM    7  O   UNL     1     -18.928  -8.895  -4.329  1.00  0.00    -0.265 OA
BRANCH   6   8
HETATM    8  C   UNL     1     -20.675 -10.379  -5.092  1.00  0.00     0.111 C 
BRANCH   8   9
HETATM    9  C   UNL     1     -20.893 -11.012  -3.718  1.00  0.00     0.010 C 
BRANCH   9  10
HETATM   10  C   UNL     1     -22.079 -10.385  -2.992  1.00  0.00     0.000 C 
BRANCH  10  11
HETATM   11  C   UNL     1     -22.965 -11.459  -2.367  1.00  0.00     0.000 C 
BRANCH  11  12
HETATM   12  C   UNL     1     -23.560 -10.961  -1.057  1.00  0.00     0.000 C 
BRANCH  12  13
HETATM   13  C   UNL     1     -24.007 -12.130  -0.191  1.00  0.00     0.000 C 
BRANCH  13  14
HETATM   14  C   UNL     1     -23.468 -13.437  -0.753  1.00  0.00     0.000 C 
BRANCH  14  15
HETATM   15  C   UNL     1     -24.610 -14.325  -1.218  1.00  0.00     0.000 C 
BRANCH  15  16
HETATM   16  C   UNL     1     -24.097 -15.375  -2.189  1.00  0.00     0.000 C 
BRANCH  16  17
HETATM   17  C   UNL     1     -22.577 -15.403  -2.176  1.00  0.00     0.000 C 
BRANCH  17  18
HETATM   18  C   UNL     1     -22.046 -15.637  -3.582  1.00  0.00     0.000 C 
BRANCH  18  19
HETATM   19  C   UNL     1     -22.288 -14.407  -4.445  1.00  0.00     0.000 C 
BRANCH  19  20
HETATM   20  C   UNL     1     -21.236 -14.318  -5.539  1.00  0.00     0.000 C 
BRANCH  20  21
HETATM   21  C   UNL     1     -21.765 -13.518  -6.722  1.00  0.00     0.000 C 
BRANCH  21  22
HETATM   22  C   UNL     1     -20.634 -13.187  -7.688  1.00  0.00    -0.000 C 
BRANCH  22  23
HETATM   23  C   UNL     1     -19.278 -13.323  -7.006  1.00  0.00    -0.005 C 
HETATM   24  C   UNL     1     -18.163 -13.399  -8.032  1.00  0.00     0.005 C 
ENDBRANCH  22  23
ENDBRANCH  21  22
ENDBRANCH  20  21
ENDBRANCH  19  20
ENDBRANCH  18  19
ENDBRANCH  17  18
ENDBRANCH  16  17
ENDBRANCH  15  16
ENDBRANCH  14  15
ENDBRANCH  13  14
ENDBRANCH  12  13
ENDBRANCH  11  12
ENDBRANCH  10  11
ENDBRANCH   9  10
ENDBRANCH   8   9
ENDBRANCH   6   8
ENDBRANCH   5   6
ENDBRANCH   4   5
BRANCH   4  25
HETATM   25  C   UNL     1     -21.134  -5.756  -6.100  1.00  0.00     0.032 C 
BRANCH  25  26
HETATM   26  C   UNL     1     -19.938  -4.998  -6.646  1.00  0.00     0.002 C 
BRANCH  26  27
HETATM   27  C   UNL     1     -20.349  -3.871  -7.576  1.00  0.00     0.000 C 
BRANCH  27  28
HETATM   28  C   UNL     1     -20.176  -4.365  -9.007  1.00  0.00    -0.000 C 
BRANCH  28  29
HETATM   29  C   UNL     1     -21.506  -4.411  -9.737  1.00  0.00    -0.005 C 
HETATM   30  C   UNL     1     -22.565  -3.669  -8.944  1.00  0.00     0.005 C 
ENDBRANCH  28  29
ENDBRANCH  27  28
ENDBRANCH  26  27
ENDBRANCH  25  26
ENDBRANCH   4  25
ENDBRANCH   3   4
ENDBRANCH   2   3
ENDBRANCH   1   2
BRANCH   1  31
HETATM   31  C   UNL     1     -22.534  -7.436  -0.523  1.00  0.00     0.000 C 
BRANCH  31  32
HETATM   32  C   UNL     1     -21.250  -8.169  -0.169  1.00  0.00     0.000 C 
BRANCH  32  33
HETATM   33  C   UNL     1     -21.205  -8.484   1.324  1.00  0.00     0.000 C 
BRANCH  33  34
HETATM   34  C   UNL     1     -20.418  -9.764   1.570  1.00  0.00     0.000 C 
BRANCH  34  35
HETATM   35  C   UNL     1     -20.277 -10.588   0.290  1.00  0.00     0.000 C 
BRANCH  35  36
HETATM   36  C   UNL     1     -20.359 -12.074   0.629  1.00  0.00     0.010 C 
BRANCH  36  37
HETATM   37  C   UNL     1     -19.901 -12.971  -0.516  1.00  0.00     0.111 C 
BRANCH  37  38
HETATM   38  C   UNL     1     -19.902 -14.416  -0.053  1.00  0.00     0.258 C 
HETATM   39  O   UNL     1     -20.490 -14.812   0.923  1.00  0.00    -0.265 OA
BRANCH  38  40
HETATM   40  O   UNL     1     -19.046 -15.145  -0.836  1.00  0.00    -0.321 OA
BRANCH  40  41
HETATM   41  C   UNL     1     -18.848 -14.609  -2.153  1.00  0.00     0.183 C 
BRANCH  41  42
HETATM   42  C   UNL     1     -17.539 -15.071  -2.807  1.00  0.00     0.010 C 
BRANCH  42  43
HETATM   43  C   UNL     1     -16.874 -13.947  -3.622  1.00  0.00     0.007 C 
BRANCH  43  44
HETATM   44  C   UNL     1     -17.288 -12.559  -3.161  1.00  0.00     0.000 C 
BRANCH  44  45
HETATM   45  C   UNL     1     -16.187 -11.887  -2.363  1.00  0.00     0.000 C 
BRANCH  45  46
HETATM   46  C   UNL     1     -16.719 -11.595  -0.970  1.00  0.00     0.000 C 
BRANCH  46  47
HETATM   47  C   UNL     1     -15.749 -12.092   0.083  1.00  0.00     0.000 C 
BRANCH  47  48
HETATM   48  C   UNL     1     -16.502 -12.431   1.360  1.00  0.00    -0.000 C 
BRANCH  48  49
HETATM   49  C   UNL     1     -15.859 -13.625   2.049  1.00  0.00    -0.005 C 
HETATM   50  C   UNL     1     -16.765 -14.838   1.974  1.00  0.00     0.005 C 
ENDBRANCH  48  49
ENDBRANCH  47  48
ENDBRANCH  46  47
ENDBRANCH  45  46
ENDBRANCH  44  45
ENDBRANCH  43  44
ENDBRANCH  42  43
BRANCH  42  51
HETATM   51  C   UNL     1     -16.583 -15.585  -1.717  1.00  0.00     0.007 C 
BRANCH  51  52
HETATM   52  C   UNL     1     -15.127 -15.594  -2.161  1.00  0.00     0.000 C 
BRANCH  52  53
HETATM   53  C   UNL     1     -14.195 -15.219  -1.023  1.00  0.00     0.000 C 
BRANCH  53  54
HETATM   54  C   UNL     1     -13.124 -14.263  -1.535  1.00  0.00     0.000 C 
BRANCH  54  55
HETATM   55  C   UNL     1     -13.020 -14.348  -3.048  1.00  0.00     0.000 C 
BRANCH  55  56
HETATM   56  C   UNL     1     -12.999 -12.955  -3.660  1.00  0.00     0.000 C 
BRANCH  56  57
HETATM   57  C   UNL     1     -13.690 -12.962  -5.017  1.00  0.00     0.000 C 
BRANCH  57  58
HETATM   58  C   UNL     1     -14.189 -11.566  -5.369  1.00  0.00    -0.000 C 
BRANCH  58  59
HETATM   59  C   UNL     1     -15.423 -11.637  -6.262  1.00  0.00    -0.005 C 
HETATM   60  C   UNL     1     -16.316 -10.430  -6.044  1.00  0.00     0.005 C 
ENDBRANCH  58  59
ENDBRANCH  57  58
ENDBRANCH  56  57
ENDBRANCH  55  56
ENDBRANCH  54  55
ENDBRANCH  53  54
ENDBRANCH  52  53
ENDBRANCH  51  52
ENDBRANCH  42  51
ENDBRANCH  41  42
ENDBRANCH  40  41
ENDBRANCH  38  40
ENDBRANCH  37  38
ENDBRANCH  36  37
ENDBRANCH  35  36
ENDBRANCH  34  35
ENDBRANCH  33  34
ENDBRANCH  32  33
ENDBRANCH  31  32
ENDBRANCH   1  31
TORSDOF 53
BEGIN_RES ARG D 557
REMARK  4 active torsions:
REMARK  status: ('A' for Active; 'I' for Inactive)
REMARK    1  A    between atoms: CA   and  CB  
REMARK    2  A    between atoms: CB   and  CG  
REMARK    3  A    between atoms: CG   and  CD  
REMARK    4  A    between atoms: CD   and  NE  
REMARK       I    between atoms: NE   and  CZ  
REMARK       I    between atoms: CZ   and  NH1 
REMARK       I    between atoms: CZ   and  NH2 
ROOT
ATOM      1  CA  ARG D 557     -26.217   2.705 -17.014  1.00 35.49     0.159 C 
ENDROOT
BRANCH   1   2
ATOM      2  CB  ARG D 557     -26.789   1.319 -17.183  1.00 35.49     0.034 C 
BRANCH   2   3
ATOM      3  CG  ARG D 557     -25.837   0.202 -17.142  1.00 35.49     0.027 C 
BRANCH   3   4
ATOM      4  CD  ARG D 557     -24.747   0.425 -16.165  1.00 35.49     0.116 C 
BRANCH   4   5
ATOM      5  NE  ARG D 557     -24.852  -0.447 -15.026  1.00 35.49    -0.212 N 
ATOM      6  CZ  ARG D 557     -24.009  -1.405 -14.712  1.00 35.49     0.666 C 
ATOM      7  NH1 ARG D 557     -22.946  -1.684 -15.445  1.00 35.49    -0.235 N 
ATOM      8  NH2 ARG D 557     -24.249  -2.085 -13.629  1.00 35.49    -0.235 N 
ATOM      9  HH  ARG D 557     -22.768  -1.247 -16.160  1.00 35.49     0.174 HD
ATOM     10  HH  ARG D 557     -22.430  -2.318 -15.189  1.00 35.49     0.174 HD
ATOM     11  HH  ARG D 557     -24.938  -1.878 -13.171  1.00 35.49     0.174 HD
ATOM     12  HH  ARG D 557     -23.725  -2.708 -13.391  1.00 35.49     0.174 HD
ATOM     13  HE  ARG D 557     -25.546  -0.386 -14.538  1.00 35.49     0.178 HD
ENDBRANCH   4   5
ENDBRANCH   3   4
ENDBRANCH   2   3
ENDBRANCH   1   2
END_RES ARG D 557
BEGIN_RES GLU D 570
REMARK  3 active torsions:
REMARK  status: ('A' for Active; 'I' for Inactive)
REMARK    5  A    between atoms: CA   and  CB  
REMARK    6  A    between atoms: CB   and  CG  
REMARK    7  A    between atoms: CG   and  CD  
ROOT
ATOM     14  CA  GLU D 570     -18.033  -6.348 -13.375  1.00 32.92     0.160 C 
ENDROOT
BRANCH  14  15
ATOM     15  CB  GLU D 570     -19.500  -6.345 -13.794  1.00 32.92     0.043 C 
BRANCH  15  16
ATOM     16  CG  GLU D 570     -20.433  -5.493 -13.013  1.00 32.92     0.100 C 
BRANCH  16  17
ATOM     17  CD  GLU D 570     -21.695  -5.152 -13.771  1.00 32.92     0.185 C 
ATOM     18  OE1 GLU D 570     -22.799  -5.334 -13.222  1.00 32.92    -0.647 OA
ATOM     19  OE2 GLU D 570     -21.579  -4.715 -14.932  1.00 32.92    -0.647 OA
ENDBRANCH  16  17
ENDBRANCH  15  16
ENDBRANCH  14  15
END_RES GLU D 570
ENDMDL
MODEL 6
REMARK VINA RESULT:      -5.2      1.892      4.119
REMARK WARNING: 32 MAX_TORS EXCEEDED!!!
REMARK  53 active torsions:
REMARK  status: ('A' for Active; 'I' for Inactive)
REMARK    1  A    between atoms: C_2  and  C_3 
REMARK    2  A    between atoms: C_3  and  C_4 
REMARK    3  A    between atoms: C_4  and  C_5 
REMARK    4  A    between atoms: C_5  and  C_6 
REMARK    5  A    between atoms: C_6  and  C_7 
REMARK    6  A    between atoms: C_7  and  C_8 
REMARK    7  A    between atoms: C_8  and  C_9 
REMARK    8  A    between atoms: C_9  and  C_10 
REMARK    9  A    between atoms: C_10  and  C_11 
REMARK   10  A    between atoms: C_11  and  C_12 
REMARK   11  A    between atoms: C_12  and  C_13 
REMARK   12  A    between atoms: C_13  and  C_14 
REMARK   13  A    between atoms: C_14  and  C_15 
REMARK   14  A    between atoms: C_15  and  C_16 
REMARK   15  A    between atoms: C_16  and  C_17 
REMARK   16  A    between atoms: C_17  and  C_18 
REMARK   17  A    between atoms: C_18  and  O_20 
REMARK   18  A    between atoms: O_20  and  C_21 
REMARK   19  A    between atoms: C_21  and  C_22 
REMARK   20  A    between atoms: C_21  and  C_28 
REMARK   21  A    between atoms: C_22  and  C_23 
REMARK   22  A    between atoms: C_23  and  C_24 
REMARK   23  A    between atoms: C_24  and  C_25 
REMARK   24  A    between atoms: C_25  and  C_26 
REMARK   25  A    between atoms: C_28  and  C_29 
REMARK   26  A    between atoms: C_29  and  C_30 
REMARK   27  A    between atoms: C_30  and  C_31 
REMARK   28  A    between atoms: C_31  and  C_32 
REMARK   29  A    between atoms: C_32  and  C_33 
REMARK   30  A    between atoms: C_33  and  C_34 
REMARK   31  A    between atoms: C_34  and  C_35 
REMARK   32  A    between atoms: C_35  and  C_36 
REMARK   33  A    between atoms: C_36  and  C_37 
REMARK   34  A    between atoms: C_37  and  C_38 
REMARK   35  A    between atoms: C_38  and  O_40 
REMARK   36  A    between atoms: O_40  and  C_41 
REMARK   37  A    between atoms: C_41  and  C_42 
REMARK   38  A    between atoms: C_42  and  C_43 
REMARK   39  A    between atoms: C_42  and  C_51 
REMARK   40  A    between atoms: C_43  and  C_44 
REMARK   41  A    between atoms: C_44  and  C_45 
REMARK   42  A    between atoms: C_45  and  C_46 
REMARK   43  A    between atoms: C_46  and  C_47 
REMARK   44  A    between atoms: C_47  and  C_48 
REMARK   45  A    between atoms: C_48  and  C_49 
REMARK   46  A    between atoms: C_51  and  C_52 
REMARK   47  A    between atoms: C_52  and  C_53 
REMARK   48  A    between atoms: C_53  and  C_54 
REMARK   49  A    between atoms: C_54  and  C_55 
REMARK   50  A    between atoms: C_55  and  C_56 
REMARK   51  A    between atoms: C_56  and  C_57 
REMARK   52  A    between atoms: C_57  and  C_58 
REMARK   53  A    between atoms: C_58  and  C_59 
ROOT
HETATM    1  C   UNL     1     -21.867  -6.248  -1.552  1.00  0.00     0.000 C 
ENDROOT
BRANCH   1   2
HETATM    2  C   UNL     1     -22.246  -6.384  -3.022  1.00  0.00     0.002 C 
BRANCH   2   3
HETATM    3  C   UNL     1     -21.126  -5.930  -3.956  1.00  0.00     0.032 C 
BRANCH   3   4
HETATM    4  C   UNL     1     -20.775  -7.005  -5.001  1.00  0.00     0.132 C 
BRANCH   4   5
HETATM    5  O   UNL     1     -21.792  -8.032  -4.960  1.00  0.00    -0.316 OA
BRANCH   5   6
HETATM    6  C   UNL     1     -21.344  -9.320  -4.902  1.00  0.00     0.259 C 
HETATM    7  O   UNL     1     -20.754  -9.900  -5.801  1.00  0.00    -0.265 OA
BRANCH   6   8
HETATM    8  C   UNL     1     -21.654  -9.940  -3.559  1.00  0.00     0.111 C 
BRANCH   8   9
HETATM    9  C   UNL     1     -20.380 -10.347  -2.820  1.00  0.00     0.010 C 
BRANCH   9  10
HETATM   10  C   UNL     1     -19.564  -9.132  -2.393  1.00  0.00     0.000 C 
BRANCH  10  11
HETATM   11  C   UNL     1     -18.187  -9.142  -3.049  1.00  0.00     0.000 C 
BRANCH  11  12
HETATM   12  C   UNL     1     -17.470 -10.455  -2.761  1.00  0.00     0.000 C 
BRANCH  12  13
HETATM   13  C   UNL     1     -16.023 -10.201  -2.364  1.00  0.00     0.000 C 
BRANCH  13  14
HETATM   14  C   UNL     1     -15.215 -11.486  -2.472  1.00  0.00     0.000 C 
BRANCH  14  15
HETATM   15  C   UNL     1     -16.120 -12.652  -2.836  1.00  0.00     0.000 C 
BRANCH  15  16
HETATM   16  C   UNL     1     -15.334 -13.953  -2.815  1.00  0.00     0.000 C 
BRANCH  16  17
HETATM   17  C   UNL     1     -13.857 -13.669  -2.593  1.00  0.00     0.000 C 
BRANCH  17  18
HETATM   18  C   UNL     1     -13.036 -14.240  -3.740  1.00  0.00     0.000 C 
BRANCH  18  19
HETATM   19  C   UNL     1     -13.927 -14.491  -4.947  1.00  0.00     0.000 C 
BRANCH  19  20
HETATM   20  C   UNL     1     -13.503 -13.603  -6.106  1.00  0.00     0.000 C 
BRANCH  20  21
HETATM   21  C   UNL     1     -14.134 -12.223  -5.977  1.00  0.00     0.000 C 
BRANCH  21  22
HETATM   22  C   UNL     1     -15.391 -12.131  -6.833  1.00  0.00    -0.000 C 
BRANCH  22  23
HETATM   23  C   UNL     1     -16.438 -11.246  -6.167  1.00  0.00    -0.005 C 
HETATM   24  C   UNL     1     -15.927  -9.825  -6.017  1.00  0.00     0.005 C 
ENDBRANCH  22  23
ENDBRANCH  21  22
ENDBRANCH  20  21
ENDBRANCH  19  20
ENDBRANCH  18  19
ENDBRANCH  17  18
ENDBRANCH  16  17
ENDBRANCH  15  16
ENDBRANCH  14  15
ENDBRANCH  13  14
ENDBRANCH  12  13
ENDBRANCH  11  12
ENDBRANCH  10  11
ENDBRANCH   9  10
ENDBRANCH   8   9
ENDBRANCH   6   8
ENDBRANCH   5   6
ENDBRANCH   4   5
BRANCH   4  25
HETATM   25  C   UNL     1     -20.733  -6.395  -6.413  1.00  0.00     0.032 C 
BRANCH  25  26
HETATM   26  C   UNL     1     -20.334  -4.932  -6.399  1.00  0.00     0.002 C 
BRANCH  26  27
HETATM   27  C   UNL     1     -21.341  -4.054  -7.120  1.00  0.00     0.000 C 
BRANCH  27  28
HETATM   28  C   UNL     1     -21.432  -4.542  -8.561  1.00  0.00    -0.000 C 
BRANCH  28  29
HETATM   29  C   UNL     1     -20.166  -4.215  -9.332  1.00  0.00    -0.005 C 
HETATM   30  C   UNL     1     -20.449  -4.197 -10.822  1.00  0.00     0.005 C 
ENDBRANCH  28  29
ENDBRANCH  27  28
ENDBRANCH  26  27
ENDBRANCH  25  26
ENDBRANCH   4  25
ENDBRANCH   3   4
ENDBRANCH   2   3
ENDBRANCH   1   2
BRANCH   1  31
HETATM   31  C   UNL     1     -22.605  -7.306  -0.733  1.00  0.00     0.000 C 
BRANCH  31  32
HETATM   32  C   UNL     1     -21.712  -7.862   0.365  1.00  0.00     0.000 C 
BRANCH  32  33
HETATM   33  C   UNL     1     -21.871  -9.376   0.472  1.00  0.00     0.000 C 
BRANCH  33  34
HETATM   34  C   UNL     1     -23.158  -9.822  -0.210  1.00  0.00     0.000 C 
BRANCH  34  35
HETATM   35  C   UNL     1     -23.475 -11.285   0.098  1.00  0.00     0.000 C 
BRANCH  35  36
HETATM   36  C   UNL     1     -24.157 -11.923  -1.108  1.00  0.00     0.010 C 
BRANCH  36  37
HETATM   37  C   UNL     1     -23.241 -12.867  -1.880  1.00  0.00     0.111 C 
BRANCH  37  38
HETATM   38  C   UNL     1     -23.178 -14.203  -1.165  1.00  0.00     0.258 C 
HETATM   39  O   UNL     1     -24.130 -14.926  -1.001  1.00  0.00    -0.265 OA
BRANCH  38  40
HETATM   40  O   UNL     1     -21.923 -14.383  -0.645  1.00  0.00    -0.321 OA
BRANCH  40  41
HETATM   41  C   UNL     1     -21.072 -15.229  -1.434  1.00  0.00     0.183 C 
BRANCH  41  42
HETATM   42  C   UNL     1     -19.922 -14.472  -2.111  1.00  0.00     0.010 C 
BRANCH  42  43
HETATM   43  C   UNL     1     -20.232 -14.147  -3.583  1.00  0.00     0.007 C 
BRANCH  43  44
HETATM   44  C   UNL     1     -19.108 -13.387  -4.270  1.00  0.00     0.000 C 
BRANCH  44  45
HETATM   45  C   UNL     1     -18.355 -14.273  -5.244  1.00  0.00     0.000 C 
BRANCH  45  46
HETATM   46  C   UNL     1     -19.249 -14.524  -6.447  1.00  0.00     0.000 C 
BRANCH  46  47
HETATM   47  C   UNL     1     -19.502 -13.232  -7.197  1.00  0.00     0.000 C 
BRANCH  47  48
HETATM   48  C   UNL     1     -18.863 -13.300  -8.574  1.00  0.00    -0.000 C 
BRANCH  48  49
HETATM   49  C   UNL     1     -17.961 -14.521  -8.677  1.00  0.00    -0.005 C 
HETATM   50  C   UNL     1     -18.172 -15.233  -9.998  1.00  0.00     0.005 C 
ENDBRANCH  48  49
ENDBRANCH  47  48
ENDBRANCH  46  47
ENDBRANCH  45  46
ENDBRANCH  44  45
ENDBRANCH  43  44
ENDBRANCH  42  43
BRANCH  42  51
HETATM   51  C   UNL     1     -19.633 -13.183  -1.323  1.00  0.00     0.007 C 
BRANCH  51  52
HETATM   52  C   UNL     1     -18.583 -13.375  -0.236  1.00  0.00     0.000 C 
BRANCH  52  53
HETATM   53  C   UNL     1     -18.080 -12.044   0.294  1.00  0.00     0.000 C 
BRANCH  53  54
HETATM   54  C   UNL     1     -16.653 -12.205   0.803  1.00  0.00     0.000 C 
BRANCH  54  55
HETATM   55  C   UNL     1     -16.274 -13.675   0.858  1.00  0.00     0.000 C 
BRANCH  55  56
HETATM   56  C   UNL     1     -15.580 -13.999   2.172  1.00  0.00     0.000 C 
BRANCH  56  57
HETATM   57  C   UNL     1     -14.260 -14.713   1.913  1.00  0.00     0.000 C 
BRANCH  57  58
HETATM   58  C   UNL     1     -13.400 -13.910   0.944  1.00  0.00    -0.000 C 
BRANCH  58  59
HETATM   59  C   UNL     1     -12.049 -14.582   0.730  1.00  0.00    -0.005 C 
HETATM   60  C   UNL     1     -10.915 -13.630   1.061  1.00  0.00     0.005 C 
ENDBRANCH  58  59
ENDBRANCH  57  58
ENDBRANCH  56  57
ENDBRANCH  55  56
ENDBRANCH  54  55
ENDBRANCH  53  54
ENDBRANCH  52  53
ENDBRANCH  51  52
ENDBRANCH  42  51
ENDBRANCH  41  42
ENDBRANCH  40  41
ENDBRANCH  38  40
ENDBRANCH  37  38
ENDBRANCH  36  37
ENDBRANCH  35  36
ENDBRANCH  34  35
ENDBRANCH  33  34
ENDBRANCH  32  33
ENDBRANCH  31  32
ENDBRANCH   1  31
TORSDOF 53
BEGIN_RES ARG D 557
REMARK  4 active torsions:
REMARK  status: ('A' for Active; 'I' for Inactive)
REMARK    1  A    between atoms: CA   and  CB  
REMARK    2  A    between atoms: CB   and  CG  
REMARK    3  A    between atoms: CG   and  CD  
REMARK    4  A    between atoms: CD   and  NE  
REMARK       I    between atoms: NE   and  CZ  
REMARK       I    between atoms: CZ   and  NH1 
REMARK       I    between atoms: CZ   and  NH2 
ROOT
ATOM      1  CA  ARG D 557     -26.217   2.705 -17.014  1.00 35.49     0.159 C 
ENDROOT
BRANCH   1   2
ATOM      2  CB  ARG D 557     -26.789   1.319 -17.183  1.00 35.49     0.034 C 
BRANCH   2   3
ATOM      3  CG  ARG D 557     -28.237   1.225 -17.408  1.00 35.49     0.027 C 
BRANCH   3   4
ATOM      4  CD  ARG D 557     -28.890   0.271 -16.482  1.00 35.49     0.116 C 
BRANCH   4   5
ATOM      5  NE  ARG D 557     -29.255  -0.957 -17.138  1.00 35.49    -0.212 N 
ATOM      6  CZ  ARG D 557     -28.620  -2.103 -17.031  1.00 35.49     0.666 C 
ATOM      7  NH1 ARG D 557     -27.533  -2.245 -16.296  1.00 35.49    -0.235 N 
ATOM      8  NH2 ARG D 557     -29.106  -3.121 -17.680  1.00 35.49    -0.235 N 
ATOM      9  HH  ARG D 557     -27.198  -1.589 -15.858  1.00 35.49     0.174 HD
ATOM     10  HH  ARG D 557     -27.163  -3.017 -16.262  1.00 35.49     0.174 HD
ATOM     11  HH  ARG D 557     -29.813  -3.001 -18.142  1.00 35.49     0.174 HD
ATOM     12  HH  ARG D 557     -28.726  -3.877 -17.633  1.00 35.49     0.174 HD
ATOM     13  HE  ARG D 557     -29.903  -0.938 -17.689  1.00 35.49     0.178 HD
ENDBRANCH   4   5
ENDBRANCH   3   4
ENDBRANCH   2   3
ENDBRANCH   1   2
END_RES ARG D 557
BEGIN_RES GLU D 570
REMARK  3 active torsions:
REMARK  status: ('A' for Active; 'I' for Inactive)
REMARK    5  A    between atoms: CA   and  CB  
REMARK    6  A    between atoms: CB   and  CG  
REMARK    7  A    between atoms: CG   and  CD  
ROOT
ATOM     14  CA  GLU D 570     -18.033  -6.348 -13.375  1.00 32.92     0.160 C 
ENDROOT
BRANCH  14  15
ATOM     15  CB  GLU D 570     -19.500  -6.345 -13.794  1.00 32.92     0.043 C 
BRANCH  15  16
ATOM     16  CG  GLU D 570     -19.813  -5.933 -15.187  1.00 32.92     0.100 C 
BRANCH  16  17
ATOM     17  CD  GLU D 570     -21.296  -5.914 -15.476  1.00 32.92     0.185 C 
ATOM     18  OE1 GLU D 570     -21.846  -4.829 -15.746  1.00 32.92    -0.647 OA
ATOM     19  OE2 GLU D 570     -21.917  -6.993 -15.416  1.00 32.92    -0.647 OA
ENDBRANCH  16  17
ENDBRANCH  15  16
ENDBRANCH  14  15
END_RES GLU D 570
ENDMDL
MODEL 7
REMARK VINA RESULT:      -5.2      3.411     11.041
REMARK WARNING: 32 MAX_TORS EXCEEDED!!!
REMARK  53 active torsions:
REMARK  status: ('A' for Active; 'I' for Inactive)
REMARK    1  A    between atoms: C_2  and  C_3 
REMARK    2  A    between atoms: C_3  and  C_4 
REMARK    3  A    between atoms: C_4  and  C_5 
REMARK    4  A    between atoms: C_5  and  C_6 
REMARK    5  A    between atoms: C_6  and  C_7 
REMARK    6  A    between atoms: C_7  and  C_8 
REMARK    7  A    between atoms: C_8  and  C_9 
REMARK    8  A    between atoms: C_9  and  C_10 
REMARK    9  A    between atoms: C_10  and  C_11 
REMARK   10  A    between atoms: C_11  and  C_12 
REMARK   11  A    between atoms: C_12  and  C_13 
REMARK   12  A    between atoms: C_13  and  C_14 
REMARK   13  A    between atoms: C_14  and  C_15 
REMARK   14  A    between atoms: C_15  and  C_16 
REMARK   15  A    between atoms: C_16  and  C_17 
REMARK   16  A    between atoms: C_17  and  C_18 
REMARK   17  A    between atoms: C_18  and  O_20 
REMARK   18  A    between atoms: O_20  and  C_21 
REMARK   19  A    between atoms: C_21  and  C_22 
REMARK   20  A    between atoms: C_21  and  C_28 
REMARK   21  A    between atoms: C_22  and  C_23 
REMARK   22  A    between atoms: C_23  and  C_24 
REMARK   23  A    between atoms: C_24  and  C_25 
REMARK   24  A    between atoms: C_25  and  C_26 
REMARK   25  A    between atoms: C_28  and  C_29 
REMARK   26  A    between atoms: C_29  and  C_30 
REMARK   27  A    between atoms: C_30  and  C_31 
REMARK   28  A    between atoms: C_31  and  C_32 
REMARK   29  A    between atoms: C_32  and  C_33 
REMARK   30  A    between atoms: C_33  and  C_34 
REMARK   31  A    between atoms: C_34  and  C_35 
REMARK   32  A    between atoms: C_35  and  C_36 
REMARK   33  A    between atoms: C_36  and  C_37 
REMARK   34  A    between atoms: C_37  and  C_38 
REMARK   35  A    between atoms: C_38  and  O_40 
REMARK   36  A    between atoms: O_40  and  C_41 
REMARK   37  A    between atoms: C_41  and  C_42 
REMARK   38  A    between atoms: C_42  and  C_43 
REMARK   39  A    between atoms: C_42  and  C_51 
REMARK   40  A    between atoms: C_43  and  C_44 
REMARK   41  A    between atoms: C_44  and  C_45 
REMARK   42  A    between atoms: C_45  and  C_46 
REMARK   43  A    between atoms: C_46  and  C_47 
REMARK   44  A    between atoms: C_47  and  C_48 
REMARK   45  A    between atoms: C_48  and  C_49 
REMARK   46  A    between atoms: C_51  and  C_52 
REMARK   47  A    between atoms: C_52  and  C_53 
REMARK   48  A    between atoms: C_53  and  C_54 
REMARK   49  A    between atoms: C_54  and  C_55 
REMARK   50  A    between atoms: C_55  and  C_56 
REMARK   51  A    between atoms: C_56  and  C_57 
REMARK   52  A    between atoms: C_57  and  C_58 
REMARK   53  A    between atoms: C_58  and  C_59 
ROOT
HETATM    1  C   UNL     1     -23.367  -4.888  -6.806  1.00  0.00     0.000 C 
ENDROOT
BRANCH   1   2
HETATM    2  C   UNL     1     -22.906  -4.047  -7.990  1.00  0.00     0.002 C 
BRANCH   2   3
HETATM    3  C   UNL     1     -24.013  -3.840  -9.023  1.00  0.00     0.032 C 
BRANCH   3   4
HETATM    4  C   UNL     1     -23.472  -3.878 -10.464  1.00  0.00     0.132 C 
BRANCH   4   5
HETATM    5  O   UNL     1     -24.262  -2.978 -11.274  1.00  0.00    -0.316 OA
BRANCH   5   6
HETATM    6  C   UNL     1     -24.187  -3.164 -12.625  1.00  0.00     0.259 C 
HETATM    7  O   UNL     1     -24.137  -2.270 -13.455  1.00  0.00    -0.265 OA
BRANCH   6   8
HETATM    8  C   UNL     1     -24.154  -4.636 -12.967  1.00  0.00     0.111 C 
BRANCH   8   9
HETATM    9  C   UNL     1     -23.154  -4.930 -14.085  1.00  0.00     0.010 C 
BRANCH   9  10
HETATM   10  C   UNL     1     -23.562  -6.154 -14.897  1.00  0.00     0.000 C 
BRANCH  10  11
HETATM   11  C   UNL     1     -25.003  -6.031 -15.383  1.00  0.00     0.000 C 
BRANCH  11  12
HETATM   12  C   UNL     1     -25.307  -7.099 -16.424  1.00  0.00     0.000 C 
BRANCH  12  13
HETATM   13  C   UNL     1     -24.073  -7.397 -17.264  1.00  0.00     0.000 C 
BRANCH  13  14
HETATM   14  C   UNL     1     -24.139  -6.639 -18.583  1.00  0.00     0.000 C 
BRANCH  14  15
HETATM   15  C   UNL     1     -24.171  -7.611 -19.751  1.00  0.00     0.000 C 
BRANCH  15  16
HETATM   16  C   UNL     1     -25.110  -7.101 -20.832  1.00  0.00     0.000 C 
BRANCH  16  17
HETATM   17  C   UNL     1     -26.551  -7.420 -20.467  1.00  0.00     0.000 C 
BRANCH  17  18
HETATM   18  C   UNL     1     -27.327  -6.134 -20.227  1.00  0.00     0.000 C 
BRANCH  18  19
HETATM   19  C   UNL     1     -27.812  -6.076 -18.786  1.00  0.00     0.000 C 
BRANCH  19  20
HETATM   20  C   UNL     1     -29.233  -5.539 -18.732  1.00  0.00     0.000 C 
BRANCH  20  21
HETATM   21  C   UNL     1     -29.952  -6.062 -17.496  1.00  0.00     0.000 C 
BRANCH  21  22
HETATM   22  C   UNL     1     -29.284  -7.335 -16.990  1.00  0.00    -0.000 C 
BRANCH  22  23
HETATM   23  C   UNL     1     -28.637  -7.105 -15.630  1.00  0.00    -0.005 C 
HETATM   24  C   UNL     1     -29.072  -5.775 -15.043  1.00  0.00     0.005 C 
ENDBRANCH  22  23
ENDBRANCH  21  22
ENDBRANCH  20  21
ENDBRANCH  19  20
ENDBRANCH  18  19
ENDBRANCH  17  18
ENDBRANCH  16  17
ENDBRANCH  15  16
ENDBRANCH  14  15
ENDBRANCH  13  14
ENDBRANCH  12  13
ENDBRANCH  11  12
ENDBRANCH  10  11
ENDBRANCH   9  10
ENDBRANCH   8   9
ENDBRANCH   6   8
ENDBRANCH   5   6
ENDBRANCH   4   5
BRANCH   4  25
HETATM   25  C   UNL     1     -22.001  -3.428 -10.502  1.00  0.00     0.032 C 
BRANCH  25  26
HETATM   26  C   UNL     1     -21.092  -4.477 -11.116  1.00  0.00     0.002 C 
BRANCH  26  27
HETATM   27  C   UNL     1     -19.713  -4.485 -10.482  1.00  0.00     0.000 C 
BRANCH  27  28
HETATM   28  C   UNL     1     -19.858  -5.035  -9.068  1.00  0.00    -0.000 C 
BRANCH  28  29
HETATM   29  C   UNL     1     -19.342  -4.046  -8.038  1.00  0.00    -0.005 C 
HETATM   30  C   UNL     1     -18.967  -4.768  -6.758  1.00  0.00     0.005 C 
ENDBRANCH  28  29
ENDBRANCH  27  28
ENDBRANCH  26  27
ENDBRANCH  25  26
ENDBRANCH   4  25
ENDBRANCH   3   4
ENDBRANCH   2   3
ENDBRANCH   1   2
BRANCH   1  31
HETATM   31  C   UNL     1     -22.153  -5.513  -6.119  1.00  0.00     0.000 C 
BRANCH  31  32
HETATM   32  C   UNL     1     -22.579  -6.613  -5.161  1.00  0.00     0.000 C 
BRANCH  32  33
HETATM   33  C   UNL     1     -21.359  -7.310  -4.566  1.00  0.00     0.000 C 
BRANCH  33  34
HETATM   34  C   UNL     1     -21.059  -6.757  -3.179  1.00  0.00     0.000 C 
BRANCH  34  35
HETATM   35  C   UNL     1     -22.312  -6.174  -2.527  1.00  0.00     0.000 C 
BRANCH  35  36
HETATM   36  C   UNL     1     -22.373  -6.604  -1.064  1.00  0.00     0.010 C 
BRANCH  36  37
HETATM   37  C   UNL     1     -21.388  -7.720  -0.729  1.00  0.00     0.111 C 
BRANCH  37  38
HETATM   38  C   UNL     1     -21.836  -8.422   0.538  1.00  0.00     0.258 C 
HETATM   39  O   UNL     1     -21.304  -8.282   1.612  1.00  0.00    -0.265 OA
BRANCH  38  40
HETATM   40  O   UNL     1     -22.836  -9.310   0.238  1.00  0.00    -0.321 OA
BRANCH  40  41
HETATM   41  C   UNL     1     -22.448 -10.351  -0.671  1.00  0.00     0.183 C 
BRANCH  41  42
HETATM   42  C   UNL     1     -22.652 -11.762  -0.103  1.00  0.00     0.010 C 
BRANCH  42  43
HETATM   43  C   UNL     1     -23.360 -12.691  -1.105  1.00  0.00     0.007 C 
BRANCH  43  44
HETATM   44  C   UNL     1     -23.025 -12.362  -2.552  1.00  0.00     0.000 C 
BRANCH  44  45
HETATM   45  C   UNL     1     -22.302 -13.512  -3.229  1.00  0.00     0.000 C 
BRANCH  45  46
HETATM   46  C   UNL     1     -21.721 -13.002  -4.537  1.00  0.00     0.000 C 
BRANCH  46  47
HETATM   47  C   UNL     1     -22.101 -11.552  -4.756  1.00  0.00     0.000 C 
BRANCH  47  48
HETATM   48  C   UNL     1     -21.052 -10.868  -5.619  1.00  0.00    -0.000 C 
BRANCH  48  49
HETATM   49  C   UNL     1     -20.229 -11.904  -6.368  1.00  0.00    -0.005 C 
HETATM   50  C   UNL     1     -18.752 -11.572  -6.290  1.00  0.00     0.005 C 
ENDBRANCH  48  49
ENDBRANCH  47  48
ENDBRANCH  46  47
ENDBRANCH  45  46
ENDBRANCH  44  45
ENDBRANCH  43  44
ENDBRANCH  42  43
BRANCH  42  51
HETATM   51  C   UNL     1     -21.289 -12.345   0.305  1.00  0.00     0.007 C 
BRANCH  51  52
HETATM   52  C   UNL     1     -20.126 -11.418  -0.023  1.00  0.00     0.000 C 
BRANCH  52  53
HETATM   53  C   UNL     1     -19.131 -12.082  -0.959  1.00  0.00     0.000 C 
BRANCH  53  54
HETATM   54  C   UNL     1     -19.273 -11.489  -2.355  1.00  0.00     0.000 C 
BRANCH  54  55
HETATM   55  C   UNL     1     -19.191  -9.973  -2.297  1.00  0.00     0.000 C 
BRANCH  55  56
HETATM   56  C   UNL     1     -18.273  -9.446  -3.389  1.00  0.00     0.000 C 
BRANCH  56  57
HETATM   57  C   UNL     1     -16.817  -9.544  -2.951  1.00  0.00     0.000 C 
BRANCH  57  58
HETATM   58  C   UNL     1     -15.940 -10.002  -4.111  1.00  0.00    -0.000 C 
BRANCH  58  59
HETATM   59  C   UNL     1     -15.348 -11.379  -3.835  1.00  0.00    -0.005 C 
HETATM   60  C   UNL     1     -15.524 -11.760  -2.377  1.00  0.00     0.005 C 
ENDBRANCH  58  59
ENDBRANCH  57  58
ENDBRANCH  56  57
ENDBRANCH  55  56
ENDBRANCH  54  55
ENDBRANCH  53  54
ENDBRANCH  52  53
ENDBRANCH  51  52
ENDBRANCH  42  51
ENDBRANCH  41  42
ENDBRANCH  40  41
ENDBRANCH  38  40
ENDBRANCH  37  38
ENDBRANCH  36  37
ENDBRANCH  35  36
ENDBRANCH  34  35
ENDBRANCH  33  34
ENDBRANCH  32  33
ENDBRANCH  31  32
ENDBRANCH   1  31
TORSDOF 53
BEGIN_RES ARG D 557
REMARK  4 active torsions:
REMARK  status: ('A' for Active; 'I' for Inactive)
REMARK    1  A    between atoms: CA   and  CB  
REMARK    2  A    between atoms: CB   and  CG  
REMARK    3  A    between atoms: CG   and  CD  
REMARK    4  A    between atoms: CD   and  NE  
REMARK       I    between atoms: NE   and  CZ  
REMARK       I    between atoms: CZ   and  NH1 
REMARK       I    between atoms: CZ   and  NH2 
ROOT
ATOM      1  CA  ARG D 557     -26.217   2.705 -17.014  1.00 35.49     0.159 C 
ENDROOT
BRANCH   1   2
ATOM      2  CB  ARG D 557     -26.789   1.319 -17.183  1.00 35.49     0.034 C 
BRANCH   2   3
ATOM      3  CG  ARG D 557     -28.248   1.191 -17.089  1.00 35.49     0.027 C 
BRANCH   3   4
ATOM      4  CD  ARG D 557     -28.669  -0.162 -16.658  1.00 35.49     0.116 C 
BRANCH   4   5
ATOM      5  NE  ARG D 557     -27.622  -0.859 -15.958  1.00 35.49    -0.212 N 
ATOM      6  CZ  ARG D 557     -27.368  -2.145 -16.040  1.00 35.49     0.666 C 
ATOM      7  NH1 ARG D 557     -28.084  -2.964 -16.789  1.00 35.49    -0.235 N 
ATOM      8  NH2 ARG D 557     -26.364  -2.604 -15.351  1.00 35.49    -0.235 N 
ATOM      9  HH  ARG D 557     -28.748  -2.683 -17.252  1.00 35.49     0.174 HD
ATOM     10  HH  ARG D 557     -27.870  -3.793 -16.805  1.00 35.49     0.174 HD
ATOM     11  HH  ARG D 557     -25.914  -2.051 -14.882  1.00 35.49     0.174 HD
ATOM     12  HH  ARG D 557     -26.167  -3.428 -15.381  1.00 35.49     0.174 HD
ATOM     13  HE  ARG D 557     -27.157  -0.421 -15.397  1.00 35.49     0.178 HD
ENDBRANCH   4   5
ENDBRANCH   3   4
ENDBRANCH   2   3
ENDBRANCH   1   2
END_RES ARG D 557
BEGIN_RES GLU D 570
REMARK  3 active torsions:
REMARK  status: ('A' for Active; 'I' for Inactive)
REMARK    5  A    between atoms: CA   and  CB  
REMARK    6  A    between atoms: CB   and  CG  
REMARK    7  A    between atoms: CG   and  CD  
ROOT
ATOM     14  CA  GLU D 570     -18.033  -6.348 -13.375  1.00 32.92     0.160 C 
ENDROOT
BRANCH  14  15
ATOM     15  CB  GLU D 570     -19.500  -6.345 -13.794  1.00 32.92     0.043 C 
BRANCH  15  16
ATOM     16  CG  GLU D 570     -19.796  -6.296 -15.249  1.00 32.92     0.100 C 
BRANCH  16  17
ATOM     17  CD  GLU D 570     -20.479  -7.546 -15.754  1.00 32.92     0.185 C 
ATOM     18  OE1 GLU D 570     -20.554  -8.539 -15.005  1.00 32.92    -0.647 OA
ATOM     19  OE2 GLU D 570     -20.929  -7.537 -16.917  1.00 32.92    -0.647 OA
ENDBRANCH  16  17
ENDBRANCH  15  16
ENDBRANCH  14  15
END_RES GLU D 570
ENDMDL
MODEL 8
REMARK VINA RESULT:      -5.1      2.971      9.103
REMARK WARNING: 32 MAX_TORS EXCEEDED!!!
REMARK  53 active torsions:
REMARK  status: ('A' for Active; 'I' for Inactive)
REMARK    1  A    between atoms: C_2  and  C_3 
REMARK    2  A    between atoms: C_3  and  C_4 
REMARK    3  A    between atoms: C_4  and  C_5 
REMARK    4  A    between atoms: C_5  and  C_6 
REMARK    5  A    between atoms: C_6  and  C_7 
REMARK    6  A    between atoms: C_7  and  C_8 
REMARK    7  A    between atoms: C_8  and  C_9 
REMARK    8  A    between atoms: C_9  and  C_10 
REMARK    9  A    between atoms: C_10  and  C_11 
REMARK   10  A    between atoms: C_11  and  C_12 
REMARK   11  A    between atoms: C_12  and  C_13 
REMARK   12  A    between atoms: C_13  and  C_14 
REMARK   13  A    between atoms: C_14  and  C_15 
REMARK   14  A    between atoms: C_15  and  C_16 
REMARK   15  A    between atoms: C_16  and  C_17 
REMARK   16  A    between atoms: C_17  and  C_18 
REMARK   17  A    between atoms: C_18  and  O_20 
REMARK   18  A    between atoms: O_20  and  C_21 
REMARK   19  A    between atoms: C_21  and  C_22 
REMARK   20  A    between atoms: C_21  and  C_28 
REMARK   21  A    between atoms: C_22  and  C_23 
REMARK   22  A    between atoms: C_23  and  C_24 
REMARK   23  A    between atoms: C_24  and  C_25 
REMARK   24  A    between atoms: C_25  and  C_26 
REMARK   25  A    between atoms: C_28  and  C_29 
REMARK   26  A    between atoms: C_29  and  C_30 
REMARK   27  A    between atoms: C_30  and  C_31 
REMARK   28  A    between atoms: C_31  and  C_32 
REMARK   29  A    between atoms: C_32  and  C_33 
REMARK   30  A    between atoms: C_33  and  C_34 
REMARK   31  A    between atoms: C_34  and  C_35 
REMARK   32  A    between atoms: C_35  and  C_36 
REMARK   33  A    between atoms: C_36  and  C_37 
REMARK   34  A    between atoms: C_37  and  C_38 
REMARK   35  A    between atoms: C_38  and  O_40 
REMARK   36  A    between atoms: O_40  and  C_41 
REMARK   37  A    between atoms: C_41  and  C_42 
REMARK   38  A    between atoms: C_42  and  C_43 
REMARK   39  A    between atoms: C_42  and  C_51 
REMARK   40  A    between atoms: C_43  and  C_44 
REMARK   41  A    between atoms: C_44  and  C_45 
REMARK   42  A    between atoms: C_45  and  C_46 
REMARK   43  A    between atoms: C_46  and  C_47 
REMARK   44  A    between atoms: C_47  and  C_48 
REMARK   45  A    between atoms: C_48  and  C_49 
REMARK   46  A    between atoms: C_51  and  C_52 
REMARK   47  A    between atoms: C_52  and  C_53 
REMARK   48  A    between atoms: C_53  and  C_54 
REMARK   49  A    between atoms: C_54  and  C_55 
REMARK   50  A    between atoms: C_55  and  C_56 
REMARK   51  A    between atoms: C_56  and  C_57 
REMARK   52  A    between atoms: C_57  and  C_58 
REMARK   53  A    between atoms: C_58  and  C_59 
ROOT
HETATM    1  C   UNL     1     -19.662 -12.307  -7.442  1.00  0.00     0.000 C 
ENDROOT
BRANCH   1   2
HETATM    2  C   UNL     1     -20.541 -12.609  -6.235  1.00  0.00     0.002 C 
BRANCH   2   3
HETATM    3  C   UNL     1     -21.471 -11.447  -5.888  1.00  0.00     0.032 C 
BRANCH   3   4
HETATM    4  C   UNL     1     -21.558 -11.213  -4.369  1.00  0.00     0.132 C 
BRANCH   4   5
HETATM    5  O   UNL     1     -21.964 -12.449  -3.736  1.00  0.00    -0.316 OA
BRANCH   5   6
HETATM    6  C   UNL     1     -22.323 -12.362  -2.422  1.00  0.00     0.259 C 
HETATM    7  O   UNL     1     -21.993 -13.150  -1.550  1.00  0.00    -0.265 OA
BRANCH   6   8
HETATM    8  C   UNL     1     -23.176 -11.139  -2.174  1.00  0.00     0.111 C 
BRANCH   8   9
HETATM    9  C   UNL     1     -23.813 -11.169  -0.785  1.00  0.00     0.010 C 
BRANCH   9  10
HETATM   10  C   UNL     1     -23.562  -9.873  -0.022  1.00  0.00     0.000 C 
BRANCH  10  11
HETATM   11  C   UNL     1     -22.079  -9.708   0.299  1.00  0.00     0.000 C 
BRANCH  11  12
HETATM   12  C   UNL     1     -21.722  -8.232   0.416  1.00  0.00     0.000 C 
BRANCH  12  13
HETATM   13  C   UNL     1     -22.331  -7.439  -0.731  1.00  0.00     0.000 C 
BRANCH  13  14
HETATM   14  C   UNL     1     -21.477  -7.586  -1.983  1.00  0.00     0.000 C 
BRANCH  14  15
HETATM   15  C   UNL     1     -21.782  -6.467  -2.966  1.00  0.00     0.000 C 
BRANCH  15  16
HETATM   16  C   UNL     1     -21.972  -7.033  -4.363  1.00  0.00     0.000 C 
BRANCH  16  17
HETATM   17  C   UNL     1     -21.928  -5.915  -5.392  1.00  0.00     0.000 C 
BRANCH  17  18
HETATM   18  C   UNL     1     -20.524  -5.335  -5.475  1.00  0.00     0.000 C 
BRANCH  18  19
HETATM   19  C   UNL     1     -19.800  -5.890  -6.693  1.00  0.00     0.000 C 
BRANCH  19  20
HETATM   20  C   UNL     1     -19.141  -4.761  -7.470  1.00  0.00     0.000 C 
BRANCH  20  21
HETATM   21  C   UNL     1     -20.196  -3.855  -8.090  1.00  0.00     0.000 C 
BRANCH  21  22
HETATM   22  C   UNL     1     -20.541  -4.326  -9.498  1.00  0.00    -0.000 C 
BRANCH  22  23
HETATM   23  C   UNL     1     -21.874  -3.744  -9.954  1.00  0.00    -0.005 C 
HETATM   24  C   UNL     1     -22.987  -4.765  -9.806  1.00  0.00     0.005 C 
ENDBRANCH  22  23
ENDBRANCH  21  22
ENDBRANCH  20  21
ENDBRANCH  19  20
ENDBRANCH  18  19
ENDBRANCH  17  18
ENDBRANCH  16  17
ENDBRANCH  15  16
ENDBRANCH  14  15
ENDBRANCH  13  14
ENDBRANCH  12  13
ENDBRANCH  11  12
ENDBRANCH  10  11
ENDBRANCH   9  10
ENDBRANCH   8   9
ENDBRANCH   6   8
ENDBRANCH   5   6
ENDBRANCH   4   5
BRANCH   4  25
HETATM   25  C   UNL     1     -20.191 -10.787  -3.806  1.00  0.00     0.032 C 
BRANCH  25  26
HETATM   26  C   UNL     1     -19.614  -9.588  -4.535  1.00  0.00     0.002 C 
BRANCH  26  27
HETATM   27  C   UNL     1     -18.103  -9.515  -4.416  1.00  0.00     0.000 C 
BRANCH  27  28
HETATM   28  C   UNL     1     -17.761  -9.382  -2.937  1.00  0.00    -0.000 C 
BRANCH  28  29
HETATM   29  C   UNL     1     -16.347  -9.857  -2.654  1.00  0.00    -0.005 C 
HETATM   30  C   UNL     1     -15.600 -10.081  -3.955  1.00  0.00     0.005 C 
ENDBRANCH  28  29
ENDBRANCH  27  28
ENDBRANCH  26  27
ENDBRANCH  25  26
ENDBRANCH   4  25
ENDBRANCH   3   4
ENDBRANCH   2   3
ENDBRANCH   1   2
BRANCH   1  31
HETATM   31  C   UNL     1     -18.215 -12.123  -6.987  1.00  0.00     0.000 C 
BRANCH  31  32
HETATM   32  C   UNL     1     -17.455 -13.439  -7.049  1.00  0.00     0.000 C 
BRANCH  32  33
HETATM   33  C   UNL     1     -16.163 -13.352  -6.242  1.00  0.00     0.000 C 
BRANCH  33  34
HETATM   34  C   UNL     1     -15.245 -12.287  -6.827  1.00  0.00     0.000 C 
BRANCH  34  35
HETATM   35  C   UNL     1     -13.829 -12.400  -6.264  1.00  0.00     0.000 C 
BRANCH  35  36
HETATM   36  C   UNL     1     -13.797 -13.467  -5.174  1.00  0.00     0.010 C 
BRANCH  36  37
HETATM   37  C   UNL     1     -13.270 -12.942  -3.842  1.00  0.00     0.111 C 
BRANCH  37  38
HETATM   38  C   UNL     1     -12.769 -14.105  -3.007  1.00  0.00     0.258 C 
HETATM   39  O   UNL     1     -12.549 -15.206  -3.447  1.00  0.00    -0.265 OA
BRANCH  38  40
HETATM   40  O   UNL     1     -12.732 -13.735  -1.688  1.00  0.00    -0.321 OA
BRANCH  40  41
HETATM   41  C   UNL     1     -12.183 -14.730  -0.811  1.00  0.00     0.183 C 
BRANCH  41  42
HETATM   42  C   UNL     1     -11.938 -14.216   0.614  1.00  0.00     0.010 C 
BRANCH  42  43
HETATM   43  C   UNL     1     -13.116 -14.533   1.552  1.00  0.00     0.007 C 
BRANCH  43  44
HETATM   44  C   UNL     1     -14.274 -13.560   1.396  1.00  0.00     0.000 C 
BRANCH  44  45
HETATM   45  C   UNL     1     -15.438 -13.932   2.295  1.00  0.00     0.000 C 
BRANCH  45  46
HETATM   46  C   UNL     1     -16.715 -13.855   1.475  1.00  0.00     0.000 C 
BRANCH  46  47
HETATM   47  C   UNL     1     -16.696 -12.633   0.580  1.00  0.00     0.000 C 
BRANCH  47  48
HETATM   48  C   UNL     1     -16.997 -13.039  -0.854  1.00  0.00    -0.000 C 
BRANCH  48  49
HETATM   49  C   UNL     1     -18.435 -12.690  -1.209  1.00  0.00    -0.005 C 
HETATM   50  C   UNL     1     -18.999 -11.683  -0.227  1.00  0.00     0.005 C 
ENDBRANCH  48  49
ENDBRANCH  47  48
ENDBRANCH  46  47
ENDBRANCH  45  46
ENDBRANCH  44  45
ENDBRANCH  43  44
ENDBRANCH  42  43
BRANCH  42  51
HETATM   51  C   UNL     1     -10.636 -14.830   1.156  1.00  0.00     0.007 C 
BRANCH  51  52
HETATM   52  C   UNL     1      -9.794 -13.834   1.943  1.00  0.00     0.000 C 
BRANCH  52  53
HETATM   53  C   UNL     1      -8.438 -14.414   2.305  1.00  0.00     0.000 C 
BRANCH  53  54
HETATM   54  C   UNL     1      -8.304 -14.488   3.821  1.00  0.00     0.000 C 
BRANCH  54  55
HETATM   55  C   UNL     1      -9.197 -13.452   4.482  1.00  0.00     0.000 C 
BRANCH  55  56
HETATM   56  C   UNL     1      -8.847 -13.309   5.956  1.00  0.00     0.000 C 
BRANCH  56  57
HETATM   57  C   UNL     1      -9.318 -14.531   6.733  1.00  0.00     0.000 C 
BRANCH  57  58
HETATM   58  C   UNL     1     -10.839 -14.619   6.720  1.00  0.00    -0.000 C 
BRANCH  58  59
HETATM   59  C   UNL     1     -11.301 -16.012   6.308  1.00  0.00    -0.005 C 
HETATM   60  C   UNL     1     -11.712 -16.034   4.848  1.00  0.00     0.005 C 
ENDBRANCH  58  59
ENDBRANCH  57  58
ENDBRANCH  56  57
ENDBRANCH  55  56
ENDBRANCH  54  55
ENDBRANCH  53  54
ENDBRANCH  52  53
ENDBRANCH  51  52
ENDBRANCH  42  51
ENDBRANCH  41  42
ENDBRANCH  40  41
ENDBRANCH  38  40
ENDBRANCH  37  38
ENDBRANCH  36  37
ENDBRANCH  35  36
ENDBRANCH  34  35
ENDBRANCH  33  34
ENDBRANCH  32  33
ENDBRANCH  31  32
ENDBRANCH   1  31
TORSDOF 53
BEGIN_RES ARG D 557
REMARK  4 active torsions:
REMARK  status: ('A' for Active; 'I' for Inactive)
REMARK    1  A    between atoms: CA   and  CB  
REMARK    2  A    between atoms: CB   and  CG  
REMARK    3  A    between atoms: CG   and  CD  
REMARK    4  A    between atoms: CD   and  NE  
REMARK       I    between atoms: NE   and  CZ  
REMARK       I    between atoms: CZ   and  NH1 
REMARK       I    between atoms: CZ   and  NH2 
ROOT
ATOM      1  CA  ARG D 557     -26.217   2.705 -17.014  1.00 35.49     0.159 C 
ENDROOT
BRANCH   1   2
ATOM      2  CB  ARG D 557     -26.789   1.319 -17.183  1.00 35.49     0.034 C 
BRANCH   2   3
ATOM      3  CG  ARG D 557     -26.020   0.212 -16.602  1.00 35.49     0.027 C 
BRANCH   3   4
ATOM      4  CD  ARG D 557     -26.883  -0.918 -16.188  1.00 35.49     0.116 C 
BRANCH   4   5
ATOM      5  NE  ARG D 557     -26.297  -1.685 -15.120  1.00 35.49    -0.212 N 
ATOM      6  CZ  ARG D 557     -25.080  -1.539 -14.648  1.00 35.49     0.666 C 
ATOM      7  NH1 ARG D 557     -24.233  -0.650 -15.133  1.00 35.49    -0.235 N 
ATOM      8  NH2 ARG D 557     -24.722  -2.309 -13.661  1.00 35.49    -0.235 N 
ATOM      9  HH  ARG D 557     -24.447  -0.132 -15.781  1.00 35.49     0.174 HD
ATOM     10  HH  ARG D 557     -23.452  -0.598 -14.784  1.00 35.49     0.174 HD
ATOM     11  HH  ARG D 557     -25.293  -2.868 -13.363  1.00 35.49     0.174 HD
ATOM     12  HH  ARG D 557     -23.946  -2.241 -13.328  1.00 35.49     0.174 HD
ATOM     13  HE  ARG D 557     -26.748  -2.330 -14.798  1.00 35.49     0.178 HD
ENDBRANCH   4   5
ENDBRANCH   3   4
ENDBRANCH   2   3
ENDBRANCH   1   2
END_RES ARG D 557
BEGIN_RES GLU D 570
REMARK  3 active torsions:
REMARK  status: ('A' for Active; 'I' for Inactive)
REMARK    5  A    between atoms: CA   and  CB  
REMARK    6  A    between atoms: CB   and  CG  
REMARK    7  A    between atoms: CG   and  CD  
ROOT
ATOM     14  CA  GLU D 570     -18.033  -6.348 -13.375  1.00 32.92     0.160 C 
ENDROOT
BRANCH  14  15
ATOM     15  CB  GLU D 570     -19.500  -6.345 -13.794  1.00 32.92     0.043 C 
BRANCH  15  16
ATOM     16  CG  GLU D 570     -20.426  -5.464 -13.036  1.00 32.92     0.100 C 
BRANCH  16  17
ATOM     17  CD  GLU D 570     -21.713  -5.185 -13.778  1.00 32.92     0.185 C 
ATOM     18  OE1 GLU D 570     -22.585  -4.481 -13.234  1.00 32.92    -0.647 OA
ATOM     19  OE2 GLU D 570     -21.857  -5.690 -14.909  1.00 32.92    -0.647 OA
ENDBRANCH  16  17
ENDBRANCH  15  16
ENDBRANCH  14  15
END_RES GLU D 570
ENDMDL
MODEL 9
REMARK VINA RESULT:      -5.1      2.384      7.529
REMARK WARNING: 32 MAX_TORS EXCEEDED!!!
REMARK  53 active torsions:
REMARK  status: ('A' for Active; 'I' for Inactive)
REMARK    1  A    between atoms: C_2  and  C_3 
REMARK    2  A    between atoms: C_3  and  C_4 
REMARK    3  A    between atoms: C_4  and  C_5 
REMARK    4  A    between atoms: C_5  and  C_6 
REMARK    5  A    between atoms: C_6  and  C_7 
REMARK    6  A    between atoms: C_7  and  C_8 
REMARK    7  A    between atoms: C_8  and  C_9 
REMARK    8  A    between atoms: C_9  and  C_10 
REMARK    9  A    between atoms: C_10  and  C_11 
REMARK   10  A    between atoms: C_11  and  C_12 
REMARK   11  A    between atoms: C_12  and  C_13 
REMARK   12  A    between atoms: C_13  and  C_14 
REMARK   13  A    between atoms: C_14  and  C_15 
REMARK   14  A    between atoms: C_15  and  C_16 
REMARK   15  A    between atoms: C_16  and  C_17 
REMARK   16  A    between atoms: C_17  and  C_18 
REMARK   17  A    between atoms: C_18  and  O_20 
REMARK   18  A    between atoms: O_20  and  C_21 
REMARK   19  A    between atoms: C_21  and  C_22 
REMARK   20  A    between atoms: C_21  and  C_28 
REMARK   21  A    between atoms: C_22  and  C_23 
REMARK   22  A    between atoms: C_23  and  C_24 
REMARK   23  A    between atoms: C_24  and  C_25 
REMARK   24  A    between atoms: C_25  and  C_26 
REMARK   25  A    between atoms: C_28  and  C_29 
REMARK   26  A    between atoms: C_29  and  C_30 
REMARK   27  A    between atoms: C_30  and  C_31 
REMARK   28  A    between atoms: C_31  and  C_32 
REMARK   29  A    between atoms: C_32  and  C_33 
REMARK   30  A    between atoms: C_33  and  C_34 
REMARK   31  A    between atoms: C_34  and  C_35 
REMARK   32  A    between atoms: C_35  and  C_36 
REMARK   33  A    between atoms: C_36  and  C_37 
REMARK   34  A    between atoms: C_37  and  C_38 
REMARK   35  A    between atoms: C_38  and  O_40 
REMARK   36  A    between atoms: O_40  and  C_41 
REMARK   37  A    between atoms: C_41  and  C_42 
REMARK   38  A    between atoms: C_42  and  C_43 
REMARK   39  A    between atoms: C_42  and  C_51 
REMARK   40  A    between atoms: C_43  and  C_44 
REMARK   41  A    between atoms: C_44  and  C_45 
REMARK   42  A    between atoms: C_45  and  C_46 
REMARK   43  A    between atoms: C_46  and  C_47 
REMARK   44  A    between atoms: C_47  and  C_48 
REMARK   45  A    between atoms: C_48  and  C_49 
REMARK   46  A    between atoms: C_51  and  C_52 
REMARK   47  A    between atoms: C_52  and  C_53 
REMARK   48  A    between atoms: C_53  and  C_54 
REMARK   49  A    between atoms: C_54  and  C_55 
REMARK   50  A    between atoms: C_55  and  C_56 
REMARK   51  A    between atoms: C_56  and  C_57 
REMARK   52  A    between atoms: C_57  and  C_58 
REMARK   53  A    between atoms: C_58  and  C_59 
ROOT
HETATM    1  C   UNL     1     -22.693 -11.091  -3.289  1.00  0.00     0.000 C 
ENDROOT
BRANCH   1   2
HETATM    2  C   UNL     1     -22.467 -11.829  -4.603  1.00  0.00     0.002 C 
BRANCH   2   3
HETATM    3  C   UNL     1     -21.644 -13.103  -4.420  1.00  0.00     0.032 C 
BRANCH   3   4
HETATM    4  C   UNL     1     -20.361 -13.088  -5.272  1.00  0.00     0.132 C 
BRANCH   4   5
HETATM    5  O   UNL     1     -19.937 -14.453  -5.487  1.00  0.00    -0.316 OA
BRANCH   5   6
HETATM    6  C   UNL     1     -18.954 -14.915  -4.660  1.00  0.00     0.259 C 
HETATM    7  O   UNL     1     -18.854 -16.064  -4.260  1.00  0.00    -0.265 OA
BRANCH   6   8
HETATM    8  C   UNL     1     -17.979 -13.813  -4.313  1.00  0.00     0.111 C 
BRANCH   8   9
HETATM    9  C   UNL     1     -16.954 -14.275  -3.277  1.00  0.00     0.010 C 
BRANCH   9  10
HETATM   10  C   UNL     1     -15.583 -13.655  -3.526  1.00  0.00     0.000 C 
BRANCH  10  11
HETATM   11  C   UNL     1     -14.963 -13.162  -2.223  1.00  0.00     0.000 C 
BRANCH  11  12
HETATM   12  C   UNL     1     -15.574 -11.830  -1.813  1.00  0.00     0.000 C 
BRANCH  12  13
HETATM   13  C   UNL     1     -15.890 -11.819  -0.324  1.00  0.00     0.000 C 
BRANCH  13  14
HETATM   14  C   UNL     1     -17.394 -11.883  -0.105  1.00  0.00     0.000 C 
BRANCH  14  15
HETATM   15  C   UNL     1     -18.131 -11.356  -1.325  1.00  0.00     0.000 C 
BRANCH  15  16
HETATM   16  C   UNL     1     -19.475 -12.049  -1.467  1.00  0.00     0.000 C 
BRANCH  16  17
HETATM   17  C   UNL     1     -19.626 -13.122  -0.400  1.00  0.00     0.000 C 
BRANCH  17  18
HETATM   18  C   UNL     1     -20.292 -14.357  -0.991  1.00  0.00     0.000 C 
BRANCH  18  19
HETATM   19  C   UNL     1     -19.414 -15.580  -0.771  1.00  0.00     0.000 C 
BRANCH  19  20
HETATM   20  C   UNL     1     -18.366 -15.289   0.292  1.00  0.00     0.000 C 
BRANCH  20  21
HETATM   21  C   UNL     1     -16.989 -15.729  -0.185  1.00  0.00     0.000 C 
BRANCH  21  22
HETATM   22  C   UNL     1     -15.996 -15.715   0.971  1.00  0.00    -0.000 C 
BRANCH  22  23
HETATM   23  C   UNL     1     -16.634 -15.136   2.228  1.00  0.00    -0.005 C 
HETATM   24  C   UNL     1     -15.919 -13.869   2.662  1.00  0.00     0.005 C 
ENDBRANCH  22  23
ENDBRANCH  21  22
ENDBRANCH  20  21
ENDBRANCH  19  20
ENDBRANCH  18  19
ENDBRANCH  17  18
ENDBRANCH  16  17
ENDBRANCH  15  16
ENDBRANCH  14  15
ENDBRANCH  13  14
ENDBRANCH  12  13
ENDBRANCH  11  12
ENDBRANCH  10  11
ENDBRANCH   9  10
ENDBRANCH   8   9
ENDBRANCH   6   8
ENDBRANCH   5   6
ENDBRANCH   4   5
BRANCH   4  25
HETATM   25  C   UNL     1     -20.624 -12.423  -6.634  1.00  0.00     0.032 C 
BRANCH  25  26
HETATM   26  C   UNL     1     -19.350 -12.224  -7.435  1.00  0.00     0.002 C 
BRANCH  26  27
HETATM   27  C   UNL     1     -19.355 -13.018  -8.729  1.00  0.00     0.000 C 
BRANCH  27  28
HETATM   28  C   UNL     1     -17.927 -13.482  -8.992  1.00  0.00    -0.000 C 
BRANCH  28  29
HETATM   29  C   UNL     1     -17.518 -14.576  -8.023  1.00  0.00    -0.005 C 
HETATM   30  C   UNL     1     -18.305 -15.843  -8.299  1.00  0.00     0.005 C 
ENDBRANCH  28  29
ENDBRANCH  27  28
ENDBRANCH  26  27
ENDBRANCH  25  26
ENDBRANCH   4  25
ENDBRANCH   3   4
ENDBRANCH   2   3
ENDBRANCH   1   2
BRANCH   1  31
HETATM   31  C   UNL     1     -23.058 -12.093  -2.195  1.00  0.00     0.000 C 
BRANCH  31  32
HETATM   32  C   UNL     1     -24.192 -11.564  -1.332  1.00  0.00     0.000 C 
BRANCH  32  33
HETATM   33  C   UNL     1     -23.676 -11.160   0.046  1.00  0.00     0.000 C 
BRANCH  33  34
HETATM   34  C   UNL     1     -23.122  -9.742   0.008  1.00  0.00     0.000 C 
BRANCH  34  35
HETATM   35  C   UNL     1     -21.620  -9.721   0.288  1.00  0.00     0.000 C 
BRANCH  35  36
HETATM   36  C   UNL     1     -21.060  -8.338  -0.036  1.00  0.00     0.010 C 
BRANCH  36  37
HETATM   37  C   UNL     1     -21.153  -7.990  -1.518  1.00  0.00     0.111 C 
BRANCH  37  38
HETATM   38  C   UNL     1     -21.914  -6.688  -1.681  1.00  0.00     0.258 C 
HETATM   39  O   UNL     1     -22.916  -6.410  -1.070  1.00  0.00    -0.265 OA
BRANCH  38  40
HETATM   40  O   UNL     1     -21.357  -5.959  -2.700  1.00  0.00    -0.321 OA
BRANCH  40  41
HETATM   41  C   UNL     1     -21.548  -6.527  -4.005  1.00  0.00     0.183 C 
BRANCH  41  42
HETATM   42  C   UNL     1     -20.287  -6.479  -4.879  1.00  0.00     0.010 C 
BRANCH  42  43
HETATM   43  C   UNL     1     -20.164  -7.720  -5.781  1.00  0.00     0.007 C 
BRANCH  43  44
HETATM   44  C   UNL     1     -20.181  -9.023  -4.998  1.00  0.00     0.000 C 
BRANCH  44  45
HETATM   45  C   UNL     1     -18.979  -9.134  -4.078  1.00  0.00     0.000 C 
BRANCH  45  46
HETATM   46  C   UNL     1     -17.944 -10.018  -4.755  1.00  0.00     0.000 C 
BRANCH  46  47
HETATM   47  C   UNL     1     -16.556  -9.696  -4.240  1.00  0.00     0.000 C 
BRANCH  47  48
HETATM   48  C   UNL     1     -15.514 -10.143  -5.252  1.00  0.00    -0.000 C 
BRANCH  48  49
HETATM   49  C   UNL     1     -16.113 -11.160  -6.212  1.00  0.00    -0.005 C 
HETATM   50  C   UNL     1     -15.027 -12.013  -6.835  1.00  0.00     0.005 C 
ENDBRANCH  48  49
ENDBRANCH  47  48
ENDBRANCH  46  47
ENDBRANCH  45  46
ENDBRANCH  44  45
ENDBRANCH  43  44
ENDBRANCH  42  43
BRANCH  42  51
HETATM   51  C   UNL     1     -20.308  -5.195  -5.726  1.00  0.00     0.007 C 
BRANCH  51  52
HETATM   52  C   UNL     1     -20.013  -5.452  -7.198  1.00  0.00     0.000 C 
BRANCH  52  53
HETATM   53  C   UNL     1     -20.824  -4.535  -8.097  1.00  0.00     0.000 C 
BRANCH  53  54
HETATM   54  C   UNL     1     -22.259  -4.465  -7.591  1.00  0.00     0.000 C 
BRANCH  54  55
HETATM   55  C   UNL     1     -23.203  -4.110  -8.727  1.00  0.00     0.000 C 
BRANCH  55  56
HETATM   56  C   UNL     1     -22.504  -4.262 -10.069  1.00  0.00     0.000 C 
BRANCH  56  57
HETATM   57  C   UNL     1     -22.969  -3.180 -11.035  1.00  0.00     0.000 C 
BRANCH  57  58
HETATM   58  C   UNL     1     -22.834  -3.657 -12.476  1.00  0.00    -0.000 C 
BRANCH  58  59
HETATM   59  C   UNL     1     -23.593  -2.738 -13.427  1.00  0.00    -0.005 C 
HETATM   60  C   UNL     1     -22.870  -2.621 -14.755  1.00  0.00     0.005 C 
ENDBRANCH  58  59
ENDBRANCH  57  58
ENDBRANCH  56  57
ENDBRANCH  55  56
ENDBRANCH  54  55
ENDBRANCH  53  54
ENDBRANCH  52  53
ENDBRANCH  51  52
ENDBRANCH  42  51
ENDBRANCH  41  42
ENDBRANCH  40  41
ENDBRANCH  38  40
ENDBRANCH  37  38
ENDBRANCH  36  37
ENDBRANCH  35  36
ENDBRANCH  34  35
ENDBRANCH  33  34
ENDBRANCH  32  33
ENDBRANCH  31  32
ENDBRANCH   1  31
TORSDOF 53
BEGIN_RES ARG D 557
REMARK  4 active torsions:
REMARK  status: ('A' for Active; 'I' for Inactive)
REMARK    1  A    between atoms: CA   and  CB  
REMARK    2  A    between atoms: CB   and  CG  
REMARK    3  A    between atoms: CG   and  CD  
REMARK    4  A    between atoms: CD   and  NE  
REMARK       I    between atoms: NE   and  CZ  
REMARK       I    between atoms: CZ   and  NH1 
REMARK       I    between atoms: CZ   and  NH2 
ROOT
ATOM      1  CA  ARG D 557     -26.217   2.705 -17.014  1.00 35.49     0.159 C 
ENDROOT
BRANCH   1   2
ATOM      2  CB  ARG D 557     -26.789   1.319 -17.183  1.00 35.49     0.034 C 
BRANCH   2   3
ATOM      3  CG  ARG D 557     -28.150   1.100 -16.678  1.00 35.49     0.027 C 
BRANCH   3   4
ATOM      4  CD  ARG D 557     -28.792  -0.089 -17.284  1.00 35.49     0.116 C 
BRANCH   4   5
ATOM      5  NE  ARG D 557     -28.184  -1.317 -16.845  1.00 35.49    -0.212 N 
ATOM      6  CZ  ARG D 557     -28.661  -2.525 -17.045  1.00 35.49     0.666 C 
ATOM      7  NH1 ARG D 557     -29.797  -2.743 -17.681  1.00 35.49    -0.235 N 
ATOM      8  NH2 ARG D 557     -27.964  -3.528 -16.594  1.00 35.49    -0.235 N 
ATOM      9  HH  ARG D 557     -30.270  -2.098 -17.988  1.00 35.49     0.174 HD
ATOM     10  HH  ARG D 557     -30.057  -3.552 -17.784  1.00 35.49     0.174 HD
ATOM     11  HH  ARG D 557     -27.231  -3.358 -16.194  1.00 35.49     0.174 HD
ATOM     12  HH  ARG D 557     -28.238  -4.322 -16.708  1.00 35.49     0.174 HD
ATOM     13  HE  ARG D 557     -27.485  -1.266 -16.363  1.00 35.49     0.178 HD
ENDBRANCH   4   5
ENDBRANCH   3   4
ENDBRANCH   2   3
ENDBRANCH   1   2
END_RES ARG D 557
BEGIN_RES GLU D 570
REMARK  3 active torsions:
REMARK  status: ('A' for Active; 'I' for Inactive)
REMARK    5  A    between atoms: CA   and  CB  
REMARK    6  A    between atoms: CB   and  CG  
REMARK    7  A    between atoms: CG   and  CD  
ROOT
ATOM     14  CA  GLU D 570     -18.033  -6.348 -13.375  1.00 32.92     0.160 C 
ENDROOT
BRANCH  14  15
ATOM     15  CB  GLU D 570     -19.500  -6.345 -13.794  1.00 32.92     0.043 C 
BRANCH  15  16
ATOM     16  CG  GLU D 570     -19.797  -6.266 -15.248  1.00 32.92     0.100 C 
BRANCH  16  17
ATOM     17  CD  GLU D 570     -20.650  -7.412 -15.739  1.00 32.92     0.185 C 
ATOM     18  OE1 GLU D 570     -20.491  -8.542 -15.237  1.00 32.92    -0.647 OA
ATOM     19  OE2 GLU D 570     -21.473  -7.182 -16.646  1.00 32.92    -0.647 OA
ENDBRANCH  16  17
ENDBRANCH  15  16
ENDBRANCH  14  15
END_RES GLU D 570
ENDMDL
