MODEL 1
REMARK VINA RESULT:      -7.0      0.000      0.000
REMARK  12 active torsions:
REMARK  status: ('A' for Active; 'I' for Inactive)
REMARK    1  A    between atoms: C_2  and  C_3 
REMARK    2  A    between atoms: C_3  and  C_4 
REMARK    3  A    between atoms: C_4  and  C_5 
REMARK    4  A    between atoms: C_5  and  C_6 
REMARK    5  A    between atoms: C_5  and  C_8 
REMARK    6  A    between atoms: C_8  and  O_9 
REMARK    7  A    between atoms: O_9  and  C_10 
REMARK    8  A    between atoms: C_10  and  C_12 
REMARK    9  A    between atoms: C_12  and  C_26 
REMARK   10  A    between atoms: C_13  and  C_14 
REMARK   11  A    between atoms: C_13  and  C_20 
REMARK   12  A    between atoms: C_26  and  N_27 
ROOT
HETATM    1  C   UNL     1     -22.245 -12.378  -1.864  1.00  0.00     0.113 C 
HETATM    2  C   UNL     1     -22.219 -12.016  -0.548  1.00  0.00     0.010 C 
ENDROOT
BRANCH   1   3
HETATM    3  C   UNL     1     -22.208 -11.375  -2.976  1.00  0.00     0.303 C 
HETATM    4  O   UNL     1     -23.190 -10.954  -3.574  1.00  0.00    -0.258 OA
BRANCH   3   5
HETATM    5  O   UNL     1     -20.931 -11.038  -3.329  1.00  0.00    -0.317 OA
BRANCH   5   6
HETATM    6  C   UNL     1     -20.774  -9.815  -4.091  1.00  0.00     0.183 C 
BRANCH   6   7
HETATM    7  C   UNL     1     -20.131  -8.623  -3.338  1.00  0.00     0.010 C 
BRANCH   7   8
HETATM    8  C   UNL     1     -21.183  -7.772  -2.590  1.00  0.00     0.007 C 
BRANCH   8   9
HETATM    9  C   UNL     1     -21.455  -6.378  -3.183  1.00  0.00     0.000 C 
BRANCH   9  10
HETATM   10  C   UNL     1     -21.429  -6.341  -4.714  1.00  0.00    -0.005 C 
HETATM   11  C   UNL     1     -20.560  -5.202  -5.232  1.00  0.00     0.005 C 
ENDBRANCH   9  10
ENDBRANCH   8   9
ENDBRANCH   7   8
BRANCH   7  12
HETATM   12  C   UNL     1     -18.980  -9.106  -2.416  1.00  0.00     0.002 C 
HETATM   13  C   UNL     1     -17.656  -9.422  -3.105  1.00  0.00     0.005 C 
ENDBRANCH   7  12
ENDBRANCH   6   7
ENDBRANCH   5   6
ENDBRANCH   3   5
ENDBRANCH   1   3
BRANCH   1  14
HETATM   14  C   UNL     1     -22.426 -13.849  -2.198  1.00  0.00    -0.030 C 
BRANCH  14  15
HETATM   15  N   UNL     1     -22.574 -15.071  -2.475  1.00  0.00    -0.365 N 
ATOM     16  HN2 UNL     1     -22.454 -14.100  -2.184  1.00  0.00     0.165 HD
ATOM     17  HN1 UNL     1     -22.693 -16.058  -2.700  1.00  0.00     0.165 HD
ENDBRANCH  14  15
ENDBRANCH   1  14
BRANCH   2  18
HETATM   18  C   UNL     1     -22.366 -13.038   0.536  1.00  0.00    -0.023 A 
HETATM   19  C   UNL     1     -21.267 -13.794   0.970  1.00  0.00     0.012 A 
HETATM   20  C   UNL     1     -21.382 -14.607   2.105  1.00  0.00     0.001 A 
HETATM   21  C   UNL     1     -22.583 -14.667   2.811  1.00  0.00     0.000 A 
HETATM   22  C   UNL     1     -23.682 -13.931   2.376  1.00  0.00     0.001 A 
HETATM   23  C   UNL     1     -23.576 -13.124   1.242  1.00  0.00     0.012 A 
ENDBRANCH   2  18
BRANCH   2  24
HETATM   24  C   UNL     1     -22.130 -10.604  -0.089  1.00  0.00    -0.023 A 
HETATM   25  C   UNL     1     -23.248  -9.764  -0.187  1.00  0.00     0.012 A 
HETATM   26  C   UNL     1     -23.228  -8.495   0.393  1.00  0.00     0.001 A 
HETATM   27  C   UNL     1     -22.092  -8.056   1.071  1.00  0.00     0.000 A 
HETATM   28  C   UNL     1     -20.973  -8.882   1.167  1.00  0.00     0.001 A 
HETATM   29  C   UNL     1     -20.991 -10.155   0.593  1.00  0.00     0.012 A 
ENDBRANCH   2  24
TORSDOF 12
BEGIN_RES ARG D 557
REMARK  4 active torsions:
REMARK  status: ('A' for Active; 'I' for Inactive)
REMARK    1  A    between atoms: CA   and  CB  
REMARK    2  A    between atoms: CB   and  CG  
REMARK    3  A    between atoms: CG   and  CD  
REMARK    4  A    between atoms: CD   and  NE  
REMARK       I    between atoms: NE   and  CZ  
REMARK       I    between atoms: CZ   and  NH1 
REMARK       I    between atoms: CZ   and  NH2 
ROOT
ATOM      1  CA  ARG D 557     -26.217   2.705 -17.014  1.00 35.49     0.159 C 
ENDROOT
BRANCH   1   2
ATOM      2  CB  ARG D 557     -26.789   1.319 -17.183  1.00 35.49     0.034 C 
BRANCH   2   3
ATOM      3  CG  ARG D 557     -25.834   0.204 -17.173  1.00 35.49     0.027 C 
BRANCH   3   4
ATOM      4  CD  ARG D 557     -24.742   0.405 -16.193  1.00 35.49     0.116 C 
BRANCH   4   5
ATOM      5  NE  ARG D 557     -24.890  -0.438 -15.036  1.00 35.49    -0.212 N 
ATOM      6  CZ  ARG D 557     -24.069  -1.398 -14.676  1.00 35.49     0.666 C 
ATOM      7  NH1 ARG D 557     -22.991  -1.709 -15.373  1.00 35.49    -0.235 N 
ATOM      8  NH2 ARG D 557     -24.348  -2.049 -13.583  1.00 35.49    -0.235 N 
ATOM      9  HH  ARG D 557     -22.787  -1.293 -16.093  1.00 35.49     0.174 HD
ATOM     10  HH  ARG D 557     -22.491  -2.343 -15.088  1.00 35.49     0.174 HD
ATOM     11  HH  ARG D 557     -25.046  -1.821 -13.150  1.00 35.49     0.174 HD
ATOM     12  HH  ARG D 557     -23.839  -2.672 -13.317  1.00 35.49     0.174 HD
ATOM     13  HE  ARG D 557     -25.596  -0.355 -14.569  1.00 35.49     0.178 HD
ENDBRANCH   4   5
ENDBRANCH   3   4
ENDBRANCH   2   3
ENDBRANCH   1   2
END_RES ARG D 557
BEGIN_RES GLU D 570
REMARK  3 active torsions:
REMARK  status: ('A' for Active; 'I' for Inactive)
REMARK    5  A    between atoms: CA   and  CB  
REMARK    6  A    between atoms: CB   and  CG  
REMARK    7  A    between atoms: CG   and  CD  
ROOT
ATOM     14  CA  GLU D 570     -18.033  -6.348 -13.375  1.00 32.92     0.160 C 
ENDROOT
BRANCH  14  15
ATOM     15  CB  GLU D 570     -19.500  -6.345 -13.794  1.00 32.92     0.043 C 
BRANCH  15  16
ATOM     16  CG  GLU D 570     -20.440  -5.524 -12.988  1.00 32.92     0.100 C 
BRANCH  16  17
ATOM     17  CD  GLU D 570     -21.739  -5.239 -13.707  1.00 32.92     0.185 C 
ATOM     18  OE1 GLU D 570     -22.288  -4.132 -13.548  1.00 32.92    -0.647 OA
ATOM     19  OE2 GLU D 570     -22.220  -6.139 -14.423  1.00 32.92    -0.647 OA
ENDBRANCH  16  17
ENDBRANCH  15  16
ENDBRANCH  14  15
END_RES GLU D 570
ENDMDL
MODEL 2
REMARK VINA RESULT:      -6.9      1.551      2.024
REMARK  12 active torsions:
REMARK  status: ('A' for Active; 'I' for Inactive)
REMARK    1  A    between atoms: C_2  and  C_3 
REMARK    2  A    between atoms: C_3  and  C_4 
REMARK    3  A    between atoms: C_4  and  C_5 
REMARK    4  A    between atoms: C_5  and  C_6 
REMARK    5  A    between atoms: C_5  and  C_8 
REMARK    6  A    between atoms: C_8  and  O_9 
REMARK    7  A    between atoms: O_9  and  C_10 
REMARK    8  A    between atoms: C_10  and  C_12 
REMARK    9  A    between atoms: C_12  and  C_26 
REMARK   10  A    between atoms: C_13  and  C_14 
REMARK   11  A    between atoms: C_13  and  C_20 
REMARK   12  A    between atoms: C_26  and  N_27 
ROOT
HETATM    1  C   UNL     1     -22.009 -12.033  -1.948  1.00  0.00     0.113 C 
HETATM    2  C   UNL     1     -22.078 -11.754  -0.614  1.00  0.00     0.010 C 
ENDROOT
BRANCH   1   3
HETATM    3  C   UNL     1     -21.947 -10.962  -2.992  1.00  0.00     0.303 C 
HETATM    4  O   UNL     1     -22.786 -10.784  -3.867  1.00  0.00    -0.258 OA
BRANCH   3   5
HETATM    5  O   UNL     1     -20.786 -10.242  -2.930  1.00  0.00    -0.317 OA
BRANCH   5   6
HETATM    6  C   UNL     1     -20.485  -9.402  -4.073  1.00  0.00     0.183 C 
BRANCH   6   7
HETATM    7  C   UNL     1     -20.622  -7.875  -3.848  1.00  0.00     0.010 C 
BRANCH   7   8
HETATM    8  C   UNL     1     -21.509  -7.206  -4.922  1.00  0.00     0.007 C 
BRANCH   8   9
HETATM    9  C   UNL     1     -20.759  -6.594  -6.119  1.00  0.00     0.000 C 
BRANCH   9  10
HETATM   10  C   UNL     1     -20.197  -5.196  -5.848  1.00  0.00    -0.005 C 
HETATM   11  C   UNL     1     -20.869  -4.143  -6.720  1.00  0.00     0.005 C 
ENDBRANCH   9  10
ENDBRANCH   8   9
ENDBRANCH   7   8
BRANCH   7  12
HETATM   12  C   UNL     1     -21.091  -7.568  -2.401  1.00  0.00     0.002 C 
HETATM   13  C   UNL     1     -21.945  -6.317  -2.223  1.00  0.00     0.005 C 
ENDBRANCH   7  12
ENDBRANCH   6   7
ENDBRANCH   5   6
ENDBRANCH   3   5
ENDBRANCH   1   3
BRANCH   1  14
HETATM   14  C   UNL     1     -22.106 -13.487  -2.381  1.00  0.00    -0.030 C 
BRANCH  14  15
HETATM   15  N   UNL     1     -22.188 -14.692  -2.742  1.00  0.00    -0.365 N 
ATOM     16  HN2 UNL     1     -22.077 -13.706  -2.502  1.00  0.00     0.165 HD
ATOM     17  HN1 UNL     1     -22.255 -15.668  -3.033  1.00  0.00     0.165 HD
ENDBRANCH  14  15
ENDBRANCH   1  14
BRANCH   2  18
HETATM   18  C   UNL     1     -22.248 -12.848   0.395  1.00  0.00    -0.023 A 
HETATM   19  C   UNL     1     -21.159 -13.634   0.798  1.00  0.00     0.012 A 
HETATM   20  C   UNL     1     -21.296 -14.521   1.873  1.00  0.00     0.001 A 
HETATM   21  C   UNL     1     -22.511 -14.627   2.548  1.00  0.00     0.000 A 
HETATM   22  C   UNL     1     -23.601 -13.862   2.143  1.00  0.00     0.001 A 
HETATM   23  C   UNL     1     -23.472 -12.979   1.069  1.00  0.00     0.012 A 
ENDBRANCH   2  18
BRANCH   2  24
HETATM   24  C   UNL     1     -22.078 -10.372  -0.065  1.00  0.00    -0.023 A 
HETATM   25  C   UNL     1     -23.238  -9.588  -0.141  1.00  0.00     0.012 A 
HETATM   26  C   UNL     1     -23.301  -8.359   0.518  1.00  0.00     0.001 A 
HETATM   27  C   UNL     1     -22.207  -7.904   1.252  1.00  0.00     0.000 A 
HETATM   28  C   UNL     1     -21.047  -8.674   1.326  1.00  0.00     0.001 A 
HETATM   29  C   UNL     1     -20.982  -9.907   0.673  1.00  0.00     0.012 A 
ENDBRANCH   2  24
TORSDOF 12
BEGIN_RES ARG D 557
REMARK  4 active torsions:
REMARK  status: ('A' for Active; 'I' for Inactive)
REMARK    1  A    between atoms: CA   and  CB  
REMARK    2  A    between atoms: CB   and  CG  
REMARK    3  A    between atoms: CG   and  CD  
REMARK    4  A    between atoms: CD   and  NE  
REMARK       I    between atoms: NE   and  CZ  
REMARK       I    between atoms: CZ   and  NH1 
REMARK       I    between atoms: CZ   and  NH2 
ROOT
ATOM      1  CA  ARG D 557     -26.217   2.705 -17.014  1.00 35.49     0.159 C 
ENDROOT
BRANCH   1   2
ATOM      2  CB  ARG D 557     -26.789   1.319 -17.183  1.00 35.49     0.034 C 
BRANCH   2   3
ATOM      3  CG  ARG D 557     -28.219   1.155 -16.896  1.00 35.49     0.027 C 
BRANCH   3   4
ATOM      4  CD  ARG D 557     -28.606  -0.267 -16.748  1.00 35.49     0.116 C 
BRANCH   4   5
ATOM      5  NE  ARG D 557     -27.605  -1.031 -16.050  1.00 35.49    -0.212 N 
ATOM      6  CZ  ARG D 557     -27.453  -2.335 -16.111  1.00 35.49     0.666 C 
ATOM      7  NH1 ARG D 557     -28.243  -3.107 -16.835  1.00 35.49    -0.235 N 
ATOM      8  NH2 ARG D 557     -26.477  -2.858 -15.429  1.00 35.49    -0.235 N 
ATOM      9  HH  ARG D 557     -28.890  -2.784 -17.294  1.00 35.49     0.174 HD
ATOM     10  HH  ARG D 557     -28.094  -3.951 -16.838  1.00 35.49     0.174 HD
ATOM     11  HH  ARG D 557     -25.979  -2.334 -14.976  1.00 35.49     0.174 HD
ATOM     12  HH  ARG D 557     -26.345  -3.696 -15.446  1.00 35.49     0.174 HD
ATOM     13  HE  ARG D 557     -27.098  -0.621 -15.504  1.00 35.49     0.178 HD
ENDBRANCH   4   5
ENDBRANCH   3   4
ENDBRANCH   2   3
ENDBRANCH   1   2
END_RES ARG D 557
BEGIN_RES GLU D 570
REMARK  3 active torsions:
REMARK  status: ('A' for Active; 'I' for Inactive)
REMARK    5  A    between atoms: CA   and  CB  
REMARK    6  A    between atoms: CB   and  CG  
REMARK    7  A    between atoms: CG   and  CD  
ROOT
ATOM     14  CA  GLU D 570     -18.033  -6.348 -13.375  1.00 32.92     0.160 C 
ENDROOT
BRANCH  14  15
ATOM     15  CB  GLU D 570     -19.500  -6.345 -13.794  1.00 32.92     0.043 C 
BRANCH  15  16
ATOM     16  CG  GLU D 570     -20.444  -5.541 -12.975  1.00 32.92     0.100 C 
BRANCH  16  17
ATOM     17  CD  GLU D 570     -21.706  -5.174 -13.721  1.00 32.92     0.185 C 
ATOM     18  OE1 GLU D 570     -22.776  -5.078 -13.090  1.00 32.92    -0.647 OA
ATOM     19  OE2 GLU D 570     -21.626  -4.997 -14.953  1.00 32.92    -0.647 OA
ENDBRANCH  16  17
ENDBRANCH  15  16
ENDBRANCH  14  15
END_RES GLU D 570
ENDMDL
MODEL 3
REMARK VINA RESULT:      -6.8      1.436      5.279
REMARK  12 active torsions:
REMARK  status: ('A' for Active; 'I' for Inactive)
REMARK    1  A    between atoms: C_2  and  C_3 
REMARK    2  A    between atoms: C_3  and  C_4 
REMARK    3  A    between atoms: C_4  and  C_5 
REMARK    4  A    between atoms: C_5  and  C_6 
REMARK    5  A    between atoms: C_5  and  C_8 
REMARK    6  A    between atoms: C_8  and  O_9 
REMARK    7  A    between atoms: O_9  and  C_10 
REMARK    8  A    between atoms: C_10  and  C_12 
REMARK    9  A    between atoms: C_12  and  C_26 
REMARK   10  A    between atoms: C_13  and  C_14 
REMARK   11  A    between atoms: C_13  and  C_20 
REMARK   12  A    between atoms: C_26  and  N_27 
ROOT
HETATM    1  C   UNL     1     -20.278 -11.296  -3.554  1.00  0.00     0.113 C 
HETATM    2  C   UNL     1     -19.796 -10.039  -3.785  1.00  0.00     0.010 C 
ENDROOT
BRANCH   1   3
HETATM    3  C   UNL     1     -21.673 -11.547  -3.073  1.00  0.00     0.303 C 
HETATM    4  O   UNL     1     -22.682 -11.041  -3.549  1.00  0.00    -0.258 OA
BRANCH   3   5
HETATM    5  O   UNL     1     -21.704 -12.346  -1.963  1.00  0.00    -0.317 OA
BRANCH   5   6
HETATM    6  C   UNL     1     -21.459 -11.693  -0.692  1.00  0.00     0.183 C 
BRANCH   6   7
HETATM    7  C   UNL     1     -22.624 -11.734   0.329  1.00  0.00     0.010 C 
BRANCH   7   8
HETATM    8  C   UNL     1     -23.720 -10.694   0.003  1.00  0.00     0.007 C 
BRANCH   8   9
HETATM    9  C   UNL     1     -23.213  -9.317  -0.461  1.00  0.00     0.000 C 
BRANCH   9  10
HETATM   10  C   UNL     1     -23.088  -8.291   0.669  1.00  0.00    -0.005 C 
HETATM   11  C   UNL     1     -21.661  -8.208   1.194  1.00  0.00     0.005 C 
ENDBRANCH   9  10
ENDBRANCH   8   9
ENDBRANCH   7   8
BRANCH   7  12
HETATM   12  C   UNL     1     -23.183 -13.175   0.473  1.00  0.00     0.002 C 
HETATM   13  C   UNL     1     -23.314 -13.705   1.898  1.00  0.00     0.005 C 
ENDBRANCH   7  12
ENDBRANCH   6   7
ENDBRANCH   5   6
ENDBRANCH   3   5
ENDBRANCH   1   3
BRANCH   1  14
HETATM   14  C   UNL     1     -19.319 -12.467  -3.694  1.00  0.00    -0.030 C 
BRANCH  14  15
HETATM   15  N   UNL     1     -18.523 -13.438  -3.811  1.00  0.00    -0.365 N 
ATOM     16  HN2 UNL     1     -19.200 -12.675  -3.772  1.00  0.00     0.165 HD
ATOM     17  HN1 UNL     1     -17.880 -14.224  -3.905  1.00  0.00     0.165 HD
ENDBRANCH  14  15
ENDBRANCH   1  14
BRANCH   2  18
HETATM   18  C   UNL     1     -18.363  -9.819  -4.160  1.00  0.00    -0.023 A 
HETATM   19  C   UNL     1     -17.373  -9.678  -3.177  1.00  0.00     0.012 A 
HETATM   20  C   UNL     1     -16.021  -9.660  -3.544  1.00  0.00     0.001 A 
HETATM   21  C   UNL     1     -15.652  -9.785  -4.882  1.00  0.00     0.000 A 
HETATM   22  C   UNL     1     -16.631  -9.910  -5.864  1.00  0.00     0.001 A 
HETATM   23  C   UNL     1     -17.980  -9.922  -5.507  1.00  0.00     0.012 A 
ENDBRANCH   2  18
BRANCH   2  24
HETATM   24  C   UNL     1     -20.606  -8.806  -3.603  1.00  0.00    -0.023 A 
HETATM   25  C   UNL     1     -20.573  -8.119  -2.381  1.00  0.00     0.012 A 
HETATM   26  C   UNL     1     -21.193  -6.875  -2.256  1.00  0.00     0.001 A 
HETATM   27  C   UNL     1     -21.852  -6.311  -3.347  1.00  0.00     0.000 A 
HETATM   28  C   UNL     1     -21.896  -6.991  -4.564  1.00  0.00     0.001 A 
HETATM   29  C   UNL     1     -21.272  -8.234  -4.695  1.00  0.00     0.012 A 
ENDBRANCH   2  24
TORSDOF 12
BEGIN_RES ARG D 557
REMARK  4 active torsions:
REMARK  status: ('A' for Active; 'I' for Inactive)
REMARK    1  A    between atoms: CA   and  CB  
REMARK    2  A    between atoms: CB   and  CG  
REMARK    3  A    between atoms: CG   and  CD  
REMARK    4  A    between atoms: CD   and  NE  
REMARK       I    between atoms: NE   and  CZ  
REMARK       I    between atoms: CZ   and  NH1 
REMARK       I    between atoms: CZ   and  NH2 
ROOT
ATOM      1  CA  ARG D 557     -26.217   2.705 -17.014  1.00 35.49     0.159 C 
ENDROOT
BRANCH   1   2
ATOM      2  CB  ARG D 557     -26.789   1.319 -17.183  1.00 35.49     0.034 C 
BRANCH   2   3
ATOM      3  CG  ARG D 557     -25.835   0.203 -17.160  1.00 35.49     0.027 C 
BRANCH   3   4
ATOM      4  CD  ARG D 557     -24.755   0.405 -16.167  1.00 35.49     0.116 C 
BRANCH   4   5
ATOM      5  NE  ARG D 557     -24.913  -0.443 -15.015  1.00 35.49    -0.212 N 
ATOM      6  CZ  ARG D 557     -24.106  -1.420 -14.664  1.00 35.49     0.666 C 
ATOM      7  NH1 ARG D 557     -23.036  -1.743 -15.367  1.00 35.49    -0.235 N 
ATOM      8  NH2 ARG D 557     -24.392  -2.072 -13.575  1.00 35.49    -0.235 N 
ATOM      9  HH  ARG D 557     -22.828  -1.326 -16.086  1.00 35.49     0.174 HD
ATOM     10  HH  ARG D 557     -22.545  -2.388 -15.088  1.00 35.49     0.174 HD
ATOM     11  HH  ARG D 557     -25.085  -1.836 -13.137  1.00 35.49     0.174 HD
ATOM     12  HH  ARG D 557     -23.892  -2.706 -13.314  1.00 35.49     0.174 HD
ATOM     13  HE  ARG D 557     -25.615  -0.352 -14.545  1.00 35.49     0.178 HD
ENDBRANCH   4   5
ENDBRANCH   3   4
ENDBRANCH   2   3
ENDBRANCH   1   2
END_RES ARG D 557
BEGIN_RES GLU D 570
REMARK  3 active torsions:
REMARK  status: ('A' for Active; 'I' for Inactive)
REMARK    5  A    between atoms: CA   and  CB  
REMARK    6  A    between atoms: CB   and  CG  
REMARK    7  A    between atoms: CG   and  CD  
ROOT
ATOM     14  CA  GLU D 570     -18.033  -6.348 -13.375  1.00 32.92     0.160 C 
ENDROOT
BRANCH  14  15
ATOM     15  CB  GLU D 570     -19.500  -6.345 -13.794  1.00 32.92     0.043 C 
BRANCH  15  16
ATOM     16  CG  GLU D 570     -20.441  -5.527 -12.986  1.00 32.92     0.100 C 
BRANCH  16  17
ATOM     17  CD  GLU D 570     -21.721  -5.203 -13.721  1.00 32.92     0.185 C 
ATOM     18  OE1 GLU D 570     -22.319  -4.143 -13.456  1.00 32.92    -0.647 OA
ATOM     19  OE2 GLU D 570     -22.138  -6.026 -14.559  1.00 32.92    -0.647 OA
ENDBRANCH  16  17
ENDBRANCH  15  16
ENDBRANCH  14  15
END_RES GLU D 570
ENDMDL
MODEL 4
REMARK VINA RESULT:      -6.8      1.533      5.496
REMARK  12 active torsions:
REMARK  status: ('A' for Active; 'I' for Inactive)
REMARK    1  A    between atoms: C_2  and  C_3 
REMARK    2  A    between atoms: C_3  and  C_4 
REMARK    3  A    between atoms: C_4  and  C_5 
REMARK    4  A    between atoms: C_5  and  C_6 
REMARK    5  A    between atoms: C_5  and  C_8 
REMARK    6  A    between atoms: C_8  and  O_9 
REMARK    7  A    between atoms: O_9  and  C_10 
REMARK    8  A    between atoms: C_10  and  C_12 
REMARK    9  A    between atoms: C_12  and  C_26 
REMARK   10  A    between atoms: C_13  and  C_14 
REMARK   11  A    between atoms: C_13  and  C_20 
REMARK   12  A    between atoms: C_26  and  N_27 
ROOT
HETATM    1  C   UNL     1     -20.495 -11.066  -3.165  1.00  0.00     0.113 C 
HETATM    2  C   UNL     1     -19.779  -9.963  -3.532  1.00  0.00     0.010 C 
ENDROOT
BRANCH   1   3
HETATM    3  C   UNL     1     -19.859 -12.406  -2.957  1.00  0.00     0.303 C 
HETATM    4  O   UNL     1     -19.269 -13.045  -3.820  1.00  0.00    -0.258 OA
BRANCH   3   5
HETATM    5  O   UNL     1     -20.086 -12.901  -1.702  1.00  0.00    -0.317 OA
BRANCH   5   6
HETATM    6  C   UNL     1     -19.469 -12.184  -0.604  1.00  0.00     0.183 C 
BRANCH   6   7
HETATM    7  C   UNL     1     -20.440 -11.495   0.389  1.00  0.00     0.010 C 
BRANCH   7   8
HETATM    8  C   UNL     1     -20.517  -9.969   0.162  1.00  0.00     0.007 C 
BRANCH   8   9
HETATM    9  C   UNL     1     -20.968  -9.137   1.376  1.00  0.00     0.000 C 
BRANCH   9  10
HETATM   10  C   UNL     1     -21.955  -8.019   1.028  1.00  0.00    -0.005 C 
HETATM   11  C   UNL     1     -23.099  -8.531   0.163  1.00  0.00     0.005 C 
ENDBRANCH   9  10
ENDBRANCH   8   9
ENDBRANCH   7   8
BRANCH   7  12
HETATM   12  C   UNL     1     -21.832 -12.180   0.366  1.00  0.00     0.002 C 
HETATM   13  C   UNL     1     -22.065 -13.262   1.417  1.00  0.00     0.005 C 
ENDBRANCH   7  12
ENDBRANCH   6   7
ENDBRANCH   5   6
ENDBRANCH   3   5
ENDBRANCH   1   3
BRANCH   1  14
HETATM   14  C   UNL     1     -22.006 -10.940  -3.069  1.00  0.00    -0.030 C 
BRANCH  14  15
HETATM   15  N   UNL     1     -23.260 -10.837  -2.989  1.00  0.00    -0.365 N 
ATOM     16  HN2 UNL     1     -22.251 -10.983  -3.025  1.00  0.00     0.165 HD
ATOM     17  HN1 UNL     1     -24.275 -10.753  -2.925  1.00  0.00     0.165 HD
ENDBRANCH  14  15
ENDBRANCH   1  14
BRANCH   2  18
HETATM   18  C   UNL     1     -20.464  -8.666  -3.836  1.00  0.00    -0.023 A 
HETATM   19  C   UNL     1     -20.956  -8.394  -5.121  1.00  0.00     0.012 A 
HETATM   20  C   UNL     1     -21.753  -7.263  -5.339  1.00  0.00     0.001 A 
HETATM   21  C   UNL     1     -22.064  -6.405  -4.284  1.00  0.00     0.000 A 
HETATM   22  C   UNL     1     -21.564  -6.662  -3.010  1.00  0.00     0.001 A 
HETATM   23  C   UNL     1     -20.765  -7.784  -2.787  1.00  0.00     0.012 A 
ENDBRANCH   2  18
BRANCH   2  24
HETATM   24  C   UNL     1     -18.307  -9.974  -3.741  1.00  0.00    -0.023 A 
HETATM   25  C   UNL     1     -17.784 -10.126  -5.034  1.00  0.00     0.012 A 
HETATM   26  C   UNL     1     -16.417  -9.969  -5.262  1.00  0.00     0.001 A 
HETATM   27  C   UNL     1     -15.563  -9.663  -4.204  1.00  0.00     0.000 A 
HETATM   28  C   UNL     1     -16.074  -9.517  -2.914  1.00  0.00     0.001 A 
HETATM   29  C   UNL     1     -17.443  -9.668  -2.682  1.00  0.00     0.012 A 
ENDBRANCH   2  24
TORSDOF 12
BEGIN_RES ARG D 557
REMARK  4 active torsions:
REMARK  status: ('A' for Active; 'I' for Inactive)
REMARK    1  A    between atoms: CA   and  CB  
REMARK    2  A    between atoms: CB   and  CG  
REMARK    3  A    between atoms: CG   and  CD  
REMARK    4  A    between atoms: CD   and  NE  
REMARK       I    between atoms: NE   and  CZ  
REMARK       I    between atoms: CZ   and  NH1 
REMARK       I    between atoms: CZ   and  NH2 
ROOT
ATOM      1  CA  ARG D 557     -26.217   2.705 -17.014  1.00 35.49     0.159 C 
ENDROOT
BRANCH   1   2
ATOM      2  CB  ARG D 557     -26.789   1.319 -17.183  1.00 35.49     0.034 C 
BRANCH   2   3
ATOM      3  CG  ARG D 557     -25.834   0.204 -17.167  1.00 35.49     0.027 C 
BRANCH   3   4
ATOM      4  CD  ARG D 557     -24.747   0.406 -16.182  1.00 35.49     0.116 C 
BRANCH   4   5
ATOM      5  NE  ARG D 557     -24.900  -0.435 -15.025  1.00 35.49    -0.212 N 
ATOM      6  CZ  ARG D 557     -24.093  -1.410 -14.671  1.00 35.49     0.666 C 
ATOM      7  NH1 ARG D 557     -23.026  -1.738 -15.376  1.00 35.49    -0.235 N 
ATOM      8  NH2 ARG D 557     -24.374  -2.055 -13.577  1.00 35.49    -0.235 N 
ATOM      9  HH  ARG D 557     -22.820  -1.325 -16.098  1.00 35.49     0.174 HD
ATOM     10  HH  ARG D 557     -22.534  -2.381 -15.095  1.00 35.49     0.174 HD
ATOM     11  HH  ARG D 557     -25.065  -1.816 -13.138  1.00 35.49     0.174 HD
ATOM     12  HH  ARG D 557     -23.874  -2.688 -13.314  1.00 35.49     0.174 HD
ATOM     13  HE  ARG D 557     -25.601  -0.340 -14.552  1.00 35.49     0.178 HD
ENDBRANCH   4   5
ENDBRANCH   3   4
ENDBRANCH   2   3
ENDBRANCH   1   2
END_RES ARG D 557
BEGIN_RES GLU D 570
REMARK  3 active torsions:
REMARK  status: ('A' for Active; 'I' for Inactive)
REMARK    5  A    between atoms: CA   and  CB  
REMARK    6  A    between atoms: CB   and  CG  
REMARK    7  A    between atoms: CG   and  CD  
ROOT
ATOM     14  CA  GLU D 570     -18.033  -6.348 -13.375  1.00 32.92     0.160 C 
ENDROOT
BRANCH  14  15
ATOM     15  CB  GLU D 570     -19.500  -6.345 -13.794  1.00 32.92     0.043 C 
BRANCH  15  16
ATOM     16  CG  GLU D 570     -20.441  -5.526 -12.987  1.00 32.92     0.100 C 
BRANCH  16  17
ATOM     17  CD  GLU D 570     -21.744  -5.251 -13.700  1.00 32.92     0.185 C 
ATOM     18  OE1 GLU D 570     -22.205  -6.113 -14.472  1.00 32.92    -0.647 OA
ATOM     19  OE2 GLU D 570     -22.301  -4.154 -13.497  1.00 32.92    -0.647 OA
ENDBRANCH  16  17
ENDBRANCH  15  16
ENDBRANCH  14  15
END_RES GLU D 570
ENDMDL
MODEL 5
REMARK VINA RESULT:      -6.5      1.886      5.412
REMARK  12 active torsions:
REMARK  status: ('A' for Active; 'I' for Inactive)
REMARK    1  A    between atoms: C_2  and  C_3 
REMARK    2  A    between atoms: C_3  and  C_4 
REMARK    3  A    between atoms: C_4  and  C_5 
REMARK    4  A    between atoms: C_5  and  C_6 
REMARK    5  A    between atoms: C_5  and  C_8 
REMARK    6  A    between atoms: C_8  and  O_9 
REMARK    7  A    between atoms: O_9  and  C_10 
REMARK    8  A    between atoms: C_10  and  C_12 
REMARK    9  A    between atoms: C_12  and  C_26 
REMARK   10  A    between atoms: C_13  and  C_14 
REMARK   11  A    between atoms: C_13  and  C_20 
REMARK   12  A    between atoms: C_26  and  N_27 
ROOT
HETATM    1  C   UNL     1     -20.406 -11.254  -3.710  1.00  0.00     0.113 C 
HETATM    2  C   UNL     1     -19.884 -10.001  -3.854  1.00  0.00     0.010 C 
ENDROOT
BRANCH   1   3
HETATM    3  C   UNL     1     -21.854 -11.494  -3.411  1.00  0.00     0.303 C 
HETATM    4  O   UNL     1     -22.763 -11.412  -4.227  1.00  0.00    -0.258 OA
BRANCH   3   5
HETATM    5  O   UNL     1     -22.078 -11.729  -2.082  1.00  0.00    -0.317 OA
BRANCH   5   6
HETATM    6  C   UNL     1     -22.814 -10.709  -1.362  1.00  0.00     0.183 C 
BRANCH   6   7
HETATM    7  C   UNL     1     -22.426 -10.513   0.125  1.00  0.00     0.010 C 
BRANCH   7   8
HETATM    8  C   UNL     1     -21.336 -11.510   0.578  1.00  0.00     0.007 C 
BRANCH   8   9
HETATM    9  C   UNL     1     -19.884 -11.027   0.416  1.00  0.00     0.000 C 
BRANCH   9  10
HETATM   10  C   UNL     1     -18.929 -12.104  -0.108  1.00  0.00    -0.005 C 
HETATM   11  C   UNL     1     -19.609 -13.464  -0.189  1.00  0.00     0.005 C 
ENDBRANCH   9  10
ENDBRANCH   8   9
ENDBRANCH   7   8
BRANCH   7  12
HETATM   12  C   UNL     1     -22.047  -9.035   0.408  1.00  0.00     0.002 C 
HETATM   13  C   UNL     1     -23.208  -8.049   0.499  1.00  0.00     0.005 C 
ENDBRANCH   7  12
ENDBRANCH   6   7
ENDBRANCH   5   6
ENDBRANCH   3   5
ENDBRANCH   1   3
BRANCH   1  14
HETATM   14  C   UNL     1     -19.452 -12.436  -3.754  1.00  0.00    -0.030 C 
BRANCH  14  15
HETATM   15  N   UNL     1     -18.662 -13.418  -3.790  1.00  0.00    -0.365 N 
ATOM     16  HN2 UNL     1     -19.318 -12.638  -3.826  1.00  0.00     0.165 HD
ATOM     17  HN1 UNL     1     -18.022 -14.213  -3.818  1.00  0.00     0.165 HD
ENDBRANCH  14  15
ENDBRANCH   1  14
BRANCH   2  18
HETATM   18  C   UNL     1     -18.413  -9.795  -4.045  1.00  0.00    -0.023 A 
HETATM   19  C   UNL     1     -17.550  -9.693  -2.944  1.00  0.00     0.012 A 
HETATM   20  C   UNL     1     -16.163  -9.689  -3.141  1.00  0.00     0.001 A 
HETATM   21  C   UNL     1     -15.634  -9.788  -4.427  1.00  0.00     0.000 A 
HETATM   22  C   UNL     1     -16.486  -9.873  -5.525  1.00  0.00     0.001 A 
HETATM   23  C   UNL     1     -17.869  -9.872  -5.336  1.00  0.00     0.012 A 
ENDBRANCH   2  18
BRANCH   2  24
HETATM   24  C   UNL     1     -20.696  -8.759  -3.749  1.00  0.00    -0.023 A 
HETATM   25  C   UNL     1     -20.683  -8.012  -2.562  1.00  0.00     0.012 A 
HETATM   26  C   UNL     1     -21.303  -6.763  -2.511  1.00  0.00     0.001 A 
HETATM   27  C   UNL     1     -21.941  -6.253  -3.640  1.00  0.00     0.000 A 
HETATM   28  C   UNL     1     -21.965  -6.993  -4.822  1.00  0.00     0.001 A 
HETATM   29  C   UNL     1     -21.341  -8.242  -4.880  1.00  0.00     0.012 A 
ENDBRANCH   2  24
TORSDOF 12
BEGIN_RES ARG D 557
REMARK  4 active torsions:
REMARK  status: ('A' for Active; 'I' for Inactive)
REMARK    1  A    between atoms: CA   and  CB  
REMARK    2  A    between atoms: CB   and  CG  
REMARK    3  A    between atoms: CG   and  CD  
REMARK    4  A    between atoms: CD   and  NE  
REMARK       I    between atoms: NE   and  CZ  
REMARK       I    between atoms: CZ   and  NH1 
REMARK       I    between atoms: CZ   and  NH2 
ROOT
ATOM      1  CA  ARG D 557     -26.217   2.705 -17.014  1.00 35.49     0.159 C 
ENDROOT
BRANCH   1   2
ATOM      2  CB  ARG D 557     -26.789   1.319 -17.183  1.00 35.49     0.034 C 
BRANCH   2   3
ATOM      3  CG  ARG D 557     -25.926   0.196 -16.795  1.00 35.49     0.027 C 
BRANCH   3   4
ATOM      4  CD  ARG D 557     -26.675  -0.879 -16.107  1.00 35.49     0.116 C 
BRANCH   4   5
ATOM      5  NE  ARG D 557     -25.889  -1.521 -15.086  1.00 35.49    -0.212 N 
ATOM      6  CZ  ARG D 557     -25.928  -2.797 -14.775  1.00 35.49     0.666 C 
ATOM      7  NH1 ARG D 557     -26.734  -3.650 -15.380  1.00 35.49    -0.235 N 
ATOM      8  NH2 ARG D 557     -25.127  -3.210 -13.836  1.00 35.49    -0.235 N 
ATOM      9  HH  ARG D 557     -27.267  -3.400 -16.002  1.00 35.49     0.174 HD
ATOM     10  HH  ARG D 557     -26.714  -4.471 -15.136  1.00 35.49     0.174 HD
ATOM     11  HH  ARG D 557     -24.613  -2.638 -13.468  1.00 35.49     0.174 HD
ATOM     12  HH  ARG D 557     -25.121  -4.028 -13.610  1.00 35.49     0.174 HD
ATOM     13  HE  ARG D 557     -25.394  -1.032 -14.597  1.00 35.49     0.178 HD
ENDBRANCH   4   5
ENDBRANCH   3   4
ENDBRANCH   2   3
ENDBRANCH   1   2
END_RES ARG D 557
BEGIN_RES GLU D 570
REMARK  3 active torsions:
REMARK  status: ('A' for Active; 'I' for Inactive)
REMARK    5  A    between atoms: CA   and  CB  
REMARK    6  A    between atoms: CB   and  CG  
REMARK    7  A    between atoms: CG   and  CD  
ROOT
ATOM     14  CA  GLU D 570     -18.033  -6.348 -13.375  1.00 32.92     0.160 C 
ENDROOT
BRANCH  14  15
ATOM     15  CB  GLU D 570     -19.500  -6.345 -13.794  1.00 32.92     0.043 C 
BRANCH  15  16
ATOM     16  CG  GLU D 570     -20.440  -5.524 -12.989  1.00 32.92     0.100 C 
BRANCH  16  17
ATOM     17  CD  GLU D 570     -21.739  -5.240 -13.707  1.00 32.92     0.185 C 
ATOM     18  OE1 GLU D 570     -22.191  -6.090 -14.498  1.00 32.92    -0.647 OA
ATOM     19  OE2 GLU D 570     -22.302  -4.149 -13.489  1.00 32.92    -0.647 OA
ENDBRANCH  16  17
ENDBRANCH  15  16
ENDBRANCH  14  15
END_RES GLU D 570
ENDMDL
MODEL 6
REMARK VINA RESULT:      -6.5      2.200      5.955
REMARK  12 active torsions:
REMARK  status: ('A' for Active; 'I' for Inactive)
REMARK    1  A    between atoms: C_2  and  C_3 
REMARK    2  A    between atoms: C_3  and  C_4 
REMARK    3  A    between atoms: C_4  and  C_5 
REMARK    4  A    between atoms: C_5  and  C_6 
REMARK    5  A    between atoms: C_5  and  C_8 
REMARK    6  A    between atoms: C_8  and  O_9 
REMARK    7  A    between atoms: O_9  and  C_10 
REMARK    8  A    between atoms: C_10  and  C_12 
REMARK    9  A    between atoms: C_12  and  C_26 
REMARK   10  A    between atoms: C_13  and  C_14 
REMARK   11  A    between atoms: C_13  and  C_20 
REMARK   12  A    between atoms: C_26  and  N_27 
ROOT
HETATM    1  C   UNL     1     -20.323 -11.245  -3.844  1.00  0.00     0.113 C 
HETATM    2  C   UNL     1     -19.817  -9.988  -4.004  1.00  0.00     0.010 C 
ENDROOT
BRANCH   1   3
HETATM    3  C   UNL     1     -21.752 -11.497  -3.474  1.00  0.00     0.303 C 
HETATM    4  O   UNL     1     -22.701 -11.422  -4.245  1.00  0.00    -0.258 OA
BRANCH   3   5
HETATM    5  O   UNL     1     -21.908 -11.734  -2.137  1.00  0.00    -0.317 OA
BRANCH   5   6
HETATM    6  C   UNL     1     -22.680 -10.758  -1.394  1.00  0.00     0.183 C 
BRANCH   6   7
HETATM    7  C   UNL     1     -22.325 -10.610   0.107  1.00  0.00     0.010 C 
BRANCH   7   8
HETATM    8  C   UNL     1     -21.219 -11.597   0.543  1.00  0.00     0.007 C 
BRANCH   8   9
HETATM    9  C   UNL     1     -21.708 -12.978   1.017  1.00  0.00     0.000 C 
BRANCH   9  10
HETATM   10  C   UNL     1     -23.221 -13.056   1.238  1.00  0.00    -0.005 C 
HETATM   11  C   UNL     1     -23.575 -14.039   2.345  1.00  0.00     0.005 C 
ENDBRANCH   9  10
ENDBRANCH   8   9
ENDBRANCH   7   8
BRANCH   7  12
HETATM   12  C   UNL     1     -21.988  -9.135   0.454  1.00  0.00     0.002 C 
HETATM   13  C   UNL     1     -23.163  -8.162   0.461  1.00  0.00     0.005 C 
ENDBRANCH   7  12
ENDBRANCH   6   7
ENDBRANCH   5   6
ENDBRANCH   3   5
ENDBRANCH   1   3
BRANCH   1  14
HETATM   14  C   UNL     1     -19.364 -12.421  -3.944  1.00  0.00    -0.030 C 
BRANCH  14  15
HETATM   15  N   UNL     1     -18.570 -13.396  -4.029  1.00  0.00    -0.365 N 
ATOM     16  HN2 UNL     1     -19.262 -12.648  -3.985  1.00  0.00     0.165 HD
ATOM     17  HN1 UNL     1     -17.926 -14.184  -4.097  1.00  0.00     0.165 HD
ENDBRANCH  14  15
ENDBRANCH   1  14
BRANCH   2  18
HETATM   18  C   UNL     1     -18.359  -9.770  -4.267  1.00  0.00    -0.023 A 
HETATM   19  C   UNL     1     -17.441  -9.679  -3.211  1.00  0.00     0.012 A 
HETATM   20  C   UNL     1     -16.066  -9.663  -3.478  1.00  0.00     0.001 A 
HETATM   21  C   UNL     1     -15.602  -9.741  -4.791  1.00  0.00     0.000 A 
HETATM   22  C   UNL     1     -16.509  -9.816  -5.845  1.00  0.00     0.001 A 
HETATM   23  C   UNL     1     -17.881  -9.826  -5.585  1.00  0.00     0.012 A 
ENDBRANCH   2  18
BRANCH   2  24
HETATM   24  C   UNL     1     -20.630  -8.752  -3.850  1.00  0.00    -0.023 A 
HETATM   25  C   UNL     1     -20.619  -8.053  -2.634  1.00  0.00     0.012 A 
HETATM   26  C   UNL     1     -21.240  -6.808  -2.533  1.00  0.00     0.001 A 
HETATM   27  C   UNL     1     -21.879  -6.254  -3.641  1.00  0.00     0.000 A 
HETATM   28  C   UNL     1     -21.901  -6.946  -4.852  1.00  0.00     0.001 A 
HETATM   29  C   UNL     1     -21.275  -8.190  -4.959  1.00  0.00     0.012 A 
ENDBRANCH   2  24
TORSDOF 12
BEGIN_RES ARG D 557
REMARK  4 active torsions:
REMARK  status: ('A' for Active; 'I' for Inactive)
REMARK    1  A    between atoms: CA   and  CB  
REMARK    2  A    between atoms: CB   and  CG  
REMARK    3  A    between atoms: CG   and  CD  
REMARK    4  A    between atoms: CD   and  NE  
REMARK       I    between atoms: NE   and  CZ  
REMARK       I    between atoms: CZ   and  NH1 
REMARK       I    between atoms: CZ   and  NH2 
ROOT
ATOM      1  CA  ARG D 557     -26.217   2.705 -17.014  1.00 35.49     0.159 C 
ENDROOT
BRANCH   1   2
ATOM      2  CB  ARG D 557     -26.789   1.319 -17.183  1.00 35.49     0.034 C 
BRANCH   2   3
ATOM      3  CG  ARG D 557     -28.231   1.227 -17.444  1.00 35.49     0.027 C 
BRANCH   3   4
ATOM      4  CD  ARG D 557     -28.916   0.306 -16.508  1.00 35.49     0.116 C 
BRANCH   4   5
ATOM      5  NE  ARG D 557     -29.291  -0.931 -17.141  1.00 35.49    -0.212 N 
ATOM      6  CZ  ARG D 557     -28.655  -2.075 -17.029  1.00 35.49     0.666 C 
ATOM      7  NH1 ARG D 557     -27.557  -2.208 -16.308  1.00 35.49    -0.235 N 
ATOM      8  NH2 ARG D 557     -29.151  -3.102 -17.657  1.00 35.49    -0.235 N 
ATOM      9  HH  ARG D 557     -27.214  -1.547 -15.885  1.00 35.49     0.174 HD
ATOM     10  HH  ARG D 557     -27.186  -2.980 -16.270  1.00 35.49     0.174 HD
ATOM     11  HH  ARG D 557     -29.865  -2.988 -18.108  1.00 35.49     0.174 HD
ATOM     12  HH  ARG D 557     -28.770  -3.857 -17.605  1.00 35.49     0.174 HD
ATOM     13  HE  ARG D 557     -29.947  -0.919 -17.682  1.00 35.49     0.178 HD
ENDBRANCH   4   5
ENDBRANCH   3   4
ENDBRANCH   2   3
ENDBRANCH   1   2
END_RES ARG D 557
BEGIN_RES GLU D 570
REMARK  3 active torsions:
REMARK  status: ('A' for Active; 'I' for Inactive)
REMARK    5  A    between atoms: CA   and  CB  
REMARK    6  A    between atoms: CB   and  CG  
REMARK    7  A    between atoms: CG   and  CD  
ROOT
ATOM     14  CA  GLU D 570     -18.033  -6.348 -13.375  1.00 32.92     0.160 C 
ENDROOT
BRANCH  14  15
ATOM     15  CB  GLU D 570     -19.500  -6.345 -13.794  1.00 32.92     0.043 C 
BRANCH  15  16
ATOM     16  CG  GLU D 570     -20.442  -5.534 -12.981  1.00 32.92     0.100 C 
BRANCH  16  17
ATOM     17  CD  GLU D 570     -21.710  -5.182 -13.724  1.00 32.92     0.185 C 
ATOM     18  OE1 GLU D 570     -22.783  -5.119 -13.094  1.00 32.92    -0.647 OA
ATOM     19  OE2 GLU D 570     -21.632  -4.985 -14.953  1.00 32.92    -0.647 OA
ENDBRANCH  16  17
ENDBRANCH  15  16
ENDBRANCH  14  15
END_RES GLU D 570
ENDMDL
MODEL 7
REMARK VINA RESULT:      -6.4      1.466      5.741
REMARK  12 active torsions:
REMARK  status: ('A' for Active; 'I' for Inactive)
REMARK    1  A    between atoms: C_2  and  C_3 
REMARK    2  A    between atoms: C_3  and  C_4 
REMARK    3  A    between atoms: C_4  and  C_5 
REMARK    4  A    between atoms: C_5  and  C_6 
REMARK    5  A    between atoms: C_5  and  C_8 
REMARK    6  A    between atoms: C_8  and  O_9 
REMARK    7  A    between atoms: O_9  and  C_10 
REMARK    8  A    between atoms: C_10  and  C_12 
REMARK    9  A    between atoms: C_12  and  C_26 
REMARK   10  A    between atoms: C_13  and  C_14 
REMARK   11  A    between atoms: C_13  and  C_20 
REMARK   12  A    between atoms: C_26  and  N_27 
ROOT
HETATM    1  C   UNL     1     -20.280 -11.070  -4.009  1.00  0.00     0.113 C 
HETATM    2  C   UNL     1     -19.703  -9.837  -4.112  1.00  0.00     0.010 C 
ENDROOT
BRANCH   1   3
HETATM    3  C   UNL     1     -21.719 -11.256  -3.638  1.00  0.00     0.303 C 
HETATM    4  O   UNL     1     -22.653 -11.267  -4.430  1.00  0.00    -0.258 OA
BRANCH   3   5
HETATM    5  O   UNL     1     -21.902 -11.322  -2.284  1.00  0.00    -0.317 OA
BRANCH   5   6
HETATM    6  C   UNL     1     -23.271 -11.245  -1.813  1.00  0.00     0.183 C 
BRANCH   6   7
HETATM    7  C   UNL     1     -23.456 -10.883  -0.318  1.00  0.00     0.010 C 
BRANCH   7   8
HETATM    8  C   UNL     1     -22.768 -11.903   0.617  1.00  0.00     0.007 C 
BRANCH   8   9
HETATM    9  C   UNL     1     -23.424 -13.294   0.681  1.00  0.00     0.000 C 
BRANCH   9  10
HETATM   10  C   UNL     1     -23.538 -13.859   2.100  1.00  0.00    -0.005 C 
HETATM   11  C   UNL     1     -22.195 -14.362   2.613  1.00  0.00     0.005 C 
ENDBRANCH   9  10
ENDBRANCH   8   9
ENDBRANCH   7   8
BRANCH   7  12
HETATM   12  C   UNL     1     -23.015  -9.421  -0.044  1.00  0.00     0.002 C 
HETATM   13  C   UNL     1     -21.661  -9.244   0.637  1.00  0.00     0.005 C 
ENDBRANCH   7  12
ENDBRANCH   6   7
ENDBRANCH   5   6
ENDBRANCH   3   5
ENDBRANCH   1   3
BRANCH   1  14
HETATM   14  C   UNL     1     -19.393 -12.292  -4.177  1.00  0.00    -0.030 C 
BRANCH  14  15
HETATM   15  N   UNL     1     -18.658 -13.307  -4.316  1.00  0.00    -0.365 N 
ATOM     16  HN2 UNL     1     -19.258 -12.502  -4.136  1.00  0.00     0.165 HD
ATOM     17  HN1 UNL     1     -18.063 -14.129  -4.429  1.00  0.00     0.165 HD
ENDBRANCH  14  15
ENDBRANCH   1  14
BRANCH   2  18
HETATM   18  C   UNL     1     -18.236  -9.692  -4.378  1.00  0.00    -0.023 A 
HETATM   19  C   UNL     1     -17.316  -9.603  -3.323  1.00  0.00     0.012 A 
HETATM   20  C   UNL     1     -15.942  -9.656  -3.588  1.00  0.00     0.001 A 
HETATM   21  C   UNL     1     -15.480  -9.800  -4.895  1.00  0.00     0.000 A 
HETATM   22  C   UNL     1     -16.388  -9.873  -5.948  1.00  0.00     0.001 A 
HETATM   23  C   UNL     1     -17.759  -9.815  -5.693  1.00  0.00     0.012 A 
ENDBRANCH   2  18
BRANCH   2  24
HETATM   24  C   UNL     1     -20.441  -8.566  -3.888  1.00  0.00    -0.023 A 
HETATM   25  C   UNL     1     -21.156  -7.976  -4.941  1.00  0.00     0.012 A 
HETATM   26  C   UNL     1     -21.986  -6.880  -4.700  1.00  0.00     0.001 A 
HETATM   27  C   UNL     1     -22.104  -6.365  -3.410  1.00  0.00     0.000 A 
HETATM   28  C   UNL     1     -21.391  -6.940  -2.360  1.00  0.00     0.001 A 
HETATM   29  C   UNL     1     -20.563  -8.040  -2.595  1.00  0.00     0.012 A 
ENDBRANCH   2  24
TORSDOF 12
BEGIN_RES ARG D 557
REMARK  4 active torsions:
REMARK  status: ('A' for Active; 'I' for Inactive)
REMARK    1  A    between atoms: CA   and  CB  
REMARK    2  A    between atoms: CB   and  CG  
REMARK    3  A    between atoms: CG   and  CD  
REMARK    4  A    between atoms: CD   and  NE  
REMARK       I    between atoms: NE   and  CZ  
REMARK       I    between atoms: CZ   and  NH1 
REMARK       I    between atoms: CZ   and  NH2 
ROOT
ATOM      1  CA  ARG D 557     -26.217   2.705 -17.014  1.00 35.49     0.159 C 
ENDROOT
BRANCH   1   2
ATOM      2  CB  ARG D 557     -26.789   1.319 -17.183  1.00 35.49     0.034 C 
BRANCH   2   3
ATOM      3  CG  ARG D 557     -25.837   0.202 -17.149  1.00 35.49     0.027 C 
BRANCH   3   4
ATOM      4  CD  ARG D 557     -24.763   0.407 -16.149  1.00 35.49     0.116 C 
BRANCH   4   5
ATOM      5  NE  ARG D 557     -24.916  -0.453 -15.006  1.00 35.49    -0.212 N 
ATOM      6  CZ  ARG D 557     -24.098  -1.422 -14.659  1.00 35.49     0.666 C 
ATOM      7  NH1 ARG D 557     -23.021  -1.726 -15.359  1.00 35.49    -0.235 N 
ATOM      8  NH2 ARG D 557     -24.382  -2.088 -13.577  1.00 35.49    -0.235 N 
ATOM      9  HH  ARG D 557     -22.814  -1.299 -16.073  1.00 35.49     0.174 HD
ATOM     10  HH  ARG D 557     -22.523  -2.366 -15.082  1.00 35.49     0.174 HD
ATOM     11  HH  ARG D 557     -25.080  -1.865 -13.141  1.00 35.49     0.174 HD
ATOM     12  HH  ARG D 557     -23.876  -2.718 -13.319  1.00 35.49     0.174 HD
ATOM     13  HE  ARG D 557     -25.622  -0.375 -14.539  1.00 35.49     0.178 HD
ENDBRANCH   4   5
ENDBRANCH   3   4
ENDBRANCH   2   3
ENDBRANCH   1   2
END_RES ARG D 557
BEGIN_RES GLU D 570
REMARK  3 active torsions:
REMARK  status: ('A' for Active; 'I' for Inactive)
REMARK    5  A    between atoms: CA   and  CB  
REMARK    6  A    between atoms: CB   and  CG  
REMARK    7  A    between atoms: CG   and  CD  
ROOT
ATOM     14  CA  GLU D 570     -18.033  -6.348 -13.375  1.00 32.92     0.160 C 
ENDROOT
BRANCH  14  15
ATOM     15  CB  GLU D 570     -19.500  -6.345 -13.794  1.00 32.92     0.043 C 
BRANCH  15  16
ATOM     16  CG  GLU D 570     -20.441  -5.528 -12.985  1.00 32.92     0.100 C 
BRANCH  16  17
ATOM     17  CD  GLU D 570     -21.733  -5.227 -13.709  1.00 32.92     0.185 C 
ATOM     18  OE1 GLU D 570     -22.193  -6.071 -14.502  1.00 32.92    -0.647 OA
ATOM     19  OE2 GLU D 570     -22.282  -4.129 -13.494  1.00 32.92    -0.647 OA
ENDBRANCH  16  17
ENDBRANCH  15  16
ENDBRANCH  14  15
END_RES GLU D 570
ENDMDL
MODEL 8
REMARK VINA RESULT:      -6.3      2.354      5.734
REMARK  12 active torsions:
REMARK  status: ('A' for Active; 'I' for Inactive)
REMARK    1  A    between atoms: C_2  and  C_3 
REMARK    2  A    between atoms: C_3  and  C_4 
REMARK    3  A    between atoms: C_4  and  C_5 
REMARK    4  A    between atoms: C_5  and  C_6 
REMARK    5  A    between atoms: C_5  and  C_8 
REMARK    6  A    between atoms: C_8  and  O_9 
REMARK    7  A    between atoms: O_9  and  C_10 
REMARK    8  A    between atoms: C_10  and  C_12 
REMARK    9  A    between atoms: C_12  and  C_26 
REMARK   10  A    between atoms: C_13  and  C_14 
REMARK   11  A    between atoms: C_13  and  C_20 
REMARK   12  A    between atoms: C_26  and  N_27 
ROOT
HETATM    1  C   UNL     1     -20.238 -11.305  -3.541  1.00  0.00     0.113 C 
HETATM    2  C   UNL     1     -19.770 -10.048  -3.791  1.00  0.00     0.010 C 
ENDROOT
BRANCH   1   3
HETATM    3  C   UNL     1     -21.630 -11.565  -3.056  1.00  0.00     0.303 C 
HETATM    4  O   UNL     1     -22.645 -11.076  -3.537  1.00  0.00    -0.258 OA
BRANCH   3   5
HETATM    5  O   UNL     1     -21.653 -12.350  -1.936  1.00  0.00    -0.317 OA
BRANCH   5   6
HETATM    6  C   UNL     1     -21.445 -11.675  -0.670  1.00  0.00     0.183 C 
BRANCH   6   7
HETATM    7  C   UNL     1     -22.631 -11.718   0.326  1.00  0.00     0.010 C 
BRANCH   7   8
HETATM    8  C   UNL     1     -23.715 -10.671  -0.015  1.00  0.00     0.007 C 
BRANCH   8   9
HETATM    9  C   UNL     1     -23.194  -9.301  -0.483  1.00  0.00     0.000 C 
BRANCH   9  10
HETATM   10  C   UNL     1     -23.078  -8.266   0.640  1.00  0.00    -0.005 C 
HETATM   11  C   UNL     1     -21.657  -8.180   1.179  1.00  0.00     0.005 C 
ENDBRANCH   9  10
ENDBRANCH   8   9
ENDBRANCH   7   8
BRANCH   7  12
HETATM   12  C   UNL     1     -23.198 -13.157   0.448  1.00  0.00     0.002 C 
HETATM   13  C   UNL     1     -23.285 -13.727   1.861  1.00  0.00     0.005 C 
ENDBRANCH   7  12
ENDBRANCH   6   7
ENDBRANCH   5   6
ENDBRANCH   3   5
ENDBRANCH   1   3
BRANCH   1  14
HETATM   14  C   UNL     1     -19.265 -12.467  -3.662  1.00  0.00    -0.030 C 
BRANCH  14  15
HETATM   15  N   UNL     1     -18.460 -13.432  -3.763  1.00  0.00    -0.365 N 
ATOM     16  HN2 UNL     1     -19.118 -12.653  -3.750  1.00  0.00     0.165 HD
ATOM     17  HN1 UNL     1     -17.808 -14.213  -3.844  1.00  0.00     0.165 HD
ENDBRANCH  14  15
ENDBRANCH   1  14
BRANCH   2  18
HETATM   18  C   UNL     1     -18.340  -9.817  -4.170  1.00  0.00    -0.023 A 
HETATM   19  C   UNL     1     -17.347  -9.682  -3.190  1.00  0.00     0.012 A 
HETATM   20  C   UNL     1     -15.996  -9.654  -3.561  1.00  0.00     0.001 A 
HETATM   21  C   UNL     1     -15.632  -9.763  -4.903  1.00  0.00     0.000 A 
HETATM   22  C   UNL     1     -16.615  -9.881  -5.882  1.00  0.00     0.001 A 
HETATM   23  C   UNL     1     -17.962  -9.904  -5.519  1.00  0.00     0.012 A 
ENDBRANCH   2  18
BRANCH   2  24
HETATM   24  C   UNL     1     -20.595  -8.820  -3.629  1.00  0.00    -0.023 A 
HETATM   25  C   UNL     1     -20.564  -8.109  -2.421  1.00  0.00     0.012 A 
HETATM   26  C   UNL     1     -21.198  -6.871  -2.317  1.00  0.00     0.001 A 
HETATM   27  C   UNL     1     -21.869  -6.336  -3.415  1.00  0.00     0.000 A 
HETATM   28  C   UNL     1     -21.912  -7.040  -4.618  1.00  0.00     0.001 A 
HETATM   29  C   UNL     1     -21.273  -8.278  -4.729  1.00  0.00     0.012 A 
ENDBRANCH   2  24
TORSDOF 12
BEGIN_RES ARG D 557
REMARK  4 active torsions:
REMARK  status: ('A' for Active; 'I' for Inactive)
REMARK    1  A    between atoms: CA   and  CB  
REMARK    2  A    between atoms: CB   and  CG  
REMARK    3  A    between atoms: CG   and  CD  
REMARK    4  A    between atoms: CD   and  NE  
REMARK       I    between atoms: NE   and  CZ  
REMARK       I    between atoms: CZ   and  NH1 
REMARK       I    between atoms: CZ   and  NH2 
ROOT
ATOM      1  CA  ARG D 557     -26.217   2.705 -17.014  1.00 35.49     0.159 C 
ENDROOT
BRANCH   1   2
ATOM      2  CB  ARG D 557     -26.789   1.319 -17.183  1.00 35.49     0.034 C 
BRANCH   2   3
ATOM      3  CG  ARG D 557     -28.228   1.227 -17.459  1.00 35.49     0.027 C 
BRANCH   3   4
ATOM      4  CD  ARG D 557     -28.927   0.324 -16.516  1.00 35.49     0.116 C 
BRANCH   4   5
ATOM      5  NE  ARG D 557     -29.315  -0.914 -17.138  1.00 35.49    -0.212 N 
ATOM      6  CZ  ARG D 557     -28.677  -2.059 -17.036  1.00 35.49     0.666 C 
ATOM      7  NH1 ARG D 557     -27.565  -2.190 -16.337  1.00 35.49    -0.235 N 
ATOM      8  NH2 ARG D 557     -29.185  -3.086 -17.651  1.00 35.49    -0.235 N 
ATOM      9  HH  ARG D 557     -27.214  -1.528 -15.922  1.00 35.49     0.174 HD
ATOM     10  HH  ARG D 557     -27.194  -2.962 -16.304  1.00 35.49     0.174 HD
ATOM     11  HH  ARG D 557     -29.909  -2.973 -18.089  1.00 35.49     0.174 HD
ATOM     12  HH  ARG D 557     -28.804  -3.842 -17.605  1.00 35.49     0.174 HD
ATOM     13  HE  ARG D 557     -29.981  -0.904 -17.667  1.00 35.49     0.178 HD
ENDBRANCH   4   5
ENDBRANCH   3   4
ENDBRANCH   2   3
ENDBRANCH   1   2
END_RES ARG D 557
BEGIN_RES GLU D 570
REMARK  3 active torsions:
REMARK  status: ('A' for Active; 'I' for Inactive)
REMARK    5  A    between atoms: CA   and  CB  
REMARK    6  A    between atoms: CB   and  CG  
REMARK    7  A    between atoms: CG   and  CD  
ROOT
ATOM     14  CA  GLU D 570     -18.033  -6.348 -13.375  1.00 32.92     0.160 C 
ENDROOT
BRANCH  14  15
ATOM     15  CB  GLU D 570     -19.500  -6.345 -13.794  1.00 32.92     0.043 C 
BRANCH  15  16
ATOM     16  CG  GLU D 570     -19.860  -5.585 -15.019  1.00 32.92     0.100 C 
BRANCH  16  17
ATOM     17  CD  GLU D 570     -20.521  -6.444 -16.072  1.00 32.92     0.185 C 
ATOM     18  OE1 GLU D 570     -20.762  -7.639 -15.814  1.00 32.92    -0.647 OA
ATOM     19  OE2 GLU D 570     -20.783  -5.921 -17.173  1.00 32.92    -0.647 OA
ENDBRANCH  16  17
ENDBRANCH  15  16
ENDBRANCH  14  15
END_RES GLU D 570
ENDMDL
MODEL 9
REMARK VINA RESULT:      -6.2      2.509      4.768
REMARK  12 active torsions:
REMARK  status: ('A' for Active; 'I' for Inactive)
REMARK    1  A    between atoms: C_2  and  C_3 
REMARK    2  A    between atoms: C_3  and  C_4 
REMARK    3  A    between atoms: C_4  and  C_5 
REMARK    4  A    between atoms: C_5  and  C_6 
REMARK    5  A    between atoms: C_5  and  C_8 
REMARK    6  A    between atoms: C_8  and  O_9 
REMARK    7  A    between atoms: O_9  and  C_10 
REMARK    8  A    between atoms: C_10  and  C_12 
REMARK    9  A    between atoms: C_12  and  C_26 
REMARK   10  A    between atoms: C_13  and  C_14 
REMARK   11  A    between atoms: C_13  and  C_20 
REMARK   12  A    between atoms: C_26  and  N_27 
ROOT
HETATM    1  C   UNL     1     -19.469 -10.268  -2.044  1.00  0.00     0.113 C 
HETATM    2  C   UNL     1     -20.668  -9.624  -2.151  1.00  0.00     0.010 C 
ENDROOT
BRANCH   1   3
HETATM    3  C   UNL     1     -18.288  -9.916  -2.894  1.00  0.00     0.303 C 
HETATM    4  O   UNL     1     -17.442  -9.077  -2.609  1.00  0.00    -0.258 OA
BRANCH   3   5
HETATM    5  O   UNL     1     -18.296 -10.574  -4.094  1.00  0.00    -0.317 OA
BRANCH   5   6
HETATM    6  C   UNL     1     -17.809  -9.832  -5.240  1.00  0.00     0.183 C 
BRANCH   6   7
HETATM    7  C   UNL     1     -16.670 -10.501  -6.049  1.00  0.00     0.010 C 
BRANCH   7   8
HETATM    8  C   UNL     1     -15.333 -10.508  -5.275  1.00  0.00     0.007 C 
BRANCH   8   9
HETATM    9  C   UNL     1     -14.960 -11.842  -4.603  1.00  0.00     0.000 C 
BRANCH   9  10
HETATM   10  C   UNL     1     -13.550 -12.333  -4.942  1.00  0.00    -0.005 C 
HETATM   11  C   UNL     1     -13.417 -12.677  -6.420  1.00  0.00     0.005 C 
ENDBRANCH   9  10
ENDBRANCH   8   9
ENDBRANCH   7   8
BRANCH   7  12
HETATM   12  C   UNL     1     -17.093 -11.912  -6.536  1.00  0.00     0.002 C 
HETATM   13  C   UNL     1     -18.399 -11.988  -7.322  1.00  0.00     0.005 C 
ENDBRANCH   7  12
ENDBRANCH   6   7
ENDBRANCH   5   6
ENDBRANCH   3   5
ENDBRANCH   1   3
BRANCH   1  14
HETATM   14  C   UNL     1     -19.375 -11.454  -1.099  1.00  0.00    -0.030 C 
BRANCH  14  15
HETATM   15  N   UNL     1     -19.297 -12.437  -0.313  1.00  0.00    -0.365 N 
ATOM     16  HN2 UNL     1     -19.418 -11.670  -0.975  1.00  0.00     0.165 HD
ATOM     17  HN1 UNL     1     -19.234 -13.232   0.324  1.00  0.00     0.165 HD
ENDBRANCH  14  15
ENDBRANCH   1  14
BRANCH   2  18
HETATM   18  C   UNL     1     -21.858 -10.075  -1.362  1.00  0.00    -0.023 A 
HETATM   19  C   UNL     1     -22.291  -9.358  -0.236  1.00  0.00     0.012 A 
HETATM   20  C   UNL     1     -23.508  -9.684   0.375  1.00  0.00     0.001 A 
HETATM   21  C   UNL     1     -24.296 -10.717  -0.130  1.00  0.00     0.000 A 
HETATM   22  C   UNL     1     -23.864 -11.443  -1.238  1.00  0.00     0.001 A 
HETATM   23  C   UNL     1     -22.649 -11.126  -1.848  1.00  0.00     0.012 A 
ENDBRANCH   2  18
BRANCH   2  24
HETATM   24  C   UNL     1     -20.915  -8.504  -3.098  1.00  0.00    -0.023 A 
HETATM   25  C   UNL     1     -21.280  -8.776  -4.424  1.00  0.00     0.012 A 
HETATM   26  C   UNL     1     -21.677  -7.740  -5.270  1.00  0.00     0.001 A 
HETATM   27  C   UNL     1     -21.708  -6.428  -4.800  1.00  0.00     0.000 A 
HETATM   28  C   UNL     1     -21.338  -6.149  -3.485  1.00  0.00     0.001 A 
HETATM   29  C   UNL     1     -20.946  -7.183  -2.633  1.00  0.00     0.012 A 
ENDBRANCH   2  24
TORSDOF 12
BEGIN_RES ARG D 557
REMARK  4 active torsions:
REMARK  status: ('A' for Active; 'I' for Inactive)
REMARK    1  A    between atoms: CA   and  CB  
REMARK    2  A    between atoms: CB   and  CG  
REMARK    3  A    between atoms: CG   and  CD  
REMARK    4  A    between atoms: CD   and  NE  
REMARK       I    between atoms: NE   and  CZ  
REMARK       I    between atoms: CZ   and  NH1 
REMARK       I    between atoms: CZ   and  NH2 
ROOT
ATOM      1  CA  ARG D 557     -26.217   2.705 -17.014  1.00 35.49     0.159 C 
ENDROOT
BRANCH   1   2
ATOM      2  CB  ARG D 557     -26.789   1.319 -17.183  1.00 35.49     0.034 C 
BRANCH   2   3
ATOM      3  CG  ARG D 557     -25.861   0.195 -17.008  1.00 35.49     0.027 C 
BRANCH   3   4
ATOM      4  CD  ARG D 557     -26.266  -0.705 -15.904  1.00 35.49     0.116 C 
BRANCH   4   5
ATOM      5  NE  ARG D 557     -25.218  -0.878 -14.933  1.00 35.49    -0.212 N 
ATOM      6  CZ  ARG D 557     -24.892  -2.008 -14.347  1.00 35.49     0.666 C 
ATOM      7  NH1 ARG D 557     -25.527  -3.140 -14.589  1.00 35.49    -0.235 N 
ATOM      8  NH2 ARG D 557     -23.899  -1.985 -13.507  1.00 35.49    -0.235 N 
ATOM      9  HH  ARG D 557     -26.182  -3.179 -15.140  1.00 35.49     0.174 HD
ATOM     10  HH  ARG D 557     -25.269  -3.847 -14.179  1.00 35.49     0.174 HD
ATOM     11  HH  ARG D 557     -23.503  -1.241 -13.376  1.00 35.49     0.174 HD
ATOM     12  HH  ARG D 557     -23.658  -2.695 -13.112  1.00 35.49     0.174 HD
ATOM     13  HE  ARG D 557     -24.804  -0.185 -14.664  1.00 35.49     0.178 HD
ENDBRANCH   4   5
ENDBRANCH   3   4
ENDBRANCH   2   3
ENDBRANCH   1   2
END_RES ARG D 557
BEGIN_RES GLU D 570
REMARK  3 active torsions:
REMARK  status: ('A' for Active; 'I' for Inactive)
REMARK    5  A    between atoms: CA   and  CB  
REMARK    6  A    between atoms: CB   and  CG  
REMARK    7  A    between atoms: CG   and  CD  
ROOT
ATOM     14  CA  GLU D 570     -18.033  -6.348 -13.375  1.00 32.92     0.160 C 
ENDROOT
BRANCH  14  15
ATOM     15  CB  GLU D 570     -19.500  -6.345 -13.794  1.00 32.92     0.043 C 
BRANCH  15  16
ATOM     16  CG  GLU D 570     -20.448  -5.558 -12.963  1.00 32.92     0.100 C 
BRANCH  16  17
ATOM     17  CD  GLU D 570     -21.744  -5.253 -13.677  1.00 32.92     0.185 C 
ATOM     18  OE1 GLU D 570     -22.600  -4.553 -13.103  1.00 32.92    -0.647 OA
ATOM     19  OE2 GLU D 570     -21.911  -5.732 -14.816  1.00 32.92    -0.647 OA
ENDBRANCH  16  17
ENDBRANCH  15  16
ENDBRANCH  14  15
END_RES GLU D 570
ENDMDL
