MODEL 1
REMARK VINA RESULT:      -7.4      0.000      0.000
REMARK  18 active torsions:
REMARK  status: ('A' for Active; 'I' for Inactive)
REMARK    1  A    between atoms: C_2  and  C_3 
REMARK    2  A    between atoms: C_3  and  C_4 
REMARK    3  A    between atoms: C_4  and  C_5 
REMARK    4  A    between atoms: C_5  and  C_6 
REMARK    5  A    between atoms: C_6  and  C_7 
REMARK    6  A    between atoms: C_7  and  C_8 
REMARK    7  A    between atoms: C_8  and  C_9 
REMARK    8  A    between atoms: C_9  and  C_10 
REMARK    9  A    between atoms: C_10  and  C_11 
REMARK   10  A    between atoms: C_11  and  C_12 
REMARK   11  A    between atoms: C_12  and  C_13 
REMARK   12  A    between atoms: C_13  and  C_14 
REMARK       I    between atoms: C_14  and  N_16 
REMARK   13  A    between atoms: N_16  and  C_17 
REMARK   14  A    between atoms: N_16  and  C_21 
REMARK   15  A    between atoms: C_17  and  C_18 
REMARK   16  A    between atoms: C_18  and  O_20 
REMARK   17  A    between atoms: C_21  and  C_22 
REMARK   18  A    between atoms: C_22  and  O_24 
ROOT
HETATM    1  C   UNL     1     -23.733  -4.975 -10.532  1.00  0.00     0.103 C 
ENDROOT
BRANCH   1   2
HETATM    2  C   UNL     1     -23.071  -4.606  -9.207  1.00  0.00     0.009 C 
BRANCH   2   3
HETATM    3  C   UNL     1     -21.595  -4.274  -9.438  1.00  0.00     0.000 C 
BRANCH   3   4
HETATM    4  C   UNL     1     -20.782  -4.148  -8.154  1.00  0.00     0.000 C 
BRANCH   4   5
HETATM    5  C   UNL     1     -21.501  -4.717  -6.935  1.00  0.00     0.000 C 
BRANCH   5   6
HETATM    6  C   UNL     1     -20.503  -5.014  -5.821  1.00  0.00     0.000 C 
BRANCH   6   7
HETATM    7  C   UNL     1     -20.339  -6.516  -5.622  1.00  0.00     0.000 C 
BRANCH   7   8
HETATM    8  C   UNL     1     -21.566  -7.084  -4.918  1.00  0.00     0.000 C 
BRANCH   8   9
HETATM    9  C   UNL     1     -21.884  -6.299  -3.653  1.00  0.00     0.000 C 
BRANCH   9  10
HETATM   10  C   UNL     1     -21.277  -6.987  -2.434  1.00  0.00     0.000 C 
BRANCH  10  11
HETATM   11  C   UNL     1     -22.175  -6.820  -1.214  1.00  0.00    -0.000 C 
BRANCH  11  12
HETATM   12  C   UNL     1     -22.369  -8.149  -0.490  1.00  0.00    -0.005 C 
HETATM   13  C   UNL     1     -21.997  -8.030   0.978  1.00  0.00     0.005 C 
ENDBRANCH  11  12
ENDBRANCH  10  11
ENDBRANCH   9  10
ENDBRANCH   8   9
ENDBRANCH   7   8
ENDBRANCH   6   7
ENDBRANCH   5   6
ENDBRANCH   4   5
ENDBRANCH   3   4
ENDBRANCH   2   3
ENDBRANCH   1   2
BRANCH   1  14
HETATM   14  C   UNL     1     -24.122  -3.751 -11.331  1.00  0.00     0.219 C 
HETATM   15  O   UNL     1     -25.072  -3.067 -10.949  1.00  0.00    -0.273 OA
HETATM   16  N   UNL     1     -23.371  -3.400 -12.448  1.00  0.00    -0.347 N 
BRANCH  16  17
HETATM   17  C   UNL     1     -22.242  -4.163 -13.001  1.00  0.00     0.157 C 
BRANCH  17  18
HETATM   18  C   UNL     1     -22.574  -5.185 -14.116  1.00  0.00     0.132 C 
HETATM   19  C   UNL     1     -24.034  -5.620 -14.179  1.00  0.00     0.041 C 
BRANCH  18  20
HETATM   20  O   UNL     1     -22.229  -4.609 -15.382  1.00  0.00    -0.394 OA
HETATM   21  H   UNL     1     -22.390  -5.268 -16.078  1.00  0.00     0.210 HD
ENDBRANCH  18  20
ENDBRANCH  17  18
ENDBRANCH  16  17
BRANCH  16  22
HETATM   22  C   UNL     1     -23.716  -2.131 -13.095  1.00  0.00     0.157 C 
BRANCH  22  23
HETATM   23  C   UNL     1     -24.198  -2.260 -14.556  1.00  0.00     0.132 C 
HETATM   24  C   UNL     1     -25.480  -1.486 -14.851  1.00  0.00     0.041 C 
BRANCH  23  25
HETATM   25  O   UNL     1     -23.174  -1.790 -15.439  1.00  0.00    -0.394 OA
HETATM   26  H   UNL     1     -23.572  -1.152 -16.058  1.00  0.00     0.210 HD
ENDBRANCH  23  25
ENDBRANCH  22  23
ENDBRANCH  16  22
ENDBRANCH   1  14
TORSDOF 18
BEGIN_RES ARG D 557
REMARK  4 active torsions:
REMARK  status: ('A' for Active; 'I' for Inactive)
REMARK    1  A    between atoms: CA   and  CB  
REMARK    2  A    between atoms: CB   and  CG  
REMARK    3  A    between atoms: CG   and  CD  
REMARK    4  A    between atoms: CD   and  NE  
REMARK       I    between atoms: NE   and  CZ  
REMARK       I    between atoms: CZ   and  NH1 
REMARK       I    between atoms: CZ   and  NH2 
ROOT
ATOM      1  CA  ARG D 557     -26.217   2.705 -17.014  1.00 35.49     0.159 C 
ENDROOT
BRANCH   1   2
ATOM      2  CB  ARG D 557     -26.789   1.319 -17.183  1.00 35.49     0.034 C 
BRANCH   2   3
ATOM      3  CG  ARG D 557     -28.158   1.106 -16.699  1.00 35.49     0.027 C 
BRANCH   3   4
ATOM      4  CD  ARG D 557     -28.802  -0.071 -17.326  1.00 35.49     0.116 C 
BRANCH   4   5
ATOM      5  NE  ARG D 557     -28.208  -1.309 -16.893  1.00 35.49    -0.212 N 
ATOM      6  CZ  ARG D 557     -28.722  -2.507 -17.061  1.00 35.49     0.666 C 
ATOM      7  NH1 ARG D 557     -29.885  -2.703 -17.653  1.00 35.49    -0.235 N 
ATOM      8  NH2 ARG D 557     -28.034  -3.521 -16.623  1.00 35.49    -0.235 N 
ATOM      9  HH  ARG D 557     -30.354  -2.050 -17.950  1.00 35.49     0.174 HD
ATOM     10  HH  ARG D 557     -30.169  -3.507 -17.736  1.00 35.49     0.174 HD
ATOM     11  HH  ARG D 557     -27.283  -3.365 -16.251  1.00 35.49     0.174 HD
ATOM     12  HH  ARG D 557     -28.331  -4.310 -16.716  1.00 35.49     0.174 HD
ATOM     13  HE  ARG D 557     -27.491  -1.270 -16.438  1.00 35.49     0.178 HD
ENDBRANCH   4   5
ENDBRANCH   3   4
ENDBRANCH   2   3
ENDBRANCH   1   2
END_RES ARG D 557
BEGIN_RES GLU D 570
REMARK  3 active torsions:
REMARK  status: ('A' for Active; 'I' for Inactive)
REMARK    5  A    between atoms: CA   and  CB  
REMARK    6  A    between atoms: CB   and  CG  
REMARK    7  A    between atoms: CG   and  CD  
ROOT
ATOM     14  CA  GLU D 570     -18.033  -6.348 -13.375  1.00 32.92     0.160 C 
ENDROOT
BRANCH  14  15
ATOM     15  CB  GLU D 570     -19.500  -6.345 -13.794  1.00 32.92     0.043 C 
BRANCH  15  16
ATOM     16  CG  GLU D 570     -20.091  -7.637 -14.228  1.00 32.92     0.100 C 
BRANCH  16  17
ATOM     17  CD  GLU D 570     -20.450  -7.658 -15.695  1.00 32.92     0.185 C 
ATOM     18  OE1 GLU D 570     -20.396  -6.597 -16.347  1.00 32.92    -0.647 OA
ATOM     19  OE2 GLU D 570     -20.805  -8.744 -16.195  1.00 32.92    -0.647 OA
ENDBRANCH  16  17
ENDBRANCH  15  16
ENDBRANCH  14  15
END_RES GLU D 570
ENDMDL
MODEL 2
REMARK VINA RESULT:      -7.2      1.426      2.013
REMARK  18 active torsions:
REMARK  status: ('A' for Active; 'I' for Inactive)
REMARK    1  A    between atoms: C_2  and  C_3 
REMARK    2  A    between atoms: C_3  and  C_4 
REMARK    3  A    between atoms: C_4  and  C_5 
REMARK    4  A    between atoms: C_5  and  C_6 
REMARK    5  A    between atoms: C_6  and  C_7 
REMARK    6  A    between atoms: C_7  and  C_8 
REMARK    7  A    between atoms: C_8  and  C_9 
REMARK    8  A    between atoms: C_9  and  C_10 
REMARK    9  A    between atoms: C_10  and  C_11 
REMARK   10  A    between atoms: C_11  and  C_12 
REMARK   11  A    between atoms: C_12  and  C_13 
REMARK   12  A    between atoms: C_13  and  C_14 
REMARK       I    between atoms: C_14  and  N_16 
REMARK   13  A    between atoms: N_16  and  C_17 
REMARK   14  A    between atoms: N_16  and  C_21 
REMARK   15  A    between atoms: C_17  and  C_18 
REMARK   16  A    between atoms: C_18  and  O_20 
REMARK   17  A    between atoms: C_21  and  C_22 
REMARK   18  A    between atoms: C_22  and  O_24 
ROOT
HETATM    1  C   UNL     1     -23.880  -4.743  -9.543  1.00  0.00     0.103 C 
ENDROOT
BRANCH   1   2
HETATM    2  C   UNL     1     -23.487  -4.023  -8.256  1.00  0.00     0.009 C 
BRANCH   2   3
HETATM    3  C   UNL     1     -22.342  -4.772  -7.569  1.00  0.00     0.000 C 
BRANCH   3   4
HETATM    4  C   UNL     1     -21.222  -3.864  -7.070  1.00  0.00     0.000 C 
BRANCH   4   5
HETATM    5  C   UNL     1     -20.190  -4.601  -6.223  1.00  0.00     0.000 C 
BRANCH   5   6
HETATM    6  C   UNL     1     -20.146  -6.076  -6.604  1.00  0.00     0.000 C 
BRANCH   6   7
HETATM    7  C   UNL     1     -20.164  -6.961  -5.363  1.00  0.00     0.000 C 
BRANCH   7   8
HETATM    8  C   UNL     1     -21.585  -7.433  -5.081  1.00  0.00     0.000 C 
BRANCH   8   9
HETATM    9  C   UNL     1     -21.609  -8.466  -3.963  1.00  0.00     0.000 C 
BRANCH   9  10
HETATM   10  C   UNL     1     -20.512  -8.170  -2.943  1.00  0.00     0.000 C 
BRANCH  10  11
HETATM   11  C   UNL     1     -21.019  -8.395  -1.524  1.00  0.00    -0.000 C 
BRANCH  11  12
HETATM   12  C   UNL     1     -22.052  -7.340  -1.137  1.00  0.00    -0.005 C 
HETATM   13  C   UNL     1     -22.797  -7.743   0.123  1.00  0.00     0.005 C 
ENDBRANCH  11  12
ENDBRANCH  10  11
ENDBRANCH   9  10
ENDBRANCH   8   9
ENDBRANCH   7   8
ENDBRANCH   6   7
ENDBRANCH   5   6
ENDBRANCH   4   5
ENDBRANCH   3   4
ENDBRANCH   2   3
ENDBRANCH   1   2
BRANCH   1  14
HETATM   14  C   UNL     1     -24.252  -3.775 -10.643  1.00  0.00     0.219 C 
HETATM   15  O   UNL     1     -25.343  -3.205 -10.592  1.00  0.00    -0.273 OA
HETATM   16  N   UNL     1     -23.338  -3.514 -11.659  1.00  0.00    -0.347 N 
BRANCH  16  17
HETATM   17  C   UNL     1     -22.028  -4.162 -11.825  1.00  0.00     0.157 C 
BRANCH  17  18
HETATM   18  C   UNL     1     -20.899  -3.699 -10.871  1.00  0.00     0.132 C 
HETATM   19  C   UNL     1     -19.934  -4.795 -10.434  1.00  0.00     0.041 C 
BRANCH  18  20
HETATM   20  O   UNL     1     -20.139  -2.675 -11.525  1.00  0.00    -0.394 OA
HETATM   21  H   UNL     1     -20.731  -2.175 -12.113  1.00  0.00     0.210 HD
ENDBRANCH  18  20
ENDBRANCH  17  18
ENDBRANCH  16  17
BRANCH  16  22
HETATM   22  C   UNL     1     -23.706  -2.467 -12.616  1.00  0.00     0.157 C 
BRANCH  22  23
HETATM   23  C   UNL     1     -23.968  -2.966 -14.053  1.00  0.00     0.132 C 
HETATM   24  C   UNL     1     -22.827  -2.674 -15.023  1.00  0.00     0.041 C 
BRANCH  23  25
HETATM   25  O   UNL     1     -24.193  -4.380 -14.033  1.00  0.00    -0.394 OA
HETATM   26  H   UNL     1     -23.645  -4.786 -14.728  1.00  0.00     0.210 HD
ENDBRANCH  23  25
ENDBRANCH  22  23
ENDBRANCH  16  22
ENDBRANCH   1  14
TORSDOF 18
BEGIN_RES ARG D 557
REMARK  4 active torsions:
REMARK  status: ('A' for Active; 'I' for Inactive)
REMARK    1  A    between atoms: CA   and  CB  
REMARK    2  A    between atoms: CB   and  CG  
REMARK    3  A    between atoms: CG   and  CD  
REMARK    4  A    between atoms: CD   and  NE  
REMARK       I    between atoms: NE   and  CZ  
REMARK       I    between atoms: CZ   and  NH1 
REMARK       I    between atoms: CZ   and  NH2 
ROOT
ATOM      1  CA  ARG D 557     -26.217   2.705 -17.014  1.00 35.49     0.159 C 
ENDROOT
BRANCH   1   2
ATOM      2  CB  ARG D 557     -26.789   1.319 -17.183  1.00 35.49     0.034 C 
BRANCH   2   3
ATOM      3  CG  ARG D 557     -28.146   1.097 -16.670  1.00 35.49     0.027 C 
BRANCH   3   4
ATOM      4  CD  ARG D 557     -28.786  -0.099 -17.265  1.00 35.49     0.116 C 
BRANCH   4   5
ATOM      5  NE  ARG D 557     -28.160  -1.320 -16.832  1.00 35.49    -0.212 N 
ATOM      6  CZ  ARG D 557     -28.632  -2.532 -17.016  1.00 35.49     0.666 C 
ATOM      7  NH1 ARG D 557     -29.780  -2.761 -17.627  1.00 35.49    -0.235 N 
ATOM      8  NH2 ARG D 557     -27.919  -3.528 -16.575  1.00 35.49    -0.235 N 
ATOM      9  HH  ARG D 557     -30.264  -2.121 -17.928  1.00 35.49     0.174 HD
ATOM     10  HH  ARG D 557     -30.036  -3.573 -17.721  1.00 35.49     0.174 HD
ATOM     11  HH  ARG D 557     -27.179  -3.351 -16.191  1.00 35.49     0.174 HD
ATOM     12  HH  ARG D 557     -28.190  -4.325 -16.679  1.00 35.49     0.174 HD
ATOM     13  HE  ARG D 557     -27.451  -1.262 -16.365  1.00 35.49     0.178 HD
ENDBRANCH   4   5
ENDBRANCH   3   4
ENDBRANCH   2   3
ENDBRANCH   1   2
END_RES ARG D 557
BEGIN_RES GLU D 570
REMARK  3 active torsions:
REMARK  status: ('A' for Active; 'I' for Inactive)
REMARK    5  A    between atoms: CA   and  CB  
REMARK    6  A    between atoms: CB   and  CG  
REMARK    7  A    between atoms: CG   and  CD  
ROOT
ATOM     14  CA  GLU D 570     -18.033  -6.348 -13.375  1.00 32.92     0.160 C 
ENDROOT
BRANCH  14  15
ATOM     15  CB  GLU D 570     -19.500  -6.345 -13.794  1.00 32.92     0.043 C 
BRANCH  15  16
ATOM     16  CG  GLU D 570     -19.797  -6.262 -15.247  1.00 32.92     0.100 C 
BRANCH  16  17
ATOM     17  CD  GLU D 570     -21.254  -5.985 -15.537  1.00 32.92     0.185 C 
ATOM     18  OE1 GLU D 570     -21.562  -5.422 -16.605  1.00 32.92    -0.647 OA
ATOM     19  OE2 GLU D 570     -22.094  -6.319 -14.678  1.00 32.92    -0.647 OA
ENDBRANCH  16  17
ENDBRANCH  15  16
ENDBRANCH  14  15
END_RES GLU D 570
ENDMDL
MODEL 3
REMARK VINA RESULT:      -7.1      2.390      4.227
REMARK  18 active torsions:
REMARK  status: ('A' for Active; 'I' for Inactive)
REMARK    1  A    between atoms: C_2  and  C_3 
REMARK    2  A    between atoms: C_3  and  C_4 
REMARK    3  A    between atoms: C_4  and  C_5 
REMARK    4  A    between atoms: C_5  and  C_6 
REMARK    5  A    between atoms: C_6  and  C_7 
REMARK    6  A    between atoms: C_7  and  C_8 
REMARK    7  A    between atoms: C_8  and  C_9 
REMARK    8  A    between atoms: C_9  and  C_10 
REMARK    9  A    between atoms: C_10  and  C_11 
REMARK   10  A    between atoms: C_11  and  C_12 
REMARK   11  A    between atoms: C_12  and  C_13 
REMARK   12  A    between atoms: C_13  and  C_14 
REMARK       I    between atoms: C_14  and  N_16 
REMARK   13  A    between atoms: N_16  and  C_17 
REMARK   14  A    between atoms: N_16  and  C_21 
REMARK   15  A    between atoms: C_17  and  C_18 
REMARK   16  A    between atoms: C_18  and  O_20 
REMARK   17  A    between atoms: C_21  and  C_22 
REMARK   18  A    between atoms: C_22  and  O_24 
ROOT
HETATM    1  C   UNL     1     -23.451  -5.450 -14.487  1.00  0.00     0.103 C 
ENDROOT
BRANCH   1   2
HETATM    2  C   UNL     1     -22.662  -4.166 -14.242  1.00  0.00     0.009 C 
BRANCH   2   3
HETATM    3  C   UNL     1     -22.260  -4.076 -12.768  1.00  0.00     0.000 C 
BRANCH   3   4
HETATM    4  C   UNL     1     -23.354  -4.520 -11.802  1.00  0.00     0.000 C 
BRANCH   4   5
HETATM    5  C   UNL     1     -23.567  -3.540 -10.652  1.00  0.00     0.000 C 
BRANCH   5   6
HETATM    6  C   UNL     1     -23.439  -4.257  -9.313  1.00  0.00     0.000 C 
BRANCH   6   7
HETATM    7  C   UNL     1     -22.196  -3.793  -8.563  1.00  0.00     0.000 C 
BRANCH   7   8
HETATM    8  C   UNL     1     -20.952  -4.416  -9.184  1.00  0.00     0.000 C 
BRANCH   8   9
HETATM    9  C   UNL     1     -20.081  -5.076  -8.124  1.00  0.00     0.000 C 
BRANCH   9  10
HETATM   10  C   UNL     1     -20.208  -4.337  -6.795  1.00  0.00     0.000 C 
BRANCH  10  11
HETATM   11  C   UNL     1     -20.329  -5.321  -5.638  1.00  0.00    -0.000 C 
BRANCH  11  12
HETATM   12  C   UNL     1     -21.703  -5.985  -5.625  1.00  0.00    -0.005 C 
HETATM   13  C   UNL     1     -21.983  -6.633  -4.281  1.00  0.00     0.005 C 
ENDBRANCH  11  12
ENDBRANCH  10  11
ENDBRANCH   9  10
ENDBRANCH   8   9
ENDBRANCH   7   8
ENDBRANCH   6   7
ENDBRANCH   5   6
ENDBRANCH   4   5
ENDBRANCH   3   4
ENDBRANCH   2   3
ENDBRANCH   1   2
BRANCH   1  14
HETATM   14  C   UNL     1     -24.825  -5.172 -15.052  1.00  0.00     0.219 C 
HETATM   15  O   UNL     1     -25.405  -4.135 -14.728  1.00  0.00    -0.273 OA
HETATM   16  N   UNL     1     -25.383  -6.067 -15.960  1.00  0.00    -0.347 N 
BRANCH  16  17
HETATM   17  C   UNL     1     -24.787  -7.342 -16.387  1.00  0.00     0.157 C 
BRANCH  17  18
HETATM   18  C   UNL     1     -24.034  -7.338 -17.740  1.00  0.00     0.132 C 
HETATM   19  C   UNL     1     -24.885  -6.977 -18.952  1.00  0.00     0.041 C 
BRANCH  18  20
HETATM   20  O   UNL     1     -22.956  -6.397 -17.659  1.00  0.00    -0.394 OA
HETATM   21  H   UNL     1     -23.329  -5.507 -17.539  1.00  0.00     0.210 HD
ENDBRANCH  18  20
ENDBRANCH  17  18
ENDBRANCH  16  17
BRANCH  16  22
HETATM   22  C   UNL     1     -26.653  -5.671 -16.572  1.00  0.00     0.157 C 
BRANCH  22  23
HETATM   23  C   UNL     1     -27.853  -6.576 -16.218  1.00  0.00     0.132 C 
HETATM   24  C   UNL     1     -28.944  -5.868 -15.421  1.00  0.00     0.041 C 
BRANCH  23  25
HETATM   25  O   UNL     1     -28.434  -7.089 -17.422  1.00  0.00    -0.394 OA
HETATM   26  H   UNL     1     -28.130  -8.007 -17.541  1.00  0.00     0.210 HD
ENDBRANCH  23  25
ENDBRANCH  22  23
ENDBRANCH  16  22
ENDBRANCH   1  14
TORSDOF 18
BEGIN_RES ARG D 557
REMARK  4 active torsions:
REMARK  status: ('A' for Active; 'I' for Inactive)
REMARK    1  A    between atoms: CA   and  CB  
REMARK    2  A    between atoms: CB   and  CG  
REMARK    3  A    between atoms: CG   and  CD  
REMARK    4  A    between atoms: CD   and  NE  
REMARK       I    between atoms: NE   and  CZ  
REMARK       I    between atoms: CZ   and  NH1 
REMARK       I    between atoms: CZ   and  NH2 
ROOT
ATOM      1  CA  ARG D 557     -26.217   2.705 -17.014  1.00 35.49     0.159 C 
ENDROOT
BRANCH   1   2
ATOM      2  CB  ARG D 557     -26.789   1.319 -17.183  1.00 35.49     0.034 C 
BRANCH   2   3
ATOM      3  CG  ARG D 557     -28.235   1.225 -17.417  1.00 35.49     0.027 C 
BRANCH   3   4
ATOM      4  CD  ARG D 557     -28.896   0.277 -16.491  1.00 35.49     0.116 C 
BRANCH   4   5
ATOM      5  NE  ARG D 557     -29.248  -0.958 -17.140  1.00 35.49    -0.212 N 
ATOM      6  CZ  ARG D 557     -28.609  -2.100 -17.015  1.00 35.49     0.666 C 
ATOM      7  NH1 ARG D 557     -27.531  -2.232 -16.264  1.00 35.49    -0.235 N 
ATOM      8  NH2 ARG D 557     -29.082  -3.126 -17.661  1.00 35.49    -0.235 N 
ATOM      9  HH  ARG D 557     -27.204  -1.571 -15.828  1.00 35.49     0.174 HD
ATOM     10  HH  ARG D 557     -27.159  -3.002 -16.219  1.00 35.49     0.174 HD
ATOM     11  HH  ARG D 557     -29.784  -3.014 -18.132  1.00 35.49     0.174 HD
ATOM     12  HH  ARG D 557     -28.700  -3.881 -17.602  1.00 35.49     0.174 HD
ATOM     13  HE  ARG D 557     -29.888  -0.947 -17.700  1.00 35.49     0.178 HD
ENDBRANCH   4   5
ENDBRANCH   3   4
ENDBRANCH   2   3
ENDBRANCH   1   2
END_RES ARG D 557
BEGIN_RES GLU D 570
REMARK  3 active torsions:
REMARK  status: ('A' for Active; 'I' for Inactive)
REMARK    5  A    between atoms: CA   and  CB  
REMARK    6  A    between atoms: CB   and  CG  
REMARK    7  A    between atoms: CG   and  CD  
ROOT
ATOM     14  CA  GLU D 570     -18.033  -6.348 -13.375  1.00 32.92     0.160 C 
ENDROOT
BRANCH  14  15
ATOM     15  CB  GLU D 570     -19.500  -6.345 -13.794  1.00 32.92     0.043 C 
BRANCH  15  16
ATOM     16  CG  GLU D 570     -20.083  -7.631 -14.255  1.00 32.92     0.100 C 
BRANCH  16  17
ATOM     17  CD  GLU D 570     -20.646  -7.555 -15.656  1.00 32.92     0.185 C 
ATOM     18  OE1 GLU D 570     -20.525  -6.495 -16.299  1.00 32.92    -0.647 OA
ATOM     19  OE2 GLU D 570     -21.228  -8.561 -16.107  1.00 32.92    -0.647 OA
ENDBRANCH  16  17
ENDBRANCH  15  16
ENDBRANCH  14  15
END_RES GLU D 570
ENDMDL
MODEL 4
REMARK VINA RESULT:      -7.0      1.362      2.629
REMARK  18 active torsions:
REMARK  status: ('A' for Active; 'I' for Inactive)
REMARK    1  A    between atoms: C_2  and  C_3 
REMARK    2  A    between atoms: C_3  and  C_4 
REMARK    3  A    between atoms: C_4  and  C_5 
REMARK    4  A    between atoms: C_5  and  C_6 
REMARK    5  A    between atoms: C_6  and  C_7 
REMARK    6  A    between atoms: C_7  and  C_8 
REMARK    7  A    between atoms: C_8  and  C_9 
REMARK    8  A    between atoms: C_9  and  C_10 
REMARK    9  A    between atoms: C_10  and  C_11 
REMARK   10  A    between atoms: C_11  and  C_12 
REMARK   11  A    between atoms: C_12  and  C_13 
REMARK   12  A    between atoms: C_13  and  C_14 
REMARK       I    between atoms: C_14  and  N_16 
REMARK   13  A    between atoms: N_16  and  C_17 
REMARK   14  A    between atoms: N_16  and  C_21 
REMARK   15  A    between atoms: C_17  and  C_18 
REMARK   16  A    between atoms: C_18  and  O_20 
REMARK   17  A    between atoms: C_21  and  C_22 
REMARK   18  A    between atoms: C_22  and  O_24 
ROOT
HETATM    1  C   UNL     1     -23.435  -3.749 -11.425  1.00  0.00     0.103 C 
ENDROOT
BRANCH   1   2
HETATM    2  C   UNL     1     -24.171  -4.501 -10.319  1.00  0.00     0.009 C 
BRANCH   2   3
HETATM    3  C   UNL     1     -23.364  -4.435  -9.020  1.00  0.00     0.000 C 
BRANCH   3   4
HETATM    4  C   UNL     1     -21.860  -4.301  -9.235  1.00  0.00     0.000 C 
BRANCH   4   5
HETATM    5  C   UNL     1     -21.143  -3.661  -8.050  1.00  0.00     0.000 C 
BRANCH   5   6
HETATM    6  C   UNL     1     -19.887  -4.451  -7.699  1.00  0.00     0.000 C 
BRANCH   6   7
HETATM    7  C   UNL     1     -19.863  -4.807  -6.217  1.00  0.00     0.000 C 
BRANCH   7   8
HETATM    8  C   UNL     1     -21.125  -5.579  -5.848  1.00  0.00     0.000 C 
BRANCH   8   9
HETATM    9  C   UNL     1     -20.786  -6.843  -5.070  1.00  0.00     0.000 C 
BRANCH   9  10
HETATM   10  C   UNL     1     -21.774  -7.042  -3.924  1.00  0.00     0.000 C 
BRANCH  10  11
HETATM   11  C   UNL     1     -21.485  -6.070  -2.787  1.00  0.00    -0.000 C 
BRANCH  11  12
HETATM   12  C   UNL     1     -22.242  -6.467  -1.522  1.00  0.00    -0.005 C 
HETATM   13  C   UNL     1     -21.847  -7.860  -1.065  1.00  0.00     0.005 C 
ENDBRANCH  11  12
ENDBRANCH  10  11
ENDBRANCH   9  10
ENDBRANCH   8   9
ENDBRANCH   7   8
ENDBRANCH   6   7
ENDBRANCH   5   6
ENDBRANCH   4   5
ENDBRANCH   3   4
ENDBRANCH   2   3
ENDBRANCH   1   2
BRANCH   1  14
HETATM   14  C   UNL     1     -23.320  -4.571 -12.689  1.00  0.00     0.219 C 
HETATM   15  O   UNL     1     -22.577  -5.553 -12.697  1.00  0.00    -0.273 OA
HETATM   16  N   UNL     1     -24.090  -4.229 -13.796  1.00  0.00    -0.347 N 
BRANCH  16  17
HETATM   17  C   UNL     1     -24.982  -3.063 -13.897  1.00  0.00     0.157 C 
BRANCH  17  18
HETATM   18  C   UNL     1     -24.311  -1.700 -14.198  1.00  0.00     0.132 C 
HETATM   19  C   UNL     1     -23.082  -1.769 -15.097  1.00  0.00     0.041 C 
BRANCH  18  20
HETATM   20  O   UNL     1     -25.274  -0.847 -14.829  1.00  0.00    -0.394 OA
HETATM   21  H   UNL     1     -25.187   0.048 -14.460  1.00  0.00     0.210 HD
ENDBRANCH  18  20
ENDBRANCH  17  18
ENDBRANCH  16  17
BRANCH  16  22
HETATM   22  C   UNL     1     -24.035  -5.144 -14.939  1.00  0.00     0.157 C 
BRANCH  22  23
HETATM   23  C   UNL     1     -25.234  -6.109 -15.055  1.00  0.00     0.132 C 
HETATM   24  C   UNL     1     -26.259  -5.693 -16.105  1.00  0.00     0.041 C 
BRANCH  23  25
HETATM   25  O   UNL     1     -24.761  -7.420 -15.380  1.00  0.00    -0.394 OA
HETATM   26  H   UNL     1     -23.878  -7.336 -15.782  1.00  0.00     0.210 HD
ENDBRANCH  23  25
ENDBRANCH  22  23
ENDBRANCH  16  22
ENDBRANCH   1  14
TORSDOF 18
BEGIN_RES ARG D 557
REMARK  4 active torsions:
REMARK  status: ('A' for Active; 'I' for Inactive)
REMARK    1  A    between atoms: CA   and  CB  
REMARK    2  A    between atoms: CB   and  CG  
REMARK    3  A    between atoms: CG   and  CD  
REMARK    4  A    between atoms: CD   and  NE  
REMARK       I    between atoms: NE   and  CZ  
REMARK       I    between atoms: CZ   and  NH1 
REMARK       I    between atoms: CZ   and  NH2 
ROOT
ATOM      1  CA  ARG D 557     -26.217   2.705 -17.014  1.00 35.49     0.159 C 
ENDROOT
BRANCH   1   2
ATOM      2  CB  ARG D 557     -26.789   1.319 -17.183  1.00 35.49     0.034 C 
BRANCH   2   3
ATOM      3  CG  ARG D 557     -28.237   1.224 -17.404  1.00 35.49     0.027 C 
BRANCH   3   4
ATOM      4  CD  ARG D 557     -28.891   0.285 -16.465  1.00 35.49     0.116 C 
BRANCH   4   5
ATOM      5  NE  ARG D 557     -29.294  -0.936 -17.112  1.00 35.49    -0.212 N 
ATOM      6  CZ  ARG D 557     -28.669  -2.090 -17.032  1.00 35.49     0.666 C 
ATOM      7  NH1 ARG D 557     -27.559  -2.249 -16.335  1.00 35.49    -0.235 N 
ATOM      8  NH2 ARG D 557     -29.189  -3.099 -17.668  1.00 35.49    -0.235 N 
ATOM      9  HH  ARG D 557     -27.201  -1.599 -15.907  1.00 35.49     0.174 HD
ATOM     10  HH  ARG D 557     -27.197  -3.025 -16.317  1.00 35.49     0.174 HD
ATOM     11  HH  ARG D 557     -29.910  -2.969 -18.104  1.00 35.49     0.174 HD
ATOM     12  HH  ARG D 557     -28.817  -3.861 -17.637  1.00 35.49     0.174 HD
ATOM     13  HE  ARG D 557     -29.959  -0.908 -17.641  1.00 35.49     0.178 HD
ENDBRANCH   4   5
ENDBRANCH   3   4
ENDBRANCH   2   3
ENDBRANCH   1   2
END_RES ARG D 557
BEGIN_RES GLU D 570
REMARK  3 active torsions:
REMARK  status: ('A' for Active; 'I' for Inactive)
REMARK    5  A    between atoms: CA   and  CB  
REMARK    6  A    between atoms: CB   and  CG  
REMARK    7  A    between atoms: CG   and  CD  
ROOT
ATOM     14  CA  GLU D 570     -18.033  -6.348 -13.375  1.00 32.92     0.160 C 
ENDROOT
BRANCH  14  15
ATOM     15  CB  GLU D 570     -19.500  -6.345 -13.794  1.00 32.92     0.043 C 
BRANCH  15  16
ATOM     16  CG  GLU D 570     -20.024  -7.565 -14.461  1.00 32.92     0.100 C 
BRANCH  16  17
ATOM     17  CD  GLU D 570     -20.882  -7.256 -15.666  1.00 32.92     0.185 C 
ATOM     18  OE1 GLU D 570     -21.838  -8.007 -15.936  1.00 32.92    -0.647 OA
ATOM     19  OE2 GLU D 570     -20.583  -6.262 -16.356  1.00 32.92    -0.647 OA
ENDBRANCH  16  17
ENDBRANCH  15  16
ENDBRANCH  14  15
END_RES GLU D 570
ENDMDL
MODEL 5
REMARK VINA RESULT:      -7.0      2.913      6.119
REMARK  18 active torsions:
REMARK  status: ('A' for Active; 'I' for Inactive)
REMARK    1  A    between atoms: C_2  and  C_3 
REMARK    2  A    between atoms: C_3  and  C_4 
REMARK    3  A    between atoms: C_4  and  C_5 
REMARK    4  A    between atoms: C_5  and  C_6 
REMARK    5  A    between atoms: C_6  and  C_7 
REMARK    6  A    between atoms: C_7  and  C_8 
REMARK    7  A    between atoms: C_8  and  C_9 
REMARK    8  A    between atoms: C_9  and  C_10 
REMARK    9  A    between atoms: C_10  and  C_11 
REMARK   10  A    between atoms: C_11  and  C_12 
REMARK   11  A    between atoms: C_12  and  C_13 
REMARK   12  A    between atoms: C_13  and  C_14 
REMARK       I    between atoms: C_14  and  N_16 
REMARK   13  A    between atoms: N_16  and  C_17 
REMARK   14  A    between atoms: N_16  and  C_21 
REMARK   15  A    between atoms: C_17  and  C_18 
REMARK   16  A    between atoms: C_18  and  O_20 
REMARK   17  A    between atoms: C_21  and  C_22 
REMARK   18  A    between atoms: C_22  and  O_24 
ROOT
HETATM    1  C   UNL     1     -25.887  -5.273 -15.522  1.00  0.00     0.103 C 
ENDROOT
BRANCH   1   2
HETATM    2  C   UNL     1     -24.722  -6.113 -15.004  1.00  0.00     0.009 C 
BRANCH   2   3
HETATM    3  C   UNL     1     -23.563  -5.199 -14.596  1.00  0.00     0.000 C 
BRANCH   3   4
HETATM    4  C   UNL     1     -23.248  -5.230 -13.104  1.00  0.00     0.000 C 
BRANCH   4   5
HETATM    5  C   UNL     1     -21.901  -4.599 -12.766  1.00  0.00     0.000 C 
BRANCH   5   6
HETATM    6  C   UNL     1     -22.038  -3.666 -11.569  1.00  0.00     0.000 C 
BRANCH   6   7
HETATM    7  C   UNL     1     -20.707  -3.507 -10.845  1.00  0.00     0.000 C 
BRANCH   7   8
HETATM    8  C   UNL     1     -20.695  -4.364  -9.585  1.00  0.00     0.000 C 
BRANCH   8   9
HETATM    9  C   UNL     1     -22.050  -4.338  -8.891  1.00  0.00     0.000 C 
BRANCH   9  10
HETATM   10  C   UNL     1     -21.884  -4.553  -7.390  1.00  0.00     0.000 C 
BRANCH  10  11
HETATM   11  C   UNL     1     -20.455  -4.248  -6.955  1.00  0.00    -0.000 C 
BRANCH  11  12
HETATM   12  C   UNL     1     -20.199  -4.738  -5.533  1.00  0.00    -0.005 C 
HETATM   13  C   UNL     1     -21.203  -5.805  -5.134  1.00  0.00     0.005 C 
ENDBRANCH  11  12
ENDBRANCH  10  11
ENDBRANCH   9  10
ENDBRANCH   8   9
ENDBRANCH   7   8
ENDBRANCH   6   7
ENDBRANCH   5   6
ENDBRANCH   4   5
ENDBRANCH   3   4
ENDBRANCH   2   3
ENDBRANCH   1   2
BRANCH   1  14
HETATM   14  C   UNL     1     -26.603  -5.945 -16.671  1.00  0.00     0.219 C 
HETATM   15  O   UNL     1     -26.110  -6.956 -17.172  1.00  0.00    -0.273 OA
HETATM   16  N   UNL     1     -27.822  -5.435 -17.105  1.00  0.00    -0.347 N 
BRANCH  16  17
HETATM   17  C   UNL     1     -28.478  -4.221 -16.595  1.00  0.00     0.157 C 
BRANCH  17  18
HETATM   18  C   UNL     1     -29.375  -3.446 -17.592  1.00  0.00     0.132 C 
HETATM   19  C   UNL     1     -30.869  -3.719 -17.464  1.00  0.00     0.041 C 
BRANCH  18  20
HETATM   20  O   UNL     1     -29.164  -2.041 -17.399  1.00  0.00    -0.394 OA
HETATM   21  H   UNL     1     -29.421  -1.573 -18.211  1.00  0.00     0.210 HD
ENDBRANCH  18  20
ENDBRANCH  17  18
ENDBRANCH  16  17
BRANCH  16  22
HETATM   22  C   UNL     1     -28.528  -6.211 -18.129  1.00  0.00     0.157 C 
BRANCH  22  23
HETATM   23  C   UNL     1     -29.606  -7.172 -17.583  1.00  0.00     0.132 C 
HETATM   24  C   UNL     1     -30.571  -7.681 -18.649  1.00  0.00     0.041 C 
BRANCH  23  25
HETATM   25  O   UNL     1     -28.972  -8.301 -16.972  1.00  0.00    -0.394 OA
HETATM   26  H   UNL     1     -28.393  -7.977 -16.259  1.00  0.00     0.210 HD
ENDBRANCH  23  25
ENDBRANCH  22  23
ENDBRANCH  16  22
ENDBRANCH   1  14
TORSDOF 18
BEGIN_RES ARG D 557
REMARK  4 active torsions:
REMARK  status: ('A' for Active; 'I' for Inactive)
REMARK    1  A    between atoms: CA   and  CB  
REMARK    2  A    between atoms: CB   and  CG  
REMARK    3  A    between atoms: CG   and  CD  
REMARK    4  A    between atoms: CD   and  NE  
REMARK       I    between atoms: NE   and  CZ  
REMARK       I    between atoms: CZ   and  NH1 
REMARK       I    between atoms: CZ   and  NH2 
ROOT
ATOM      1  CA  ARG D 557     -26.217   2.705 -17.014  1.00 35.49     0.159 C 
ENDROOT
BRANCH   1   2
ATOM      2  CB  ARG D 557     -26.789   1.319 -17.183  1.00 35.49     0.034 C 
BRANCH   2   3
ATOM      3  CG  ARG D 557     -25.831   0.207 -17.202  1.00 35.49     0.027 C 
BRANCH   3   4
ATOM      4  CD  ARG D 557     -24.721   0.401 -16.241  1.00 35.49     0.116 C 
BRANCH   4   5
ATOM      5  NE  ARG D 557     -24.887  -0.394 -15.053  1.00 35.49    -0.212 N 
ATOM      6  CZ  ARG D 557     -24.094  -1.366 -14.663  1.00 35.49     0.666 C 
ATOM      7  NH1 ARG D 557     -23.032  -1.736 -15.355  1.00 35.49    -0.235 N 
ATOM      8  NH2 ARG D 557     -24.385  -1.967 -13.545  1.00 35.49    -0.235 N 
ATOM      9  HH  ARG D 557     -22.821  -1.354 -16.092  1.00 35.49     0.174 HD
ATOM     10  HH  ARG D 557     -22.550  -2.376 -15.050  1.00 35.49     0.174 HD
ATOM     11  HH  ARG D 557     -25.073  -1.701 -13.116  1.00 35.49     0.174 HD
ATOM     12  HH  ARG D 557     -23.895  -2.596 -13.259  1.00 35.49     0.174 HD
ATOM     13  HE  ARG D 557     -25.586  -0.271 -14.585  1.00 35.49     0.178 HD
ENDBRANCH   4   5
ENDBRANCH   3   4
ENDBRANCH   2   3
ENDBRANCH   1   2
END_RES ARG D 557
BEGIN_RES GLU D 570
REMARK  3 active torsions:
REMARK  status: ('A' for Active; 'I' for Inactive)
REMARK    5  A    between atoms: CA   and  CB  
REMARK    6  A    between atoms: CB   and  CG  
REMARK    7  A    between atoms: CG   and  CD  
ROOT
ATOM     14  CA  GLU D 570     -18.033  -6.348 -13.375  1.00 32.92     0.160 C 
ENDROOT
BRANCH  14  15
ATOM     15  CB  GLU D 570     -19.500  -6.345 -13.794  1.00 32.92     0.043 C 
BRANCH  15  16
ATOM     16  CG  GLU D 570     -20.062  -7.612 -14.329  1.00 32.92     0.100 C 
BRANCH  16  17
ATOM     17  CD  GLU D 570     -20.797  -7.425 -15.636  1.00 32.92     0.185 C 
ATOM     18  OE1 GLU D 570     -21.629  -8.283 -15.990  1.00 32.92    -0.647 OA
ATOM     19  OE2 GLU D 570     -20.525  -6.420 -16.321  1.00 32.92    -0.647 OA
ENDBRANCH  16  17
ENDBRANCH  15  16
ENDBRANCH  14  15
END_RES GLU D 570
ENDMDL
MODEL 6
REMARK VINA RESULT:      -6.9      3.219      6.473
REMARK  18 active torsions:
REMARK  status: ('A' for Active; 'I' for Inactive)
REMARK    1  A    between atoms: C_2  and  C_3 
REMARK    2  A    between atoms: C_3  and  C_4 
REMARK    3  A    between atoms: C_4  and  C_5 
REMARK    4  A    between atoms: C_5  and  C_6 
REMARK    5  A    between atoms: C_6  and  C_7 
REMARK    6  A    between atoms: C_7  and  C_8 
REMARK    7  A    between atoms: C_8  and  C_9 
REMARK    8  A    between atoms: C_9  and  C_10 
REMARK    9  A    between atoms: C_10  and  C_11 
REMARK   10  A    between atoms: C_11  and  C_12 
REMARK   11  A    between atoms: C_12  and  C_13 
REMARK   12  A    between atoms: C_13  and  C_14 
REMARK       I    between atoms: C_14  and  N_16 
REMARK   13  A    between atoms: N_16  and  C_17 
REMARK   14  A    between atoms: N_16  and  C_21 
REMARK   15  A    between atoms: C_17  and  C_18 
REMARK   16  A    between atoms: C_18  and  O_20 
REMARK   17  A    between atoms: C_21  and  C_22 
REMARK   18  A    between atoms: C_22  and  O_24 
ROOT
HETATM    1  C   UNL     1     -26.396  -6.059 -16.823  1.00  0.00     0.103 C 
ENDROOT
BRANCH   1   2
HETATM    2  C   UNL     1     -25.888  -7.101 -15.830  1.00  0.00     0.009 C 
BRANCH   2   3
HETATM    3  C   UNL     1     -24.383  -6.923 -15.614  1.00  0.00     0.000 C 
BRANCH   3   4
HETATM    4  C   UNL     1     -24.007  -5.600 -14.954  1.00  0.00     0.000 C 
BRANCH   4   5
HETATM    5  C   UNL     1     -23.384  -5.778 -13.572  1.00  0.00     0.000 C 
BRANCH   5   6
HETATM    6  C   UNL     1     -22.590  -4.537 -13.184  1.00  0.00     0.000 C 
BRANCH   6   7
HETATM    7  C   UNL     1     -22.667  -4.287 -11.682  1.00  0.00     0.000 C 
BRANCH   7   8
HETATM    8  C   UNL     1     -21.280  -3.973 -11.136  1.00  0.00     0.000 C 
BRANCH   8   9
HETATM    9  C   UNL     1     -21.251  -4.081  -9.617  1.00  0.00     0.000 C 
BRANCH   9  10
HETATM   10  C   UNL     1     -19.995  -4.816  -9.160  1.00  0.00     0.000 C 
BRANCH  10  11
HETATM   11  C   UNL     1     -19.452  -4.210  -7.871  1.00  0.00    -0.000 C 
BRANCH  11  12
HETATM   12  C   UNL     1     -20.407  -4.455  -6.706  1.00  0.00    -0.005 C 
HETATM   13  C   UNL     1     -20.466  -5.930  -6.351  1.00  0.00     0.005 C 
ENDBRANCH  11  12
ENDBRANCH  10  11
ENDBRANCH   9  10
ENDBRANCH   8   9
ENDBRANCH   7   8
ENDBRANCH   6   7
ENDBRANCH   5   6
ENDBRANCH   4   5
ENDBRANCH   3   4
ENDBRANCH   2   3
ENDBRANCH   1   2
BRANCH   1  14
HETATM   14  C   UNL     1     -27.660  -5.385 -16.341  1.00  0.00     0.219 C 
HETATM   15  O   UNL     1     -27.607  -4.659 -15.347  1.00  0.00    -0.273 OA
HETATM   16  N   UNL     1     -28.840  -5.560 -17.055  1.00  0.00    -0.347 N 
BRANCH  16  17
HETATM   17  C   UNL     1     -29.014  -6.424 -18.233  1.00  0.00     0.157 C 
BRANCH  17  18
HETATM   18  C   UNL     1     -29.877  -7.696 -18.039  1.00  0.00     0.132 C 
HETATM   19  C   UNL     1     -31.380  -7.484 -18.182  1.00  0.00     0.041 C 
BRANCH  18  20
HETATM   20  O   UNL     1     -29.474  -8.673 -19.007  1.00  0.00    -0.394 OA
HETATM   21  H   UNL     1     -29.977  -8.527 -19.826  1.00  0.00     0.210 HD
ENDBRANCH  18  20
ENDBRANCH  17  18
ENDBRANCH  16  17
BRANCH  16  22
HETATM   22  C   UNL     1     -29.994  -4.772 -16.615  1.00  0.00     0.157 C 
BRANCH  22  23
HETATM   23  C   UNL     1     -30.580  -3.826 -17.686  1.00  0.00     0.132 C 
HETATM   24  C   UNL     1     -32.086  -3.616 -17.563  1.00  0.00     0.041 C 
BRANCH  23  25
HETATM   25  O   UNL     1     -29.938  -2.550 -17.597  1.00  0.00    -0.394 OA
HETATM   26  H   UNL     1     -28.980  -2.681 -17.715  1.00  0.00     0.210 HD
ENDBRANCH  23  25
ENDBRANCH  22  23
ENDBRANCH  16  22
ENDBRANCH   1  14
TORSDOF 18
BEGIN_RES ARG D 557
REMARK  4 active torsions:
REMARK  status: ('A' for Active; 'I' for Inactive)
REMARK    1  A    between atoms: CA   and  CB  
REMARK    2  A    between atoms: CB   and  CG  
REMARK    3  A    between atoms: CG   and  CD  
REMARK    4  A    between atoms: CD   and  NE  
REMARK       I    between atoms: NE   and  CZ  
REMARK       I    between atoms: CZ   and  NH1 
REMARK       I    between atoms: CZ   and  NH2 
ROOT
ATOM      1  CA  ARG D 557     -26.217   2.705 -17.014  1.00 35.49     0.159 C 
ENDROOT
BRANCH   1   2
ATOM      2  CB  ARG D 557     -26.789   1.319 -17.183  1.00 35.49     0.034 C 
BRANCH   2   3
ATOM      3  CG  ARG D 557     -26.147   0.242 -16.420  1.00 35.49     0.027 C 
BRANCH   3   4
ATOM      4  CD  ARG D 557     -26.945  -1.005 -16.423  1.00 35.49     0.116 C 
BRANCH   4   5
ATOM      5  NE  ARG D 557     -26.746  -1.780 -15.226  1.00 35.49    -0.212 N 
ATOM      6  CZ  ARG D 557     -25.590  -2.018 -14.649  1.00 35.49     0.666 C 
ATOM      7  NH1 ARG D 557     -24.449  -1.566 -15.134  1.00 35.49    -0.235 N 
ATOM      8  NH2 ARG D 557     -25.599  -2.723 -13.555  1.00 35.49    -0.235 N 
ATOM      9  HH  ARG D 557     -24.419  -1.098 -15.852  1.00 35.49     0.174 HD
ATOM     10  HH  ARG D 557     -23.726  -1.750 -14.713  1.00 35.49     0.174 HD
ATOM     11  HH  ARG D 557     -26.352  -2.995 -13.261  1.00 35.49     0.174 HD
ATOM     12  HH  ARG D 557     -24.873  -2.894 -13.152  1.00 35.49     0.174 HD
ATOM     13  HE  ARG D 557     -27.421  -2.170 -14.886  1.00 35.49     0.178 HD
ENDBRANCH   4   5
ENDBRANCH   3   4
ENDBRANCH   2   3
ENDBRANCH   1   2
END_RES ARG D 557
BEGIN_RES GLU D 570
REMARK  3 active torsions:
REMARK  status: ('A' for Active; 'I' for Inactive)
REMARK    5  A    between atoms: CA   and  CB  
REMARK    6  A    between atoms: CB   and  CG  
REMARK    7  A    between atoms: CG   and  CD  
ROOT
ATOM     14  CA  GLU D 570     -18.033  -6.348 -13.375  1.00 32.92     0.160 C 
ENDROOT
BRANCH  14  15
ATOM     15  CB  GLU D 570     -19.500  -6.345 -13.794  1.00 32.92     0.043 C 
BRANCH  15  16
ATOM     16  CG  GLU D 570     -20.090  -7.637 -14.229  1.00 32.92     0.100 C 
BRANCH  16  17
ATOM     17  CD  GLU D 570     -20.723  -7.565 -15.599  1.00 32.92     0.185 C 
ATOM     18  OE1 GLU D 570     -20.728  -6.477 -16.207  1.00 32.92    -0.647 OA
ATOM     19  OE2 GLU D 570     -21.234  -8.604 -16.062  1.00 32.92    -0.647 OA
ENDBRANCH  16  17
ENDBRANCH  15  16
ENDBRANCH  14  15
END_RES GLU D 570
ENDMDL
MODEL 7
REMARK VINA RESULT:      -6.8      5.800     10.974
REMARK  18 active torsions:
REMARK  status: ('A' for Active; 'I' for Inactive)
REMARK    1  A    between atoms: C_2  and  C_3 
REMARK    2  A    between atoms: C_3  and  C_4 
REMARK    3  A    between atoms: C_4  and  C_5 
REMARK    4  A    between atoms: C_5  and  C_6 
REMARK    5  A    between atoms: C_6  and  C_7 
REMARK    6  A    between atoms: C_7  and  C_8 
REMARK    7  A    between atoms: C_8  and  C_9 
REMARK    8  A    between atoms: C_9  and  C_10 
REMARK    9  A    between atoms: C_10  and  C_11 
REMARK   10  A    between atoms: C_11  and  C_12 
REMARK   11  A    between atoms: C_12  and  C_13 
REMARK   12  A    between atoms: C_13  and  C_14 
REMARK       I    between atoms: C_14  and  N_16 
REMARK   13  A    between atoms: N_16  and  C_17 
REMARK   14  A    between atoms: N_16  and  C_21 
REMARK   15  A    between atoms: C_17  and  C_18 
REMARK   16  A    between atoms: C_18  and  O_20 
REMARK   17  A    between atoms: C_21  and  C_22 
REMARK   18  A    between atoms: C_22  and  O_24 
ROOT
HETATM    1  C   UNL     1     -32.214  -4.836 -16.838  1.00  0.00     0.103 C 
ENDROOT
BRANCH   1   2
HETATM    2  C   UNL     1     -33.326  -3.827 -16.558  1.00  0.00     0.009 C 
BRANCH   2   3
HETATM    3  C   UNL     1     -34.272  -4.380 -15.489  1.00  0.00     0.000 C 
BRANCH   3   4
HETATM    4  C   UNL     1     -34.277  -3.574 -14.194  1.00  0.00     0.000 C 
BRANCH   4   5
HETATM    5  C   UNL     1     -34.222  -4.450 -12.946  1.00  0.00     0.000 C 
BRANCH   5   6
HETATM    6  C   UNL     1     -33.079  -4.010 -12.039  1.00  0.00     0.000 C 
BRANCH   6   7
HETATM    7  C   UNL     1     -33.601  -3.576 -10.675  1.00  0.00     0.000 C 
BRANCH   7   8
HETATM    8  C   UNL     1     -33.963  -2.096 -10.704  1.00  0.00     0.000 C 
BRANCH   8   9
HETATM    9  C   UNL     1     -35.471  -1.898 -10.617  1.00  0.00     0.000 C 
BRANCH   9  10
HETATM   10  C   UNL     1     -35.950  -0.973 -11.732  1.00  0.00     0.000 C 
BRANCH  10  11
HETATM   11  C   UNL     1     -34.767  -0.357 -12.470  1.00  0.00    -0.000 C 
BRANCH  11  12
HETATM   12  C   UNL     1     -35.198   0.205 -13.822  1.00  0.00    -0.005 C 
HETATM   13  C   UNL     1     -36.648  -0.137 -14.118  1.00  0.00     0.005 C 
ENDBRANCH  11  12
ENDBRANCH  10  11
ENDBRANCH   9  10
ENDBRANCH   8   9
ENDBRANCH   7   8
ENDBRANCH   6   7
ENDBRANCH   5   6
ENDBRANCH   4   5
ENDBRANCH   3   4
ENDBRANCH   2   3
ENDBRANCH   1   2
BRANCH   1  14
HETATM   14  C   UNL     1     -30.893  -4.158 -17.123  1.00  0.00     0.219 C 
HETATM   15  O   UNL     1     -30.894  -2.992 -17.521  1.00  0.00    -0.273 OA
HETATM   16  N   UNL     1     -29.709  -4.848 -16.887  1.00  0.00    -0.347 N 
BRANCH  16  17
HETATM   17  C   UNL     1     -29.601  -6.246 -16.443  1.00  0.00     0.157 C 
BRANCH  17  18
HETATM   18  C   UNL     1     -29.362  -7.308 -17.544  1.00  0.00     0.132 C 
HETATM   19  C   UNL     1     -30.566  -7.600 -18.432  1.00  0.00     0.041 C 
BRANCH  18  20
HETATM   20  O   UNL     1     -28.291  -6.861 -18.385  1.00  0.00    -0.394 OA
HETATM   21  H   UNL     1     -27.839  -6.120 -17.946  1.00  0.00     0.210 HD
ENDBRANCH  18  20
ENDBRANCH  17  18
ENDBRANCH  16  17
BRANCH  16  22
HETATM   22  C   UNL     1     -28.466  -4.090 -17.054  1.00  0.00     0.157 C 
BRANCH  22  23
HETATM   23  C   UNL     1     -27.530  -4.102 -15.825  1.00  0.00     0.132 C 
HETATM   24  C   UNL     1     -26.413  -5.136 -15.914  1.00  0.00     0.041 C 
BRANCH  23  25
HETATM   25  O   UNL     1     -26.937  -2.809 -15.665  1.00  0.00    -0.394 OA
HETATM   26  H   UNL     1     -27.608  -2.209 -15.294  1.00  0.00     0.210 HD
ENDBRANCH  23  25
ENDBRANCH  22  23
ENDBRANCH  16  22
ENDBRANCH   1  14
TORSDOF 18
BEGIN_RES ARG D 557
REMARK  4 active torsions:
REMARK  status: ('A' for Active; 'I' for Inactive)
REMARK    1  A    between atoms: CA   and  CB  
REMARK    2  A    between atoms: CB   and  CG  
REMARK    3  A    between atoms: CG   and  CD  
REMARK    4  A    between atoms: CD   and  NE  
REMARK       I    between atoms: NE   and  CZ  
REMARK       I    between atoms: CZ   and  NH1 
REMARK       I    between atoms: CZ   and  NH2 
ROOT
ATOM      1  CA  ARG D 557     -26.217   2.705 -17.014  1.00 35.49     0.159 C 
ENDROOT
BRANCH   1   2
ATOM      2  CB  ARG D 557     -26.789   1.319 -17.183  1.00 35.49     0.034 C 
BRANCH   2   3
ATOM      3  CG  ARG D 557     -25.835   0.204 -17.164  1.00 35.49     0.027 C 
BRANCH   3   4
ATOM      4  CD  ARG D 557     -24.781   0.380 -16.139  1.00 35.49     0.116 C 
BRANCH   4   5
ATOM      5  NE  ARG D 557     -24.964  -0.502 -15.016  1.00 35.49    -0.212 N 
ATOM      6  CZ  ARG D 557     -24.151  -1.471 -14.659  1.00 35.49     0.666 C 
ATOM      7  NH1 ARG D 557     -23.049  -1.753 -15.328  1.00 35.49    -0.235 N 
ATOM      8  NH2 ARG D 557     -24.464  -2.158 -13.599  1.00 35.49    -0.235 N 
ATOM      9  HH  ARG D 557     -22.822  -1.313 -16.027  1.00 35.49     0.174 HD
ATOM     10  HH  ARG D 557     -22.555  -2.395 -15.047  1.00 35.49     0.174 HD
ATOM     11  HH  ARG D 557     -25.178  -1.948 -13.183  1.00 35.49     0.174 HD
ATOM     12  HH  ARG D 557     -23.962  -2.788 -13.336  1.00 35.49     0.174 HD
ATOM     13  HE  ARG D 557     -25.686  -0.437 -14.571  1.00 35.49     0.178 HD
ENDBRANCH   4   5
ENDBRANCH   3   4
ENDBRANCH   2   3
ENDBRANCH   1   2
END_RES ARG D 557
BEGIN_RES GLU D 570
REMARK  3 active torsions:
REMARK  status: ('A' for Active; 'I' for Inactive)
REMARK    5  A    between atoms: CA   and  CB  
REMARK    6  A    between atoms: CB   and  CG  
REMARK    7  A    between atoms: CG   and  CD  
ROOT
ATOM     14  CA  GLU D 570     -18.033  -6.348 -13.375  1.00 32.92     0.160 C 
ENDROOT
BRANCH  14  15
ATOM     15  CB  GLU D 570     -19.500  -6.345 -13.794  1.00 32.92     0.043 C 
BRANCH  15  16
ATOM     16  CG  GLU D 570     -20.447  -5.554 -12.966  1.00 32.92     0.100 C 
BRANCH  16  17
ATOM     17  CD  GLU D 570     -21.744  -5.253 -13.680  1.00 32.92     0.185 C 
ATOM     18  OE1 GLU D 570     -22.250  -6.126 -14.410  1.00 32.92    -0.647 OA
ATOM     19  OE2 GLU D 570     -22.251  -4.125 -13.520  1.00 32.92    -0.647 OA
ENDBRANCH  16  17
ENDBRANCH  15  16
ENDBRANCH  14  15
END_RES GLU D 570
ENDMDL
MODEL 8
REMARK VINA RESULT:      -6.7      3.243      5.965
REMARK  18 active torsions:
REMARK  status: ('A' for Active; 'I' for Inactive)
REMARK    1  A    between atoms: C_2  and  C_3 
REMARK    2  A    between atoms: C_3  and  C_4 
REMARK    3  A    between atoms: C_4  and  C_5 
REMARK    4  A    between atoms: C_5  and  C_6 
REMARK    5  A    between atoms: C_6  and  C_7 
REMARK    6  A    between atoms: C_7  and  C_8 
REMARK    7  A    between atoms: C_8  and  C_9 
REMARK    8  A    between atoms: C_9  and  C_10 
REMARK    9  A    between atoms: C_10  and  C_11 
REMARK   10  A    between atoms: C_11  and  C_12 
REMARK   11  A    between atoms: C_12  and  C_13 
REMARK   12  A    between atoms: C_13  and  C_14 
REMARK       I    between atoms: C_14  and  N_16 
REMARK   13  A    between atoms: N_16  and  C_17 
REMARK   14  A    between atoms: N_16  and  C_21 
REMARK   15  A    between atoms: C_17  and  C_18 
REMARK   16  A    between atoms: C_18  and  O_20 
REMARK   17  A    between atoms: C_21  and  C_22 
REMARK   18  A    between atoms: C_22  and  O_24 
ROOT
HETATM    1  C   UNL     1     -24.532  -6.683 -16.019  1.00  0.00     0.103 C 
ENDROOT
BRANCH   1   2
HETATM    2  C   UNL     1     -24.229  -6.333 -14.564  1.00  0.00     0.009 C 
BRANCH   2   3
HETATM    3  C   UNL     1     -23.444  -5.020 -14.498  1.00  0.00     0.000 C 
BRANCH   3   4
HETATM    4  C   UNL     1     -24.285  -3.820 -14.074  1.00  0.00     0.000 C 
BRANCH   4   5
HETATM    5  C   UNL     1     -23.660  -3.029 -12.929  1.00  0.00     0.000 C 
BRANCH   5   6
HETATM    6  C   UNL     1     -23.698  -3.840 -11.640  1.00  0.00     0.000 C 
BRANCH   6   7
HETATM    7  C   UNL     1     -22.635  -3.358 -10.659  1.00  0.00     0.000 C 
BRANCH   7   8
HETATM    8  C   UNL     1     -21.268  -3.362 -11.332  1.00  0.00     0.000 C 
BRANCH   8   9
HETATM    9  C   UNL     1     -20.328  -4.352 -10.657  1.00  0.00     0.000 C 
BRANCH   9  10
HETATM   10  C   UNL     1     -20.769  -4.608  -9.219  1.00  0.00     0.000 C 
BRANCH  10  11
HETATM   11  C   UNL     1     -19.731  -4.085  -8.233  1.00  0.00    -0.000 C 
BRANCH  11  12
HETATM   12  C   UNL     1     -20.059  -4.522  -6.808  1.00  0.00    -0.005 C 
HETATM   13  C   UNL     1     -19.997  -6.033  -6.673  1.00  0.00     0.005 C 
ENDBRANCH  11  12
ENDBRANCH  10  11
ENDBRANCH   9  10
ENDBRANCH   8   9
ENDBRANCH   7   8
ENDBRANCH   6   7
ENDBRANCH   5   6
ENDBRANCH   4   5
ENDBRANCH   3   4
ENDBRANCH   2   3
ENDBRANCH   1   2
BRANCH   1  14
HETATM   14  C   UNL     1     -25.942  -6.305 -16.411  1.00  0.00     0.219 C 
HETATM   15  O   UNL     1     -26.718  -5.912 -15.539  1.00  0.00    -0.273 OA
HETATM   16  N   UNL     1     -26.317  -6.366 -17.749  1.00  0.00    -0.347 N 
BRANCH  16  17
HETATM   17  C   UNL     1     -25.477  -6.848 -18.857  1.00  0.00     0.157 C 
BRANCH  17  18
HETATM   18  C   UNL     1     -26.073  -6.731 -20.281  1.00  0.00     0.132 C 
HETATM   19  C   UNL     1     -25.081  -6.323 -21.365  1.00  0.00     0.041 C 
BRANCH  18  20
HETATM   20  O   UNL     1     -26.633  -7.998 -20.648  1.00  0.00    -0.394 OA
HETATM   21  H   UNL     1     -27.120  -7.894 -21.483  1.00  0.00     0.210 HD
ENDBRANCH  18  20
ENDBRANCH  17  18
ENDBRANCH  16  17
BRANCH  16  22
HETATM   22  C   UNL     1     -27.651  -5.857 -18.078  1.00  0.00     0.157 C 
BRANCH  22  23
HETATM   23  C   UNL     1     -28.814  -6.803 -17.707  1.00  0.00     0.132 C 
HETATM   24  C   UNL     1     -30.139  -6.085 -17.474  1.00  0.00     0.041 C 
BRANCH  23  25
HETATM   25  O   UNL     1     -28.999  -7.764 -18.752  1.00  0.00    -0.394 OA
HETATM   26  H   UNL     1     -28.125  -7.988 -19.119  1.00  0.00     0.210 HD
ENDBRANCH  23  25
ENDBRANCH  22  23
ENDBRANCH  16  22
ENDBRANCH   1  14
TORSDOF 18
BEGIN_RES ARG D 557
REMARK  4 active torsions:
REMARK  status: ('A' for Active; 'I' for Inactive)
REMARK    1  A    between atoms: CA   and  CB  
REMARK    2  A    between atoms: CB   and  CG  
REMARK    3  A    between atoms: CG   and  CD  
REMARK    4  A    between atoms: CD   and  NE  
REMARK       I    between atoms: NE   and  CZ  
REMARK       I    between atoms: CZ   and  NH1 
REMARK       I    between atoms: CZ   and  NH2 
ROOT
ATOM      1  CA  ARG D 557     -26.217   2.705 -17.014  1.00 35.49     0.159 C 
ENDROOT
BRANCH   1   2
ATOM      2  CB  ARG D 557     -26.789   1.319 -17.183  1.00 35.49     0.034 C 
BRANCH   2   3
ATOM      3  CG  ARG D 557     -28.228   1.227 -17.460  1.00 35.49     0.027 C 
BRANCH   3   4
ATOM      4  CD  ARG D 557     -28.909   0.243 -16.587  1.00 35.49     0.116 C 
BRANCH   4   5
ATOM      5  NE  ARG D 557     -28.029  -0.820 -16.179  1.00 35.49    -0.212 N 
ATOM      6  CZ  ARG D 557     -28.108  -2.074 -16.566  1.00 35.49     0.666 C 
ATOM      7  NH1 ARG D 557     -29.047  -2.504 -17.389  1.00 35.49    -0.235 N 
ATOM      8  NH2 ARG D 557     -27.211  -2.900 -16.112  1.00 35.49    -0.235 N 
ATOM      9  HH  ARG D 557     -29.646  -1.977 -17.702  1.00 35.49     0.174 HD
ATOM     10  HH  ARG D 557     -29.047  -3.332 -17.608  1.00 35.49     0.174 HD
ATOM     11  HH  ARG D 557     -26.612  -2.592 -15.588  1.00 35.49     0.174 HD
ATOM     12  HH  ARG D 557     -27.227  -3.716 -16.342  1.00 35.49     0.174 HD
ATOM     13  HE  ARG D 557     -27.438  -0.647 -15.593  1.00 35.49     0.178 HD
ENDBRANCH   4   5
ENDBRANCH   3   4
ENDBRANCH   2   3
ENDBRANCH   1   2
END_RES ARG D 557
BEGIN_RES GLU D 570
REMARK  3 active torsions:
REMARK  status: ('A' for Active; 'I' for Inactive)
REMARK    5  A    between atoms: CA   and  CB  
REMARK    6  A    between atoms: CB   and  CG  
REMARK    7  A    between atoms: CG   and  CD  
ROOT
ATOM     14  CA  GLU D 570     -18.033  -6.348 -13.375  1.00 32.92     0.160 C 
ENDROOT
BRANCH  14  15
ATOM     15  CB  GLU D 570     -19.500  -6.345 -13.794  1.00 32.92     0.043 C 
BRANCH  15  16
ATOM     16  CG  GLU D 570     -19.845  -5.676 -15.075  1.00 32.92     0.100 C 
BRANCH  16  17
ATOM     17  CD  GLU D 570     -20.576  -6.585 -16.036  1.00 32.92     0.185 C 
ATOM     18  OE1 GLU D 570     -20.863  -7.742 -15.675  1.00 32.92    -0.647 OA
ATOM     19  OE2 GLU D 570     -20.851  -6.139 -17.168  1.00 32.92    -0.647 OA
ENDBRANCH  16  17
ENDBRANCH  15  16
ENDBRANCH  14  15
END_RES GLU D 570
ENDMDL
MODEL 9
REMARK VINA RESULT:      -6.6      6.340     10.893
REMARK  18 active torsions:
REMARK  status: ('A' for Active; 'I' for Inactive)
REMARK    1  A    between atoms: C_2  and  C_3 
REMARK    2  A    between atoms: C_3  and  C_4 
REMARK    3  A    between atoms: C_4  and  C_5 
REMARK    4  A    between atoms: C_5  and  C_6 
REMARK    5  A    between atoms: C_6  and  C_7 
REMARK    6  A    between atoms: C_7  and  C_8 
REMARK    7  A    between atoms: C_8  and  C_9 
REMARK    8  A    between atoms: C_9  and  C_10 
REMARK    9  A    between atoms: C_10  and  C_11 
REMARK   10  A    between atoms: C_11  and  C_12 
REMARK   11  A    between atoms: C_12  and  C_13 
REMARK   12  A    between atoms: C_13  and  C_14 
REMARK       I    between atoms: C_14  and  N_16 
REMARK   13  A    between atoms: N_16  and  C_17 
REMARK   14  A    between atoms: N_16  and  C_21 
REMARK   15  A    between atoms: C_17  and  C_18 
REMARK   16  A    between atoms: C_18  and  O_20 
REMARK   17  A    between atoms: C_21  and  C_22 
REMARK   18  A    between atoms: C_22  and  O_24 
ROOT
HETATM    1  C   UNL     1     -32.907  -4.812 -16.550  1.00  0.00     0.103 C 
ENDROOT
BRANCH   1   2
HETATM    2  C   UNL     1     -33.848  -3.820 -15.870  1.00  0.00     0.009 C 
BRANCH   2   3
HETATM    3  C   UNL     1     -34.404  -4.431 -14.581  1.00  0.00     0.000 C 
BRANCH   3   4
HETATM    4  C   UNL     1     -34.091  -3.620 -13.328  1.00  0.00     0.000 C 
BRANCH   4   5
HETATM    5  C   UNL     1     -33.935  -4.484 -12.081  1.00  0.00     0.000 C 
BRANCH   5   6
HETATM    6  C   UNL     1     -33.419  -3.647 -10.916  1.00  0.00     0.000 C 
BRANCH   6   7
HETATM    7  C   UNL     1     -33.807  -2.183 -11.082  1.00  0.00     0.000 C 
BRANCH   7   8
HETATM    8  C   UNL     1     -35.226  -1.960 -10.572  1.00  0.00     0.000 C 
BRANCH   8   9
HETATM    9  C   UNL     1     -35.972  -0.961 -11.446  1.00  0.00     0.000 C 
BRANCH   9  10
HETATM   10  C   UNL     1     -36.667   0.086 -10.580  1.00  0.00     0.000 C 
BRANCH  10  11
HETATM   11  C   UNL     1     -37.233  -0.547  -9.315  1.00  0.00    -0.000 C 
BRANCH  11  12
HETATM   12  C   UNL     1     -37.738   0.520  -8.347  1.00  0.00    -0.005 C 
HETATM   13  C   UNL     1     -36.633   0.971  -7.408  1.00  0.00     0.005 C 
ENDBRANCH  11  12
ENDBRANCH  10  11
ENDBRANCH   9  10
ENDBRANCH   8   9
ENDBRANCH   7   8
ENDBRANCH   6   7
ENDBRANCH   5   6
ENDBRANCH   4   5
ENDBRANCH   3   4
ENDBRANCH   2   3
ENDBRANCH   1   2
BRANCH   1  14
HETATM   14  C   UNL     1     -31.732  -4.122 -17.204  1.00  0.00     0.219 C 
HETATM   15  O   UNL     1     -31.905  -3.025 -17.736  1.00  0.00    -0.273 OA
HETATM   16  N   UNL     1     -30.476  -4.717 -17.148  1.00  0.00    -0.347 N 
BRANCH  16  17
HETATM   17  C   UNL     1     -30.171  -6.032 -16.565  1.00  0.00     0.157 C 
BRANCH  17  18
HETATM   18  C   UNL     1     -28.895  -6.742 -17.080  1.00  0.00     0.132 C 
HETATM   19  C   UNL     1     -27.719  -6.739 -16.110  1.00  0.00     0.041 C 
BRANCH  18  20
HETATM   20  O   UNL     1     -29.219  -8.106 -17.378  1.00  0.00    -0.394 OA
HETATM   21  H   UNL     1     -28.417  -8.645 -17.280  1.00  0.00     0.210 HD
ENDBRANCH  18  20
ENDBRANCH  17  18
ENDBRANCH  16  17
BRANCH  16  22
HETATM   22  C   UNL     1     -29.357  -3.934 -17.680  1.00  0.00     0.157 C 
BRANCH  22  23
HETATM   23  C   UNL     1     -28.886  -2.778 -16.770  1.00  0.00     0.132 C 
HETATM   24  C   UNL     1     -27.436  -2.907 -16.314  1.00  0.00     0.041 C 
BRANCH  23  25
HETATM   25  O   UNL     1     -29.032  -1.535 -17.465  1.00  0.00    -0.394 OA
HETATM   26  H   UNL     1     -29.195  -0.835 -16.808  1.00  0.00     0.210 HD
ENDBRANCH  23  25
ENDBRANCH  22  23
ENDBRANCH  16  22
ENDBRANCH   1  14
TORSDOF 18
BEGIN_RES ARG D 557
REMARK  4 active torsions:
REMARK  status: ('A' for Active; 'I' for Inactive)
REMARK    1  A    between atoms: CA   and  CB  
REMARK    2  A    between atoms: CB   and  CG  
REMARK    3  A    between atoms: CG   and  CD  
REMARK    4  A    between atoms: CD   and  NE  
REMARK       I    between atoms: NE   and  CZ  
REMARK       I    between atoms: CZ   and  NH1 
REMARK       I    between atoms: CZ   and  NH2 
ROOT
ATOM      1  CA  ARG D 557     -26.217   2.705 -17.014  1.00 35.49     0.159 C 
ENDROOT
BRANCH   1   2
ATOM      2  CB  ARG D 557     -26.789   1.319 -17.183  1.00 35.49     0.034 C 
BRANCH   2   3
ATOM      3  CG  ARG D 557     -25.836   0.203 -17.152  1.00 35.49     0.027 C 
BRANCH   3   4
ATOM      4  CD  ARG D 557     -24.760   0.407 -16.155  1.00 35.49     0.116 C 
BRANCH   4   5
ATOM      5  NE  ARG D 557     -24.914  -0.450 -15.009  1.00 35.49    -0.212 N 
ATOM      6  CZ  ARG D 557     -24.101  -1.423 -14.663  1.00 35.49     0.666 C 
ATOM      7  NH1 ARG D 557     -23.028  -1.735 -15.367  1.00 35.49    -0.235 N 
ATOM      8  NH2 ARG D 557     -24.383  -2.085 -13.578  1.00 35.49    -0.235 N 
ATOM      9  HH  ARG D 557     -22.822  -1.311 -16.082  1.00 35.49     0.174 HD
ATOM     10  HH  ARG D 557     -22.533  -2.378 -15.091  1.00 35.49     0.174 HD
ATOM     11  HH  ARG D 557     -25.079  -1.856 -13.140  1.00 35.49     0.174 HD
ATOM     12  HH  ARG D 557     -23.880  -2.717 -13.321  1.00 35.49     0.174 HD
ATOM     13  HE  ARG D 557     -25.618  -0.367 -14.539  1.00 35.49     0.178 HD
ENDBRANCH   4   5
ENDBRANCH   3   4
ENDBRANCH   2   3
ENDBRANCH   1   2
END_RES ARG D 557
BEGIN_RES GLU D 570
REMARK  3 active torsions:
REMARK  status: ('A' for Active; 'I' for Inactive)
REMARK    5  A    between atoms: CA   and  CB  
REMARK    6  A    between atoms: CB   and  CG  
REMARK    7  A    between atoms: CG   and  CD  
ROOT
ATOM     14  CA  GLU D 570     -18.033  -6.348 -13.375  1.00 32.92     0.160 C 
ENDROOT
BRANCH  14  15
ATOM     15  CB  GLU D 570     -19.500  -6.345 -13.794  1.00 32.92     0.043 C 
BRANCH  15  16
ATOM     16  CG  GLU D 570     -20.446  -5.553 -12.967  1.00 32.92     0.100 C 
BRANCH  16  17
ATOM     17  CD  GLU D 570     -21.736  -5.236 -13.688  1.00 32.92     0.185 C 
ATOM     18  OE1 GLU D 570     -22.270  -4.124 -13.513  1.00 32.92    -0.647 OA
ATOM     19  OE2 GLU D 570     -22.227  -6.116 -14.422  1.00 32.92    -0.647 OA
ENDBRANCH  16  17
ENDBRANCH  15  16
ENDBRANCH  14  15
END_RES GLU D 570
ENDMDL
