MODEL 1
REMARK VINA RESULT:      -8.7      0.000      0.000
REMARK  27 active torsions:
REMARK  status: ('A' for Active; 'I' for Inactive)
REMARK    1  A    between atoms: C_2  and  C_3 
REMARK    2  A    between atoms: C_3  and  C_4 
REMARK    3  A    between atoms: C_4  and  C_5 
REMARK    4  A    between atoms: C_5  and  C_6 
REMARK    5  A    between atoms: C_7  and  C_8 
REMARK    6  A    between atoms: C_8  and  C_9 
REMARK    7  A    between atoms: C_10  and  C_11 
REMARK    8  A    between atoms: C_11  and  C_12 
REMARK    9  A    between atoms: C_13  and  C_14 
REMARK   10  A    between atoms: C_14  and  C_15 
REMARK   11  A    between atoms: C_16  and  C_17 
REMARK   12  A    between atoms: C_17  and  C_18 
REMARK   13  A    between atoms: C_18  and  C_19 
REMARK   14  A    between atoms: C_19  and  C_20 
REMARK   15  A    between atoms: C_20  and  C_21 
REMARK   16  A    between atoms: C_21  and  C_22 
REMARK   17  A    between atoms: C_22  and  C_23 
REMARK   18  A    between atoms: C_23  and  C_24 
REMARK   19  A    between atoms: C_24  and  C_25 
REMARK   20  A    between atoms: C_25  and  C_26 
REMARK   21  A    between atoms: C_26  and  C_27 
REMARK   22  A    between atoms: C_27  and  C_28 
REMARK   23  A    between atoms: C_28  and  C_29 
REMARK   24  A    between atoms: C_29  and  C_30 
REMARK   25  A    between atoms: C_30  and  C_31 
REMARK   26  A    between atoms: C_47  and  O_85 
REMARK   27  A    between atoms: C_71  and  N_78 
ROOT
HETATM    1  C   UNL     1     -21.395 -14.698  -4.888  1.00  0.00     0.484 C 
HETATM    2  C   UNL     1     -20.155 -14.137  -5.546  1.00  0.00     0.014 C 
HETATM    3  C   UNL     1     -18.972 -14.760  -6.278  1.00  0.00     0.091 C 
HETATM    4  C   UNL     1     -17.968 -13.677  -5.952  1.00  0.00     0.186 C 
HETATM    5  O   UNL     1     -18.360 -12.538  -6.068  1.00  0.00    -0.286 OA
HETATM    6  S   UNL     1     -16.261 -14.173  -6.198  1.00  0.00    -0.091 SA
HETATM    7  C   UNL     1     -15.384 -14.299  -4.711  1.00  0.00     0.102 C 
HETATM    8  C   UNL     1     -13.933 -14.700  -4.713  1.00  0.00     0.133 C 
HETATM    9  N   UNL     1     -13.291 -14.530  -3.403  1.00  0.00    -0.360 N 
HETATM   10  C   UNL     1     -13.943 -14.438  -2.165  1.00  0.00     0.219 C 
HETATM   11  O   UNL     1     -15.169 -14.496  -2.053  1.00  0.00    -0.274 OA
HETATM   12  C   UNL     1     -13.143 -14.185  -0.882  1.00  0.00     0.122 C 
HETATM   13  C   UNL     1     -11.705 -14.615  -1.147  1.00  0.00     0.132 C 
HETATM   14  N   UNL     1     -10.798 -14.536  -0.000  1.00  0.00    -0.358 N 
HETATM   15  C   UNL     1     -11.100 -13.813   1.145  1.00  0.00     0.247 C 
HETATM   16  O   UNL     1     -12.003 -12.972   1.184  1.00  0.00    -0.271 OA
HETATM   17  C   UNL     1     -10.155 -13.986   2.321  1.00  0.00     0.219 C 
HETATM   18  C   UNL     1     -10.216 -15.379   2.971  1.00  0.00     0.009 C 
HETATM   19  C   UNL     1      -9.774 -16.529   2.046  1.00  0.00     0.020 C 
HETATM   20  C   UNL     1      -9.302 -15.414   4.213  1.00  0.00     0.020 C 
HETATM   21  C   UNL     1     -11.670 -15.588   3.417  1.00  0.00     0.193 C 
HETATM   22  O   UNL     1     -12.537 -15.516   2.306  1.00  0.00    -0.289 OA
HETATM   23  P   UNL     1     -14.166 -15.807   2.812  1.00  0.00     0.417 P 
HETATM   24  O   UNL     1     -13.736 -17.181   3.309  1.00  0.00    -0.624 OA
HETATM   25  O   UNL     1     -14.109 -14.465   3.861  1.00  0.00    -0.624 OA
HETATM   26  O   UNL     1     -15.794 -16.098   3.318  1.00  0.00    -0.180 OA
HETATM   27  P   UNL     1     -16.881 -15.637   2.053  1.00  0.00     0.417 P 
HETATM   28  O   UNL     1     -18.105 -16.053   2.917  1.00  0.00    -0.624 OA
HETATM   29  O   UNL     1     -16.538 -14.136   2.037  1.00  0.00    -0.624 OA
HETATM   30  O   UNL     1     -17.968 -15.175   0.789  1.00  0.00    -0.287 OA
HETATM   31  C   UNL     1     -17.709 -15.932  -0.363  1.00  0.00     0.216 C 
HETATM   32  C   UNL     1     -18.665 -15.530  -1.479  1.00  0.00     0.180 C 
HETATM   33  C   UNL     1     -18.503 -14.023  -1.834  1.00  0.00     0.198 C 
HETATM   34  C   UNL     1     -19.901 -13.521  -2.156  1.00  0.00     0.201 C 
HETATM   35  C   UNL     1     -20.674 -14.761  -1.981  1.00  0.00     0.254 C 
HETATM   36  O   UNL     1     -20.100 -15.667  -1.085  1.00  0.00    -0.354 OA
HETATM   37  N   UNL     1     -21.080 -15.386  -3.288  1.00  0.00    -0.333 N 
HETATM   38  C   UNL     1     -19.800 -16.325  -4.060  1.00  0.00     0.375 C 
HETATM   39  N   UNL     1     -20.817 -16.484  -5.176  1.00  0.00     0.040 NA
HETATM   40  C   UNL     1     -22.343 -16.809  -4.846  1.00  0.00     0.313 C 
HETATM   41  C   UNL     1     -23.278 -16.691  -5.694  1.00  0.00     0.091 C 
HETATM   42  N   UNL     1     -24.530 -16.379  -5.231  1.00  0.00    -0.345 N 
ATOM     43  HN  UNL     1     -25.370 -16.630  -5.753  1.00  0.00     0.167 HD
HETATM   44  C   UNL     1     -24.602 -15.729  -4.060  1.00  0.00     0.179 C 
HETATM   45  N   UNL     1     -23.594 -15.061  -3.882  1.00  0.00    -0.358 N 
ATOM     46  HN  UNL     1     -23.668 -14.045  -3.824  1.00  0.00     0.162 HD
HETATM   47  C   UNL     1     -22.367 -15.659  -3.761  1.00  0.00     0.144 C 
HETATM   48  O   UNL     1     -20.021 -12.930  -3.445  1.00  0.00    -0.368 OA
HETATM   49  O   UNL     1     -17.643 -13.854  -2.946  1.00  0.00    -0.279 OA
HETATM   50  P   UNL     1     -17.485 -12.172  -3.315  1.00  0.00     0.407 P 
HETATM   51  O   UNL     1     -15.960 -12.274  -3.073  1.00  0.00    -0.624 OA
HETATM   52  O   UNL     1     -18.527 -11.933  -4.295  1.00  0.00    -0.279 OA
HETATM   53  O   UNL     1     -17.327 -10.489  -3.682  1.00  0.00    -0.624 OA
HETATM   54  H   UNL     1     -12.294 -14.617  -3.491  1.00  0.00     0.162 HD
HETATM   55  H   UNL     1      -9.985 -15.133  -0.042  1.00  0.00     0.162 HD
HETATM   56  H   UNL     1     -19.272 -12.755  -3.998  1.00  0.00     0.387 HD
ENDROOT
BRANCH   1  57
HETATM   57  C   UNL     1     -22.379 -13.585  -3.413  1.00  0.00     0.006 C 
BRANCH  57  58
HETATM   58  C   UNL     1     -22.633 -11.590  -3.756  1.00  0.00     0.000 C 
BRANCH  58  59
HETATM   59  C   UNL     1     -22.368 -10.464  -2.772  1.00  0.00     0.000 C 
BRANCH  59  60
HETATM   60  C   UNL     1     -22.254 -10.872  -1.220  1.00  0.00     0.000 C 
BRANCH  60  61
HETATM   61  C   UNL     1     -22.864  -9.684  -0.577  1.00  0.00     0.000 C 
BRANCH  61  62
HETATM   62  C   UNL     1     -21.895  -8.923   0.262  1.00  0.00     0.000 C 
BRANCH  62  63
HETATM   63  C   UNL     1     -22.157  -7.509  -0.164  1.00  0.00     0.000 C 
BRANCH  63  64
HETATM   64  C   UNL     1     -22.059  -7.440  -1.647  1.00  0.00     0.000 C 
BRANCH  64  65
HETATM   65  C   UNL     1     -21.987  -5.987  -2.012  1.00  0.00     0.000 C 
BRANCH  65  66
HETATM   66  C   UNL     1     -21.348  -5.894  -3.368  1.00  0.00     0.004 C 
BRANCH  66  67
HETATM   67  C   UNL     1     -20.823  -7.252  -3.716  1.00  0.00     0.027 C 
BRANCH  67  68
HETATM   68  C   UNL     1     -21.006  -7.491  -5.172  1.00  0.00    -0.030 C 
BRANCH  68  69
HETATM   69  C   UNL     1     -21.690  -6.649  -5.967  1.00  0.00    -0.027 C 
BRANCH  69  70
HETATM   70  C   UNL     1     -21.054  -5.497  -6.666  1.00  0.00     0.053 C 
BRANCH  70  71
HETATM   71  C   UNL     1     -22.045  -4.687  -7.481  1.00  0.00    -0.027 C 
HETATM   72  C   UNL     1     -22.546  -5.086  -8.607  1.00  0.00    -0.027 C 
BRANCH  72  73
HETATM   73  C   UNL     1     -23.538  -4.277  -9.422  1.00  0.00     0.053 C 
BRANCH  73  74
HETATM   74  C   UNL     1     -22.951  -3.759 -10.688  1.00  0.00    -0.027 C 
HETATM   75  C   UNL     1     -23.603  -3.792 -11.866  1.00  0.00    -0.027 C 
BRANCH  75  76
HETATM   76  C   UNL     1     -23.015  -3.274 -13.132  1.00  0.00     0.053 C 
BRANCH  76  77
HETATM   77  C   UNL     1     -23.050  -4.297 -14.254  1.00  0.00    -0.027 C 
HETATM   78  C   UNL     1     -23.772  -5.371 -14.225  1.00  0.00    -0.027 C 
BRANCH  78  79
HETATM   79  C   UNL     1     -23.807  -6.392 -15.347  1.00  0.00     0.053 C 
BRANCH  79  80
HETATM   80  C   UNL     1     -25.114  -7.100 -15.438  1.00  0.00    -0.027 C 
HETATM   81  C   UNL     1     -26.299  -6.467 -15.344  1.00  0.00    -0.030 C 
BRANCH  81  82
HETATM   82  C   UNL     1     -27.601  -7.176 -15.440  1.00  0.00     0.027 C 
BRANCH  82  83
HETATM   83  C   UNL     1     -28.589  -6.386 -16.292  1.00  0.00     0.004 C 
BRANCH  83  84
HETATM   84  C   UNL     1     -28.252  -6.530 -17.775  1.00  0.00    -0.000 C 
BRANCH  84  85
HETATM   85  C   UNL     1     -29.479  -6.272 -18.643  1.00  0.00    -0.005 C 
HETATM   86  C   UNL     1     -30.573  -7.284 -18.351  1.00  0.00     0.005 C 
ENDBRANCH  84  85
ENDBRANCH  83  84
ENDBRANCH  82  83
ENDBRANCH  81  82
ENDBRANCH  79  80
ENDBRANCH  78  79
ENDBRANCH  76  77
ENDBRANCH  75  76
ENDBRANCH  73  74
ENDBRANCH  72  73
ENDBRANCH  70  71
ENDBRANCH  69  70
ENDBRANCH  68  69
ENDBRANCH  67  68
ENDBRANCH  66  67
ENDBRANCH  65  66
ENDBRANCH  64  65
ENDBRANCH  63  64
ENDBRANCH  62  63
ENDBRANCH  61  62
ENDBRANCH  60  61
ENDBRANCH  59  60
ENDBRANCH  58  59
ENDBRANCH  57  58
ENDBRANCH   1  57
BRANCH  41  87
HETATM   87  N   UNL     1     -23.135 -16.999  -7.032  1.00  0.00    -0.290 NA
HETATM   88  H   UNL     1     -22.986 -16.173  -7.602  1.00  0.00     0.125 HD
HETATM   89  H   UNL     1     -22.516 -17.785  -7.163  1.00  0.00     0.125 HD
ENDBRANCH  41  87
BRANCH  17  90
HETATM   90  O   UNL     1      -8.843 -13.630   1.915  1.00  0.00    -0.385 OA
HETATM   91  H   UNL     1      -8.919 -13.388   0.972  1.00  0.00     0.210 HD
ENDBRANCH  17  90
TORSDOF 27
BEGIN_RES ARG D 557
REMARK  4 active torsions:
REMARK  status: ('A' for Active; 'I' for Inactive)
REMARK    1  A    between atoms: CA   and  CB  
REMARK    2  A    between atoms: CB   and  CG  
REMARK    3  A    between atoms: CG   and  CD  
REMARK    4  A    between atoms: CD   and  NE  
REMARK       I    between atoms: NE   and  CZ  
REMARK       I    between atoms: CZ   and  NH1 
REMARK       I    between atoms: CZ   and  NH2 
ROOT
ATOM      1  CA  ARG D 557     -26.217   2.705 -17.014  1.00 35.49     0.159 C 
ENDROOT
BRANCH   1   2
ATOM      2  CB  ARG D 557     -26.789   1.319 -17.183  1.00 35.49     0.034 C 
BRANCH   2   3
ATOM      3  CG  ARG D 557     -28.189   1.230 -17.614  1.00 35.49     0.027 C 
BRANCH   3   4
ATOM      4  CD  ARG D 557     -28.966   0.256 -16.813  1.00 35.49     0.116 C 
BRANCH   4   5
ATOM      5  NE  ARG D 557     -28.270  -0.994 -16.656  1.00 35.49    -0.212 N 
ATOM      6  CZ  ARG D 557     -28.740  -2.179 -16.973  1.00 35.49     0.666 C 
ATOM      7  NH1 ARG D 557     -29.950  -2.352 -17.474  1.00 35.49    -0.235 N 
ATOM      8  NH2 ARG D 557     -27.962  -3.204 -16.783  1.00 35.49    -0.235 N 
ATOM      9  HH  ARG D 557     -30.478  -1.691 -17.609  1.00 35.49     0.174 HD
ATOM     10  HH  ARG D 557     -30.202  -3.149 -17.664  1.00 35.49     0.174 HD
ATOM     11  HH  ARG D 557     -27.183  -3.062 -16.465  1.00 35.49     0.174 HD
ATOM     12  HH  ARG D 557     -28.229  -3.985 -16.979  1.00 35.49     0.174 HD
ATOM     13  HE  ARG D 557     -27.511  -0.983 -16.273  1.00 35.49     0.178 HD
ENDBRANCH   4   5
ENDBRANCH   3   4
ENDBRANCH   2   3
ENDBRANCH   1   2
END_RES ARG D 557
BEGIN_RES GLU D 570
REMARK  3 active torsions:
REMARK  status: ('A' for Active; 'I' for Inactive)
REMARK    5  A    between atoms: CA   and  CB  
REMARK    6  A    between atoms: CB   and  CG  
REMARK    7  A    between atoms: CG   and  CD  
ROOT
ATOM     14  CA  GLU D 570     -18.033  -6.348 -13.375  1.00 32.92     0.160 C 
ENDROOT
BRANCH  14  15
ATOM     15  CB  GLU D 570     -19.500  -6.345 -13.794  1.00 32.92     0.043 C 
BRANCH  15  16
ATOM     16  CG  GLU D 570     -19.850  -5.645 -15.057  1.00 32.92     0.100 C 
BRANCH  16  17
ATOM     17  CD  GLU D 570     -20.398  -6.575 -16.114  1.00 32.92     0.185 C 
ATOM     18  OE1 GLU D 570     -20.455  -6.182 -17.295  1.00 32.92    -0.647 OA
ATOM     19  OE2 GLU D 570     -20.790  -7.703 -15.754  1.00 32.92    -0.647 OA
ENDBRANCH  16  17
ENDBRANCH  15  16
ENDBRANCH  14  15
END_RES GLU D 570
ENDMDL
MODEL 2
REMARK VINA RESULT:      -8.0      1.861      3.224
REMARK  27 active torsions:
REMARK  status: ('A' for Active; 'I' for Inactive)
REMARK    1  A    between atoms: C_2  and  C_3 
REMARK    2  A    between atoms: C_3  and  C_4 
REMARK    3  A    between atoms: C_4  and  C_5 
REMARK    4  A    between atoms: C_5  and  C_6 
REMARK    5  A    between atoms: C_7  and  C_8 
REMARK    6  A    between atoms: C_8  and  C_9 
REMARK    7  A    between atoms: C_10  and  C_11 
REMARK    8  A    between atoms: C_11  and  C_12 
REMARK    9  A    between atoms: C_13  and  C_14 
REMARK   10  A    between atoms: C_14  and  C_15 
REMARK   11  A    between atoms: C_16  and  C_17 
REMARK   12  A    between atoms: C_17  and  C_18 
REMARK   13  A    between atoms: C_18  and  C_19 
REMARK   14  A    between atoms: C_19  and  C_20 
REMARK   15  A    between atoms: C_20  and  C_21 
REMARK   16  A    between atoms: C_21  and  C_22 
REMARK   17  A    between atoms: C_22  and  C_23 
REMARK   18  A    between atoms: C_23  and  C_24 
REMARK   19  A    between atoms: C_24  and  C_25 
REMARK   20  A    between atoms: C_25  and  C_26 
REMARK   21  A    between atoms: C_26  and  C_27 
REMARK   22  A    between atoms: C_27  and  C_28 
REMARK   23  A    between atoms: C_28  and  C_29 
REMARK   24  A    between atoms: C_29  and  C_30 
REMARK   25  A    between atoms: C_30  and  C_31 
REMARK   26  A    between atoms: C_47  and  O_85 
REMARK   27  A    between atoms: C_71  and  N_78 
ROOT
HETATM    1  C   UNL     1     -20.793 -14.203  -4.944  1.00  0.00     0.484 C 
HETATM    2  C   UNL     1     -19.498 -13.716  -5.553  1.00  0.00     0.014 C 
HETATM    3  C   UNL     1     -18.330 -14.407  -6.245  1.00  0.00     0.091 C 
HETATM    4  C   UNL     1     -17.273 -13.390  -5.876  1.00  0.00     0.186 C 
HETATM    5  O   UNL     1     -17.591 -12.228  -5.999  1.00  0.00    -0.286 OA
HETATM    6  S   UNL     1     -15.592 -13.988  -6.063  1.00  0.00    -0.091 SA
HETATM    7  C   UNL     1     -14.780 -14.174  -4.545  1.00  0.00     0.102 C 
HETATM    8  C   UNL     1     -13.356 -14.662  -4.497  1.00  0.00     0.133 C 
HETATM    9  N   UNL     1     -12.754 -14.537  -3.164  1.00  0.00    -0.360 N 
HETATM   10  C   UNL     1     -13.444 -14.410  -1.950  1.00  0.00     0.219 C 
HETATM   11  O   UNL     1     -14.674 -14.394  -1.883  1.00  0.00    -0.274 OA
HETATM   12  C   UNL     1     -12.678 -14.212  -0.636  1.00  0.00     0.122 C 
HETATM   13  C   UNL     1     -11.260 -14.729  -0.852  1.00  0.00     0.132 C 
HETATM   14  N   UNL     1     -10.393 -14.710   0.327  1.00  0.00    -0.358 N 
HETATM   15  C   UNL     1     -10.692 -13.974   1.466  1.00  0.00     0.247 C 
HETATM   16  O   UNL     1     -11.543 -13.079   1.477  1.00  0.00    -0.271 OA
HETATM   17  C   UNL     1      -9.803 -14.209   2.674  1.00  0.00     0.219 C 
HETATM   18  C   UNL     1      -9.972 -15.599   3.312  1.00  0.00     0.009 C 
HETATM   19  C   UNL     1      -9.568 -16.770   2.397  1.00  0.00     0.020 C 
HETATM   20  C   UNL     1      -9.109 -15.695   4.587  1.00  0.00     0.020 C 
HETATM   21  C   UNL     1     -11.452 -15.719   3.704  1.00  0.00     0.193 C 
HETATM   22  O   UNL     1     -12.271 -15.590   2.563  1.00  0.00    -0.289 OA
HETATM   23  P   UNL     1     -13.933 -15.783   3.008  1.00  0.00     0.417 P 
HETATM   24  O   UNL     1     -13.606 -17.183   3.511  1.00  0.00    -0.624 OA
HETATM   25  O   UNL     1     -13.833 -14.452   4.066  1.00  0.00    -0.624 OA
HETATM   26  O   UNL     1     -15.594 -15.976   3.451  1.00  0.00    -0.180 OA
HETATM   27  P   UNL     1     -16.603 -15.444   2.151  1.00  0.00     0.417 P 
HETATM   28  O   UNL     1     -17.881 -15.788   2.967  1.00  0.00    -0.624 OA
HETATM   29  O   UNL     1     -16.168 -13.967   2.157  1.00  0.00    -0.624 OA
HETATM   30  O   UNL     1     -17.613 -14.912   0.852  1.00  0.00    -0.287 OA
HETATM   31  C   UNL     1     -17.358 -15.679  -0.296  1.00  0.00     0.216 C 
HETATM   32  C   UNL     1     -18.246 -15.214  -1.443  1.00  0.00     0.180 C 
HETATM   33  C   UNL     1     -17.979 -13.719  -1.782  1.00  0.00     0.198 C 
HETATM   34  C   UNL     1     -19.332 -13.131  -2.152  1.00  0.00     0.201 C 
HETATM   35  C   UNL     1     -20.185 -14.321  -2.013  1.00  0.00     0.254 C 
HETATM   36  O   UNL     1     -19.700 -15.264  -1.102  1.00  0.00    -0.354 OA
HETATM   37  N   UNL     1     -20.580 -14.915  -3.338  1.00  0.00    -0.333 N 
HETATM   38  C   UNL     1     -19.332 -15.928  -4.069  1.00  0.00     0.375 C 
HETATM   39  N   UNL     1     -20.315 -16.020  -5.221  1.00  0.00     0.040 NA
HETATM   40  C   UNL     1     -21.869 -16.252  -4.949  1.00  0.00     0.313 C 
HETATM   41  C   UNL     1     -22.763 -16.073  -5.831  1.00  0.00     0.091 C 
HETATM   42  N   UNL     1     -24.010 -15.687  -5.411  1.00  0.00    -0.345 N 
ATOM     43  HN  UNL     1     -24.844 -15.884  -5.965  1.00  0.00     0.167 HD
HETATM   44  C   UNL     1     -24.085 -15.039  -4.240  1.00  0.00     0.179 C 
HETATM   45  N   UNL     1     -23.046 -14.435  -4.021  1.00  0.00    -0.358 N 
ATOM     46  HN  UNL     1     -23.059 -13.417  -3.959  1.00  0.00     0.162 HD
HETATM   47  C   UNL     1     -21.863 -15.107  -3.858  1.00  0.00     0.144 C 
HETATM   48  O   UNL     1     -19.368 -12.528  -3.441  1.00  0.00    -0.368 OA
HETATM   49  O   UNL     1     -17.071 -13.598  -2.861  1.00  0.00    -0.279 OA
HETATM   50  P   UNL     1     -16.797 -11.927  -3.213  1.00  0.00     0.407 P 
HETATM   51  O   UNL     1     -15.291 -12.123  -2.917  1.00  0.00    -0.624 OA
HETATM   52  O   UNL     1     -17.786 -11.621  -4.230  1.00  0.00    -0.279 OA
HETATM   53  O   UNL     1     -16.522 -10.255  -3.565  1.00  0.00    -0.624 OA
HETATM   54  H   UNL     1     -11.761 -14.685  -3.216  1.00  0.00     0.162 HD
HETATM   55  H   UNL     1      -9.616 -15.355   0.312  1.00  0.00     0.162 HD
HETATM   56  H   UNL     1     -18.590 -12.397  -3.965  1.00  0.00     0.387 HD
ENDROOT
BRANCH   1  57
HETATM   57  C   UNL     1     -21.761 -13.038  -3.498  1.00  0.00     0.006 C 
BRANCH  57  58
HETATM   58  C   UNL     1     -22.215 -11.112  -3.996  1.00  0.00     0.000 C 
BRANCH  58  59
HETATM   59  C   UNL     1     -21.749  -9.859  -3.274  1.00  0.00     0.000 C 
BRANCH  59  60
HETATM   60  C   UNL     1     -21.456  -8.567  -4.186  1.00  0.00     0.000 C 
BRANCH  60  61
HETATM   61  C   UNL     1     -21.402  -7.507  -3.152  1.00  0.00     0.000 C 
BRANCH  61  62
HETATM   62  C   UNL     1     -21.223  -6.145  -3.732  1.00  0.00     0.000 C 
BRANCH  62  63
HETATM   63  C   UNL     1     -20.425  -6.435  -4.968  1.00  0.00     0.000 C 
BRANCH  63  64
HETATM   64  C   UNL     1     -20.569  -5.285  -5.901  1.00  0.00     0.000 C 
BRANCH  64  65
HETATM   65  C   UNL     1     -21.807  -5.532  -6.709  1.00  0.00     0.000 C 
BRANCH  65  66
HETATM   66  C   UNL     1     -21.465  -5.277  -8.149  1.00  0.00     0.004 C 
BRANCH  66  67
HETATM   67  C   UNL     1     -20.691  -3.996  -8.211  1.00  0.00     0.027 C 
BRANCH  67  68
HETATM   68  C   UNL     1     -19.975  -3.917  -9.511  1.00  0.00    -0.030 C 
BRANCH  68  69
HETATM   69  C   UNL     1     -20.558  -4.226 -10.683  1.00  0.00    -0.027 C 
BRANCH  69  70
HETATM   70  C   UNL     1     -21.520  -3.322 -11.374  1.00  0.00     0.053 C 
BRANCH  70  71
HETATM   71  C   UNL     1     -21.977  -3.867 -12.714  1.00  0.00    -0.027 C 
HETATM   72  C   UNL     1     -22.716  -4.923 -12.848  1.00  0.00    -0.027 C 
BRANCH  72  73
HETATM   73  C   UNL     1     -23.172  -5.469 -14.187  1.00  0.00     0.053 C 
BRANCH  73  74
HETATM   74  C   UNL     1     -24.654  -5.492 -14.321  1.00  0.00    -0.027 C 
HETATM   75  C   UNL     1     -25.301  -5.013 -15.400  1.00  0.00    -0.027 C 
BRANCH  75  76
HETATM   76  C   UNL     1     -26.784  -5.037 -15.533  1.00  0.00     0.053 C 
BRANCH  76  77
HETATM   77  C   UNL     1     -27.240  -5.111 -16.979  1.00  0.00    -0.027 C 
HETATM   78  C   UNL     1     -28.134  -5.943 -17.409  1.00  0.00    -0.027 C 
BRANCH  78  79
HETATM   79  C   UNL     1     -28.589  -6.016 -18.855  1.00  0.00     0.053 C 
BRANCH  79  80
HETATM   80  C   UNL     1     -27.454  -5.962 -19.817  1.00  0.00    -0.027 C 
HETATM   81  C   UNL     1     -26.431  -6.838 -19.795  1.00  0.00    -0.030 C 
BRANCH  81  82
HETATM   82  C   UNL     1     -25.303  -6.783 -20.759  1.00  0.00     0.027 C 
BRANCH  82  83
HETATM   83  C   UNL     1     -24.619  -8.142 -20.874  1.00  0.00     0.004 C 
BRANCH  83  84
HETATM   84  C   UNL     1     -23.363  -8.038 -21.736  1.00  0.00    -0.000 C 
BRANCH  84  85
HETATM   85  C   UNL     1     -22.113  -8.353 -20.922  1.00  0.00    -0.005 C 
HETATM   86  C   UNL     1     -21.173  -9.258 -21.700  1.00  0.00     0.005 C 
ENDBRANCH  84  85
ENDBRANCH  83  84
ENDBRANCH  82  83
ENDBRANCH  81  82
ENDBRANCH  79  80
ENDBRANCH  78  79
ENDBRANCH  76  77
ENDBRANCH  75  76
ENDBRANCH  73  74
ENDBRANCH  72  73
ENDBRANCH  70  71
ENDBRANCH  69  70
ENDBRANCH  68  69
ENDBRANCH  67  68
ENDBRANCH  66  67
ENDBRANCH  65  66
ENDBRANCH  64  65
ENDBRANCH  63  64
ENDBRANCH  62  63
ENDBRANCH  61  62
ENDBRANCH  60  61
ENDBRANCH  59  60
ENDBRANCH  58  59
ENDBRANCH  57  58
ENDBRANCH   1  57
BRANCH  41  87
HETATM   87  N   UNL     1     -22.591 -16.385  -7.164  1.00  0.00    -0.290 NA
HETATM   88  H   UNL     1     -21.615 -16.356  -7.441  1.00  0.00     0.125 HD
HETATM   89  H   UNL     1     -23.136 -17.193  -7.425  1.00  0.00     0.125 HD
ENDBRANCH  41  87
BRANCH  17  90
HETATM   90  O   UNL     1      -8.458 -13.933   2.318  1.00  0.00    -0.385 OA
HETATM   91  H   UNL     1      -8.258 -14.529   1.571  1.00  0.00     0.210 HD
ENDBRANCH  17  90
TORSDOF 27
BEGIN_RES ARG D 557
REMARK  4 active torsions:
REMARK  status: ('A' for Active; 'I' for Inactive)
REMARK    1  A    between atoms: CA   and  CB  
REMARK    2  A    between atoms: CB   and  CG  
REMARK    3  A    between atoms: CG   and  CD  
REMARK    4  A    between atoms: CD   and  NE  
REMARK       I    between atoms: NE   and  CZ  
REMARK       I    between atoms: CZ   and  NH1 
REMARK       I    between atoms: CZ   and  NH2 
ROOT
ATOM      1  CA  ARG D 557     -26.217   2.705 -17.014  1.00 35.49     0.159 C 
ENDROOT
BRANCH   1   2
ATOM      2  CB  ARG D 557     -26.789   1.319 -17.183  1.00 35.49     0.034 C 
BRANCH   2   3
ATOM      3  CG  ARG D 557     -25.848   0.198 -17.072  1.00 35.49     0.027 C 
BRANCH   3   4
ATOM      4  CD  ARG D 557     -24.544   0.610 -16.504  1.00 35.49     0.116 C 
BRANCH   4   5
ATOM      5  NE  ARG D 557     -24.154  -0.212 -15.389  1.00 35.49    -0.212 N 
ATOM      6  CZ  ARG D 557     -24.867  -1.183 -14.864  1.00 35.49     0.666 C 
ATOM      7  NH1 ARG D 557     -26.065  -1.506 -15.315  1.00 35.49    -0.235 N 
ATOM      8  NH2 ARG D 557     -24.347  -1.839 -13.868  1.00 35.49    -0.235 N 
ATOM      9  HH  ARG D 557     -26.426  -1.089 -15.971  1.00 35.49     0.174 HD
ATOM     10  HH  ARG D 557     -26.483  -2.151 -14.934  1.00 35.49     0.174 HD
ATOM     11  HH  ARG D 557     -23.568  -1.613 -13.603  1.00 35.49     0.174 HD
ATOM     12  HH  ARG D 557     -24.776  -2.475 -13.506  1.00 35.49     0.174 HD
ATOM     13  HE  ARG D 557     -23.427  -0.025 -14.990  1.00 35.49     0.178 HD
ENDBRANCH   4   5
ENDBRANCH   3   4
ENDBRANCH   2   3
ENDBRANCH   1   2
END_RES ARG D 557
BEGIN_RES GLU D 570
REMARK  3 active torsions:
REMARK  status: ('A' for Active; 'I' for Inactive)
REMARK    5  A    between atoms: CA   and  CB  
REMARK    6  A    between atoms: CB   and  CG  
REMARK    7  A    between atoms: CG   and  CD  
ROOT
ATOM     14  CA  GLU D 570     -18.033  -6.348 -13.375  1.00 32.92     0.160 C 
ENDROOT
BRANCH  14  15
ATOM     15  CB  GLU D 570     -19.500  -6.345 -13.794  1.00 32.92     0.043 C 
BRANCH  15  16
ATOM     16  CG  GLU D 570     -20.080  -7.629 -14.265  1.00 32.92     0.100 C 
BRANCH  16  17
ATOM     17  CD  GLU D 570     -20.546  -7.573 -15.702  1.00 32.92     0.185 C 
ATOM     18  OE1 GLU D 570     -21.180  -8.538 -16.170  1.00 32.92    -0.647 OA
ATOM     19  OE2 GLU D 570     -20.259  -6.561 -16.370  1.00 32.92    -0.647 OA
ENDBRANCH  16  17
ENDBRANCH  15  16
ENDBRANCH  14  15
END_RES GLU D 570
ENDMDL
MODEL 3
REMARK VINA RESULT:      -7.1      1.509      3.732
REMARK  27 active torsions:
REMARK  status: ('A' for Active; 'I' for Inactive)
REMARK    1  A    between atoms: C_2  and  C_3 
REMARK    2  A    between atoms: C_3  and  C_4 
REMARK    3  A    between atoms: C_4  and  C_5 
REMARK    4  A    between atoms: C_5  and  C_6 
REMARK    5  A    between atoms: C_7  and  C_8 
REMARK    6  A    between atoms: C_8  and  C_9 
REMARK    7  A    between atoms: C_10  and  C_11 
REMARK    8  A    between atoms: C_11  and  C_12 
REMARK    9  A    between atoms: C_13  and  C_14 
REMARK   10  A    between atoms: C_14  and  C_15 
REMARK   11  A    between atoms: C_16  and  C_17 
REMARK   12  A    between atoms: C_17  and  C_18 
REMARK   13  A    between atoms: C_18  and  C_19 
REMARK   14  A    between atoms: C_19  and  C_20 
REMARK   15  A    between atoms: C_20  and  C_21 
REMARK   16  A    between atoms: C_21  and  C_22 
REMARK   17  A    between atoms: C_22  and  C_23 
REMARK   18  A    between atoms: C_23  and  C_24 
REMARK   19  A    between atoms: C_24  and  C_25 
REMARK   20  A    between atoms: C_25  and  C_26 
REMARK   21  A    between atoms: C_26  and  C_27 
REMARK   22  A    between atoms: C_27  and  C_28 
REMARK   23  A    between atoms: C_28  and  C_29 
REMARK   24  A    between atoms: C_29  and  C_30 
REMARK   25  A    between atoms: C_30  and  C_31 
REMARK   26  A    between atoms: C_47  and  O_85 
REMARK   27  A    between atoms: C_71  and  N_78 
ROOT
HETATM    1  C   UNL     1     -21.371 -14.832  -4.947  1.00  0.00     0.484 C 
HETATM    2  C   UNL     1     -20.121 -14.295  -5.606  1.00  0.00     0.014 C 
HETATM    3  C   UNL     1     -18.936 -14.944  -6.312  1.00  0.00     0.091 C 
HETATM    4  C   UNL     1     -17.926 -13.862  -6.001  1.00  0.00     0.186 C 
HETATM    5  O   UNL     1     -18.308 -12.723  -6.148  1.00  0.00    -0.286 OA
HETATM    6  S   UNL     1     -16.221 -14.377  -6.220  1.00  0.00    -0.091 SA
HETATM    7  C   UNL     1     -15.359 -14.475  -4.722  1.00  0.00     0.102 C 
HETATM    8  C   UNL     1     -13.911 -14.887  -4.700  1.00  0.00     0.133 C 
HETATM    9  N   UNL     1     -13.280 -14.692  -3.389  1.00  0.00    -0.360 N 
HETATM   10  C   UNL     1     -13.943 -14.566  -2.160  1.00  0.00     0.219 C 
HETATM   11  O   UNL     1     -15.170 -14.612  -2.058  1.00  0.00    -0.274 OA
HETATM   12  C   UNL     1     -13.153 -14.290  -0.875  1.00  0.00     0.122 C 
HETATM   13  C   UNL     1     -11.716 -14.737  -1.116  1.00  0.00     0.132 C 
HETATM   14  N   UNL     1     -10.819 -14.638   0.036  1.00  0.00    -0.358 N 
HETATM   15  C   UNL     1     -11.126 -13.887   1.162  1.00  0.00     0.247 C 
HETATM   16  O   UNL     1     -12.023 -13.038   1.173  1.00  0.00    -0.271 OA
HETATM   17  C   UNL     1     -10.194 -14.039   2.351  1.00  0.00     0.219 C 
HETATM   18  C   UNL     1     -10.271 -15.417   3.031  1.00  0.00     0.009 C 
HETATM   19  C   UNL     1      -9.830 -16.591   2.138  1.00  0.00     0.020 C 
HETATM   20  C   UNL     1      -9.370 -15.430   4.283  1.00  0.00     0.020 C 
HETATM   21  C   UNL     1     -11.731 -15.603   3.469  1.00  0.00     0.193 C 
HETATM   22  O   UNL     1     -12.587 -15.551   2.349  1.00  0.00    -0.289 OA
HETATM   23  P   UNL     1     -14.223 -15.817   2.846  1.00  0.00     0.417 P 
HETATM   24  O   UNL     1     -13.809 -17.183   3.378  1.00  0.00    -0.624 OA
HETATM   25  O   UNL     1     -14.165 -14.452   3.863  1.00  0.00    -0.624 OA
HETATM   26  O   UNL     1     -15.858 -16.085   3.342  1.00  0.00    -0.180 OA
HETATM   27  P   UNL     1     -16.930 -15.644   2.057  1.00  0.00     0.417 P 
HETATM   28  O   UNL     1     -18.164 -16.031   2.918  1.00  0.00    -0.624 OA
HETATM   29  O   UNL     1     -16.574 -14.147   2.009  1.00  0.00    -0.624 OA
HETATM   30  O   UNL     1     -18.001 -15.204   0.773  1.00  0.00    -0.287 OA
HETATM   31  C   UNL     1     -17.737 -15.989  -0.360  1.00  0.00     0.216 C 
HETATM   32  C   UNL     1     -18.679 -15.605  -1.494  1.00  0.00     0.180 C 
HETATM   33  C   UNL     1     -18.502 -14.109  -1.881  1.00  0.00     0.198 C 
HETATM   34  C   UNL     1     -19.893 -13.603  -2.228  1.00  0.00     0.201 C 
HETATM   35  C   UNL     1     -20.677 -14.832  -2.033  1.00  0.00     0.254 C 
HETATM   36  O   UNL     1     -20.119 -15.722  -1.110  1.00  0.00    -0.354 OA
HETATM   37  N   UNL     1     -21.076 -15.484  -3.329  1.00  0.00    -0.333 N 
HETATM   38  C   UNL     1     -19.797 -16.451  -4.067  1.00  0.00     0.375 C 
HETATM   39  N   UNL     1     -20.804 -16.628  -5.188  1.00  0.00     0.040 NA
HETATM   40  C   UNL     1     -22.336 -16.933  -4.865  1.00  0.00     0.313 C 
HETATM   41  C   UNL     1     -23.262 -16.828  -5.725  1.00  0.00     0.091 C 
HETATM   42  N   UNL     1     -24.516 -16.496  -5.281  1.00  0.00    -0.345 N 
ATOM     43  HN  UNL     1     -25.352 -16.752  -5.805  1.00  0.00     0.167 HD
HETATM   44  C   UNL     1     -24.593 -15.818  -4.126  1.00  0.00     0.179 C 
HETATM   45  N   UNL     1     -23.582 -15.154  -3.954  1.00  0.00    -0.358 N 
ATOM     46  HN  UNL     1     -23.648 -14.137  -3.920  1.00  0.00     0.162 HD
HETATM   47  C   UNL     1     -22.361 -15.759  -3.807  1.00  0.00     0.144 C 
HETATM   48  O   UNL     1     -19.996 -13.041  -3.532  1.00  0.00    -0.368 OA
HETATM   49  O   UNL     1     -17.631 -13.972  -2.989  1.00  0.00    -0.279 OA
HETATM   50  P   UNL     1     -17.456 -12.300  -3.395  1.00  0.00     0.407 P 
HETATM   51  O   UNL     1     -15.934 -12.408  -3.137  1.00  0.00    -0.624 OA
HETATM   52  O   UNL     1     -18.487 -12.076  -4.391  1.00  0.00    -0.279 OA
HETATM   53  O   UNL     1     -17.281 -10.627  -3.800  1.00  0.00    -0.624 OA
HETATM   54  H   UNL     1     -12.283 -14.789  -3.466  1.00  0.00     0.162 HD
HETATM   55  H   UNL     1     -10.010 -15.243   0.016  1.00  0.00     0.162 HD
HETATM   56  H   UNL     1     -19.241 -12.885  -4.082  1.00  0.00     0.387 HD
ENDROOT
BRANCH   1  57
HETATM   57  C   UNL     1     -22.359 -13.677  -3.507  1.00  0.00     0.006 C 
BRANCH  57  58
HETATM   58  C   UNL     1     -22.580 -11.686  -3.892  1.00  0.00     0.000 C 
BRANCH  58  59
HETATM   59  C   UNL     1     -22.305 -10.544  -2.927  1.00  0.00     0.000 C 
BRANCH  59  60
HETATM   60  C   UNL     1     -22.208 -10.924  -1.367  1.00  0.00     0.000 C 
BRANCH  60  61
HETATM   61  C   UNL     1     -22.715  -9.677  -0.748  1.00  0.00     0.000 C 
BRANCH  61  62
HETATM   62  C   UNL     1     -21.802  -9.143   0.303  1.00  0.00     0.000 C 
BRANCH  62  63
HETATM   63  C   UNL     1     -21.985  -7.663   0.153  1.00  0.00     0.000 C 
BRANCH  63  64
HETATM   64  C   UNL     1     -22.407  -7.381  -1.246  1.00  0.00     0.000 C 
BRANCH  64  65
HETATM   65  C   UNL     1     -22.002  -5.969  -1.547  1.00  0.00     0.000 C 
BRANCH  65  66
HETATM   66  C   UNL     1     -21.567  -5.921  -2.984  1.00  0.00     0.004 C 
BRANCH  66  67
HETATM   67  C   UNL     1     -21.772  -7.286  -3.565  1.00  0.00     0.027 C 
BRANCH  67  68
HETATM   68  C   UNL     1     -22.550  -7.171  -4.826  1.00  0.00    -0.030 C 
BRANCH  68  69
HETATM   69  C   UNL     1     -23.028  -6.000  -5.283  1.00  0.00    -0.027 C 
BRANCH  69  70
HETATM   70  C   UNL     1     -22.274  -5.129  -6.228  1.00  0.00     0.053 C 
BRANCH  70  71
HETATM   71  C   UNL     1     -23.185  -4.344  -7.154  1.00  0.00    -0.027 C 
HETATM   72  C   UNL     1     -23.708  -4.833  -8.233  1.00  0.00    -0.027 C 
BRANCH  72  73
HETATM   73  C   UNL     1     -24.619  -4.048  -9.159  1.00  0.00     0.053 C 
BRANCH  73  74
HETATM   74  C   UNL     1     -23.987  -3.757 -10.474  1.00  0.00    -0.027 C 
HETATM   75  C   UNL     1     -24.625  -3.111 -11.467  1.00  0.00    -0.027 C 
BRANCH  75  76
HETATM   76  C   UNL     1     -23.991  -2.821 -12.783  1.00  0.00     0.053 C 
BRANCH  76  77
HETATM   77  C   UNL     1     -22.496  -3.083 -12.783  1.00  0.00    -0.027 C 
HETATM   78  C   UNL     1     -21.817  -3.372 -11.719  1.00  0.00    -0.027 C 
BRANCH  78  79
HETATM   79  C   UNL     1     -20.323  -3.634 -11.720  1.00  0.00     0.053 C 
BRANCH  79  80
HETATM   80  C   UNL     1     -19.763  -3.766 -10.346  1.00  0.00    -0.027 C 
HETATM   81  C   UNL     1     -20.381  -4.451  -9.365  1.00  0.00    -0.030 C 
BRANCH  81  82
HETATM   82  C   UNL     1     -19.817  -4.585  -7.997  1.00  0.00     0.027 C 
BRANCH  82  83
HETATM   83  C   UNL     1     -19.119  -5.930  -7.825  1.00  0.00     0.004 C 
BRANCH  83  84
HETATM   84  C   UNL     1     -19.529  -6.581  -6.506  1.00  0.00    -0.000 C 
BRANCH  84  85
HETATM   85  C   UNL     1     -18.719  -7.845  -6.244  1.00  0.00    -0.005 C 
HETATM   86  C   UNL     1     -19.330  -8.658  -5.115  1.00  0.00     0.005 C 
ENDBRANCH  84  85
ENDBRANCH  83  84
ENDBRANCH  82  83
ENDBRANCH  81  82
ENDBRANCH  79  80
ENDBRANCH  78  79
ENDBRANCH  76  77
ENDBRANCH  75  76
ENDBRANCH  73  74
ENDBRANCH  72  73
ENDBRANCH  70  71
ENDBRANCH  69  70
ENDBRANCH  68  69
ENDBRANCH  67  68
ENDBRANCH  66  67
ENDBRANCH  65  66
ENDBRANCH  64  65
ENDBRANCH  63  64
ENDBRANCH  62  63
ENDBRANCH  61  62
ENDBRANCH  60  61
ENDBRANCH  59  60
ENDBRANCH  58  59
ENDBRANCH  57  58
ENDBRANCH   1  57
BRANCH  41  87
HETATM   87  N   UNL     1     -23.109 -17.168  -7.054  1.00  0.00    -0.290 NA
HETATM   88  H   UNL     1     -22.167 -17.480  -7.263  1.00  0.00     0.125 HD
HETATM   89  H   UNL     1     -23.880 -17.733  -7.378  1.00  0.00     0.125 HD
ENDBRANCH  41  87
BRANCH  17  90
HETATM   90  O   UNL     1      -8.875 -13.704   1.949  1.00  0.00    -0.385 OA
HETATM   91  H   UNL     1      -8.830 -12.729   1.989  1.00  0.00     0.210 HD
ENDBRANCH  17  90
TORSDOF 27
BEGIN_RES ARG D 557
REMARK  4 active torsions:
REMARK  status: ('A' for Active; 'I' for Inactive)
REMARK    1  A    between atoms: CA   and  CB  
REMARK    2  A    between atoms: CB   and  CG  
REMARK    3  A    between atoms: CG   and  CD  
REMARK    4  A    between atoms: CD   and  NE  
REMARK       I    between atoms: NE   and  CZ  
REMARK       I    between atoms: CZ   and  NH1 
REMARK       I    between atoms: CZ   and  NH2 
ROOT
ATOM      1  CA  ARG D 557     -26.217   2.705 -17.014  1.00 35.49     0.159 C 
ENDROOT
BRANCH   1   2
ATOM      2  CB  ARG D 557     -26.789   1.319 -17.183  1.00 35.49     0.034 C 
BRANCH   2   3
ATOM      3  CG  ARG D 557     -28.241   1.178 -17.015  1.00 35.49     0.027 C 
BRANCH   3   4
ATOM      4  CD  ARG D 557     -28.663  -0.238 -16.916  1.00 35.49     0.116 C 
BRANCH   4   5
ATOM      5  NE  ARG D 557     -27.713  -1.037 -16.188  1.00 35.49    -0.212 N 
ATOM      6  CZ  ARG D 557     -27.594  -2.344 -16.259  1.00 35.49     0.666 C 
ATOM      7  NH1 ARG D 557     -28.373  -3.086 -17.024  1.00 35.49    -0.235 N 
ATOM      8  NH2 ARG D 557     -26.662  -2.902 -15.543  1.00 35.49    -0.235 N 
ATOM      9  HH  ARG D 557     -28.991  -2.740 -17.506  1.00 35.49     0.174 HD
ATOM     10  HH  ARG D 557     -28.247  -3.933 -17.032  1.00 35.49     0.174 HD
ATOM     11  HH  ARG D 557     -26.169  -2.397 -15.063  1.00 35.49     0.174 HD
ATOM     12  HH  ARG D 557     -26.552  -3.742 -15.565  1.00 35.49     0.174 HD
ATOM     13  HE  ARG D 557     -27.219  -0.647 -15.615  1.00 35.49     0.178 HD
ENDBRANCH   4   5
ENDBRANCH   3   4
ENDBRANCH   2   3
ENDBRANCH   1   2
END_RES ARG D 557
BEGIN_RES GLU D 570
REMARK  3 active torsions:
REMARK  status: ('A' for Active; 'I' for Inactive)
REMARK    5  A    between atoms: CA   and  CB  
REMARK    6  A    between atoms: CB   and  CG  
REMARK    7  A    between atoms: CG   and  CD  
ROOT
ATOM     14  CA  GLU D 570     -18.033  -6.348 -13.375  1.00 32.92     0.160 C 
ENDROOT
BRANCH  14  15
ATOM     15  CB  GLU D 570     -19.500  -6.345 -13.794  1.00 32.92     0.043 C 
BRANCH  15  16
ATOM     16  CG  GLU D 570     -19.939  -7.387 -14.758  1.00 32.92     0.100 C 
BRANCH  16  17
ATOM     17  CD  GLU D 570     -21.210  -7.018 -15.487  1.00 32.92     0.185 C 
ATOM     18  OE1 GLU D 570     -21.547  -7.679 -16.488  1.00 32.92    -0.647 OA
ATOM     19  OE2 GLU D 570     -21.866  -6.046 -15.063  1.00 32.92    -0.647 OA
ENDBRANCH  16  17
ENDBRANCH  15  16
ENDBRANCH  14  15
END_RES GLU D 570
ENDMDL
MODEL 4
REMARK VINA RESULT:      -7.1      1.420      3.084
REMARK  27 active torsions:
REMARK  status: ('A' for Active; 'I' for Inactive)
REMARK    1  A    between atoms: C_2  and  C_3 
REMARK    2  A    between atoms: C_3  and  C_4 
REMARK    3  A    between atoms: C_4  and  C_5 
REMARK    4  A    between atoms: C_5  and  C_6 
REMARK    5  A    between atoms: C_7  and  C_8 
REMARK    6  A    between atoms: C_8  and  C_9 
REMARK    7  A    between atoms: C_10  and  C_11 
REMARK    8  A    between atoms: C_11  and  C_12 
REMARK    9  A    between atoms: C_13  and  C_14 
REMARK   10  A    between atoms: C_14  and  C_15 
REMARK   11  A    between atoms: C_16  and  C_17 
REMARK   12  A    between atoms: C_17  and  C_18 
REMARK   13  A    between atoms: C_18  and  C_19 
REMARK   14  A    between atoms: C_19  and  C_20 
REMARK   15  A    between atoms: C_20  and  C_21 
REMARK   16  A    between atoms: C_21  and  C_22 
REMARK   17  A    between atoms: C_22  and  C_23 
REMARK   18  A    between atoms: C_23  and  C_24 
REMARK   19  A    between atoms: C_24  and  C_25 
REMARK   20  A    between atoms: C_25  and  C_26 
REMARK   21  A    between atoms: C_26  and  C_27 
REMARK   22  A    between atoms: C_27  and  C_28 
REMARK   23  A    between atoms: C_28  and  C_29 
REMARK   24  A    between atoms: C_29  and  C_30 
REMARK   25  A    between atoms: C_30  and  C_31 
REMARK   26  A    between atoms: C_47  and  O_85 
REMARK   27  A    between atoms: C_71  and  N_78 
ROOT
HETATM    1  C   UNL     1     -20.368 -13.305  -5.170  1.00  0.00     0.484 C 
HETATM    2  C   UNL     1     -19.010 -12.902  -5.700  1.00  0.00     0.014 C 
HETATM    3  C   UNL     1     -17.869 -13.660  -6.368  1.00  0.00     0.091 C 
HETATM    4  C   UNL     1     -16.754 -12.747  -5.910  1.00  0.00     0.186 C 
HETATM    5  O   UNL     1     -16.971 -11.560  -5.999  1.00  0.00    -0.286 OA
HETATM    6  S   UNL     1     -15.119 -13.473  -6.047  1.00  0.00    -0.091 SA
HETATM    7  C   UNL     1     -14.397 -13.783  -4.504  1.00  0.00     0.102 C 
HETATM    8  C   UNL     1     -13.021 -14.388  -4.413  1.00  0.00     0.133 C 
HETATM    9  N   UNL     1     -12.475 -14.363  -3.050  1.00  0.00    -0.360 N 
HETATM   10  C   UNL     1     -13.210 -14.226  -1.864  1.00  0.00     0.219 C 
HETATM   11  O   UNL     1     -14.437 -14.112  -1.851  1.00  0.00    -0.274 OA
HETATM   12  C   UNL     1     -12.494 -14.142  -0.510  1.00  0.00     0.122 C 
HETATM   13  C   UNL     1     -11.113 -14.764  -0.684  1.00  0.00     0.132 C 
HETATM   14  N   UNL     1     -10.305 -14.861   0.532  1.00  0.00    -0.358 N 
HETATM   15  C   UNL     1     -10.598 -14.148   1.686  1.00  0.00     0.247 C 
HETATM   16  O   UNL     1     -11.374 -13.187   1.697  1.00  0.00    -0.271 OA
HETATM   17  C   UNL     1      -9.789 -14.500   2.922  1.00  0.00     0.219 C 
HETATM   18  C   UNL     1     -10.100 -15.895   3.493  1.00  0.00     0.009 C 
HETATM   19  C   UNL     1      -9.747 -17.059   2.549  1.00  0.00     0.020 C 
HETATM   20  C   UNL     1      -9.308 -16.110   4.800  1.00  0.00     0.020 C 
HETATM   21  C   UNL     1     -11.601 -15.909   3.813  1.00  0.00     0.193 C 
HETATM   22  O   UNL     1     -12.352 -15.670   2.644  1.00  0.00    -0.289 OA
HETATM   23  P   UNL     1     -14.043 -15.743   3.005  1.00  0.00     0.417 P 
HETATM   24  O   UNL     1     -13.854 -17.183   3.464  1.00  0.00    -0.624 OA
HETATM   25  O   UNL     1     -13.887 -14.465   4.121  1.00  0.00    -0.624 OA
HETATM   26  O   UNL     1     -15.733 -15.816   3.366  1.00  0.00    -0.180 OA
HETATM   27  P   UNL     1     -16.633 -15.154   2.046  1.00  0.00     0.417 P 
HETATM   28  O   UNL     1     -17.972 -15.423   2.789  1.00  0.00    -0.624 OA
HETATM   29  O   UNL     1     -16.083 -13.719   2.132  1.00  0.00    -0.624 OA
HETATM   30  O   UNL     1     -17.535 -14.492   0.726  1.00  0.00    -0.287 OA
HETATM   31  C   UNL     1     -17.287 -15.233  -0.440  1.00  0.00     0.216 C 
HETATM   32  C   UNL     1     -18.079 -14.653  -1.605  1.00  0.00     0.180 C 
HETATM   33  C   UNL     1     -17.678 -13.173  -1.869  1.00  0.00     0.198 C 
HETATM   34  C   UNL     1     -18.960 -12.463  -2.273  1.00  0.00     0.201 C 
HETATM   35  C   UNL     1     -19.911 -13.584  -2.223  1.00  0.00     0.254 C 
HETATM   36  O   UNL     1     -19.548 -14.597  -1.332  1.00  0.00    -0.354 OA
HETATM   37  N   UNL     1     -20.289 -14.092  -3.588  1.00  0.00    -0.333 N 
HETATM   38  C   UNL     1     -19.093 -15.176  -4.304  1.00  0.00     0.375 C 
HETATM   39  N   UNL     1     -20.024 -15.143  -5.502  1.00  0.00     0.040 NA
HETATM   40  C   UNL     1     -21.603 -15.257  -5.309  1.00  0.00     0.313 C 
HETATM   41  C   UNL     1     -22.436 -14.973  -6.221  1.00  0.00     0.091 C 
HETATM   42  N   UNL     1     -23.667 -14.502  -5.842  1.00  0.00    -0.345 N 
ATOM     43  HN  UNL     1     -24.487 -14.609  -6.440  1.00  0.00     0.167 HD
HETATM   44  C   UNL     1     -23.746 -13.895  -4.649  1.00  0.00     0.179 C 
HETATM   45  N   UNL     1     -22.673 -13.386  -4.359  1.00  0.00    -0.358 N 
ATOM     46  HN  UNL     1     -22.608 -12.374  -4.255  1.00  0.00     0.162 HD
HETATM   47  C   UNL     1     -21.557 -14.159  -4.172  1.00  0.00     0.144 C 
HETATM   48  O   UNL     1     -18.886 -11.810  -3.536  1.00  0.00    -0.368 OA
HETATM   49  O   UNL     1     -16.713 -13.086  -2.900  1.00  0.00    -0.279 OA
HETATM   50  P   UNL     1     -16.289 -11.431  -3.170  1.00  0.00     0.407 P 
HETATM   51  O   UNL     1     -14.820 -11.761  -2.815  1.00  0.00    -0.624 OA
HETATM   52  O   UNL     1     -17.201 -11.007  -4.215  1.00  0.00    -0.279 OA
HETATM   53  O   UNL     1     -15.866  -9.775  -3.438  1.00  0.00    -0.624 OA
HETATM   54  H   UNL     1     -11.496 -14.589  -3.064  1.00  0.00     0.162 HD
HETATM   55  H   UNL     1      -9.582 -15.567   0.524  1.00  0.00     0.162 HD
HETATM   56  H   UNL     1     -18.076 -11.724  -4.020  1.00  0.00     0.387 HD
ENDROOT
BRANCH   1  57
HETATM   57  C   UNL     1     -21.307 -12.120  -3.722  1.00  0.00     0.006 C 
BRANCH  57  58
HETATM   58  C   UNL     1     -21.337 -10.104  -4.034  1.00  0.00     0.000 C 
BRANCH  58  59
HETATM   59  C   UNL     1     -21.758  -9.042  -3.033  1.00  0.00     0.000 C 
BRANCH  59  60
HETATM   60  C   UNL     1     -20.667  -7.917  -2.671  1.00  0.00     0.000 C 
BRANCH  60  61
HETATM   61  C   UNL     1     -21.391  -6.690  -3.078  1.00  0.00     0.000 C 
BRANCH  61  62
HETATM   62  C   UNL     1     -20.941  -6.166  -4.400  1.00  0.00     0.000 C 
BRANCH  62  63
HETATM   63  C   UNL     1     -22.220  -6.155  -5.183  1.00  0.00     0.000 C 
BRANCH  63  64
HETATM   64  C   UNL     1     -21.888  -5.969  -6.621  1.00  0.00     0.000 C 
BRANCH  64  65
HETATM   65  C   UNL     1     -22.154  -4.530  -6.947  1.00  0.00     0.000 C 
BRANCH  65  66
HETATM   66  C   UNL     1     -22.005  -4.369  -8.433  1.00  0.00     0.004 C 
BRANCH  66  67
HETATM   67  C   UNL     1     -23.379  -4.344  -9.026  1.00  0.00     0.027 C 
BRANCH  67  68
HETATM   68  C   UNL     1     -23.493  -3.189  -9.955  1.00  0.00    -0.030 C 
BRANCH  68  69
HETATM   69  C   UNL     1     -23.887  -3.319 -11.234  1.00  0.00    -0.027 C 
BRANCH  69  70
HETATM   70  C   UNL     1     -23.924  -4.630 -11.942  1.00  0.00     0.053 C 
BRANCH  70  71
HETATM   71  C   UNL     1     -23.165  -4.607 -13.256  1.00  0.00    -0.027 C 
HETATM   72  C   UNL     1     -23.195  -5.570 -14.121  1.00  0.00    -0.027 C 
BRANCH  72  73
HETATM   73  C   UNL     1     -22.436  -5.547 -15.435  1.00  0.00     0.053 C 
BRANCH  73  74
HETATM   74  C   UNL     1     -23.113  -6.334 -16.501  1.00  0.00    -0.027 C 
HETATM   75  C   UNL     1     -22.562  -6.558 -17.709  1.00  0.00    -0.027 C 
BRANCH  75  76
HETATM   76  C   UNL     1     -23.240  -7.345 -18.776  1.00  0.00     0.053 C 
BRANCH  76  77
HETATM   77  C   UNL     1     -24.626  -6.816 -19.101  1.00  0.00    -0.027 C 
HETATM   78  C   UNL     1     -25.356  -7.262 -20.072  1.00  0.00    -0.027 C 
BRANCH  78  79
HETATM   79  C   UNL     1     -26.740  -6.733 -20.397  1.00  0.00     0.053 C 
BRANCH  79  80
HETATM   80  C   UNL     1     -27.645  -6.730 -19.213  1.00  0.00    -0.027 C 
HETATM   81  C   UNL     1     -28.937  -7.106 -19.277  1.00  0.00    -0.030 C 
BRANCH  81  82
HETATM   82  C   UNL     1     -29.834  -7.106 -18.094  1.00  0.00     0.027 C 
BRANCH  82  83
HETATM   83  C   UNL     1     -29.257  -6.250 -16.972  1.00  0.00     0.004 C 
BRANCH  83  84
HETATM   84  C   UNL     1     -30.368  -5.489 -16.252  1.00  0.00    -0.000 C 
BRANCH  84  85
HETATM   85  C   UNL     1     -31.670  -5.542 -17.045  1.00  0.00    -0.005 C 
HETATM   86  C   UNL     1     -32.616  -4.436 -16.609  1.00  0.00     0.005 C 
ENDBRANCH  84  85
ENDBRANCH  83  84
ENDBRANCH  82  83
ENDBRANCH  81  82
ENDBRANCH  79  80
ENDBRANCH  78  79
ENDBRANCH  76  77
ENDBRANCH  75  76
ENDBRANCH  73  74
ENDBRANCH  72  73
ENDBRANCH  70  71
ENDBRANCH  69  70
ENDBRANCH  68  69
ENDBRANCH  67  68
ENDBRANCH  66  67
ENDBRANCH  65  66
ENDBRANCH  64  65
ENDBRANCH  63  64
ENDBRANCH  62  63
ENDBRANCH  61  62
ENDBRANCH  60  61
ENDBRANCH  59  60
ENDBRANCH  58  59
ENDBRANCH  57  58
ENDBRANCH   1  57
BRANCH  41  87
HETATM   87  N   UNL     1     -22.226 -15.246  -7.558  1.00  0.00    -0.290 NA
HETATM   88  H   UNL     1     -22.993 -15.768  -7.967  1.00  0.00     0.125 HD
HETATM   89  H   UNL     1     -21.890 -14.431  -8.049  1.00  0.00     0.125 HD
ENDBRANCH  41  87
BRANCH  17  90
HETATM   90  O   UNL     1      -8.411 -14.322   2.638  1.00  0.00    -0.385 OA
HETATM   91  H   UNL     1      -8.303 -14.575   1.701  1.00  0.00     0.210 HD
ENDBRANCH  17  90
TORSDOF 27
BEGIN_RES ARG D 557
REMARK  4 active torsions:
REMARK  status: ('A' for Active; 'I' for Inactive)
REMARK    1  A    between atoms: CA   and  CB  
REMARK    2  A    between atoms: CB   and  CG  
REMARK    3  A    between atoms: CG   and  CD  
REMARK    4  A    between atoms: CD   and  NE  
REMARK       I    between atoms: NE   and  CZ  
REMARK       I    between atoms: CZ   and  NH1 
REMARK       I    between atoms: CZ   and  NH2 
ROOT
ATOM      1  CA  ARG D 557     -26.217   2.705 -17.014  1.00 35.49     0.159 C 
ENDROOT
BRANCH   1   2
ATOM      2  CB  ARG D 557     -26.789   1.319 -17.183  1.00 35.49     0.034 C 
BRANCH   2   3
ATOM      3  CG  ARG D 557     -28.177   1.230 -17.653  1.00 35.49     0.027 C 
BRANCH   3   4
ATOM      4  CD  ARG D 557     -28.959   0.213 -16.914  1.00 35.49     0.116 C 
BRANCH   4   5
ATOM      5  NE  ARG D 557     -28.158  -0.924 -16.543  1.00 35.49    -0.212 N 
ATOM      6  CZ  ARG D 557     -28.418  -2.177 -16.842  1.00 35.49     0.666 C 
ATOM      7  NH1 ARG D 557     -29.489  -2.536 -17.525  1.00 35.49    -0.235 N 
ATOM      8  NH2 ARG D 557     -27.568  -3.078 -16.441  1.00 35.49    -0.235 N 
ATOM      9  HH  ARG D 557     -30.060  -1.959 -17.800  1.00 35.49     0.174 HD
ATOM     10  HH  ARG D 557     -29.605  -3.368 -17.693  1.00 35.49     0.174 HD
ATOM     11  HH  ARG D 557     -26.882  -2.816 -16.008  1.00 35.49     0.174 HD
ATOM     12  HH  ARG D 557     -27.700  -3.897 -16.618  1.00 35.49     0.174 HD
ATOM     13  HE  ARG D 557     -27.486  -0.791 -16.039  1.00 35.49     0.178 HD
ENDBRANCH   4   5
ENDBRANCH   3   4
ENDBRANCH   2   3
ENDBRANCH   1   2
END_RES ARG D 557
BEGIN_RES GLU D 570
REMARK  3 active torsions:
REMARK  status: ('A' for Active; 'I' for Inactive)
REMARK    5  A    between atoms: CA   and  CB  
REMARK    6  A    between atoms: CB   and  CG  
REMARK    7  A    between atoms: CG   and  CD  
ROOT
ATOM     14  CA  GLU D 570     -18.033  -6.348 -13.375  1.00 32.92     0.160 C 
ENDROOT
BRANCH  14  15
ATOM     15  CB  GLU D 570     -19.500  -6.345 -13.794  1.00 32.92     0.043 C 
BRANCH  15  16
ATOM     16  CG  GLU D 570     -19.820  -6.802 -15.171  1.00 32.92     0.100 C 
BRANCH  16  17
ATOM     17  CD  GLU D 570     -20.257  -8.248 -15.225  1.00 32.92     0.185 C 
ATOM     18  OE1 GLU D 570     -20.426  -8.788 -16.336  1.00 32.92    -0.647 OA
ATOM     19  OE2 GLU D 570     -20.449  -8.841 -14.146  1.00 32.92    -0.647 OA
ENDBRANCH  16  17
ENDBRANCH  15  16
ENDBRANCH  14  15
END_RES GLU D 570
ENDMDL
MODEL 5
REMARK VINA RESULT:      -6.6      2.417      6.458
REMARK  27 active torsions:
REMARK  status: ('A' for Active; 'I' for Inactive)
REMARK    1  A    between atoms: C_2  and  C_3 
REMARK    2  A    between atoms: C_3  and  C_4 
REMARK    3  A    between atoms: C_4  and  C_5 
REMARK    4  A    between atoms: C_5  and  C_6 
REMARK    5  A    between atoms: C_7  and  C_8 
REMARK    6  A    between atoms: C_8  and  C_9 
REMARK    7  A    between atoms: C_10  and  C_11 
REMARK    8  A    between atoms: C_11  and  C_12 
REMARK    9  A    between atoms: C_13  and  C_14 
REMARK   10  A    between atoms: C_14  and  C_15 
REMARK   11  A    between atoms: C_16  and  C_17 
REMARK   12  A    between atoms: C_17  and  C_18 
REMARK   13  A    between atoms: C_18  and  C_19 
REMARK   14  A    between atoms: C_19  and  C_20 
REMARK   15  A    between atoms: C_20  and  C_21 
REMARK   16  A    between atoms: C_21  and  C_22 
REMARK   17  A    between atoms: C_22  and  C_23 
REMARK   18  A    between atoms: C_23  and  C_24 
REMARK   19  A    between atoms: C_24  and  C_25 
REMARK   20  A    between atoms: C_25  and  C_26 
REMARK   21  A    between atoms: C_26  and  C_27 
REMARK   22  A    between atoms: C_27  and  C_28 
REMARK   23  A    between atoms: C_28  and  C_29 
REMARK   24  A    between atoms: C_29  and  C_30 
REMARK   25  A    between atoms: C_30  and  C_31 
REMARK   26  A    between atoms: C_47  and  O_85 
REMARK   27  A    between atoms: C_71  and  N_78 
ROOT
HETATM    1  C   UNL     1     -20.270 -13.210  -5.149  1.00  0.00     0.484 C 
HETATM    2  C   UNL     1     -18.903 -12.835  -5.678  1.00  0.00     0.014 C 
HETATM    3  C   UNL     1     -17.776 -13.618  -6.340  1.00  0.00     0.091 C 
HETATM    4  C   UNL     1     -16.644 -12.726  -5.883  1.00  0.00     0.186 C 
HETATM    5  O   UNL     1     -16.837 -11.534  -5.976  1.00  0.00    -0.286 OA
HETATM    6  S   UNL     1     -15.023 -13.484  -6.013  1.00  0.00    -0.091 SA
HETATM    7  C   UNL     1     -14.311 -13.802  -4.468  1.00  0.00     0.102 C 
HETATM    8  C   UNL     1     -12.947 -14.433  -4.371  1.00  0.00     0.133 C 
HETATM    9  N   UNL     1     -12.404 -14.414  -3.007  1.00  0.00    -0.360 N 
HETATM   10  C   UNL     1     -13.139 -14.259  -1.824  1.00  0.00     0.219 C 
HETATM   11  O   UNL     1     -14.363 -14.121  -1.813  1.00  0.00    -0.274 OA
HETATM   12  C   UNL     1     -12.424 -14.184  -0.469  1.00  0.00     0.122 C 
HETATM   13  C   UNL     1     -11.055 -14.834  -0.637  1.00  0.00     0.132 C 
HETATM   14  N   UNL     1     -10.251 -14.942   0.582  1.00  0.00    -0.358 N 
HETATM   15  C   UNL     1     -10.533 -14.219   1.732  1.00  0.00     0.247 C 
HETATM   16  O   UNL     1     -11.290 -13.243   1.738  1.00  0.00    -0.271 OA
HETATM   17  C   UNL     1      -9.734 -14.582   2.971  1.00  0.00     0.219 C 
HETATM   18  C   UNL     1     -10.073 -15.969   3.546  1.00  0.00     0.009 C 
HETATM   19  C   UNL     1      -9.741 -17.143   2.607  1.00  0.00     0.020 C 
HETATM   20  C   UNL     1      -9.289 -16.194   4.856  1.00  0.00     0.020 C 
HETATM   21  C   UNL     1     -11.575 -15.952   3.863  1.00  0.00     0.193 C 
HETATM   22  O   UNL     1     -12.319 -15.703   2.691  1.00  0.00    -0.289 OA
HETATM   23  P   UNL     1     -14.011 -15.741   3.049  1.00  0.00     0.417 P 
HETATM   24  O   UNL     1     -13.852 -17.183   3.514  1.00  0.00    -0.624 OA
HETATM   25  O   UNL     1     -13.833 -14.463   4.161  1.00  0.00    -0.624 OA
HETATM   26  O   UNL     1     -15.704 -15.780   3.407  1.00  0.00    -0.180 OA
HETATM   27  P   UNL     1     -16.588 -15.105   2.082  1.00  0.00     0.417 P 
HETATM   28  O   UNL     1     -17.933 -15.345   2.823  1.00  0.00    -0.624 OA
HETATM   29  O   UNL     1     -16.010 -13.681   2.164  1.00  0.00    -0.624 OA
HETATM   30  O   UNL     1     -17.473 -14.430   0.758  1.00  0.00    -0.287 OA
HETATM   31  C   UNL     1     -17.238 -15.180  -0.405  1.00  0.00     0.216 C 
HETATM   32  C   UNL     1     -18.015 -14.590  -1.574  1.00  0.00     0.180 C 
HETATM   33  C   UNL     1     -17.585 -13.119  -1.842  1.00  0.00     0.198 C 
HETATM   34  C   UNL     1     -18.852 -12.385  -2.252  1.00  0.00     0.201 C 
HETATM   35  C   UNL     1     -19.825 -13.487  -2.200  1.00  0.00     0.254 C 
HETATM   36  O   UNL     1     -19.483 -14.504  -1.304  1.00  0.00    -0.354 OA
HETATM   37  N   UNL     1     -20.209 -13.993  -3.564  1.00  0.00    -0.333 N 
HETATM   38  C   UNL     1     -19.033 -15.102  -4.274  1.00  0.00     0.375 C 
HETATM   39  N   UNL     1     -19.961 -15.055  -5.474  1.00  0.00     0.040 NA
HETATM   40  C   UNL     1     -21.542 -15.137  -5.284  1.00  0.00     0.313 C 
HETATM   41  C   UNL     1     -22.368 -14.840  -6.199  1.00  0.00     0.091 C 
HETATM   42  N   UNL     1     -23.590 -14.344  -5.824  1.00  0.00    -0.345 N 
ATOM     43  HN  UNL     1     -24.410 -14.437  -6.424  1.00  0.00     0.167 HD
HETATM   44  C   UNL     1     -23.660 -13.731  -4.633  1.00  0.00     0.179 C 
HETATM   45  N   UNL     1     -22.578 -13.243  -4.343  1.00  0.00    -0.358 N 
ATOM     46  HN  UNL     1     -22.493 -12.231  -4.243  1.00  0.00     0.162 HD
HETATM   47  C   UNL     1     -21.477 -14.037  -4.151  1.00  0.00     0.144 C 
HETATM   48  O   UNL     1     -18.763 -11.738  -3.518  1.00  0.00    -0.368 OA
HETATM   49  O   UNL     1     -16.616 -13.054  -2.872  1.00  0.00    -0.279 OA
HETATM   50  P   UNL     1     -16.159 -11.409  -3.147  1.00  0.00     0.407 P 
HETATM   51  O   UNL     1     -14.698 -11.766  -2.788  1.00  0.00    -0.624 OA
HETATM   52  O   UNL     1     -17.060 -10.970  -4.196  1.00  0.00    -0.279 OA
HETATM   53  O   UNL     1     -15.703  -9.762  -3.420  1.00  0.00    -0.624 OA
HETATM   54  H   UNL     1     -11.429 -14.660  -3.019  1.00  0.00     0.162 HD
HETATM   55  H   UNL     1      -9.543 -15.662   0.577  1.00  0.00     0.162 HD
HETATM   56  H   UNL     1     -17.950 -11.670  -4.000  1.00  0.00     0.387 HD
ENDROOT
BRANCH   1  57
HETATM   57  C   UNL     1     -21.188 -12.002  -3.707  1.00  0.00     0.006 C 
BRANCH  57  58
HETATM   58  C   UNL     1     -20.779 -10.004  -3.758  1.00  0.00     0.000 C 
BRANCH  58  59
HETATM   59  C   UNL     1     -21.228  -9.017  -4.824  1.00  0.00     0.000 C 
BRANCH  59  60
HETATM   60  C   UNL     1     -22.713  -8.419  -4.673  1.00  0.00     0.000 C 
BRANCH  60  61
HETATM   61  C   UNL     1     -22.531  -7.076  -5.273  1.00  0.00     0.000 C 
BRANCH  61  62
HETATM   62  C   UNL     1     -21.567  -7.078  -6.410  1.00  0.00     0.000 C 
BRANCH  62  63
HETATM   63  C   UNL     1     -22.287  -6.248  -7.431  1.00  0.00     0.000 C 
BRANCH  63  64
HETATM   64  C   UNL     1     -22.821  -5.034  -6.757  1.00  0.00     0.000 C 
BRANCH  64  65
HETATM   65  C   UNL     1     -23.055  -4.010  -7.827  1.00  0.00     0.000 C 
BRANCH  65  66
HETATM   66  C   UNL     1     -23.686  -4.713  -8.995  1.00  0.00     0.004 C 
BRANCH  66  67
HETATM   67  C   UNL     1     -23.533  -3.828 -10.193  1.00  0.00     0.027 C 
BRANCH  67  68
HETATM   68  C   UNL     1     -22.612  -4.473 -11.165  1.00  0.00    -0.030 C 
BRANCH  68  69
HETATM   69  C   UNL     1     -21.588  -3.818 -11.741  1.00  0.00    -0.027 C 
BRANCH  69  70
HETATM   70  C   UNL     1     -20.441  -3.264 -10.968  1.00  0.00     0.053 C 
BRANCH  70  71
HETATM   71  C   UNL     1     -19.966  -4.203  -9.873  1.00  0.00    -0.027 C 
HETATM   72  C   UNL     1     -19.643  -3.813  -8.681  1.00  0.00    -0.027 C 
BRANCH  72  73
HETATM   73  C   UNL     1     -19.168  -4.750  -7.587  1.00  0.00     0.053 C 
BRANCH  73  74
HETATM   74  C   UNL     1     -19.541  -4.277  -6.226  1.00  0.00    -0.027 C 
HETATM   75  C   UNL     1     -19.718  -5.110  -5.183  1.00  0.00    -0.027 C 
BRANCH  75  76
HETATM   76  C   UNL     1     -20.091  -4.636  -3.822  1.00  0.00     0.053 C 
BRANCH  76  77
HETATM   77  C   UNL     1     -21.225  -5.441  -3.213  1.00  0.00    -0.027 C 
HETATM   78  C   UNL     1     -21.188  -5.950  -2.023  1.00  0.00    -0.027 C 
BRANCH  78  79
HETATM   79  C   UNL     1     -22.321  -6.754  -1.415  1.00  0.00     0.053 C 
BRANCH  79  80
HETATM   80  C   UNL     1     -21.892  -8.114  -0.982  1.00  0.00    -0.027 C 
HETATM   81  C   UNL     1     -22.578  -8.848  -0.086  1.00  0.00    -0.030 C 
BRANCH  81  82
HETATM   82  C   UNL     1     -22.149 -10.205   0.340  1.00  0.00     0.027 C 
BRANCH  82  83
HETATM   83  C   UNL     1     -23.209 -11.245  -0.009  1.00  0.00     0.004 C 
BRANCH  83  84
HETATM   84  C   UNL     1     -22.662 -12.656   0.197  1.00  0.00    -0.000 C 
BRANCH  84  85
HETATM   85  C   UNL     1     -23.449 -13.397   1.273  1.00  0.00    -0.005 C 
HETATM   86  C   UNL     1     -22.514 -14.089   2.249  1.00  0.00     0.005 C 
ENDBRANCH  84  85
ENDBRANCH  83  84
ENDBRANCH  82  83
ENDBRANCH  81  82
ENDBRANCH  79  80
ENDBRANCH  78  79
ENDBRANCH  76  77
ENDBRANCH  75  76
ENDBRANCH  73  74
ENDBRANCH  72  73
ENDBRANCH  70  71
ENDBRANCH  69  70
ENDBRANCH  68  69
ENDBRANCH  67  68
ENDBRANCH  66  67
ENDBRANCH  65  66
ENDBRANCH  64  65
ENDBRANCH  63  64
ENDBRANCH  62  63
ENDBRANCH  61  62
ENDBRANCH  60  61
ENDBRANCH  59  60
ENDBRANCH  58  59
ENDBRANCH  57  58
ENDBRANCH   1  57
BRANCH  41  87
HETATM   87  N   UNL     1     -22.160 -15.122  -7.534  1.00  0.00    -0.290 NA
HETATM   88  H   UNL     1     -22.952 -15.599  -7.952  1.00  0.00     0.125 HD
HETATM   89  H   UNL     1     -21.772 -14.327  -8.020  1.00  0.00     0.125 HD
ENDBRANCH  41  87
BRANCH  17  90
HETATM   90  O   UNL     1      -8.352 -14.432   2.689  1.00  0.00    -0.385 OA
HETATM   91  H   UNL     1      -8.108 -15.212   2.155  1.00  0.00     0.210 HD
ENDBRANCH  17  90
TORSDOF 27
BEGIN_RES ARG D 557
REMARK  4 active torsions:
REMARK  status: ('A' for Active; 'I' for Inactive)
REMARK    1  A    between atoms: CA   and  CB  
REMARK    2  A    between atoms: CB   and  CG  
REMARK    3  A    between atoms: CG   and  CD  
REMARK    4  A    between atoms: CD   and  NE  
REMARK       I    between atoms: NE   and  CZ  
REMARK       I    between atoms: CZ   and  NH1 
REMARK       I    between atoms: CZ   and  NH2 
ROOT
ATOM      1  CA  ARG D 557     -26.217   2.705 -17.014  1.00 35.49     0.159 C 
ENDROOT
BRANCH   1   2
ATOM      2  CB  ARG D 557     -26.789   1.319 -17.183  1.00 35.49     0.034 C 
BRANCH   2   3
ATOM      3  CG  ARG D 557     -25.881   0.194 -16.927  1.00 35.49     0.027 C 
BRANCH   3   4
ATOM      4  CD  ARG D 557     -25.875  -0.213 -15.503  1.00 35.49     0.116 C 
BRANCH   4   5
ATOM      5  NE  ARG D 557     -24.594  -0.721 -15.090  1.00 35.49    -0.212 N 
ATOM      6  CZ  ARG D 557     -24.355  -1.936 -14.649  1.00 35.49     0.666 C 
ATOM      7  NH1 ARG D 557     -25.305  -2.844 -14.522  1.00 35.49    -0.235 N 
ATOM      8  NH2 ARG D 557     -23.126  -2.232 -14.339  1.00 35.49    -0.235 N 
ATOM      9  HH  ARG D 557     -26.120  -2.672 -14.722  1.00 35.49     0.174 HD
ATOM     10  HH  ARG D 557     -25.090  -3.621 -14.231  1.00 35.49     0.174 HD
ATOM     11  HH  ARG D 557     -22.532  -1.628 -14.438  1.00 35.49     0.174 HD
ATOM     12  HH  ARG D 557     -22.933  -3.007 -14.054  1.00 35.49     0.174 HD
ATOM     13  HE  ARG D 557     -23.937  -0.181 -15.071  1.00 35.49     0.178 HD
ENDBRANCH   4   5
ENDBRANCH   3   4
ENDBRANCH   2   3
ENDBRANCH   1   2
END_RES ARG D 557
BEGIN_RES GLU D 570
REMARK  3 active torsions:
REMARK  status: ('A' for Active; 'I' for Inactive)
REMARK    5  A    between atoms: CA   and  CB  
REMARK    6  A    between atoms: CB   and  CG  
REMARK    7  A    between atoms: CG   and  CD  
ROOT
ATOM     14  CA  GLU D 570     -18.033  -6.348 -13.375  1.00 32.92     0.160 C 
ENDROOT
BRANCH  14  15
ATOM     15  CB  GLU D 570     -19.500  -6.345 -13.794  1.00 32.92     0.043 C 
BRANCH  15  16
ATOM     16  CG  GLU D 570     -19.966  -7.456 -14.664  1.00 32.92     0.100 C 
BRANCH  16  17
ATOM     17  CD  GLU D 570     -20.905  -6.996 -15.755  1.00 32.92     0.185 C 
ATOM     18  OE1 GLU D 570     -20.783  -5.843 -16.212  1.00 32.92    -0.647 OA
ATOM     19  OE2 GLU D 570     -21.782  -7.792 -16.145  1.00 32.92    -0.647 OA
ENDBRANCH  16  17
ENDBRANCH  15  16
ENDBRANCH  14  15
END_RES GLU D 570
ENDMDL
MODEL 6
REMARK VINA RESULT:      -6.3      2.498      4.532
REMARK  27 active torsions:
REMARK  status: ('A' for Active; 'I' for Inactive)
REMARK    1  A    between atoms: C_2  and  C_3 
REMARK    2  A    between atoms: C_3  and  C_4 
REMARK    3  A    between atoms: C_4  and  C_5 
REMARK    4  A    between atoms: C_5  and  C_6 
REMARK    5  A    between atoms: C_7  and  C_8 
REMARK    6  A    between atoms: C_8  and  C_9 
REMARK    7  A    between atoms: C_10  and  C_11 
REMARK    8  A    between atoms: C_11  and  C_12 
REMARK    9  A    between atoms: C_13  and  C_14 
REMARK   10  A    between atoms: C_14  and  C_15 
REMARK   11  A    between atoms: C_16  and  C_17 
REMARK   12  A    between atoms: C_17  and  C_18 
REMARK   13  A    between atoms: C_18  and  C_19 
REMARK   14  A    between atoms: C_19  and  C_20 
REMARK   15  A    between atoms: C_20  and  C_21 
REMARK   16  A    between atoms: C_21  and  C_22 
REMARK   17  A    between atoms: C_22  and  C_23 
REMARK   18  A    between atoms: C_23  and  C_24 
REMARK   19  A    between atoms: C_24  and  C_25 
REMARK   20  A    between atoms: C_25  and  C_26 
REMARK   21  A    between atoms: C_26  and  C_27 
REMARK   22  A    between atoms: C_27  and  C_28 
REMARK   23  A    between atoms: C_28  and  C_29 
REMARK   24  A    between atoms: C_29  and  C_30 
REMARK   25  A    between atoms: C_30  and  C_31 
REMARK   26  A    between atoms: C_47  and  O_85 
REMARK   27  A    between atoms: C_71  and  N_78 
ROOT
HETATM    1  C   UNL     1     -20.510 -13.366  -5.167  1.00  0.00     0.484 C 
HETATM    2  C   UNL     1     -19.162 -12.956  -5.716  1.00  0.00     0.014 C 
HETATM    3  C   UNL     1     -18.025 -13.709  -6.397  1.00  0.00     0.091 C 
HETATM    4  C   UNL     1     -16.910 -12.788  -5.956  1.00  0.00     0.186 C 
HETATM    5  O   UNL     1     -17.136 -11.602  -6.045  1.00  0.00    -0.286 OA
HETATM    6  S   UNL     1     -15.272 -13.504  -6.113  1.00  0.00    -0.091 SA
HETATM    7  C   UNL     1     -14.528 -13.805  -4.579  1.00  0.00     0.102 C 
HETATM    8  C   UNL     1     -13.147 -14.401  -4.505  1.00  0.00     0.133 C 
HETATM    9  N   UNL     1     -12.583 -14.370  -3.150  1.00  0.00    -0.360 N 
HETATM   10  C   UNL     1     -13.303 -14.235  -1.955  1.00  0.00     0.219 C 
HETATM   11  O   UNL     1     -14.530 -14.128  -1.925  1.00  0.00    -0.274 OA
HETATM   12  C   UNL     1     -12.570 -14.143  -0.611  1.00  0.00     0.122 C 
HETATM   13  C   UNL     1     -11.187 -14.757  -0.802  1.00  0.00     0.132 C 
HETATM   14  N   UNL     1     -10.362 -14.846   0.404  1.00  0.00    -0.358 N 
HETATM   15  C   UNL     1     -10.644 -14.132   1.560  1.00  0.00     0.247 C 
HETATM   16  O   UNL     1     -11.426 -13.176   1.579  1.00  0.00    -0.271 OA
HETATM   17  C   UNL     1      -9.817 -14.476   2.786  1.00  0.00     0.219 C 
HETATM   18  C   UNL     1     -10.111 -15.871   3.364  1.00  0.00     0.009 C 
HETATM   19  C   UNL     1      -9.763 -17.036   2.417  1.00  0.00     0.020 C 
HETATM   20  C   UNL     1      -9.301 -16.078   4.660  1.00  0.00     0.020 C 
HETATM   21  C   UNL     1     -11.608 -15.894   3.704  1.00  0.00     0.193 C 
HETATM   22  O   UNL     1     -12.376 -15.663   2.544  1.00  0.00    -0.289 OA
HETATM   23  P   UNL     1     -14.061 -15.745   2.929  1.00  0.00     0.417 P 
HETATM   24  O   UNL     1     -13.857 -17.183   3.388  1.00  0.00    -0.624 OA
HETATM   25  O   UNL     1     -13.899 -14.464   4.040  1.00  0.00    -0.624 OA
HETATM   26  O   UNL     1     -15.746 -15.828   3.312  1.00  0.00    -0.180 OA
HETATM   27  P   UNL     1     -16.668 -15.175   2.002  1.00  0.00     0.417 P 
HETATM   28  O   UNL     1     -17.995 -15.451   2.764  1.00  0.00    -0.624 OA
HETATM   29  O   UNL     1     -16.125 -13.736   2.079  1.00  0.00    -0.624 OA
HETATM   30  O   UNL     1     -17.591 -14.521   0.694  1.00  0.00    -0.287 OA
HETATM   31  C   UNL     1     -17.354 -15.264  -0.474  1.00  0.00     0.216 C 
HETATM   32  C   UNL     1     -18.165 -14.692  -1.629  1.00  0.00     0.180 C 
HETATM   33  C   UNL     1     -17.777 -13.210  -1.902  1.00  0.00     0.198 C 
HETATM   34  C   UNL     1     -19.069 -12.509  -2.291  1.00  0.00     0.201 C 
HETATM   35  C   UNL     1     -20.012 -13.635  -2.226  1.00  0.00     0.254 C 
HETATM   36  O   UNL     1     -19.630 -14.644  -1.337  1.00  0.00    -0.354 OA
HETATM   37  N   UNL     1     -20.405 -14.150  -3.584  1.00  0.00    -0.333 N 
HETATM   38  C   UNL     1     -19.212 -15.227  -4.314  1.00  0.00     0.375 C 
HETATM   39  N   UNL     1     -20.159 -15.203  -5.499  1.00  0.00     0.040 NA
HETATM   40  C   UNL     1     -21.735 -15.326  -5.285  1.00  0.00     0.313 C 
HETATM   41  C   UNL     1     -22.582 -15.049  -6.186  1.00  0.00     0.091 C 
HETATM   42  N   UNL     1     -23.810 -14.586  -5.792  1.00  0.00    -0.345 N 
ATOM     43  HN  UNL     1     -24.637 -14.699  -6.378  1.00  0.00     0.167 HD
HETATM   44  C   UNL     1     -23.877 -13.976  -4.599  1.00  0.00     0.179 C 
HETATM   45  N   UNL     1     -22.804 -13.460  -4.325  1.00  0.00    -0.358 N 
ATOM     46  HN  UNL     1     -22.744 -12.447  -4.224  1.00  0.00     0.162 HD
HETATM   47  C   UNL     1     -21.680 -14.225  -4.151  1.00  0.00     0.144 C 
HETATM   48  O   UNL     1     -19.016 -11.858  -3.557  1.00  0.00    -0.368 OA
HETATM   49  O   UNL     1     -16.826 -13.119  -2.947  1.00  0.00    -0.279 OA
HETATM   50  P   UNL     1     -16.417 -11.462  -3.226  1.00  0.00     0.407 P 
HETATM   51  O   UNL     1     -14.941 -11.782  -2.890  1.00  0.00    -0.624 OA
HETATM   52  O   UNL     1     -17.345 -11.046  -4.260  1.00  0.00    -0.279 OA
HETATM   53  O   UNL     1     -16.008  -9.804  -3.504  1.00  0.00    -0.624 OA
HETATM   54  H   UNL     1     -11.603 -14.590  -3.177  1.00  0.00     0.162 HD
HETATM   55  H   UNL     1      -9.635 -15.548   0.388  1.00  0.00     0.162 HD
HETATM   56  H   UNL     1     -18.213 -11.768  -4.051  1.00  0.00     0.387 HD
ENDROOT
BRANCH   1  57
HETATM   57  C   UNL     1     -21.437 -12.184  -3.709  1.00  0.00     0.006 C 
BRANCH  57  58
HETATM   58  C   UNL     1     -22.098 -10.340  -4.277  1.00  0.00     0.000 C 
BRANCH  58  59
HETATM   59  C   UNL     1     -21.375  -9.019  -4.073  1.00  0.00     0.000 C 
BRANCH  59  60
HETATM   60  C   UNL     1     -21.343  -8.012  -5.326  1.00  0.00     0.000 C 
BRANCH  60  61
HETATM   61  C   UNL     1     -21.493  -6.709  -4.637  1.00  0.00     0.000 C 
BRANCH  61  62
HETATM   62  C   UNL     1     -21.430  -5.550  -5.573  1.00  0.00     0.000 C 
BRANCH  62  63
HETATM   63  C   UNL     1     -20.748  -6.150  -6.766  1.00  0.00     0.000 C 
BRANCH  63  64
HETATM   64  C   UNL     1     -20.904  -5.219  -7.915  1.00  0.00     0.000 C 
BRANCH  64  65
HETATM   65  C   UNL     1     -22.135  -4.403  -7.651  1.00  0.00     0.000 C 
BRANCH  65  66
HETATM   66  C   UNL     1     -22.993  -4.471  -8.882  1.00  0.00     0.004 C 
BRANCH  66  67
HETATM   67  C   UNL     1     -22.298  -3.701  -9.962  1.00  0.00     0.027 C 
BRANCH  67  68
HETATM   68  C   UNL     1     -22.468  -4.409 -11.257  1.00  0.00    -0.030 C 
BRANCH  68  69
HETATM   69  C   UNL     1     -23.668  -4.585 -11.839  1.00  0.00    -0.027 C 
BRANCH  69  70
HETATM   70  C   UNL     1     -24.562  -3.452 -12.211  1.00  0.00     0.053 C 
BRANCH  70  71
HETATM   71  C   UNL     1     -24.965  -3.482 -13.674  1.00  0.00    -0.027 C 
HETATM   72  C   UNL     1     -26.089  -3.019 -14.120  1.00  0.00    -0.027 C 
BRANCH  72  73
HETATM   73  C   UNL     1     -26.492  -3.048 -15.583  1.00  0.00     0.053 C 
BRANCH  73  74
HETATM   74  C   UNL     1     -27.514  -4.089 -15.875  1.00  0.00    -0.027 C 
HETATM   75  C   UNL     1     -28.568  -3.876 -16.684  1.00  0.00    -0.027 C 
BRANCH  75  76
HETATM   76  C   UNL     1     -29.590  -4.918 -16.976  1.00  0.00     0.053 C 
BRANCH  76  77
HETATM   77  C   UNL     1     -30.998  -4.471 -16.624  1.00  0.00    -0.027 C 
HETATM   78  C   UNL     1     -32.034  -5.246 -16.680  1.00  0.00    -0.027 C 
BRANCH  78  79
HETATM   79  C   UNL     1     -33.440  -4.798 -16.328  1.00  0.00     0.053 C 
BRANCH  79  80
HETATM   80  C   UNL     1     -33.791  -3.482 -16.932  1.00  0.00    -0.027 C 
HETATM   81  C   UNL     1     -34.672  -2.632 -16.373  1.00  0.00    -0.030 C 
BRANCH  81  82
HETATM   82  C   UNL     1     -35.016  -1.318 -16.976  1.00  0.00     0.027 C 
BRANCH  82  83
HETATM   83  C   UNL     1     -35.885  -0.496 -16.030  1.00  0.00     0.004 C 
BRANCH  83  84
HETATM   84  C   UNL     1     -35.677  -0.945 -14.585  1.00  0.00    -0.000 C 
BRANCH  84  85
HETATM   85  C   UNL     1     -35.446   0.251 -13.668  1.00  0.00    -0.005 C 
HETATM   86  C   UNL     1     -34.857  -0.190 -12.339  1.00  0.00     0.005 C 
ENDBRANCH  84  85
ENDBRANCH  83  84
ENDBRANCH  82  83
ENDBRANCH  81  82
ENDBRANCH  79  80
ENDBRANCH  78  79
ENDBRANCH  76  77
ENDBRANCH  75  76
ENDBRANCH  73  74
ENDBRANCH  72  73
ENDBRANCH  70  71
ENDBRANCH  69  70
ENDBRANCH  68  69
ENDBRANCH  67  68
ENDBRANCH  66  67
ENDBRANCH  65  66
ENDBRANCH  64  65
ENDBRANCH  63  64
ENDBRANCH  62  63
ENDBRANCH  61  62
ENDBRANCH  60  61
ENDBRANCH  59  60
ENDBRANCH  58  59
ENDBRANCH  57  58
ENDBRANCH   1  57
BRANCH  41  87
HETATM   87  N   UNL     1     -22.388 -15.324  -7.525  1.00  0.00    -0.290 NA
HETATM   88  H   UNL     1     -21.420 -15.203  -7.804  1.00  0.00     0.125 HD
HETATM   89  H   UNL     1     -22.859 -16.175  -7.796  1.00  0.00     0.125 HD
ENDBRANCH  41  87
BRANCH  17  90
HETATM   90  O   UNL     1      -8.444 -14.290   2.483  1.00  0.00    -0.385 OA
HETATM   91  H   UNL     1      -8.232 -13.383   2.776  1.00  0.00     0.210 HD
ENDBRANCH  17  90
TORSDOF 27
BEGIN_RES ARG D 557
REMARK  4 active torsions:
REMARK  status: ('A' for Active; 'I' for Inactive)
REMARK    1  A    between atoms: CA   and  CB  
REMARK    2  A    between atoms: CB   and  CG  
REMARK    3  A    between atoms: CG   and  CD  
REMARK    4  A    between atoms: CD   and  NE  
REMARK       I    between atoms: NE   and  CZ  
REMARK       I    between atoms: CZ   and  NH1 
REMARK       I    between atoms: CZ   and  NH2 
ROOT
ATOM      1  CA  ARG D 557     -26.217   2.705 -17.014  1.00 35.49     0.159 C 
ENDROOT
BRANCH   1   2
ATOM      2  CB  ARG D 557     -26.789   1.319 -17.183  1.00 35.49     0.034 C 
BRANCH   2   3
ATOM      3  CG  ARG D 557     -26.161   0.246 -16.403  1.00 35.49     0.027 C 
BRANCH   3   4
ATOM      4  CD  ARG D 557     -24.935   0.697 -15.706  1.00 35.49     0.116 C 
BRANCH   4   5
ATOM      5  NE  ARG D 557     -24.230  -0.394 -15.088  1.00 35.49    -0.212 N 
ATOM      6  CZ  ARG D 557     -23.167  -0.996 -15.573  1.00 35.49     0.666 C 
ATOM      7  NH1 ARG D 557     -22.626  -0.657 -16.729  1.00 35.49    -0.235 N 
ATOM      8  NH2 ARG D 557     -22.644  -1.954 -14.865  1.00 35.49    -0.235 N 
ATOM      9  HH  ARG D 557     -22.953  -0.028 -17.210  1.00 35.49     0.174 HD
ATOM     10  HH  ARG D 557     -21.932  -1.083 -16.994  1.00 35.49     0.174 HD
ATOM     11  HH  ARG D 557     -23.010  -2.147 -14.119  1.00 35.49     0.174 HD
ATOM     12  HH  ARG D 557     -21.955  -2.363 -15.144  1.00 35.49     0.174 HD
ATOM     13  HE  ARG D 557     -24.553  -0.725 -14.374  1.00 35.49     0.178 HD
ENDBRANCH   4   5
ENDBRANCH   3   4
ENDBRANCH   2   3
ENDBRANCH   1   2
END_RES ARG D 557
BEGIN_RES GLU D 570
REMARK  3 active torsions:
REMARK  status: ('A' for Active; 'I' for Inactive)
REMARK    5  A    between atoms: CA   and  CB  
REMARK    6  A    between atoms: CB   and  CG  
REMARK    7  A    between atoms: CG   and  CD  
ROOT
ATOM     14  CA  GLU D 570     -18.033  -6.348 -13.375  1.00 32.92     0.160 C 
ENDROOT
BRANCH  14  15
ATOM     15  CB  GLU D 570     -19.500  -6.345 -13.794  1.00 32.92     0.043 C 
BRANCH  15  16
ATOM     16  CG  GLU D 570     -19.838  -6.951 -15.108  1.00 32.92     0.100 C 
BRANCH  16  17
ATOM     17  CD  GLU D 570     -21.182  -6.505 -15.635  1.00 32.92     0.185 C 
ATOM     18  OE1 GLU D 570     -21.224  -5.781 -16.649  1.00 32.92    -0.647 OA
ATOM     19  OE2 GLU D 570     -22.202  -6.868 -15.017  1.00 32.92    -0.647 OA
ENDBRANCH  16  17
ENDBRANCH  15  16
ENDBRANCH  14  15
END_RES GLU D 570
ENDMDL
