MODEL 1
REMARK VINA RESULT:      -7.6      0.000      0.000
REMARK  0 active torsions:
REMARK  status: ('A' for Active; 'I' for Inactive)
ROOT
HETATM    1  C   UNL     1     -13.506 -12.537  -5.952  1.00  0.00     0.049 C 
HETATM    2  C   UNL     1     -13.948 -12.745  -4.530  1.00  0.00    -0.045 A 
HETATM    3  C   UNL     1     -13.214 -13.626  -3.715  1.00  0.00     0.031 A 
HETATM    4  C   UNL     1     -13.585 -13.855  -2.386  1.00  0.00     0.035 A 
HETATM    5  C   UNL     1     -14.691 -13.214  -1.840  1.00  0.00     0.043 A 
HETATM    6  C   UNL     1     -15.423 -12.341  -2.637  1.00  0.00     0.022 A 
HETATM    7  C   UNL     1     -15.063 -12.104  -3.964  1.00  0.00     0.038 A 
HETATM    8  C   UNL     1     -15.992 -11.138  -4.604  1.00  0.00     0.202 A 
HETATM    9  O   UNL     1     -15.863 -10.789  -5.763  1.00  0.00    -0.286 OA
HETATM   10  C   UNL     1     -17.074 -10.675  -3.638  1.00  0.00     0.077 A 
HETATM   11  C   UNL     1     -18.067  -9.804  -3.913  1.00  0.00     0.077 A 
HETATM   12  C   UNL     1     -19.149  -9.343  -2.950  1.00  0.00     0.202 A 
HETATM   13  O   UNL     1     -19.281  -9.694  -1.790  1.00  0.00    -0.286 OA
HETATM   14  C   UNL     1     -20.079  -8.378  -3.586  1.00  0.00     0.038 A 
HETATM   15  C   UNL     1     -19.721  -8.140  -4.911  1.00  0.00     0.022 A 
HETATM   16  S   UNL     1     -18.297  -9.026  -5.462  1.00  0.00    -0.084 SA
HETATM   17  C   UNL     1     -20.450  -7.267  -5.709  1.00  0.00     0.043 A 
HETATM   18  C   UNL     1     -21.555  -6.624  -5.160  1.00  0.00     0.035 A 
HETATM   19  C   UNL     1     -21.927  -6.854  -3.831  1.00  0.00     0.031 A 
HETATM   20  C   UNL     1     -21.194  -7.739  -3.016  1.00  0.00    -0.045 A 
HETATM   21  C   UNL     1     -21.640  -7.948  -1.598  1.00  0.00     0.049 C 
HETATM   22 CL   UNL     1     -22.474  -5.536  -6.126  1.00  0.00    -0.084 Cl
HETATM   23  S   UNL     1     -16.843 -11.454  -2.090  1.00  0.00    -0.084 SA
HETATM   24 CL   UNL     1     -12.664 -14.938  -1.418  1.00  0.00    -0.084 Cl
ENDROOT
TORSDOF 0
BEGIN_RES ARG D 557
REMARK  4 active torsions:
REMARK  status: ('A' for Active; 'I' for Inactive)
REMARK    1  A    between atoms: CA   and  CB  
REMARK    2  A    between atoms: CB   and  CG  
REMARK    3  A    between atoms: CG   and  CD  
REMARK    4  A    between atoms: CD   and  NE  
REMARK       I    between atoms: NE   and  CZ  
REMARK       I    between atoms: CZ   and  NH1 
REMARK       I    between atoms: CZ   and  NH2 
ROOT
ATOM      1  CA  ARG D 557     -26.217   2.705 -17.014  1.00 35.49     0.159 C 
ENDROOT
BRANCH   1   2
ATOM      2  CB  ARG D 557     -26.789   1.319 -17.183  1.00 35.49     0.034 C 
BRANCH   2   3
ATOM      3  CG  ARG D 557     -25.838   0.202 -17.141  1.00 35.49     0.027 C 
BRANCH   3   4
ATOM      4  CD  ARG D 557     -24.760   0.416 -16.148  1.00 35.49     0.116 C 
BRANCH   4   5
ATOM      5  NE  ARG D 557     -24.898  -0.446 -15.004  1.00 35.49    -0.212 N 
ATOM      6  CZ  ARG D 557     -24.073  -1.413 -14.667  1.00 35.49     0.666 C 
ATOM      7  NH1 ARG D 557     -23.002  -1.711 -15.378  1.00 35.49    -0.235 N 
ATOM      8  NH2 ARG D 557     -24.343  -2.081 -13.583  1.00 35.49    -0.235 N 
ATOM      9  HH  ARG D 557     -22.804  -1.283 -16.093  1.00 35.49     0.174 HD
ATOM     10  HH  ARG D 557     -22.499  -2.350 -15.108  1.00 35.49     0.174 HD
ATOM     11  HH  ARG D 557     -25.037  -1.861 -13.140  1.00 35.49     0.174 HD
ATOM     12  HH  ARG D 557     -23.832  -2.709 -13.331  1.00 35.49     0.174 HD
ATOM     13  HE  ARG D 557     -25.599  -0.372 -14.530  1.00 35.49     0.178 HD
ENDBRANCH   4   5
ENDBRANCH   3   4
ENDBRANCH   2   3
ENDBRANCH   1   2
END_RES ARG D 557
BEGIN_RES GLU D 570
REMARK  3 active torsions:
REMARK  status: ('A' for Active; 'I' for Inactive)
REMARK    5  A    between atoms: CA   and  CB  
REMARK    6  A    between atoms: CB   and  CG  
REMARK    7  A    between atoms: CG   and  CD  
ROOT
ATOM     14  CA  GLU D 570     -18.033  -6.348 -13.375  1.00 32.92     0.160 C 
ENDROOT
BRANCH  14  15
ATOM     15  CB  GLU D 570     -19.500  -6.345 -13.794  1.00 32.92     0.043 C 
BRANCH  15  16
ATOM     16  CG  GLU D 570     -20.443  -5.537 -12.978  1.00 32.92     0.100 C 
BRANCH  16  17
ATOM     17  CD  GLU D 570     -21.724  -5.211 -13.710  1.00 32.92     0.185 C 
ATOM     18  OE1 GLU D 570     -22.294  -4.127 -13.478  1.00 32.92    -0.647 OA
ATOM     19  OE2 GLU D 570     -22.172  -6.055 -14.511  1.00 32.92    -0.647 OA
ENDBRANCH  16  17
ENDBRANCH  15  16
ENDBRANCH  14  15
END_RES GLU D 570
ENDMDL
MODEL 2
REMARK VINA RESULT:      -7.5      0.046      7.145
REMARK  0 active torsions:
REMARK  status: ('A' for Active; 'I' for Inactive)
ROOT
HETATM    1  C   UNL     1     -21.580  -7.928  -1.539  1.00  0.00     0.049 C 
HETATM    2  C   UNL     1     -21.163  -7.732  -2.971  1.00  0.00    -0.045 A 
HETATM    3  C   UNL     1     -21.908  -6.853  -3.777  1.00  0.00     0.031 A 
HETATM    4  C   UNL     1     -21.562  -6.636  -5.115  1.00  0.00     0.035 A 
HETATM    5  C   UNL     1     -20.471  -7.288  -5.678  1.00  0.00     0.043 A 
HETATM    6  C   UNL     1     -19.728  -8.158  -4.888  1.00  0.00     0.022 A 
HETATM    7  C   UNL     1     -20.062  -8.382  -3.553  1.00  0.00     0.038 A 
HETATM    8  C   UNL     1     -19.124  -9.347  -2.923  1.00  0.00     0.202 A 
HETATM    9  O   UNL     1     -19.232  -9.686  -1.758  1.00  0.00    -0.286 OA
HETATM   10  C   UNL     1     -18.061  -9.819  -3.904  1.00  0.00     0.077 A 
HETATM   11  C   UNL     1     -17.068 -10.694  -3.643  1.00  0.00     0.077 A 
HETATM   12  C   UNL     1     -16.008 -11.169  -4.623  1.00  0.00     0.202 A 
HETATM   13  O   UNL     1     -15.901 -10.832  -5.790  1.00  0.00    -0.286 OA
HETATM   14  C   UNL     1     -15.070 -12.133  -3.997  1.00  0.00     0.038 A 
HETATM   15  C   UNL     1     -15.402 -12.357  -2.663  1.00  0.00     0.022 A 
HETATM   16  S   UNL     1     -16.812 -11.461  -2.092  1.00  0.00    -0.084 SA
HETATM   17  C   UNL     1     -14.660 -13.225  -1.872  1.00  0.00     0.043 A 
HETATM   18  C   UNL     1     -13.566 -13.874  -2.436  1.00  0.00     0.035 A 
HETATM   19  C   UNL     1     -13.221 -13.659  -3.775  1.00  0.00     0.031 A 
HETATM   20  C   UNL     1     -13.969 -12.782  -4.583  1.00  0.00    -0.045 A 
HETATM   21  C   UNL     1     -13.554 -12.590  -6.014  1.00  0.00     0.049 C 
HETATM   22 CL   UNL     1     -12.630 -14.953  -1.477  1.00  0.00    -0.084 Cl
HETATM   23  S   UNL     1     -18.319  -9.053  -5.455  1.00  0.00    -0.084 SA
HETATM   24 CL   UNL     1     -22.495  -5.554  -6.073  1.00  0.00    -0.084 Cl
ENDROOT
TORSDOF 0
BEGIN_RES ARG D 557
REMARK  4 active torsions:
REMARK  status: ('A' for Active; 'I' for Inactive)
REMARK    1  A    between atoms: CA   and  CB  
REMARK    2  A    between atoms: CB   and  CG  
REMARK    3  A    between atoms: CG   and  CD  
REMARK    4  A    between atoms: CD   and  NE  
REMARK       I    between atoms: NE   and  CZ  
REMARK       I    between atoms: CZ   and  NH1 
REMARK       I    between atoms: CZ   and  NH2 
ROOT
ATOM      1  CA  ARG D 557     -26.217   2.705 -17.014  1.00 35.49     0.159 C 
ENDROOT
BRANCH   1   2
ATOM      2  CB  ARG D 557     -26.789   1.319 -17.183  1.00 35.49     0.034 C 
BRANCH   2   3
ATOM      3  CG  ARG D 557     -25.837   0.202 -17.147  1.00 35.49     0.027 C 
BRANCH   3   4
ATOM      4  CD  ARG D 557     -24.752   0.417 -16.162  1.00 35.49     0.116 C 
BRANCH   4   5
ATOM      5  NE  ARG D 557     -24.888  -0.437 -15.011  1.00 35.49    -0.212 N 
ATOM      6  CZ  ARG D 557     -24.064  -1.401 -14.669  1.00 35.49     0.666 C 
ATOM      7  NH1 ARG D 557     -22.994  -1.706 -15.381  1.00 35.49    -0.235 N 
ATOM      8  NH2 ARG D 557     -24.331  -2.061 -13.580  1.00 35.49    -0.235 N 
ATOM      9  HH  ARG D 557     -22.798  -1.283 -16.100  1.00 35.49     0.174 HD
ATOM     10  HH  ARG D 557     -22.491  -2.343 -15.107  1.00 35.49     0.174 HD
ATOM     11  HH  ARG D 557     -25.024  -1.838 -13.136  1.00 35.49     0.174 HD
ATOM     12  HH  ARG D 557     -23.820  -2.688 -13.325  1.00 35.49     0.174 HD
ATOM     13  HE  ARG D 557     -25.589  -0.358 -14.536  1.00 35.49     0.178 HD
ENDBRANCH   4   5
ENDBRANCH   3   4
ENDBRANCH   2   3
ENDBRANCH   1   2
END_RES ARG D 557
BEGIN_RES GLU D 570
REMARK  3 active torsions:
REMARK  status: ('A' for Active; 'I' for Inactive)
REMARK    5  A    between atoms: CA   and  CB  
REMARK    6  A    between atoms: CB   and  CG  
REMARK    7  A    between atoms: CG   and  CD  
ROOT
ATOM     14  CA  GLU D 570     -18.033  -6.348 -13.375  1.00 32.92     0.160 C 
ENDROOT
BRANCH  14  15
ATOM     15  CB  GLU D 570     -19.500  -6.345 -13.794  1.00 32.92     0.043 C 
BRANCH  15  16
ATOM     16  CG  GLU D 570     -20.443  -5.538 -12.978  1.00 32.92     0.100 C 
BRANCH  16  17
ATOM     17  CD  GLU D 570     -21.726  -5.214 -13.708  1.00 32.92     0.185 C 
ATOM     18  OE1 GLU D 570     -22.287  -4.123 -13.490  1.00 32.92    -0.647 OA
ATOM     19  OE2 GLU D 570     -22.183  -6.067 -14.494  1.00 32.92    -0.647 OA
ENDBRANCH  16  17
ENDBRANCH  15  16
ENDBRANCH  14  15
END_RES GLU D 570
ENDMDL
MODEL 3
REMARK VINA RESULT:      -7.4      2.143      6.605
REMARK  0 active torsions:
REMARK  status: ('A' for Active; 'I' for Inactive)
ROOT
HETATM    1  C   UNL     1     -21.300  -6.483  -3.519  1.00  0.00     0.049 C 
HETATM    2  C   UNL     1     -21.348  -7.436  -2.357  1.00  0.00    -0.045 A 
HETATM    3  C   UNL     1     -22.307  -7.224  -1.349  1.00  0.00     0.031 A 
HETATM    4  C   UNL     1     -22.392  -8.080  -0.246  1.00  0.00     0.035 A 
HETATM    5  C   UNL     1     -21.528  -9.162  -0.121  1.00  0.00     0.043 A 
HETATM    6  C   UNL     1     -20.577  -9.379  -1.113  1.00  0.00     0.022 A 
HETATM    7  C   UNL     1     -20.483  -8.533  -2.218  1.00  0.00     0.038 A 
HETATM    8  C   UNL     1     -19.397  -8.971  -3.133  1.00  0.00     0.202 A 
HETATM    9  O   UNL     1     -19.140  -8.373  -4.162  1.00  0.00    -0.286 OA
HETATM   10  C   UNL     1     -18.693 -10.216  -2.614  1.00  0.00     0.077 A 
HETATM   11  C   UNL     1     -17.668 -10.859  -3.211  1.00  0.00     0.077 A 
HETATM   12  C   UNL     1     -16.962 -12.101  -2.692  1.00  0.00     0.202 A 
HETATM   13  O   UNL     1     -17.217 -12.699  -1.660  1.00  0.00    -0.286 OA
HETATM   14  C   UNL     1     -15.877 -12.541  -3.604  1.00  0.00     0.038 A 
HETATM   15  C   UNL     1     -15.782 -11.697  -4.708  1.00  0.00     0.022 A 
HETATM   16  S   UNL     1     -16.944 -10.368  -4.725  1.00  0.00    -0.084 SA
HETATM   17  C   UNL     1     -14.834 -11.914  -5.700  1.00  0.00     0.043 A 
HETATM   18  C   UNL     1     -13.972 -12.998  -5.576  1.00  0.00     0.035 A 
HETATM   19  C   UNL     1     -14.056 -13.854  -4.472  1.00  0.00     0.031 A 
HETATM   20  C   UNL     1     -15.013 -13.640  -3.461  1.00  0.00    -0.045 A 
HETATM   21  C   UNL     1     -15.056 -14.589  -2.298  1.00  0.00     0.049 C 
HETATM   22 CL   UNL     1     -12.790 -13.289  -6.792  1.00  0.00    -0.084 Cl
HETATM   23  S   UNL     1     -19.417 -10.706  -1.099  1.00  0.00    -0.084 SA
HETATM   24 CL   UNL     1     -23.577  -7.793   0.967  1.00  0.00    -0.084 Cl
ENDROOT
TORSDOF 0
BEGIN_RES ARG D 557
REMARK  4 active torsions:
REMARK  status: ('A' for Active; 'I' for Inactive)
REMARK    1  A    between atoms: CA   and  CB  
REMARK    2  A    between atoms: CB   and  CG  
REMARK    3  A    between atoms: CG   and  CD  
REMARK    4  A    between atoms: CD   and  NE  
REMARK       I    between atoms: NE   and  CZ  
REMARK       I    between atoms: CZ   and  NH1 
REMARK       I    between atoms: CZ   and  NH2 
ROOT
ATOM      1  CA  ARG D 557     -26.217   2.705 -17.014  1.00 35.49     0.159 C 
ENDROOT
BRANCH   1   2
ATOM      2  CB  ARG D 557     -26.789   1.319 -17.183  1.00 35.49     0.034 C 
BRANCH   2   3
ATOM      3  CG  ARG D 557     -25.835   0.203 -17.160  1.00 35.49     0.027 C 
BRANCH   3   4
ATOM      4  CD  ARG D 557     -24.750   0.409 -16.174  1.00 35.49     0.116 C 
BRANCH   4   5
ATOM      5  NE  ARG D 557     -24.900  -0.437 -15.019  1.00 35.49    -0.212 N 
ATOM      6  CZ  ARG D 557     -24.088  -1.409 -14.668  1.00 35.49     0.666 C 
ATOM      7  NH1 ARG D 557     -23.021  -1.731 -15.375  1.00 35.49    -0.235 N 
ATOM      8  NH2 ARG D 557     -24.367  -2.060 -13.576  1.00 35.49    -0.235 N 
ATOM      9  HH  ARG D 557     -22.817  -1.315 -16.096  1.00 35.49     0.174 HD
ATOM     10  HH  ARG D 557     -22.527  -2.373 -15.096  1.00 35.49     0.174 HD
ATOM     11  HH  ARG D 557     -25.059  -1.825 -13.136  1.00 35.49     0.174 HD
ATOM     12  HH  ARG D 557     -23.865  -2.691 -13.316  1.00 35.49     0.174 HD
ATOM     13  HE  ARG D 557     -25.601  -0.346 -14.546  1.00 35.49     0.178 HD
ENDBRANCH   4   5
ENDBRANCH   3   4
ENDBRANCH   2   3
ENDBRANCH   1   2
END_RES ARG D 557
BEGIN_RES GLU D 570
REMARK  3 active torsions:
REMARK  status: ('A' for Active; 'I' for Inactive)
REMARK    5  A    between atoms: CA   and  CB  
REMARK    6  A    between atoms: CB   and  CG  
REMARK    7  A    between atoms: CG   and  CD  
ROOT
ATOM     14  CA  GLU D 570     -18.033  -6.348 -13.375  1.00 32.92     0.160 C 
ENDROOT
BRANCH  14  15
ATOM     15  CB  GLU D 570     -19.500  -6.345 -13.794  1.00 32.92     0.043 C 
BRANCH  15  16
ATOM     16  CG  GLU D 570     -20.441  -5.527 -12.986  1.00 32.92     0.100 C 
BRANCH  16  17
ATOM     17  CD  GLU D 570     -21.735  -5.232 -13.708  1.00 32.92     0.185 C 
ATOM     18  OE1 GLU D 570     -22.303  -4.141 -13.512  1.00 32.92    -0.647 OA
ATOM     19  OE2 GLU D 570     -22.195  -6.110 -14.465  1.00 32.92    -0.647 OA
ENDBRANCH  16  17
ENDBRANCH  15  16
ENDBRANCH  14  15
END_RES GLU D 570
ENDMDL
MODEL 4
REMARK VINA RESULT:      -7.1      1.397      1.648
REMARK  0 active torsions:
REMARK  status: ('A' for Active; 'I' for Inactive)
ROOT
HETATM    1  C   UNL     1     -13.650 -12.568  -6.170  1.00  0.00     0.049 C 
HETATM    2  C   UNL     1     -14.052 -12.753  -4.733  1.00  0.00    -0.045 A 
HETATM    3  C   UNL     1     -13.302 -13.632  -3.930  1.00  0.00     0.031 A 
HETATM    4  C   UNL     1     -13.635 -13.840  -2.587  1.00  0.00     0.035 A 
HETATM    5  C   UNL     1     -14.717 -13.181  -2.016  1.00  0.00     0.043 A 
HETATM    6  C   UNL     1     -15.464 -12.310  -2.803  1.00  0.00     0.022 A 
HETATM    7  C   UNL     1     -15.142 -12.093  -4.142  1.00  0.00     0.038 A 
HETATM    8  C   UNL     1     -16.080 -11.126  -4.767  1.00  0.00     0.202 A 
HETATM    9  O   UNL     1     -15.983 -10.792  -5.933  1.00  0.00    -0.286 OA
HETATM   10  C   UNL     1     -17.127 -10.640  -3.775  1.00  0.00     0.077 A 
HETATM   11  C   UNL     1     -18.119  -9.761  -4.030  1.00  0.00     0.077 A 
HETATM   12  C   UNL     1     -19.167  -9.277  -3.041  1.00  0.00     0.202 A 
HETATM   13  O   UNL     1     -19.268  -9.613  -1.873  1.00  0.00    -0.286 OA
HETATM   14  C   UNL     1     -20.106  -8.310  -3.662  1.00  0.00     0.038 A 
HETATM   15  C   UNL     1     -19.786  -8.093  -5.000  1.00  0.00     0.022 A 
HETATM   16  S   UNL     1     -18.388  -9.001  -5.582  1.00  0.00    -0.084 SA
HETATM   17  C   UNL     1     -20.529  -7.222  -5.786  1.00  0.00     0.043 A 
HETATM   18  C   UNL     1     -21.611  -6.560  -5.213  1.00  0.00     0.035 A 
HETATM   19  C   UNL     1     -21.945  -6.770  -3.870  1.00  0.00     0.031 A 
HETATM   20  C   UNL     1     -21.196  -7.652  -3.067  1.00  0.00    -0.045 A 
HETATM   21  C   UNL     1     -21.602  -7.839  -1.633  1.00  0.00     0.049 C 
HETATM   22 CL   UNL     1     -22.547  -5.475  -6.165  1.00  0.00    -0.084 Cl
HETATM   23  S   UNL     1     -16.858 -11.401  -2.224  1.00  0.00    -0.084 SA
HETATM   24 CL   UNL     1     -12.696 -14.921  -1.634  1.00  0.00    -0.084 Cl
ENDROOT
TORSDOF 0
BEGIN_RES ARG D 557
REMARK  4 active torsions:
REMARK  status: ('A' for Active; 'I' for Inactive)
REMARK    1  A    between atoms: CA   and  CB  
REMARK    2  A    between atoms: CB   and  CG  
REMARK    3  A    between atoms: CG   and  CD  
REMARK    4  A    between atoms: CD   and  NE  
REMARK       I    between atoms: NE   and  CZ  
REMARK       I    between atoms: CZ   and  NH1 
REMARK       I    between atoms: CZ   and  NH2 
ROOT
ATOM      1  CA  ARG D 557     -26.217   2.705 -17.014  1.00 35.49     0.159 C 
ENDROOT
BRANCH   1   2
ATOM      2  CB  ARG D 557     -26.789   1.319 -17.183  1.00 35.49     0.034 C 
BRANCH   2   3
ATOM      3  CG  ARG D 557     -28.232   1.168 -16.958  1.00 35.49     0.027 C 
BRANCH   3   4
ATOM      4  CD  ARG D 557     -28.623  -0.242 -16.730  1.00 35.49     0.116 C 
BRANCH   4   5
ATOM      5  NE  ARG D 557     -27.595  -0.986 -16.050  1.00 35.49    -0.212 N 
ATOM      6  CZ  ARG D 557     -27.422  -2.288 -16.110  1.00 35.49     0.666 C 
ATOM      7  NH1 ARG D 557     -28.212  -3.076 -16.815  1.00 35.49    -0.235 N 
ATOM      8  NH2 ARG D 557     -26.424  -2.792 -15.444  1.00 35.49    -0.235 N 
ATOM      9  HH  ARG D 557     -28.873  -2.766 -17.262  1.00 35.49     0.174 HD
ATOM     10  HH  ARG D 557     -28.049  -3.917 -16.819  1.00 35.49     0.174 HD
ATOM     11  HH  ARG D 557     -25.926  -2.257 -15.004  1.00 35.49     0.174 HD
ATOM     12  HH  ARG D 557     -26.278  -3.627 -15.462  1.00 35.49     0.174 HD
ATOM     13  HE  ARG D 557     -27.085  -0.566 -15.514  1.00 35.49     0.178 HD
ENDBRANCH   4   5
ENDBRANCH   3   4
ENDBRANCH   2   3
ENDBRANCH   1   2
END_RES ARG D 557
BEGIN_RES GLU D 570
REMARK  3 active torsions:
REMARK  status: ('A' for Active; 'I' for Inactive)
REMARK    5  A    between atoms: CA   and  CB  
REMARK    6  A    between atoms: CB   and  CG  
REMARK    7  A    between atoms: CG   and  CD  
ROOT
ATOM     14  CA  GLU D 570     -18.033  -6.348 -13.375  1.00 32.92     0.160 C 
ENDROOT
BRANCH  14  15
ATOM     15  CB  GLU D 570     -19.500  -6.345 -13.794  1.00 32.92     0.043 C 
BRANCH  15  16
ATOM     16  CG  GLU D 570     -20.447  -5.556 -12.965  1.00 32.92     0.100 C 
BRANCH  16  17
ATOM     17  CD  GLU D 570     -21.704  -5.171 -13.710  1.00 32.92     0.185 C 
ATOM     18  OE1 GLU D 570     -21.665  -5.074 -14.952  1.00 32.92    -0.647 OA
ATOM     19  OE2 GLU D 570     -22.734  -4.948 -13.044  1.00 32.92    -0.647 OA
ENDBRANCH  16  17
ENDBRANCH  15  16
ENDBRANCH  14  15
END_RES GLU D 570
ENDMDL
MODEL 5
REMARK VINA RESULT:      -7.1      2.720      6.910
REMARK  0 active torsions:
REMARK  status: ('A' for Active; 'I' for Inactive)
ROOT
HETATM    1  C   UNL     1     -21.318  -6.496  -3.514  1.00  0.00     0.049 C 
HETATM    2  C   UNL     1     -21.361  -7.448  -2.350  1.00  0.00    -0.045 A 
HETATM    3  C   UNL     1     -22.319  -7.238  -1.341  1.00  0.00     0.031 A 
HETATM    4  C   UNL     1     -22.400  -8.093  -0.237  1.00  0.00     0.035 A 
HETATM    5  C   UNL     1     -21.532  -9.172  -0.113  1.00  0.00     0.043 A 
HETATM    6  C   UNL     1     -20.582  -9.388  -1.106  1.00  0.00     0.022 A 
HETATM    7  C   UNL     1     -20.492  -8.543  -2.212  1.00  0.00     0.038 A 
HETATM    8  C   UNL     1     -19.406  -8.978  -3.129  1.00  0.00     0.202 A 
HETATM    9  O   UNL     1     -19.153  -8.380  -4.159  1.00  0.00    -0.286 OA
HETATM   10  C   UNL     1     -18.698 -10.221  -2.610  1.00  0.00     0.077 A 
HETATM   11  C   UNL     1     -17.672 -10.860  -3.208  1.00  0.00     0.077 A 
HETATM   12  C   UNL     1     -16.961 -12.100  -2.689  1.00  0.00     0.202 A 
HETATM   13  O   UNL     1     -17.213 -12.697  -1.656  1.00  0.00    -0.286 OA
HETATM   14  C   UNL     1     -15.877 -12.537  -3.602  1.00  0.00     0.038 A 
HETATM   15  C   UNL     1     -15.785 -11.694  -4.707  1.00  0.00     0.022 A 
HETATM   16  S   UNL     1     -16.952 -10.369  -4.724  1.00  0.00    -0.084 SA
HETATM   17  C   UNL     1     -14.839 -11.909  -5.701  1.00  0.00     0.043 A 
HETATM   18  C   UNL     1     -13.973 -12.991  -5.577  1.00  0.00     0.035 A 
HETATM   19  C   UNL     1     -14.052 -13.845  -4.472  1.00  0.00     0.031 A 
HETATM   20  C   UNL     1     -15.009 -13.633  -3.460  1.00  0.00    -0.045 A 
HETATM   21  C   UNL     1     -15.047 -14.582  -2.296  1.00  0.00     0.049 C 
HETATM   22 CL   UNL     1     -12.792 -13.279  -6.794  1.00  0.00    -0.084 Cl
HETATM   23  S   UNL     1     -19.418 -10.710  -1.093  1.00  0.00    -0.084 SA
HETATM   24 CL   UNL     1     -23.583  -7.808   0.977  1.00  0.00    -0.084 Cl
ENDROOT
TORSDOF 0
BEGIN_RES ARG D 557
REMARK  4 active torsions:
REMARK  status: ('A' for Active; 'I' for Inactive)
REMARK    1  A    between atoms: CA   and  CB  
REMARK    2  A    between atoms: CB   and  CG  
REMARK    3  A    between atoms: CG   and  CD  
REMARK    4  A    between atoms: CD   and  NE  
REMARK       I    between atoms: NE   and  CZ  
REMARK       I    between atoms: CZ   and  NH1 
REMARK       I    between atoms: CZ   and  NH2 
ROOT
ATOM      1  CA  ARG D 557     -26.217   2.705 -17.014  1.00 35.49     0.159 C 
ENDROOT
BRANCH   1   2
ATOM      2  CB  ARG D 557     -26.789   1.319 -17.183  1.00 35.49     0.034 C 
BRANCH   2   3
ATOM      3  CG  ARG D 557     -28.234   1.225 -17.423  1.00 35.49     0.027 C 
BRANCH   3   4
ATOM      4  CD  ARG D 557     -28.903   0.293 -16.487  1.00 35.49     0.116 C 
BRANCH   4   5
ATOM      5  NE  ARG D 557     -29.312  -0.925 -17.135  1.00 35.49    -0.212 N 
ATOM      6  CZ  ARG D 557     -28.702  -2.085 -17.047  1.00 35.49     0.666 C 
ATOM      7  NH1 ARG D 557     -27.601  -2.255 -16.339  1.00 35.49    -0.235 N 
ATOM      8  NH2 ARG D 557     -29.227  -3.090 -17.686  1.00 35.49    -0.235 N 
ATOM      9  HH  ARG D 557     -27.239  -1.608 -15.909  1.00 35.49     0.174 HD
ATOM     10  HH  ARG D 557     -27.248  -3.036 -16.315  1.00 35.49     0.174 HD
ATOM     11  HH  ARG D 557     -29.943  -2.953 -18.129  1.00 35.49     0.174 HD
ATOM     12  HH  ARG D 557     -28.864  -3.856 -17.649  1.00 35.49     0.174 HD
ATOM     13  HE  ARG D 557     -29.972  -0.890 -17.671  1.00 35.49     0.178 HD
ENDBRANCH   4   5
ENDBRANCH   3   4
ENDBRANCH   2   3
ENDBRANCH   1   2
END_RES ARG D 557
BEGIN_RES GLU D 570
REMARK  3 active torsions:
REMARK  status: ('A' for Active; 'I' for Inactive)
REMARK    5  A    between atoms: CA   and  CB  
REMARK    6  A    between atoms: CB   and  CG  
REMARK    7  A    between atoms: CG   and  CD  
ROOT
ATOM     14  CA  GLU D 570     -18.033  -6.348 -13.375  1.00 32.92     0.160 C 
ENDROOT
BRANCH  14  15
ATOM     15  CB  GLU D 570     -19.500  -6.345 -13.794  1.00 32.92     0.043 C 
BRANCH  15  16
ATOM     16  CG  GLU D 570     -20.441  -5.526 -12.987  1.00 32.92     0.100 C 
BRANCH  16  17
ATOM     17  CD  GLU D 570     -21.734  -5.229 -13.710  1.00 32.92     0.185 C 
ATOM     18  OE1 GLU D 570     -22.319  -4.153 -13.484  1.00 32.92    -0.647 OA
ATOM     19  OE2 GLU D 570     -22.174  -6.089 -14.498  1.00 32.92    -0.647 OA
ENDBRANCH  16  17
ENDBRANCH  15  16
ENDBRANCH  14  15
END_RES GLU D 570
ENDMDL
MODEL 6
REMARK VINA RESULT:      -6.9      1.803      2.239
REMARK  0 active torsions:
REMARK  status: ('A' for Active; 'I' for Inactive)
ROOT
HETATM    1  C   UNL     1     -13.913 -12.321  -6.473  1.00  0.00     0.049 C 
HETATM    2  C   UNL     1     -14.230 -13.256  -5.338  1.00  0.00    -0.045 A 
HETATM    3  C   UNL     1     -13.488 -14.445  -5.216  1.00  0.00     0.031 A 
HETATM    4  C   UNL     1     -13.744 -15.349  -4.179  1.00  0.00     0.035 A 
HETATM    5  C   UNL     1     -14.741 -15.090  -3.245  1.00  0.00     0.043 A 
HETATM    6  C   UNL     1     -15.479 -13.916  -3.358  1.00  0.00     0.022 A 
HETATM    7  C   UNL     1     -15.232 -13.007  -4.387  1.00  0.00     0.038 A 
HETATM    8  C   UNL     1     -16.144 -11.838  -4.295  1.00  0.00     0.202 A 
HETATM    9  O   UNL     1     -16.102 -10.921  -5.095  1.00  0.00    -0.286 OA
HETATM   10  C   UNL     1     -17.089 -11.955  -3.107  1.00  0.00     0.077 A 
HETATM   11  C   UNL     1     -18.035 -11.061  -2.751  1.00  0.00     0.077 A 
HETATM   12  C   UNL     1     -18.981 -11.178  -1.567  1.00  0.00     0.202 A 
HETATM   13  O   UNL     1     -19.026 -12.097  -0.767  1.00  0.00    -0.286 OA
HETATM   14  C   UNL     1     -19.893 -10.012  -1.472  1.00  0.00     0.038 A 
HETATM   15  C   UNL     1     -19.648  -9.103  -2.499  1.00  0.00     0.022 A 
HETATM   16  S   UNL     1     -18.355  -9.570  -3.606  1.00  0.00    -0.084 SA
HETATM   17  C   UNL     1     -20.383  -7.929  -2.612  1.00  0.00     0.043 A 
HETATM   18  C   UNL     1     -21.378  -7.670  -1.675  1.00  0.00     0.035 A 
HETATM   19  C   UNL     1     -21.635  -8.574  -0.639  1.00  0.00     0.031 A 
HETATM   20  C   UNL     1     -20.895  -9.767  -0.518  1.00  0.00    -0.045 A 
HETATM   21  C   UNL     1     -21.216 -10.701   0.613  1.00  0.00     0.049 C 
HETATM   22 CL   UNL     1     -22.301  -6.223  -1.793  1.00  0.00    -0.084 Cl
HETATM   23  S   UNL     1     -16.768 -13.447  -2.253  1.00  0.00    -0.084 SA
HETATM   24 CL   UNL     1     -12.818 -16.793  -4.058  1.00  0.00    -0.084 Cl
ENDROOT
TORSDOF 0
BEGIN_RES ARG D 557
REMARK  4 active torsions:
REMARK  status: ('A' for Active; 'I' for Inactive)
REMARK    1  A    between atoms: CA   and  CB  
REMARK    2  A    between atoms: CB   and  CG  
REMARK    3  A    between atoms: CG   and  CD  
REMARK    4  A    between atoms: CD   and  NE  
REMARK       I    between atoms: NE   and  CZ  
REMARK       I    between atoms: CZ   and  NH1 
REMARK       I    between atoms: CZ   and  NH2 
ROOT
ATOM      1  CA  ARG D 557     -26.217   2.705 -17.014  1.00 35.49     0.159 C 
ENDROOT
BRANCH   1   2
ATOM      2  CB  ARG D 557     -26.789   1.319 -17.183  1.00 35.49     0.034 C 
BRANCH   2   3
ATOM      3  CG  ARG D 557     -25.868   0.195 -16.978  1.00 35.49     0.027 C 
BRANCH   3   4
ATOM      4  CD  ARG D 557     -26.296  -0.692 -15.872  1.00 35.49     0.116 C 
BRANCH   4   5
ATOM      5  NE  ARG D 557     -25.233  -0.939 -14.933  1.00 35.49    -0.212 N 
ATOM      6  CZ  ARG D 557     -24.959  -2.095 -14.371  1.00 35.49     0.666 C 
ATOM      7  NH1 ARG D 557     -25.666  -3.185 -14.609  1.00 35.49    -0.235 N 
ATOM      8  NH2 ARG D 557     -23.943  -2.141 -13.559  1.00 35.49    -0.235 N 
ATOM      9  HH  ARG D 557     -26.337  -3.178 -15.141  1.00 35.49     0.174 HD
ATOM     10  HH  ARG D 557     -25.438  -3.911 -14.215  1.00 35.49     0.174 HD
ATOM     11  HH  ARG D 557     -23.501  -1.424 -13.430  1.00 35.49     0.174 HD
ATOM     12  HH  ARG D 557     -23.733  -2.870 -13.180  1.00 35.49     0.174 HD
ATOM     13  HE  ARG D 557     -24.772  -0.276 -14.668  1.00 35.49     0.178 HD
ENDBRANCH   4   5
ENDBRANCH   3   4
ENDBRANCH   2   3
ENDBRANCH   1   2
END_RES ARG D 557
BEGIN_RES GLU D 570
REMARK  3 active torsions:
REMARK  status: ('A' for Active; 'I' for Inactive)
REMARK    5  A    between atoms: CA   and  CB  
REMARK    6  A    between atoms: CB   and  CG  
REMARK    7  A    between atoms: CG   and  CD  
ROOT
ATOM     14  CA  GLU D 570     -18.033  -6.348 -13.375  1.00 32.92     0.160 C 
ENDROOT
BRANCH  14  15
ATOM     15  CB  GLU D 570     -19.500  -6.345 -13.794  1.00 32.92     0.043 C 
BRANCH  15  16
ATOM     16  CG  GLU D 570     -20.424  -5.456 -13.044  1.00 32.92     0.100 C 
BRANCH  16  17
ATOM     17  CD  GLU D 570     -21.685  -5.133 -13.812  1.00 32.92     0.185 C 
ATOM     18  OE1 GLU D 570     -21.603  -4.877 -15.029  1.00 32.92    -0.647 OA
ATOM     19  OE2 GLU D 570     -22.763  -5.120 -13.187  1.00 32.92    -0.647 OA
ENDBRANCH  16  17
ENDBRANCH  15  16
ENDBRANCH  14  15
END_RES GLU D 570
ENDMDL
MODEL 7
REMARK VINA RESULT:      -6.9      3.071      7.268
REMARK  0 active torsions:
REMARK  status: ('A' for Active; 'I' for Inactive)
ROOT
HETATM    1  C   UNL     1     -23.804  -4.343  -7.112  1.00  0.00     0.049 C 
HETATM    2  C   UNL     1     -22.403  -4.627  -7.580  1.00  0.00    -0.045 A 
HETATM    3  C   UNL     1     -21.926  -3.961  -8.724  1.00  0.00     0.031 A 
HETATM    4  C   UNL     1     -20.632  -4.191  -9.202  1.00  0.00     0.035 A 
HETATM    5  C   UNL     1     -19.787  -5.085  -8.555  1.00  0.00     0.043 A 
HETATM    6  C   UNL     1     -20.250  -5.747  -7.423  1.00  0.00     0.022 A 
HETATM    7  C   UNL     1     -21.539  -5.526  -6.936  1.00  0.00     0.038 A 
HETATM    8  C   UNL     1     -21.798  -6.344  -5.723  1.00  0.00     0.202 A 
HETATM    9  O   UNL     1     -22.863  -6.306  -5.134  1.00  0.00    -0.286 OA
HETATM   10  C   UNL     1     -20.590  -7.191  -5.348  1.00  0.00     0.077 A 
HETATM   11  C   UNL     1     -20.507  -8.040  -4.303  1.00  0.00     0.077 A 
HETATM   12  C   UNL     1     -19.302  -8.889  -3.930  1.00  0.00     0.202 A 
HETATM   13  O   UNL     1     -18.236  -8.930  -4.521  1.00  0.00    -0.286 OA
HETATM   14  C   UNL     1     -19.558  -9.707  -2.719  1.00  0.00     0.038 A 
HETATM   15  C   UNL     1     -20.844  -9.488  -2.232  1.00  0.00     0.022 A 
HETATM   16  S   UNL     1     -21.797  -8.328  -3.160  1.00  0.00    -0.084 SA
HETATM   17  C   UNL     1     -21.308 -10.147  -1.100  1.00  0.00     0.043 A 
HETATM   18  C   UNL     1     -20.460 -11.039  -0.451  1.00  0.00     0.035 A 
HETATM   19  C   UNL     1     -19.166 -11.270  -0.930  1.00  0.00     0.031 A 
HETATM   20  C   UNL     1     -18.689 -10.607  -2.077  1.00  0.00    -0.045 A 
HETATM   21  C   UNL     1     -17.292 -10.895  -2.547  1.00  0.00     0.049 C 
HETATM   22 CL   UNL     1     -21.010 -11.867   0.953  1.00  0.00    -0.084 Cl
HETATM   23  S   UNL     1     -19.300  -6.904  -6.493  1.00  0.00    -0.084 SA
HETATM   24 CL   UNL     1     -20.080  -3.360 -10.603  1.00  0.00    -0.084 Cl
ENDROOT
TORSDOF 0
BEGIN_RES ARG D 557
REMARK  4 active torsions:
REMARK  status: ('A' for Active; 'I' for Inactive)
REMARK    1  A    between atoms: CA   and  CB  
REMARK    2  A    between atoms: CB   and  CG  
REMARK    3  A    between atoms: CG   and  CD  
REMARK    4  A    between atoms: CD   and  NE  
REMARK       I    between atoms: NE   and  CZ  
REMARK       I    between atoms: CZ   and  NH1 
REMARK       I    between atoms: CZ   and  NH2 
ROOT
ATOM      1  CA  ARG D 557     -26.217   2.705 -17.014  1.00 35.49     0.159 C 
ENDROOT
BRANCH   1   2
ATOM      2  CB  ARG D 557     -26.789   1.319 -17.183  1.00 35.49     0.034 C 
BRANCH   2   3
ATOM      3  CG  ARG D 557     -25.838   0.202 -17.137  1.00 35.49     0.027 C 
BRANCH   3   4
ATOM      4  CD  ARG D 557     -24.761   0.418 -16.144  1.00 35.49     0.116 C 
BRANCH   4   5
ATOM      5  NE  ARG D 557     -24.900  -0.441 -14.998  1.00 35.49    -0.212 N 
ATOM      6  CZ  ARG D 557     -24.080  -1.413 -14.662  1.00 35.49     0.666 C 
ATOM      7  NH1 ARG D 557     -23.014  -1.720 -15.378  1.00 35.49    -0.235 N 
ATOM      8  NH2 ARG D 557     -24.349  -2.077 -13.576  1.00 35.49    -0.235 N 
ATOM      9  HH  ARG D 557     -22.817  -1.295 -16.095  1.00 35.49     0.174 HD
ATOM     10  HH  ARG D 557     -22.515  -2.362 -15.109  1.00 35.49     0.174 HD
ATOM     11  HH  ARG D 557     -25.041  -1.852 -13.130  1.00 35.49     0.174 HD
ATOM     12  HH  ARG D 557     -23.842  -2.708 -13.326  1.00 35.49     0.174 HD
ATOM     13  HE  ARG D 557     -25.599  -0.361 -14.520  1.00 35.49     0.178 HD
ENDBRANCH   4   5
ENDBRANCH   3   4
ENDBRANCH   2   3
ENDBRANCH   1   2
END_RES ARG D 557
BEGIN_RES GLU D 570
REMARK  3 active torsions:
REMARK  status: ('A' for Active; 'I' for Inactive)
REMARK    5  A    between atoms: CA   and  CB  
REMARK    6  A    between atoms: CB   and  CG  
REMARK    7  A    between atoms: CG   and  CD  
ROOT
ATOM     14  CA  GLU D 570     -18.033  -6.348 -13.375  1.00 32.92     0.160 C 
ENDROOT
BRANCH  14  15
ATOM     15  CB  GLU D 570     -19.500  -6.345 -13.794  1.00 32.92     0.043 C 
BRANCH  15  16
ATOM     16  CG  GLU D 570     -20.460  -5.619 -12.922  1.00 32.92     0.100 C 
BRANCH  16  17
ATOM     17  CD  GLU D 570     -21.729  -5.228 -13.641  1.00 32.92     0.185 C 
ATOM     18  OE1 GLU D 570     -22.168  -4.069 -13.508  1.00 32.92    -0.647 OA
ATOM     19  OE2 GLU D 570     -22.301  -6.094 -14.331  1.00 32.92    -0.647 OA
ENDBRANCH  16  17
ENDBRANCH  15  16
ENDBRANCH  14  15
END_RES GLU D 570
ENDMDL
MODEL 8
REMARK VINA RESULT:      -6.8      3.000      4.951
REMARK  0 active torsions:
REMARK  status: ('A' for Active; 'I' for Inactive)
ROOT
HETATM    1  C   UNL     1     -21.955  -9.924  -0.242  1.00  0.00     0.049 C 
HETATM    2  C   UNL     1     -20.673 -10.149  -0.994  1.00  0.00    -0.045 A 
HETATM    3  C   UNL     1     -19.723 -11.038  -0.459  1.00  0.00     0.031 A 
HETATM    4  C   UNL     1     -18.513 -11.281  -1.119  1.00  0.00     0.035 A 
HETATM    5  C   UNL     1     -18.223 -10.646  -2.321  1.00  0.00     0.043 A 
HETATM    6  C   UNL     1     -19.156  -9.765  -2.857  1.00  0.00     0.022 A 
HETATM    7  C   UNL     1     -20.366  -9.515  -2.210  1.00  0.00     0.038 A 
HETATM    8  C   UNL     1     -21.190  -8.545  -2.975  1.00  0.00     0.202 A 
HETATM    9  O   UNL     1     -22.287  -8.184  -2.590  1.00  0.00    -0.286 OA
HETATM   10  C   UNL     1     -20.490  -8.096  -4.250  1.00  0.00     0.077 A 
HETATM   11  C   UNL     1     -20.972  -7.222  -5.158  1.00  0.00     0.077 A 
HETATM   12  C   UNL     1     -20.272  -6.771  -6.430  1.00  0.00     0.202 A 
HETATM   13  O   UNL     1     -19.172  -7.130  -6.815  1.00  0.00    -0.286 OA
HETATM   14  C   UNL     1     -21.093  -5.802  -7.197  1.00  0.00     0.038 A 
HETATM   15  C   UNL     1     -22.301  -5.551  -6.551  1.00  0.00     0.022 A 
HETATM   16  S   UNL     1     -22.525  -6.429  -5.036  1.00  0.00    -0.084 SA
HETATM   17  C   UNL     1     -23.235  -4.673  -7.087  1.00  0.00     0.043 A 
HETATM   18  C   UNL     1     -22.945  -4.041  -8.291  1.00  0.00     0.035 A 
HETATM   19  C   UNL     1     -21.734  -4.282  -8.950  1.00  0.00     0.031 A 
HETATM   20  C   UNL     1     -20.782  -5.170  -8.414  1.00  0.00    -0.045 A 
HETATM   21  C   UNL     1     -19.500  -5.390  -9.164  1.00  0.00     0.049 C 
HETATM   22 CL   UNL     1     -24.085  -2.950  -8.976  1.00  0.00    -0.084 Cl
HETATM   23  S   UNL     1     -18.936  -8.889  -4.370  1.00  0.00    -0.084 SA
HETATM   24 CL   UNL     1     -17.375 -12.375  -0.437  1.00  0.00    -0.084 Cl
ENDROOT
TORSDOF 0
BEGIN_RES ARG D 557
REMARK  4 active torsions:
REMARK  status: ('A' for Active; 'I' for Inactive)
REMARK    1  A    between atoms: CA   and  CB  
REMARK    2  A    between atoms: CB   and  CG  
REMARK    3  A    between atoms: CG   and  CD  
REMARK    4  A    between atoms: CD   and  NE  
REMARK       I    between atoms: NE   and  CZ  
REMARK       I    between atoms: CZ   and  NH1 
REMARK       I    between atoms: CZ   and  NH2 
ROOT
ATOM      1  CA  ARG D 557     -26.217   2.705 -17.014  1.00 35.49     0.159 C 
ENDROOT
BRANCH   1   2
ATOM      2  CB  ARG D 557     -26.789   1.319 -17.183  1.00 35.49     0.034 C 
BRANCH   2   3
ATOM      3  CG  ARG D 557     -25.838   0.202 -17.139  1.00 35.49     0.027 C 
BRANCH   3   4
ATOM      4  CD  ARG D 557     -24.764   0.413 -16.141  1.00 35.49     0.116 C 
BRANCH   4   5
ATOM      5  NE  ARG D 557     -24.915  -0.442 -14.994  1.00 35.49    -0.212 N 
ATOM      6  CZ  ARG D 557     -24.094  -1.407 -14.642  1.00 35.49     0.666 C 
ATOM      7  NH1 ARG D 557     -23.015  -1.709 -15.340  1.00 35.49    -0.235 N 
ATOM      8  NH2 ARG D 557     -24.375  -2.069 -13.557  1.00 35.49    -0.235 N 
ATOM      9  HH  ARG D 557     -22.809  -1.285 -16.056  1.00 35.49     0.174 HD
ATOM     10  HH  ARG D 557     -22.515  -2.347 -15.061  1.00 35.49     0.174 HD
ATOM     11  HH  ARG D 557     -25.075  -1.846 -13.123  1.00 35.49     0.174 HD
ATOM     12  HH  ARG D 557     -23.867  -2.695 -13.297  1.00 35.49     0.174 HD
ATOM     13  HE  ARG D 557     -25.622  -0.365 -14.528  1.00 35.49     0.178 HD
ENDBRANCH   4   5
ENDBRANCH   3   4
ENDBRANCH   2   3
ENDBRANCH   1   2
END_RES ARG D 557
BEGIN_RES GLU D 570
REMARK  3 active torsions:
REMARK  status: ('A' for Active; 'I' for Inactive)
REMARK    5  A    between atoms: CA   and  CB  
REMARK    6  A    between atoms: CB   and  CG  
REMARK    7  A    between atoms: CG   and  CD  
ROOT
ATOM     14  CA  GLU D 570     -18.033  -6.348 -13.375  1.00 32.92     0.160 C 
ENDROOT
BRANCH  14  15
ATOM     15  CB  GLU D 570     -19.500  -6.345 -13.794  1.00 32.92     0.043 C 
BRANCH  15  16
ATOM     16  CG  GLU D 570     -20.446  -5.552 -12.968  1.00 32.92     0.100 C 
BRANCH  16  17
ATOM     17  CD  GLU D 570     -21.729  -5.220 -13.695  1.00 32.92     0.185 C 
ATOM     18  OE1 GLU D 570     -22.192  -6.041 -14.510  1.00 32.92    -0.647 OA
ATOM     19  OE2 GLU D 570     -22.267  -4.121 -13.459  1.00 32.92    -0.647 OA
ENDBRANCH  16  17
ENDBRANCH  15  16
ENDBRANCH  14  15
END_RES GLU D 570
ENDMDL
MODEL 9
REMARK VINA RESULT:      -6.8      2.883      7.150
REMARK  0 active torsions:
REMARK  status: ('A' for Active; 'I' for Inactive)
ROOT
HETATM    1  C   UNL     1     -19.494  -5.363  -9.112  1.00  0.00     0.049 C 
HETATM    2  C   UNL     1     -20.775  -5.187  -8.345  1.00  0.00    -0.045 A 
HETATM    3  C   UNL     1     -21.753  -4.312  -8.855  1.00  0.00     0.031 A 
HETATM    4  C   UNL     1     -22.962  -4.112  -8.180  1.00  0.00     0.035 A 
HETATM    5  C   UNL     1     -23.223  -4.775  -6.986  1.00  0.00     0.043 A 
HETATM    6  C   UNL     1     -22.262  -5.641  -6.475  1.00  0.00     0.022 A 
HETATM    7  C   UNL     1     -21.054  -5.850  -7.139  1.00  0.00     0.038 A 
HETATM    8  C   UNL     1     -20.198  -6.814  -6.400  1.00  0.00     0.202 A 
HETATM    9  O   UNL     1     -19.097  -7.140  -6.802  1.00  0.00    -0.286 OA
HETATM   10  C   UNL     1     -20.876  -7.306  -5.129  1.00  0.00     0.077 A 
HETATM   11  C   UNL     1     -20.363  -8.182  -4.241  1.00  0.00     0.077 A 
HETATM   12  C   UNL     1     -21.037  -8.672  -2.970  1.00  0.00     0.202 A 
HETATM   13  O   UNL     1     -22.139  -8.343  -2.565  1.00  0.00    -0.286 OA
HETATM   14  C   UNL     1     -20.186  -9.635  -2.229  1.00  0.00     0.038 A 
HETATM   15  C   UNL     1     -18.978  -9.845  -2.892  1.00  0.00     0.022 A 
HETATM   16  S   UNL     1     -18.791  -8.933  -4.392  1.00  0.00    -0.084 SA
HETATM   17  C   UNL     1     -18.019 -10.711  -2.383  1.00  0.00     0.043 A 
HETATM   18  C   UNL     1     -18.283 -11.375  -1.190  1.00  0.00     0.035 A 
HETATM   19  C   UNL     1     -19.491 -11.174  -0.513  1.00  0.00     0.031 A 
HETATM   20  C   UNL     1     -20.468 -10.296  -1.022  1.00  0.00    -0.045 A 
HETATM   21  C   UNL     1     -21.745 -10.118  -0.252  1.00  0.00     0.049 C 
HETATM   22 CL   UNL     1     -17.111 -12.455  -0.539  1.00  0.00    -0.084 Cl
HETATM   23  S   UNL     1     -22.447  -6.553  -4.978  1.00  0.00    -0.084 SA
HETATM   24 CL   UNL     1     -24.135  -3.038  -8.832  1.00  0.00    -0.084 Cl
ENDROOT
TORSDOF 0
BEGIN_RES ARG D 557
REMARK  4 active torsions:
REMARK  status: ('A' for Active; 'I' for Inactive)
REMARK    1  A    between atoms: CA   and  CB  
REMARK    2  A    between atoms: CB   and  CG  
REMARK    3  A    between atoms: CG   and  CD  
REMARK    4  A    between atoms: CD   and  NE  
REMARK       I    between atoms: NE   and  CZ  
REMARK       I    between atoms: CZ   and  NH1 
REMARK       I    between atoms: CZ   and  NH2 
ROOT
ATOM      1  CA  ARG D 557     -26.217   2.705 -17.014  1.00 35.49     0.159 C 
ENDROOT
BRANCH   1   2
ATOM      2  CB  ARG D 557     -26.789   1.319 -17.183  1.00 35.49     0.034 C 
BRANCH   2   3
ATOM      3  CG  ARG D 557     -25.836   0.203 -17.152  1.00 35.49     0.027 C 
BRANCH   3   4
ATOM      4  CD  ARG D 557     -24.759   0.408 -16.157  1.00 35.49     0.116 C 
BRANCH   4   5
ATOM      5  NE  ARG D 557     -24.911  -0.447 -15.009  1.00 35.49    -0.212 N 
ATOM      6  CZ  ARG D 557     -24.098  -1.420 -14.663  1.00 35.49     0.666 C 
ATOM      7  NH1 ARG D 557     -23.026  -1.732 -15.367  1.00 35.49    -0.235 N 
ATOM      8  NH2 ARG D 557     -24.379  -2.079 -13.577  1.00 35.49    -0.235 N 
ATOM      9  HH  ARG D 557     -22.820  -1.310 -16.084  1.00 35.49     0.174 HD
ATOM     10  HH  ARG D 557     -22.531  -2.375 -15.091  1.00 35.49     0.174 HD
ATOM     11  HH  ARG D 557     -25.074  -1.850 -13.138  1.00 35.49     0.174 HD
ATOM     12  HH  ARG D 557     -23.876  -2.711 -13.319  1.00 35.49     0.174 HD
ATOM     13  HE  ARG D 557     -25.614  -0.363 -14.539  1.00 35.49     0.178 HD
ENDBRANCH   4   5
ENDBRANCH   3   4
ENDBRANCH   2   3
ENDBRANCH   1   2
END_RES ARG D 557
BEGIN_RES GLU D 570
REMARK  3 active torsions:
REMARK  status: ('A' for Active; 'I' for Inactive)
REMARK    5  A    between atoms: CA   and  CB  
REMARK    6  A    between atoms: CB   and  CG  
REMARK    7  A    between atoms: CG   and  CD  
ROOT
ATOM     14  CA  GLU D 570     -18.033  -6.348 -13.375  1.00 32.92     0.160 C 
ENDROOT
BRANCH  14  15
ATOM     15  CB  GLU D 570     -19.500  -6.345 -13.794  1.00 32.92     0.043 C 
BRANCH  15  16
ATOM     16  CG  GLU D 570     -20.444  -5.541 -12.976  1.00 32.92     0.100 C 
BRANCH  16  17
ATOM     17  CD  GLU D 570     -21.731  -5.224 -13.701  1.00 32.92     0.185 C 
ATOM     18  OE1 GLU D 570     -22.296  -4.135 -13.483  1.00 32.92    -0.647 OA
ATOM     19  OE2 GLU D 570     -22.187  -6.081 -14.484  1.00 32.92    -0.647 OA
ENDBRANCH  16  17
ENDBRANCH  15  16
ENDBRANCH  14  15
END_RES GLU D 570
ENDMDL
