MODEL 1
REMARK VINA RESULT:      -1.3      0.000      0.000
REMARK  3 active torsions:
REMARK  status: ('A' for Active; 'I' for Inactive)
REMARK    1  A    between atoms: O_2  and  C_3 
REMARK    2  A    between atoms: C_5  and  O_12 
REMARK    3  A    between atoms: C_6  and  C_9 
ROOT
HETATM    1  K   UNL     2     -11.267   1.618   2.493  1.00  0.00     0.000 K 
ENDROOT
TORSDOF 3
BEGIN_RES ARG D 557
REMARK  4 active torsions:
REMARK  status: ('A' for Active; 'I' for Inactive)
REMARK    1  A    between atoms: CA   and  CB  
REMARK    2  A    between atoms: CB   and  CG  
REMARK    3  A    between atoms: CG   and  CD  
REMARK    4  A    between atoms: CD   and  NE  
REMARK       I    between atoms: NE   and  CZ  
REMARK       I    between atoms: CZ   and  NH1 
REMARK       I    between atoms: CZ   and  NH2 
ROOT
ATOM      1  CA  ARG D 557     -26.217   2.705 -17.014  1.00 35.49     0.159 C 
ENDROOT
BRANCH   1   2
ATOM      2  CB  ARG D 557     -26.789   1.319 -17.183  1.00 35.49     0.034 C 
BRANCH   2   3
ATOM      3  CG  ARG D 557     -25.836   0.203 -17.155  1.00 35.49     0.027 C 
BRANCH   3   4
ATOM      4  CD  ARG D 557     -24.761   0.403 -16.156  1.00 35.49     0.116 C 
BRANCH   4   5
ATOM      5  NE  ARG D 557     -24.923  -0.449 -15.008  1.00 35.49    -0.212 N 
ATOM      6  CZ  ARG D 557     -24.118  -1.426 -14.656  1.00 35.49     0.666 C 
ATOM      7  NH1 ARG D 557     -23.045  -1.746 -15.356  1.00 35.49    -0.235 N 
ATOM      8  NH2 ARG D 557     -24.408  -2.082 -13.571  1.00 35.49    -0.235 N 
ATOM      9  HH  ARG D 557     -22.833  -1.327 -16.072  1.00 35.49     0.174 HD
ATOM     10  HH  ARG D 557     -22.555  -2.391 -15.076  1.00 35.49     0.174 HD
ATOM     11  HH  ARG D 557     -25.103  -1.848 -13.135  1.00 35.49     0.174 HD
ATOM     12  HH  ARG D 557     -23.909  -2.717 -13.310  1.00 35.49     0.174 HD
ATOM     13  HE  ARG D 557     -25.628  -0.360 -14.541  1.00 35.49     0.178 HD
ENDBRANCH   4   5
ENDBRANCH   3   4
ENDBRANCH   2   3
ENDBRANCH   1   2
END_RES ARG D 557
BEGIN_RES GLU D 570
REMARK  3 active torsions:
REMARK  status: ('A' for Active; 'I' for Inactive)
REMARK    5  A    between atoms: CA   and  CB  
REMARK    6  A    between atoms: CB   and  CG  
REMARK    7  A    between atoms: CG   and  CD  
ROOT
ATOM     14  CA  GLU D 570     -18.033  -6.348 -13.375  1.00 32.92     0.160 C 
ENDROOT
BRANCH  14  15
ATOM     15  CB  GLU D 570     -19.500  -6.345 -13.794  1.00 32.92     0.043 C 
BRANCH  15  16
ATOM     16  CG  GLU D 570     -20.440  -5.520 -12.991  1.00 32.92     0.100 C 
BRANCH  16  17
ATOM     17  CD  GLU D 570     -21.729  -5.219 -13.719  1.00 32.92     0.185 C 
ATOM     18  OE1 GLU D 570     -22.152  -6.032 -14.562  1.00 32.92    -0.647 OA
ATOM     19  OE2 GLU D 570     -22.313  -4.149 -13.455  1.00 32.92    -0.647 OA
ENDBRANCH  16  17
ENDBRANCH  15  16
ENDBRANCH  14  15
END_RES GLU D 570
ENDMDL
MODEL 2
REMARK VINA RESULT:      -1.2      6.367      6.435
REMARK  3 active torsions:
REMARK  status: ('A' for Active; 'I' for Inactive)
REMARK    1  A    between atoms: O_2  and  C_3 
REMARK    2  A    between atoms: C_5  and  O_12 
REMARK    3  A    between atoms: C_6  and  C_9 
ROOT
HETATM    1  K   UNL     2     -27.324  -5.626  -9.151  1.00  0.00     0.000 K 
ENDROOT
TORSDOF 3
BEGIN_RES ARG D 557
REMARK  4 active torsions:
REMARK  status: ('A' for Active; 'I' for Inactive)
REMARK    1  A    between atoms: CA   and  CB  
REMARK    2  A    between atoms: CB   and  CG  
REMARK    3  A    between atoms: CG   and  CD  
REMARK    4  A    between atoms: CD   and  NE  
REMARK       I    between atoms: NE   and  CZ  
REMARK       I    between atoms: CZ   and  NH1 
REMARK       I    between atoms: CZ   and  NH2 
ROOT
ATOM      1  CA  ARG D 557     -26.217   2.705 -17.014  1.00 35.49     0.159 C 
ENDROOT
BRANCH   1   2
ATOM      2  CB  ARG D 557     -26.789   1.319 -17.183  1.00 35.49     0.034 C 
BRANCH   2   3
ATOM      3  CG  ARG D 557     -25.836   0.203 -17.150  1.00 35.49     0.027 C 
BRANCH   3   4
ATOM      4  CD  ARG D 557     -24.753   0.415 -16.163  1.00 35.49     0.116 C 
BRANCH   4   5
ATOM      5  NE  ARG D 557     -24.894  -0.437 -15.011  1.00 35.49    -0.212 N 
ATOM      6  CZ  ARG D 557     -24.078  -1.409 -14.670  1.00 35.49     0.666 C 
ATOM      7  NH1 ARG D 557     -23.013  -1.724 -15.383  1.00 35.49    -0.235 N 
ATOM      8  NH2 ARG D 557     -24.349  -2.066 -13.579  1.00 35.49    -0.235 N 
ATOM      9  HH  ARG D 557     -22.814  -1.304 -16.103  1.00 35.49     0.174 HD
ATOM     10  HH  ARG D 557     -22.516  -2.366 -15.110  1.00 35.49     0.174 HD
ATOM     11  HH  ARG D 557     -25.040  -1.835 -13.135  1.00 35.49     0.174 HD
ATOM     12  HH  ARG D 557     -23.844  -2.697 -13.325  1.00 35.49     0.174 HD
ATOM     13  HE  ARG D 557     -25.593  -0.351 -14.534  1.00 35.49     0.178 HD
ENDBRANCH   4   5
ENDBRANCH   3   4
ENDBRANCH   2   3
ENDBRANCH   1   2
END_RES ARG D 557
BEGIN_RES GLU D 570
REMARK  3 active torsions:
REMARK  status: ('A' for Active; 'I' for Inactive)
REMARK    5  A    between atoms: CA   and  CB  
REMARK    6  A    between atoms: CB   and  CG  
REMARK    7  A    between atoms: CG   and  CD  
ROOT
ATOM     14  CA  GLU D 570     -18.033  -6.348 -13.375  1.00 32.92     0.160 C 
ENDROOT
BRANCH  14  15
ATOM     15  CB  GLU D 570     -19.500  -6.345 -13.794  1.00 32.92     0.043 C 
BRANCH  15  16
ATOM     16  CG  GLU D 570     -20.444  -5.542 -12.975  1.00 32.92     0.100 C 
BRANCH  16  17
ATOM     17  CD  GLU D 570     -21.742  -5.246 -13.691  1.00 32.92     0.185 C 
ATOM     18  OE1 GLU D 570     -22.286  -4.138 -13.525  1.00 32.92    -0.647 OA
ATOM     19  OE2 GLU D 570     -22.227  -6.140 -14.413  1.00 32.92    -0.647 OA
ENDBRANCH  16  17
ENDBRANCH  15  16
ENDBRANCH  14  15
END_RES GLU D 570
ENDMDL
MODEL 3
REMARK VINA RESULT:      -1.2      6.117      6.187
REMARK  3 active torsions:
REMARK  status: ('A' for Active; 'I' for Inactive)
REMARK    1  A    between atoms: O_2  and  C_3 
REMARK    2  A    between atoms: C_5  and  O_12 
REMARK    3  A    between atoms: C_6  and  C_9 
ROOT
HETATM    1  K   UNL     2      -9.089   5.897 -17.216  1.00  0.00     0.000 K 
ENDROOT
TORSDOF 3
BEGIN_RES ARG D 557
REMARK  4 active torsions:
REMARK  status: ('A' for Active; 'I' for Inactive)
REMARK    1  A    between atoms: CA   and  CB  
REMARK    2  A    between atoms: CB   and  CG  
REMARK    3  A    between atoms: CG   and  CD  
REMARK    4  A    between atoms: CD   and  NE  
REMARK       I    between atoms: NE   and  CZ  
REMARK       I    between atoms: CZ   and  NH1 
REMARK       I    between atoms: CZ   and  NH2 
ROOT
ATOM      1  CA  ARG D 557     -26.217   2.705 -17.014  1.00 35.49     0.159 C 
ENDROOT
BRANCH   1   2
ATOM      2  CB  ARG D 557     -26.789   1.319 -17.183  1.00 35.49     0.034 C 
BRANCH   2   3
ATOM      3  CG  ARG D 557     -25.835   0.203 -17.160  1.00 35.49     0.027 C 
BRANCH   3   4
ATOM      4  CD  ARG D 557     -24.748   0.411 -16.176  1.00 35.49     0.116 C 
BRANCH   4   5
ATOM      5  NE  ARG D 557     -24.894  -0.433 -15.020  1.00 35.49    -0.212 N 
ATOM      6  CZ  ARG D 557     -24.080  -1.404 -14.669  1.00 35.49     0.666 C 
ATOM      7  NH1 ARG D 557     -23.013  -1.725 -15.377  1.00 35.49    -0.235 N 
ATOM      8  NH2 ARG D 557     -24.356  -2.053 -13.576  1.00 35.49    -0.235 N 
ATOM      9  HH  ARG D 557     -22.811  -1.309 -16.099  1.00 35.49     0.174 HD
ATOM     10  HH  ARG D 557     -22.517  -2.365 -15.099  1.00 35.49     0.174 HD
ATOM     11  HH  ARG D 557     -25.047  -1.819 -13.135  1.00 35.49     0.174 HD
ATOM     12  HH  ARG D 557     -23.852  -2.683 -13.316  1.00 35.49     0.174 HD
ATOM     13  HE  ARG D 557     -25.594  -0.343 -14.546  1.00 35.49     0.178 HD
ENDBRANCH   4   5
ENDBRANCH   3   4
ENDBRANCH   2   3
ENDBRANCH   1   2
END_RES ARG D 557
BEGIN_RES GLU D 570
REMARK  3 active torsions:
REMARK  status: ('A' for Active; 'I' for Inactive)
REMARK    5  A    between atoms: CA   and  CB  
REMARK    6  A    between atoms: CB   and  CG  
REMARK    7  A    between atoms: CG   and  CD  
ROOT
ATOM     14  CA  GLU D 570     -18.033  -6.348 -13.375  1.00 32.92     0.160 C 
ENDROOT
BRANCH  14  15
ATOM     15  CB  GLU D 570     -19.500  -6.345 -13.794  1.00 32.92     0.043 C 
BRANCH  15  16
ATOM     16  CG  GLU D 570     -20.442  -5.530 -12.984  1.00 32.92     0.100 C 
BRANCH  16  17
ATOM     17  CD  GLU D 570     -21.742  -5.247 -13.699  1.00 32.92     0.185 C 
ATOM     18  OE1 GLU D 570     -22.313  -4.156 -13.508  1.00 32.92    -0.647 OA
ATOM     19  OE2 GLU D 570     -22.203  -6.132 -14.446  1.00 32.92    -0.647 OA
ENDBRANCH  16  17
ENDBRANCH  15  16
ENDBRANCH  14  15
END_RES GLU D 570
ENDMDL
MODEL 4
REMARK VINA RESULT:      -1.0      3.426      3.426
REMARK  3 active torsions:
REMARK  status: ('A' for Active; 'I' for Inactive)
REMARK    1  A    between atoms: O_2  and  C_3 
REMARK    2  A    between atoms: C_5  and  O_12 
REMARK    3  A    between atoms: C_6  and  C_9 
ROOT
HETATM    1  K   UNL     2     -14.442   3.517  -8.248  1.00  0.00     0.000 K 
ENDROOT
TORSDOF 3
BEGIN_RES ARG D 557
REMARK  4 active torsions:
REMARK  status: ('A' for Active; 'I' for Inactive)
REMARK    1  A    between atoms: CA   and  CB  
REMARK    2  A    between atoms: CB   and  CG  
REMARK    3  A    between atoms: CG   and  CD  
REMARK    4  A    between atoms: CD   and  NE  
REMARK       I    between atoms: NE   and  CZ  
REMARK       I    between atoms: CZ   and  NH1 
REMARK       I    between atoms: CZ   and  NH2 
ROOT
ATOM      1  CA  ARG D 557     -26.217   2.705 -17.014  1.00 35.49     0.159 C 
ENDROOT
BRANCH   1   2
ATOM      2  CB  ARG D 557     -26.789   1.319 -17.183  1.00 35.49     0.034 C 
BRANCH   2   3
ATOM      3  CG  ARG D 557     -25.836   0.203 -17.157  1.00 35.49     0.027 C 
BRANCH   3   4
ATOM      4  CD  ARG D 557     -24.749   0.412 -16.174  1.00 35.49     0.116 C 
BRANCH   4   5
ATOM      5  NE  ARG D 557     -24.892  -0.433 -15.018  1.00 35.49    -0.212 N 
ATOM      6  CZ  ARG D 557     -24.078  -1.405 -14.671  1.00 35.49     0.666 C 
ATOM      7  NH1 ARG D 557     -23.013  -1.725 -15.382  1.00 35.49    -0.235 N 
ATOM      8  NH2 ARG D 557     -24.352  -2.056 -13.578  1.00 35.49    -0.235 N 
ATOM      9  HH  ARG D 557     -22.812  -1.309 -16.103  1.00 35.49     0.174 HD
ATOM     10  HH  ARG D 557     -22.516  -2.366 -15.105  1.00 35.49     0.174 HD
ATOM     11  HH  ARG D 557     -25.043  -1.822 -13.135  1.00 35.49     0.174 HD
ATOM     12  HH  ARG D 557     -23.848  -2.687 -13.320  1.00 35.49     0.174 HD
ATOM     13  HE  ARG D 557     -25.592  -0.344 -14.543  1.00 35.49     0.178 HD
ENDBRANCH   4   5
ENDBRANCH   3   4
ENDBRANCH   2   3
ENDBRANCH   1   2
END_RES ARG D 557
BEGIN_RES GLU D 570
REMARK  3 active torsions:
REMARK  status: ('A' for Active; 'I' for Inactive)
REMARK    5  A    between atoms: CA   and  CB  
REMARK    6  A    between atoms: CB   and  CG  
REMARK    7  A    between atoms: CG   and  CD  
ROOT
ATOM     14  CA  GLU D 570     -18.033  -6.348 -13.375  1.00 32.92     0.160 C 
ENDROOT
BRANCH  14  15
ATOM     15  CB  GLU D 570     -19.500  -6.345 -13.794  1.00 32.92     0.043 C 
BRANCH  15  16
ATOM     16  CG  GLU D 570     -20.443  -5.535 -12.980  1.00 32.92     0.100 C 
BRANCH  16  17
ATOM     17  CD  GLU D 570     -21.745  -5.253 -13.693  1.00 32.92     0.185 C 
ATOM     18  OE1 GLU D 570     -22.233  -6.129 -14.431  1.00 32.92    -0.647 OA
ATOM     19  OE2 GLU D 570     -22.273  -4.136 -13.524  1.00 32.92    -0.647 OA
ENDBRANCH  16  17
ENDBRANCH  15  16
ENDBRANCH  14  15
END_RES GLU D 570
ENDMDL
MODEL 5
REMARK VINA RESULT:      -1.0      8.418      8.470
REMARK  3 active torsions:
REMARK  status: ('A' for Active; 'I' for Inactive)
REMARK    1  A    between atoms: O_2  and  C_3 
REMARK    2  A    between atoms: C_5  and  O_12 
REMARK    3  A    between atoms: C_6  and  C_9 
ROOT
HETATM    1  K   UNL     2     -32.964  -9.663 -10.978  1.00  0.00     0.000 K 
ENDROOT
TORSDOF 3
BEGIN_RES ARG D 557
REMARK  4 active torsions:
REMARK  status: ('A' for Active; 'I' for Inactive)
REMARK    1  A    between atoms: CA   and  CB  
REMARK    2  A    between atoms: CB   and  CG  
REMARK    3  A    between atoms: CG   and  CD  
REMARK    4  A    between atoms: CD   and  NE  
REMARK       I    between atoms: NE   and  CZ  
REMARK       I    between atoms: CZ   and  NH1 
REMARK       I    between atoms: CZ   and  NH2 
ROOT
ATOM      1  CA  ARG D 557     -26.217   2.705 -17.014  1.00 35.49     0.159 C 
ENDROOT
BRANCH   1   2
ATOM      2  CB  ARG D 557     -26.789   1.319 -17.183  1.00 35.49     0.034 C 
BRANCH   2   3
ATOM      3  CG  ARG D 557     -25.834   0.204 -17.168  1.00 35.49     0.027 C 
BRANCH   3   4
ATOM      4  CD  ARG D 557     -24.751   0.402 -16.178  1.00 35.49     0.116 C 
BRANCH   4   5
ATOM      5  NE  ARG D 557     -24.907  -0.448 -15.026  1.00 35.49    -0.212 N 
ATOM      6  CZ  ARG D 557     -24.093  -1.416 -14.670  1.00 35.49     0.666 C 
ATOM      7  NH1 ARG D 557     -23.016  -1.729 -15.367  1.00 35.49    -0.235 N 
ATOM      8  NH2 ARG D 557     -24.379  -2.072 -13.583  1.00 35.49    -0.235 N 
ATOM      9  HH  ARG D 557     -22.807  -1.310 -16.084  1.00 35.49     0.174 HD
ATOM     10  HH  ARG D 557     -22.520  -2.368 -15.084  1.00 35.49     0.174 HD
ATOM     11  HH  ARG D 557     -25.077  -1.843 -13.150  1.00 35.49     0.174 HD
ATOM     12  HH  ARG D 557     -23.875  -2.700 -13.319  1.00 35.49     0.174 HD
ATOM     13  HE  ARG D 557     -25.614  -0.364 -14.561  1.00 35.49     0.178 HD
ENDBRANCH   4   5
ENDBRANCH   3   4
ENDBRANCH   2   3
ENDBRANCH   1   2
END_RES ARG D 557
BEGIN_RES GLU D 570
REMARK  3 active torsions:
REMARK  status: ('A' for Active; 'I' for Inactive)
REMARK    5  A    between atoms: CA   and  CB  
REMARK    6  A    between atoms: CB   and  CG  
REMARK    7  A    between atoms: CG   and  CD  
ROOT
ATOM     14  CA  GLU D 570     -18.033  -6.348 -13.375  1.00 32.92     0.160 C 
ENDROOT
BRANCH  14  15
ATOM     15  CB  GLU D 570     -19.500  -6.345 -13.794  1.00 32.92     0.043 C 
BRANCH  15  16
ATOM     16  CG  GLU D 570     -20.441  -5.525 -12.988  1.00 32.92     0.100 C 
BRANCH  16  17
ATOM     17  CD  GLU D 570     -21.744  -5.251 -13.701  1.00 32.92     0.185 C 
ATOM     18  OE1 GLU D 570     -22.317  -4.160 -13.516  1.00 32.92    -0.647 OA
ATOM     19  OE2 GLU D 570     -22.206  -6.143 -14.439  1.00 32.92    -0.647 OA
ENDBRANCH  16  17
ENDBRANCH  15  16
ENDBRANCH  14  15
END_RES GLU D 570
ENDMDL
MODEL 6
REMARK VINA RESULT:      -1.0      0.618      1.119
REMARK  3 active torsions:
REMARK  status: ('A' for Active; 'I' for Inactive)
REMARK    1  A    between atoms: O_2  and  C_3 
REMARK    2  A    between atoms: C_5  and  O_12 
REMARK    3  A    between atoms: C_6  and  C_9 
ROOT
HETATM    1  K   UNL     2     -11.813   0.807   0.697  1.00  0.00     0.000 K 
ENDROOT
TORSDOF 3
BEGIN_RES ARG D 557
REMARK  4 active torsions:
REMARK  status: ('A' for Active; 'I' for Inactive)
REMARK    1  A    between atoms: CA   and  CB  
REMARK    2  A    between atoms: CB   and  CG  
REMARK    3  A    between atoms: CG   and  CD  
REMARK    4  A    between atoms: CD   and  NE  
REMARK       I    between atoms: NE   and  CZ  
REMARK       I    between atoms: CZ   and  NH1 
REMARK       I    between atoms: CZ   and  NH2 
ROOT
ATOM      1  CA  ARG D 557     -26.217   2.705 -17.014  1.00 35.49     0.159 C 
ENDROOT
BRANCH   1   2
ATOM      2  CB  ARG D 557     -26.789   1.319 -17.183  1.00 35.49     0.034 C 
BRANCH   2   3
ATOM      3  CG  ARG D 557     -25.835   0.204 -17.163  1.00 35.49     0.027 C 
BRANCH   3   4
ATOM      4  CD  ARG D 557     -24.760   0.398 -16.163  1.00 35.49     0.116 C 
BRANCH   4   5
ATOM      5  NE  ARG D 557     -24.927  -0.454 -15.015  1.00 35.49    -0.212 N 
ATOM      6  CZ  ARG D 557     -24.118  -1.425 -14.655  1.00 35.49     0.666 C 
ATOM      7  NH1 ARG D 557     -23.036  -1.738 -15.343  1.00 35.49    -0.235 N 
ATOM      8  NH2 ARG D 557     -24.414  -2.082 -13.571  1.00 35.49    -0.235 N 
ATOM      9  HH  ARG D 557     -22.821  -1.318 -16.058  1.00 35.49     0.174 HD
ATOM     10  HH  ARG D 557     -22.544  -2.379 -15.058  1.00 35.49     0.174 HD
ATOM     11  HH  ARG D 557     -25.115  -1.852 -13.143  1.00 35.49     0.174 HD
ATOM     12  HH  ARG D 557     -23.913  -2.712 -13.305  1.00 35.49     0.174 HD
ATOM     13  HE  ARG D 557     -25.637  -0.369 -14.555  1.00 35.49     0.178 HD
ENDBRANCH   4   5
ENDBRANCH   3   4
ENDBRANCH   2   3
ENDBRANCH   1   2
END_RES ARG D 557
BEGIN_RES GLU D 570
REMARK  3 active torsions:
REMARK  status: ('A' for Active; 'I' for Inactive)
REMARK    5  A    between atoms: CA   and  CB  
REMARK    6  A    between atoms: CB   and  CG  
REMARK    7  A    between atoms: CG   and  CD  
ROOT
ATOM     14  CA  GLU D 570     -18.033  -6.348 -13.375  1.00 32.92     0.160 C 
ENDROOT
BRANCH  14  15
ATOM     15  CB  GLU D 570     -19.500  -6.345 -13.794  1.00 32.92     0.043 C 
BRANCH  15  16
ATOM     16  CG  GLU D 570     -20.439  -5.516 -12.994  1.00 32.92     0.100 C 
BRANCH  16  17
ATOM     17  CD  GLU D 570     -21.737  -5.235 -13.714  1.00 32.92     0.185 C 
ATOM     18  OE1 GLU D 570     -22.322  -4.154 -13.508  1.00 32.92    -0.647 OA
ATOM     19  OE2 GLU D 570     -22.183  -6.113 -14.480  1.00 32.92    -0.647 OA
ENDBRANCH  16  17
ENDBRANCH  15  16
ENDBRANCH  14  15
END_RES GLU D 570
ENDMDL
MODEL 7
REMARK VINA RESULT:      -0.9      5.004      5.090
REMARK  3 active torsions:
REMARK  status: ('A' for Active; 'I' for Inactive)
REMARK    1  A    between atoms: O_2  and  C_3 
REMARK    2  A    between atoms: C_5  and  O_12 
REMARK    3  A    between atoms: C_6  and  C_9 
ROOT
HETATM    1  K   UNL     2     -10.169  -7.658 -11.223  1.00  0.00     0.000 K 
ENDROOT
TORSDOF 3
BEGIN_RES ARG D 557
REMARK  4 active torsions:
REMARK  status: ('A' for Active; 'I' for Inactive)
REMARK    1  A    between atoms: CA   and  CB  
REMARK    2  A    between atoms: CB   and  CG  
REMARK    3  A    between atoms: CG   and  CD  
REMARK    4  A    between atoms: CD   and  NE  
REMARK       I    between atoms: NE   and  CZ  
REMARK       I    between atoms: CZ   and  NH1 
REMARK       I    between atoms: CZ   and  NH2 
ROOT
ATOM      1  CA  ARG D 557     -26.217   2.705 -17.014  1.00 35.49     0.159 C 
ENDROOT
BRANCH   1   2
ATOM      2  CB  ARG D 557     -26.789   1.319 -17.183  1.00 35.49     0.034 C 
BRANCH   2   3
ATOM      3  CG  ARG D 557     -25.835   0.203 -17.159  1.00 35.49     0.027 C 
BRANCH   3   4
ATOM      4  CD  ARG D 557     -24.751   0.409 -16.172  1.00 35.49     0.116 C 
BRANCH   4   5
ATOM      5  NE  ARG D 557     -24.902  -0.437 -15.017  1.00 35.49    -0.212 N 
ATOM      6  CZ  ARG D 557     -24.092  -1.411 -14.668  1.00 35.49     0.666 C 
ATOM      7  NH1 ARG D 557     -23.026  -1.736 -15.376  1.00 35.49    -0.235 N 
ATOM      8  NH2 ARG D 557     -24.372  -2.061 -13.576  1.00 35.49    -0.235 N 
ATOM      9  HH  ARG D 557     -22.822  -1.320 -16.097  1.00 35.49     0.174 HD
ATOM     10  HH  ARG D 557     -22.533  -2.379 -15.098  1.00 35.49     0.174 HD
ATOM     11  HH  ARG D 557     -25.063  -1.825 -13.135  1.00 35.49     0.174 HD
ATOM     12  HH  ARG D 557     -23.871  -2.694 -13.316  1.00 35.49     0.174 HD
ATOM     13  HE  ARG D 557     -25.602  -0.345 -14.544  1.00 35.49     0.178 HD
ENDBRANCH   4   5
ENDBRANCH   3   4
ENDBRANCH   2   3
ENDBRANCH   1   2
END_RES ARG D 557
BEGIN_RES GLU D 570
REMARK  3 active torsions:
REMARK  status: ('A' for Active; 'I' for Inactive)
REMARK    5  A    between atoms: CA   and  CB  
REMARK    6  A    between atoms: CB   and  CG  
REMARK    7  A    between atoms: CG   and  CD  
ROOT
ATOM     14  CA  GLU D 570     -18.033  -6.348 -13.375  1.00 32.92     0.160 C 
ENDROOT
BRANCH  14  15
ATOM     15  CB  GLU D 570     -19.500  -6.345 -13.794  1.00 32.92     0.043 C 
BRANCH  15  16
ATOM     16  CG  GLU D 570     -20.441  -5.529 -12.985  1.00 32.92     0.100 C 
BRANCH  16  17
ATOM     17  CD  GLU D 570     -21.738  -5.239 -13.703  1.00 32.92     0.185 C 
ATOM     18  OE1 GLU D 570     -22.310  -4.150 -13.506  1.00 32.92    -0.647 OA
ATOM     19  OE2 GLU D 570     -22.197  -6.118 -14.459  1.00 32.92    -0.647 OA
ENDBRANCH  16  17
ENDBRANCH  15  16
ENDBRANCH  14  15
END_RES GLU D 570
ENDMDL
MODEL 8
REMARK VINA RESULT:      -0.9      5.768      5.842
REMARK  3 active torsions:
REMARK  status: ('A' for Active; 'I' for Inactive)
REMARK    1  A    between atoms: O_2  and  C_3 
REMARK    2  A    between atoms: C_5  and  O_12 
REMARK    3  A    between atoms: C_6  and  C_9 
ROOT
HETATM    1  K   UNL     2     -14.895  11.646 -13.386  1.00  0.00     0.000 K 
ENDROOT
TORSDOF 3
BEGIN_RES ARG D 557
REMARK  4 active torsions:
REMARK  status: ('A' for Active; 'I' for Inactive)
REMARK    1  A    between atoms: CA   and  CB  
REMARK    2  A    between atoms: CB   and  CG  
REMARK    3  A    between atoms: CG   and  CD  
REMARK    4  A    between atoms: CD   and  NE  
REMARK       I    between atoms: NE   and  CZ  
REMARK       I    between atoms: CZ   and  NH1 
REMARK       I    between atoms: CZ   and  NH2 
ROOT
ATOM      1  CA  ARG D 557     -26.217   2.705 -17.014  1.00 35.49     0.159 C 
ENDROOT
BRANCH   1   2
ATOM      2  CB  ARG D 557     -26.789   1.319 -17.183  1.00 35.49     0.034 C 
BRANCH   2   3
ATOM      3  CG  ARG D 557     -25.835   0.204 -17.166  1.00 35.49     0.027 C 
BRANCH   3   4
ATOM      4  CD  ARG D 557     -24.750   0.405 -16.178  1.00 35.49     0.116 C 
BRANCH   4   5
ATOM      5  NE  ARG D 557     -24.903  -0.441 -15.024  1.00 35.49    -0.212 N 
ATOM      6  CZ  ARG D 557     -24.090  -1.411 -14.669  1.00 35.49     0.666 C 
ATOM      7  NH1 ARG D 557     -23.017  -1.729 -15.370  1.00 35.49    -0.235 N 
ATOM      8  NH2 ARG D 557     -24.373  -2.062 -13.579  1.00 35.49    -0.235 N 
ATOM      9  HH  ARG D 557     -22.811  -1.312 -16.089  1.00 35.49     0.174 HD
ATOM     10  HH  ARG D 557     -22.522  -2.369 -15.088  1.00 35.49     0.174 HD
ATOM     11  HH  ARG D 557     -25.068  -1.830 -13.143  1.00 35.49     0.174 HD
ATOM     12  HH  ARG D 557     -23.870  -2.692 -13.316  1.00 35.49     0.174 HD
ATOM     13  HE  ARG D 557     -25.607  -0.353 -14.555  1.00 35.49     0.178 HD
ENDBRANCH   4   5
ENDBRANCH   3   4
ENDBRANCH   2   3
ENDBRANCH   1   2
END_RES ARG D 557
BEGIN_RES GLU D 570
REMARK  3 active torsions:
REMARK  status: ('A' for Active; 'I' for Inactive)
REMARK    5  A    between atoms: CA   and  CB  
REMARK    6  A    between atoms: CB   and  CG  
REMARK    7  A    between atoms: CG   and  CD  
ROOT
ATOM     14  CA  GLU D 570     -18.033  -6.348 -13.375  1.00 32.92     0.160 C 
ENDROOT
BRANCH  14  15
ATOM     15  CB  GLU D 570     -19.500  -6.345 -13.794  1.00 32.92     0.043 C 
BRANCH  15  16
ATOM     16  CG  GLU D 570     -20.441  -5.527 -12.986  1.00 32.92     0.100 C 
BRANCH  16  17
ATOM     17  CD  GLU D 570     -21.744  -5.250 -13.700  1.00 32.92     0.185 C 
ATOM     18  OE1 GLU D 570     -22.313  -4.157 -13.518  1.00 32.92    -0.647 OA
ATOM     19  OE2 GLU D 570     -22.208  -6.143 -14.436  1.00 32.92    -0.647 OA
ENDBRANCH  16  17
ENDBRANCH  15  16
ENDBRANCH  14  15
END_RES GLU D 570
ENDMDL
MODEL 9
REMARK VINA RESULT:      -0.9      9.920      9.964
REMARK  3 active torsions:
REMARK  status: ('A' for Active; 'I' for Inactive)
REMARK    1  A    between atoms: O_2  and  C_3 
REMARK    2  A    between atoms: C_5  and  O_12 
REMARK    3  A    between atoms: C_6  and  C_9 
ROOT
HETATM    1  K   UNL     2     -36.967   4.602 -17.831  1.00  0.00     0.000 K 
ENDROOT
TORSDOF 3
BEGIN_RES ARG D 557
REMARK  4 active torsions:
REMARK  status: ('A' for Active; 'I' for Inactive)
REMARK    1  A    between atoms: CA   and  CB  
REMARK    2  A    between atoms: CB   and  CG  
REMARK    3  A    between atoms: CG   and  CD  
REMARK    4  A    between atoms: CD   and  NE  
REMARK       I    between atoms: NE   and  CZ  
REMARK       I    between atoms: CZ   and  NH1 
REMARK       I    between atoms: CZ   and  NH2 
ROOT
ATOM      1  CA  ARG D 557     -26.217   2.705 -17.014  1.00 35.49     0.159 C 
ENDROOT
BRANCH   1   2
ATOM      2  CB  ARG D 557     -26.789   1.319 -17.183  1.00 35.49     0.034 C 
BRANCH   2   3
ATOM      3  CG  ARG D 557     -25.836   0.203 -17.157  1.00 35.49     0.027 C 
BRANCH   3   4
ATOM      4  CD  ARG D 557     -24.747   0.413 -16.175  1.00 35.49     0.116 C 
BRANCH   4   5
ATOM      5  NE  ARG D 557     -24.890  -0.431 -15.019  1.00 35.49    -0.212 N 
ATOM      6  CZ  ARG D 557     -24.076  -1.402 -14.671  1.00 35.49     0.666 C 
ATOM      7  NH1 ARG D 557     -23.012  -1.725 -15.383  1.00 35.49    -0.235 N 
ATOM      8  NH2 ARG D 557     -24.349  -2.052 -13.577  1.00 35.49    -0.235 N 
ATOM      9  HH  ARG D 557     -22.812  -1.309 -16.106  1.00 35.49     0.174 HD
ATOM     10  HH  ARG D 557     -22.516  -2.366 -15.106  1.00 35.49     0.174 HD
ATOM     11  HH  ARG D 557     -25.039  -1.817 -13.133  1.00 35.49     0.174 HD
ATOM     12  HH  ARG D 557     -23.845  -2.682 -13.318  1.00 35.49     0.174 HD
ATOM     13  HE  ARG D 557     -25.589  -0.340 -14.542  1.00 35.49     0.178 HD
ENDBRANCH   4   5
ENDBRANCH   3   4
ENDBRANCH   2   3
ENDBRANCH   1   2
END_RES ARG D 557
BEGIN_RES GLU D 570
REMARK  3 active torsions:
REMARK  status: ('A' for Active; 'I' for Inactive)
REMARK    5  A    between atoms: CA   and  CB  
REMARK    6  A    between atoms: CB   and  CG  
REMARK    7  A    between atoms: CG   and  CD  
ROOT
ATOM     14  CA  GLU D 570     -18.033  -6.348 -13.375  1.00 32.92     0.160 C 
ENDROOT
BRANCH  14  15
ATOM     15  CB  GLU D 570     -19.500  -6.345 -13.794  1.00 32.92     0.043 C 
BRANCH  15  16
ATOM     16  CG  GLU D 570     -20.446  -5.548 -12.970  1.00 32.92     0.100 C 
BRANCH  16  17
ATOM     17  CD  GLU D 570     -21.738  -5.239 -13.690  1.00 32.92     0.185 C 
ATOM     18  OE1 GLU D 570     -22.267  -4.123 -13.529  1.00 32.92    -0.647 OA
ATOM     19  OE2 GLU D 570     -22.234  -6.129 -14.408  1.00 32.92    -0.647 OA
ENDBRANCH  16  17
ENDBRANCH  15  16
ENDBRANCH  14  15
END_RES GLU D 570
ENDMDL
