MODEL 1
REMARK VINA RESULT:      -7.0      0.000      0.000
REMARK  21 active torsions:
REMARK  status: ('A' for Active; 'I' for Inactive)
REMARK    1  A    between atoms: C_2  and  C_3 
REMARK    2  A    between atoms: C_3  and  C_4 
REMARK    3  A    between atoms: C_4  and  C_5 
REMARK    4  A    between atoms: C_5  and  C_6 
REMARK    5  A    between atoms: C_6  and  C_7 
REMARK    6  A    between atoms: C_7  and  C_8 
REMARK    7  A    between atoms: C_8  and  C_9 
REMARK    8  A    between atoms: C_9  and  C_10 
REMARK    9  A    between atoms: C_10  and  C_11 
REMARK   10  A    between atoms: C_11  and  C_12 
REMARK   11  A    between atoms: C_12  and  C_13 
REMARK   12  A    between atoms: C_13  and  C_14 
REMARK   13  A    between atoms: C_14  and  C_15 
REMARK   14  A    between atoms: C_15  and  C_16 
REMARK   15  A    between atoms: C_16  and  O_17 
REMARK   16  A    between atoms: O_17  and  C_18 
REMARK   17  A    between atoms: C_18  and  C_20 
REMARK   18  A    between atoms: C_20  and  C_21 
REMARK   19  A    between atoms: C_20  and  C_23 
REMARK   20  A    between atoms: C_23  and  C_24 
REMARK   21  A    between atoms: C_24  and  C_25 
ROOT
HETATM    1  C   UNL     1     -22.240  -6.547  -4.945  1.00  0.00     0.000 C 
ENDROOT
BRANCH   1   2
HETATM    2  C   UNL     1     -21.238  -7.598  -4.486  1.00  0.00     0.000 C 
BRANCH   2   3
HETATM    3  C   UNL     1     -21.031  -7.511  -2.990  1.00  0.00     0.000 C 
BRANCH   3   4
HETATM    4  C   UNL     1     -21.742  -6.288  -2.440  1.00  0.00     0.000 C 
BRANCH   4   5
HETATM    5  C   UNL     1     -22.307  -6.595  -1.066  1.00  0.00     0.000 C 
BRANCH   5   6
HETATM    6  C   UNL     1     -21.575  -7.781  -0.461  1.00  0.00     0.000 C 
BRANCH   6   7
HETATM    7  C   UNL     1     -22.298  -8.248   0.788  1.00  0.00     0.000 C 
BRANCH   7   8
HETATM    8  C   UNL     1     -23.545  -9.021   0.404  1.00  0.00     0.000 C 
BRANCH   8   9
HETATM    9  C   UNL     1     -23.171 -10.201  -0.473  1.00  0.00     0.000 C 
BRANCH   9  10
HETATM   10  C   UNL     1     -24.223 -11.289  -0.352  1.00  0.00     0.000 C 
BRANCH  10  11
HETATM   11  C   UNL     1     -23.557 -12.654  -0.322  1.00  0.00    -0.000 C 
BRANCH  11  12
HETATM   12  C   UNL     1     -22.679 -12.788   0.912  1.00  0.00    -0.005 C 
HETATM   13  C   UNL     1     -23.343 -13.691   1.930  1.00  0.00     0.005 C 
ENDBRANCH  11  12
ENDBRANCH  10  11
ENDBRANCH   9  10
ENDBRANCH   8   9
ENDBRANCH   7   8
ENDBRANCH   6   7
ENDBRANCH   5   6
ENDBRANCH   4   5
ENDBRANCH   3   4
ENDBRANCH   2   3
ENDBRANCH   1   2
BRANCH   1  14
HETATM   14  C   UNL     1     -21.768  -5.881  -6.228  1.00  0.00     0.002 C 
BRANCH  14  15
HETATM   15  C   UNL     1     -20.556  -4.987  -5.970  1.00  0.00     0.027 C 
BRANCH  15  16
HETATM   16  C   UNL     1     -19.847  -4.645  -7.270  1.00  0.00     0.178 C 
BRANCH  16  17
HETATM   17  O   UNL     1     -20.556  -5.206  -8.394  1.00  0.00    -0.321 OA
BRANCH  17  18
HETATM   18  C   UNL     1     -20.749  -4.335  -9.423  1.00  0.00     0.263 C 
HETATM   19  O   UNL     1     -19.861  -3.592  -9.874  1.00  0.00    -0.265 OA
BRANCH  18  20
HETATM   20  C   UNL     1     -22.169  -4.375  -9.978  1.00  0.00     0.085 C 
BRANCH  20  21
HETATM   21  C   UNL     1     -23.200  -3.877  -8.949  1.00  0.00     0.010 C 
HETATM   22  C   UNL     1     -24.475  -3.369  -9.594  1.00  0.00     0.006 C 
ENDBRANCH  20  21
BRANCH  20  23
HETATM   23  C   UNL     1     -22.257  -3.489 -11.240  1.00  0.00     0.014 C 
BRANCH  23  24
HETATM   24  C   UNL     1     -22.193  -4.304 -12.533  1.00  0.00     0.000 C 
BRANCH  24  25
HETATM   25  C   UNL     1     -23.342  -5.301 -12.615  1.00  0.00    -0.005 C 
HETATM   26  C   UNL     1     -23.561  -5.717 -14.059  1.00  0.00     0.005 C 
ENDBRANCH  24  25
ENDBRANCH  23  24
ENDBRANCH  20  23
ENDBRANCH  18  20
ENDBRANCH  17  18
ENDBRANCH  16  17
ENDBRANCH  15  16
ENDBRANCH  14  15
ENDBRANCH   1  14
TORSDOF 21
BEGIN_RES ARG D 557
REMARK  4 active torsions:
REMARK  status: ('A' for Active; 'I' for Inactive)
REMARK    1  A    between atoms: CA   and  CB  
REMARK    2  A    between atoms: CB   and  CG  
REMARK    3  A    between atoms: CG   and  CD  
REMARK    4  A    between atoms: CD   and  NE  
REMARK       I    between atoms: NE   and  CZ  
REMARK       I    between atoms: CZ   and  NH1 
REMARK       I    between atoms: CZ   and  NH2 
ROOT
ATOM      1  CA  ARG D 557     -26.217   2.705 -17.014  1.00 35.49     0.159 C 
ENDROOT
BRANCH   1   2
ATOM      2  CB  ARG D 557     -26.789   1.319 -17.183  1.00 35.49     0.034 C 
BRANCH   2   3
ATOM      3  CG  ARG D 557     -25.831   0.207 -17.202  1.00 35.49     0.027 C 
BRANCH   3   4
ATOM      4  CD  ARG D 557     -24.775   0.354 -16.175  1.00 35.49     0.116 C 
BRANCH   4   5
ATOM      5  NE  ARG D 557     -25.010  -0.486 -15.030  1.00 35.49    -0.212 N 
ATOM      6  CZ  ARG D 557     -24.241  -1.474 -14.632  1.00 35.49     0.666 C 
ATOM      7  NH1 ARG D 557     -23.140  -1.820 -15.275  1.00 35.49    -0.235 N 
ATOM      8  NH2 ARG D 557     -24.597  -2.117 -13.558  1.00 35.49    -0.235 N 
ATOM      9  HH  ARG D 557     -22.886  -1.409 -15.983  1.00 35.49     0.174 HD
ATOM     10  HH  ARG D 557     -22.677  -2.471 -14.967  1.00 35.49     0.174 HD
ATOM     11  HH  ARG D 557     -25.309  -1.867 -13.160  1.00 35.49     0.174 HD
ATOM     12  HH  ARG D 557     -24.124  -2.758 -13.268  1.00 35.49     0.174 HD
ATOM     13  HE  ARG D 557     -25.735  -0.380 -14.600  1.00 35.49     0.178 HD
ENDBRANCH   4   5
ENDBRANCH   3   4
ENDBRANCH   2   3
ENDBRANCH   1   2
END_RES ARG D 557
BEGIN_RES GLU D 570
REMARK  3 active torsions:
REMARK  status: ('A' for Active; 'I' for Inactive)
REMARK    5  A    between atoms: CA   and  CB  
REMARK    6  A    between atoms: CB   and  CG  
REMARK    7  A    between atoms: CG   and  CD  
ROOT
ATOM     14  CA  GLU D 570     -18.033  -6.348 -13.375  1.00 32.92     0.160 C 
ENDROOT
BRANCH  14  15
ATOM     15  CB  GLU D 570     -19.500  -6.345 -13.794  1.00 32.92     0.043 C 
BRANCH  15  16
ATOM     16  CG  GLU D 570     -19.797  -6.221 -15.244  1.00 32.92     0.100 C 
BRANCH  16  17
ATOM     17  CD  GLU D 570     -20.683  -7.331 -15.761  1.00 32.92     0.185 C 
ATOM     18  OE1 GLU D 570     -21.459  -7.096 -16.707  1.00 32.92    -0.647 OA
ATOM     19  OE2 GLU D 570     -20.610  -8.444 -15.204  1.00 32.92    -0.647 OA
ENDBRANCH  16  17
ENDBRANCH  15  16
ENDBRANCH  14  15
END_RES GLU D 570
ENDMDL
MODEL 2
REMARK VINA RESULT:      -7.0      1.656      2.221
REMARK  21 active torsions:
REMARK  status: ('A' for Active; 'I' for Inactive)
REMARK    1  A    between atoms: C_2  and  C_3 
REMARK    2  A    between atoms: C_3  and  C_4 
REMARK    3  A    between atoms: C_4  and  C_5 
REMARK    4  A    between atoms: C_5  and  C_6 
REMARK    5  A    between atoms: C_6  and  C_7 
REMARK    6  A    between atoms: C_7  and  C_8 
REMARK    7  A    between atoms: C_8  and  C_9 
REMARK    8  A    between atoms: C_9  and  C_10 
REMARK    9  A    between atoms: C_10  and  C_11 
REMARK   10  A    between atoms: C_11  and  C_12 
REMARK   11  A    between atoms: C_12  and  C_13 
REMARK   12  A    between atoms: C_13  and  C_14 
REMARK   13  A    between atoms: C_14  and  C_15 
REMARK   14  A    between atoms: C_15  and  C_16 
REMARK   15  A    between atoms: C_16  and  O_17 
REMARK   16  A    between atoms: O_17  and  C_18 
REMARK   17  A    between atoms: C_18  and  C_20 
REMARK   18  A    between atoms: C_20  and  C_21 
REMARK   19  A    between atoms: C_20  and  C_23 
REMARK   20  A    between atoms: C_23  and  C_24 
REMARK   21  A    between atoms: C_24  and  C_25 
ROOT
HETATM    1  C   UNL     1     -22.101  -5.574  -6.068  1.00  0.00     0.000 C 
ENDROOT
BRANCH   1   2
HETATM    2  C   UNL     1     -22.284  -6.631  -4.987  1.00  0.00     0.000 C 
BRANCH   2   3
HETATM    3  C   UNL     1     -20.940  -7.139  -4.513  1.00  0.00     0.000 C 
BRANCH   3   4
HETATM    4  C   UNL     1     -20.964  -7.336  -3.008  1.00  0.00     0.000 C 
BRANCH   4   5
HETATM    5  C   UNL     1     -21.963  -6.382  -2.381  1.00  0.00     0.000 C 
BRANCH   5   6
HETATM    6  C   UNL     1     -22.340  -6.869  -0.993  1.00  0.00     0.000 C 
BRANCH   6   7
HETATM    7  C   UNL     1     -21.363  -7.937  -0.539  1.00  0.00     0.000 C 
BRANCH   7   8
HETATM    8  C   UNL     1     -22.008  -8.806   0.525  1.00  0.00     0.000 C 
BRANCH   8   9
HETATM    9  C   UNL     1     -23.396  -9.225   0.078  1.00  0.00     0.000 C 
BRANCH   9  10
HETATM   10  C   UNL     1     -23.442 -10.729  -0.121  1.00  0.00     0.000 C 
BRANCH  10  11
HETATM   11  C   UNL     1     -23.629 -11.051  -1.595  1.00  0.00    -0.000 C 
BRANCH  11  12
HETATM   12  C   UNL     1     -22.279 -11.170  -2.286  1.00  0.00    -0.005 C 
HETATM   13  C   UNL     1     -22.378 -10.675  -3.713  1.00  0.00     0.005 C 
ENDBRANCH  11  12
ENDBRANCH  10  11
ENDBRANCH   9  10
ENDBRANCH   8   9
ENDBRANCH   7   8
ENDBRANCH   6   7
ENDBRANCH   5   6
ENDBRANCH   4   5
ENDBRANCH   3   4
ENDBRANCH   2   3
ENDBRANCH   1   2
BRANCH   1  14
HETATM   14  C   UNL     1     -20.829  -5.835  -6.861  1.00  0.00     0.002 C 
BRANCH  14  15
HETATM   15  C   UNL     1     -20.002  -4.559  -7.008  1.00  0.00     0.027 C 
BRANCH  15  16
HETATM   16  C   UNL     1     -19.887  -4.152  -8.469  1.00  0.00     0.178 C 
BRANCH  16  17
HETATM   17  O   UNL     1     -20.896  -4.816  -9.258  1.00  0.00    -0.321 OA
BRANCH  17  18
HETATM   18  C   UNL     1     -21.055  -4.301 -10.508  1.00  0.00     0.263 C 
HETATM   19  O   UNL     1     -20.109  -3.972 -11.244  1.00  0.00    -0.265 OA
BRANCH  18  20
HETATM   20  C   UNL     1     -22.517  -4.182 -10.922  1.00  0.00     0.085 C 
BRANCH  20  21
HETATM   21  C   UNL     1     -23.470  -4.569  -9.775  1.00  0.00     0.010 C 
HETATM   22  C   UNL     1     -24.452  -3.466  -9.431  1.00  0.00     0.006 C 
ENDBRANCH  20  21
BRANCH  20  23
HETATM   23  C   UNL     1     -22.818  -2.730 -11.352  1.00  0.00     0.014 C 
BRANCH  23  24
HETATM   24  C   UNL     1     -23.276  -2.633 -12.808  1.00  0.00     0.000 C 
BRANCH  24  25
HETATM   25  C   UNL     1     -23.144  -3.975 -13.519  1.00  0.00    -0.005 C 
HETATM   26  C   UNL     1     -22.368  -3.797 -14.812  1.00  0.00     0.005 C 
ENDBRANCH  24  25
ENDBRANCH  23  24
ENDBRANCH  20  23
ENDBRANCH  18  20
ENDBRANCH  17  18
ENDBRANCH  16  17
ENDBRANCH  15  16
ENDBRANCH  14  15
ENDBRANCH   1  14
TORSDOF 21
BEGIN_RES ARG D 557
REMARK  4 active torsions:
REMARK  status: ('A' for Active; 'I' for Inactive)
REMARK    1  A    between atoms: CA   and  CB  
REMARK    2  A    between atoms: CB   and  CG  
REMARK    3  A    between atoms: CG   and  CD  
REMARK    4  A    between atoms: CD   and  NE  
REMARK       I    between atoms: NE   and  CZ  
REMARK       I    between atoms: CZ   and  NH1 
REMARK       I    between atoms: CZ   and  NH2 
ROOT
ATOM      1  CA  ARG D 557     -26.217   2.705 -17.014  1.00 35.49     0.159 C 
ENDROOT
BRANCH   1   2
ATOM      2  CB  ARG D 557     -26.789   1.319 -17.183  1.00 35.49     0.034 C 
BRANCH   2   3
ATOM      3  CG  ARG D 557     -28.213   1.149 -16.871  1.00 35.49     0.027 C 
BRANCH   3   4
ATOM      4  CD  ARG D 557     -28.562  -0.259 -16.574  1.00 35.49     0.116 C 
BRANCH   4   5
ATOM      5  NE  ARG D 557     -27.513  -0.939 -15.861  1.00 35.49    -0.212 N 
ATOM      6  CZ  ARG D 557     -27.245  -2.223 -15.930  1.00 35.49     0.666 C 
ATOM      7  NH1 ARG D 557     -27.945  -3.055 -16.680  1.00 35.49    -0.235 N 
ATOM      8  NH2 ARG D 557     -26.241  -2.665 -15.230  1.00 35.49    -0.235 N 
ATOM      9  HH  ARG D 557     -28.608  -2.785 -17.151  1.00 35.49     0.174 HD
ATOM     10  HH  ARG D 557     -27.722  -3.882 -16.688  1.00 35.49     0.174 HD
ATOM     11  HH  ARG D 557     -25.802  -2.104 -14.761  1.00 35.49     0.174 HD
ATOM     12  HH  ARG D 557     -26.035  -3.488 -15.252  1.00 35.49     0.174 HD
ATOM     13  HE  ARG D 557     -27.058  -0.492 -15.298  1.00 35.49     0.178 HD
ENDBRANCH   4   5
ENDBRANCH   3   4
ENDBRANCH   2   3
ENDBRANCH   1   2
END_RES ARG D 557
BEGIN_RES GLU D 570
REMARK  3 active torsions:
REMARK  status: ('A' for Active; 'I' for Inactive)
REMARK    5  A    between atoms: CA   and  CB  
REMARK    6  A    between atoms: CB   and  CG  
REMARK    7  A    between atoms: CG   and  CD  
ROOT
ATOM     14  CA  GLU D 570     -18.033  -6.348 -13.375  1.00 32.92     0.160 C 
ENDROOT
BRANCH  14  15
ATOM     15  CB  GLU D 570     -19.500  -6.345 -13.794  1.00 32.92     0.043 C 
BRANCH  15  16
ATOM     16  CG  GLU D 570     -19.797  -6.420 -15.248  1.00 32.92     0.100 C 
BRANCH  16  17
ATOM     17  CD  GLU D 570     -20.844  -7.456 -15.583  1.00 32.92     0.185 C 
ATOM     18  OE1 GLU D 570     -22.022  -7.091 -15.760  1.00 32.92    -0.647 OA
ATOM     19  OE2 GLU D 570     -20.485  -8.648 -15.654  1.00 32.92    -0.647 OA
ENDBRANCH  16  17
ENDBRANCH  15  16
ENDBRANCH  14  15
END_RES GLU D 570
ENDMDL
MODEL 3
REMARK VINA RESULT:      -6.7      8.354     13.065
REMARK  21 active torsions:
REMARK  status: ('A' for Active; 'I' for Inactive)
REMARK    1  A    between atoms: C_2  and  C_3 
REMARK    2  A    between atoms: C_3  and  C_4 
REMARK    3  A    between atoms: C_4  and  C_5 
REMARK    4  A    between atoms: C_5  and  C_6 
REMARK    5  A    between atoms: C_6  and  C_7 
REMARK    6  A    between atoms: C_7  and  C_8 
REMARK    7  A    between atoms: C_8  and  C_9 
REMARK    8  A    between atoms: C_9  and  C_10 
REMARK    9  A    between atoms: C_10  and  C_11 
REMARK   10  A    between atoms: C_11  and  C_12 
REMARK   11  A    between atoms: C_12  and  C_13 
REMARK   12  A    between atoms: C_13  and  C_14 
REMARK   13  A    between atoms: C_14  and  C_15 
REMARK   14  A    between atoms: C_15  and  C_16 
REMARK   15  A    between atoms: C_16  and  O_17 
REMARK   16  A    between atoms: O_17  and  C_18 
REMARK   17  A    between atoms: C_18  and  C_20 
REMARK   18  A    between atoms: C_20  and  C_21 
REMARK   19  A    between atoms: C_20  and  C_23 
REMARK   20  A    between atoms: C_23  and  C_24 
REMARK   21  A    between atoms: C_24  and  C_25 
ROOT
HETATM    1  C   UNL     1     -36.061  -1.039 -15.831  1.00  0.00     0.000 C 
ENDROOT
BRANCH   1   2
HETATM    2  C   UNL     1     -35.825   0.457 -15.680  1.00  0.00     0.000 C 
BRANCH   2   3
HETATM    3  C   UNL     1     -35.497   0.797 -14.243  1.00  0.00     0.000 C 
BRANCH   3   4
HETATM    4  C   UNL     1     -35.697  -0.425 -13.364  1.00  0.00     0.000 C 
BRANCH   4   5
HETATM    5  C   UNL     1     -34.579  -0.513 -12.343  1.00  0.00     0.000 C 
BRANCH   5   6
HETATM    6  C   UNL     1     -34.824  -1.684 -11.408  1.00  0.00     0.000 C 
BRANCH   6   7
HETATM    7  C   UNL     1     -33.502  -2.200 -10.872  1.00  0.00     0.000 C 
BRANCH   7   8
HETATM    8  C   UNL     1     -33.576  -3.703 -10.678  1.00  0.00     0.000 C 
BRANCH   8   9
HETATM    9  C   UNL     1     -33.982  -4.372 -11.978  1.00  0.00     0.000 C 
BRANCH   9  10
HETATM   10  C   UNL     1     -34.554  -5.750 -11.692  1.00  0.00     0.000 C 
BRANCH  10  11
HETATM   11  C   UNL     1     -34.309  -6.122 -10.239  1.00  0.00    -0.000 C 
BRANCH  11  12
HETATM   12  C   UNL     1     -34.987  -7.443  -9.911  1.00  0.00    -0.005 C 
HETATM   13  C   UNL     1     -33.967  -8.562  -9.889  1.00  0.00     0.005 C 
ENDBRANCH  11  12
ENDBRANCH  10  11
ENDBRANCH   9  10
ENDBRANCH   8   9
ENDBRANCH   7   8
ENDBRANCH   6   7
ENDBRANCH   5   6
ENDBRANCH   4   5
ENDBRANCH   3   4
ENDBRANCH   2   3
ENDBRANCH   1   2
BRANCH   1  14
HETATM   14  C   UNL     1     -35.142  -1.622 -16.894  1.00  0.00     0.002 C 
BRANCH  14  15
HETATM   15  C   UNL     1     -34.577  -2.971 -16.453  1.00  0.00     0.027 C 
BRANCH  15  16
HETATM   16  C   UNL     1     -33.362  -3.348 -17.285  1.00  0.00     0.178 C 
BRANCH  16  17
HETATM   17  O   UNL     1     -32.404  -4.066 -16.479  1.00  0.00    -0.321 OA
BRANCH  17  18
HETATM   18  C   UNL     1     -31.187  -4.226 -17.069  1.00  0.00     0.263 C 
HETATM   19  O   UNL     1     -30.598  -3.326 -17.691  1.00  0.00    -0.265 OA
BRANCH  18  20
HETATM   20  C   UNL     1     -30.611  -5.624 -16.876  1.00  0.00     0.085 C 
BRANCH  20  21
HETATM   21  C   UNL     1     -29.958  -6.158 -18.165  1.00  0.00     0.010 C 
HETATM   22  C   UNL     1     -30.294  -7.611 -18.435  1.00  0.00     0.006 C 
ENDBRANCH  20  21
BRANCH  20  23
HETATM   23  C   UNL     1     -29.551  -5.597 -15.755  1.00  0.00     0.014 C 
BRANCH  23  24
HETATM   24  C   UNL     1     -28.124  -5.720 -16.294  1.00  0.00     0.000 C 
BRANCH  24  25
HETATM   25  C   UNL     1     -27.411  -6.928 -15.700  1.00  0.00    -0.005 C 
HETATM   26  C   UNL     1     -25.908  -6.754 -15.831  1.00  0.00     0.005 C 
ENDBRANCH  24  25
ENDBRANCH  23  24
ENDBRANCH  20  23
ENDBRANCH  18  20
ENDBRANCH  17  18
ENDBRANCH  16  17
ENDBRANCH  15  16
ENDBRANCH  14  15
ENDBRANCH   1  14
TORSDOF 21
BEGIN_RES ARG D 557
REMARK  4 active torsions:
REMARK  status: ('A' for Active; 'I' for Inactive)
REMARK    1  A    between atoms: CA   and  CB  
REMARK    2  A    between atoms: CB   and  CG  
REMARK    3  A    between atoms: CG   and  CD  
REMARK    4  A    between atoms: CD   and  NE  
REMARK       I    between atoms: NE   and  CZ  
REMARK       I    between atoms: CZ   and  NH1 
REMARK       I    between atoms: CZ   and  NH2 
ROOT
ATOM      1  CA  ARG D 557     -26.217   2.705 -17.014  1.00 35.49     0.159 C 
ENDROOT
BRANCH   1   2
ATOM      2  CB  ARG D 557     -26.789   1.319 -17.183  1.00 35.49     0.034 C 
BRANCH   2   3
ATOM      3  CG  ARG D 557     -25.863   0.195 -16.997  1.00 35.49     0.027 C 
BRANCH   3   4
ATOM      4  CD  ARG D 557     -26.280  -0.703 -15.895  1.00 35.49     0.116 C 
BRANCH   4   5
ATOM      5  NE  ARG D 557     -25.225  -0.912 -14.938  1.00 35.49    -0.212 N 
ATOM      6  CZ  ARG D 557     -24.932  -2.053 -14.356  1.00 35.49     0.666 C 
ATOM      7  NH1 ARG D 557     -25.610  -3.162 -14.587  1.00 35.49    -0.235 N 
ATOM      8  NH2 ARG D 557     -23.927  -2.064 -13.529  1.00 35.49    -0.235 N 
ATOM      9  HH  ARG D 557     -26.273  -3.178 -15.129  1.00 35.49     0.174 HD
ATOM     10  HH  ARG D 557     -25.371  -3.877 -14.180  1.00 35.49     0.174 HD
ATOM     11  HH  ARG D 557     -23.503  -1.334 -13.404  1.00 35.49     0.174 HD
ATOM     12  HH  ARG D 557     -23.706  -2.782 -13.137  1.00 35.49     0.174 HD
ATOM     13  HE  ARG D 557     -24.784  -0.234 -14.676  1.00 35.49     0.178 HD
ENDBRANCH   4   5
ENDBRANCH   3   4
ENDBRANCH   2   3
ENDBRANCH   1   2
END_RES ARG D 557
BEGIN_RES GLU D 570
REMARK  3 active torsions:
REMARK  status: ('A' for Active; 'I' for Inactive)
REMARK    5  A    between atoms: CA   and  CB  
REMARK    6  A    between atoms: CB   and  CG  
REMARK    7  A    between atoms: CG   and  CD  
ROOT
ATOM     14  CA  GLU D 570     -18.033  -6.348 -13.375  1.00 32.92     0.160 C 
ENDROOT
BRANCH  14  15
ATOM     15  CB  GLU D 570     -19.500  -6.345 -13.794  1.00 32.92     0.043 C 
BRANCH  15  16
ATOM     16  CG  GLU D 570     -20.446  -5.552 -12.968  1.00 32.92     0.100 C 
BRANCH  16  17
ATOM     17  CD  GLU D 570     -21.692  -5.148 -13.722  1.00 32.92     0.185 C 
ATOM     18  OE1 GLU D 570     -21.666  -5.132 -14.968  1.00 32.92    -0.647 OA
ATOM     19  OE2 GLU D 570     -22.698  -4.828 -13.060  1.00 32.92    -0.647 OA
ENDBRANCH  16  17
ENDBRANCH  15  16
ENDBRANCH  14  15
END_RES GLU D 570
ENDMDL
MODEL 4
REMARK VINA RESULT:      -6.7      2.331      3.730
REMARK  21 active torsions:
REMARK  status: ('A' for Active; 'I' for Inactive)
REMARK    1  A    between atoms: C_2  and  C_3 
REMARK    2  A    between atoms: C_3  and  C_4 
REMARK    3  A    between atoms: C_4  and  C_5 
REMARK    4  A    between atoms: C_5  and  C_6 
REMARK    5  A    between atoms: C_6  and  C_7 
REMARK    6  A    between atoms: C_7  and  C_8 
REMARK    7  A    between atoms: C_8  and  C_9 
REMARK    8  A    between atoms: C_9  and  C_10 
REMARK    9  A    between atoms: C_10  and  C_11 
REMARK   10  A    between atoms: C_11  and  C_12 
REMARK   11  A    between atoms: C_12  and  C_13 
REMARK   12  A    between atoms: C_13  and  C_14 
REMARK   13  A    between atoms: C_14  and  C_15 
REMARK   14  A    between atoms: C_15  and  C_16 
REMARK   15  A    between atoms: C_16  and  O_17 
REMARK   16  A    between atoms: O_17  and  C_18 
REMARK   17  A    between atoms: C_18  and  C_20 
REMARK   18  A    between atoms: C_20  and  C_21 
REMARK   19  A    between atoms: C_20  and  C_23 
REMARK   20  A    between atoms: C_23  and  C_24 
REMARK   21  A    between atoms: C_24  and  C_25 
ROOT
HETATM    1  C   UNL     1     -21.351  -6.186  -3.211  1.00  0.00     0.000 C 
ENDROOT
BRANCH   1   2
HETATM    2  C   UNL     1     -21.322  -7.117  -2.006  1.00  0.00     0.000 C 
BRANCH   2   3
HETATM    3  C   UNL     1     -22.434  -6.766  -1.042  1.00  0.00     0.000 C 
BRANCH   3   4
HETATM    4  C   UNL     1     -22.705  -7.939  -0.117  1.00  0.00     0.000 C 
BRANCH   4   5
HETATM    5  C   UNL     1     -21.503  -8.175   0.778  1.00  0.00     0.000 C 
BRANCH   5   6
HETATM    6  C   UNL     1     -21.136  -9.648   0.773  1.00  0.00     0.000 C 
BRANCH   6   7
HETATM    7  C   UNL     1     -22.003 -10.391  -0.226  1.00  0.00     0.000 C 
BRANCH   7   8
HETATM    8  C   UNL     1     -21.143 -11.318  -1.065  1.00  0.00     0.000 C 
BRANCH   8   9
HETATM    9  C   UNL     1     -19.849 -10.622  -1.442  1.00  0.00     0.000 C 
BRANCH   9  10
HETATM   10  C   UNL     1     -19.925 -10.132  -2.877  1.00  0.00     0.000 C 
BRANCH  10  11
HETATM   11  C   UNL     1     -18.657  -9.374  -3.234  1.00  0.00    -0.000 C 
BRANCH  11  12
HETATM   12  C   UNL     1     -18.321  -9.567  -4.705  1.00  0.00    -0.005 C 
HETATM   13  C   UNL     1     -19.309 -10.519  -5.345  1.00  0.00     0.005 C 
ENDBRANCH  11  12
ENDBRANCH  10  11
ENDBRANCH   9  10
ENDBRANCH   8   9
ENDBRANCH   7   8
ENDBRANCH   6   7
ENDBRANCH   5   6
ENDBRANCH   4   5
ENDBRANCH   3   4
ENDBRANCH   2   3
ENDBRANCH   1   2
BRANCH   1  14
HETATM   14  C   UNL     1     -22.256  -6.746  -4.298  1.00  0.00     0.002 C 
BRANCH  14  15
HETATM   15  C   UNL     1     -21.439  -7.384  -5.419  1.00  0.00     0.027 C 
BRANCH  15  16
HETATM   16  C   UNL     1     -20.184  -6.575  -5.704  1.00  0.00     0.178 C 
BRANCH  16  17
HETATM   17  O   UNL     1     -19.941  -6.505  -7.125  1.00  0.00    -0.321 OA
BRANCH  17  18
HETATM   18  C   UNL     1     -19.772  -5.240  -7.600  1.00  0.00     0.263 C 
HETATM   19  O   UNL     1     -18.797  -4.522  -7.321  1.00  0.00    -0.265 OA
BRANCH  18  20
HETATM   20  C   UNL     1     -20.899  -4.797  -8.526  1.00  0.00     0.085 C 
BRANCH  20  21
HETATM   21  C   UNL     1     -21.866  -3.823  -7.827  1.00  0.00     0.010 C 
HETATM   22  C   UNL     1     -23.132  -4.502  -7.340  1.00  0.00     0.006 C 
ENDBRANCH  20  21
BRANCH  20  23
HETATM   23  C   UNL     1     -20.305  -4.101  -9.770  1.00  0.00     0.014 C 
BRANCH  23  24
HETATM   24  C   UNL     1     -21.156  -4.313 -11.023  1.00  0.00     0.000 C 
BRANCH  24  25
HETATM   25  C   UNL     1     -21.748  -2.999 -11.518  1.00  0.00    -0.005 C 
HETATM   26  C   UNL     1     -23.264  -3.076 -11.492  1.00  0.00     0.005 C 
ENDBRANCH  24  25
ENDBRANCH  23  24
ENDBRANCH  20  23
ENDBRANCH  18  20
ENDBRANCH  17  18
ENDBRANCH  16  17
ENDBRANCH  15  16
ENDBRANCH  14  15
ENDBRANCH   1  14
TORSDOF 21
BEGIN_RES ARG D 557
REMARK  4 active torsions:
REMARK  status: ('A' for Active; 'I' for Inactive)
REMARK    1  A    between atoms: CA   and  CB  
REMARK    2  A    between atoms: CB   and  CG  
REMARK    3  A    between atoms: CG   and  CD  
REMARK    4  A    between atoms: CD   and  NE  
REMARK       I    between atoms: NE   and  CZ  
REMARK       I    between atoms: CZ   and  NH1 
REMARK       I    between atoms: CZ   and  NH2 
ROOT
ATOM      1  CA  ARG D 557     -26.217   2.705 -17.014  1.00 35.49     0.159 C 
ENDROOT
BRANCH   1   2
ATOM      2  CB  ARG D 557     -26.789   1.319 -17.183  1.00 35.49     0.034 C 
BRANCH   2   3
ATOM      3  CG  ARG D 557     -28.229   1.227 -17.450  1.00 35.49     0.027 C 
BRANCH   3   4
ATOM      4  CD  ARG D 557     -28.919   0.310 -16.515  1.00 35.49     0.116 C 
BRANCH   4   5
ATOM      5  NE  ARG D 557     -29.313  -0.920 -17.151  1.00 35.49    -0.212 N 
ATOM      6  CZ  ARG D 557     -28.695  -2.074 -17.041  1.00 35.49     0.666 C 
ATOM      7  NH1 ARG D 557     -27.600  -2.226 -16.318  1.00 35.49    -0.235 N 
ATOM      8  NH2 ARG D 557     -29.205  -3.091 -17.672  1.00 35.49    -0.235 N 
ATOM      9  HH  ARG D 557     -27.249  -1.571 -15.892  1.00 35.49     0.174 HD
ATOM     10  HH  ARG D 557     -27.242  -3.004 -16.280  1.00 35.49     0.174 HD
ATOM     11  HH  ARG D 557     -29.916  -2.965 -18.126  1.00 35.49     0.174 HD
ATOM     12  HH  ARG D 557     -28.836  -3.853 -17.622  1.00 35.49     0.174 HD
ATOM     13  HE  ARG D 557     -29.967  -0.897 -17.695  1.00 35.49     0.178 HD
ENDBRANCH   4   5
ENDBRANCH   3   4
ENDBRANCH   2   3
ENDBRANCH   1   2
END_RES ARG D 557
BEGIN_RES GLU D 570
REMARK  3 active torsions:
REMARK  status: ('A' for Active; 'I' for Inactive)
REMARK    5  A    between atoms: CA   and  CB  
REMARK    6  A    between atoms: CB   and  CG  
REMARK    7  A    between atoms: CG   and  CD  
ROOT
ATOM     14  CA  GLU D 570     -18.033  -6.348 -13.375  1.00 32.92     0.160 C 
ENDROOT
BRANCH  14  15
ATOM     15  CB  GLU D 570     -19.500  -6.345 -13.794  1.00 32.92     0.043 C 
BRANCH  15  16
ATOM     16  CG  GLU D 570     -20.104  -7.646 -14.180  1.00 32.92     0.100 C 
BRANCH  16  17
ATOM     17  CD  GLU D 570     -20.985  -7.547 -15.404  1.00 32.92     0.185 C 
ATOM     18  OE1 GLU D 570     -21.832  -6.636 -15.468  1.00 32.92    -0.647 OA
ATOM     19  OE2 GLU D 570     -20.837  -8.400 -16.301  1.00 32.92    -0.647 OA
ENDBRANCH  16  17
ENDBRANCH  15  16
ENDBRANCH  14  15
END_RES GLU D 570
ENDMDL
MODEL 5
REMARK VINA RESULT:      -6.7      1.981      2.590
REMARK  21 active torsions:
REMARK  status: ('A' for Active; 'I' for Inactive)
REMARK    1  A    between atoms: C_2  and  C_3 
REMARK    2  A    between atoms: C_3  and  C_4 
REMARK    3  A    between atoms: C_4  and  C_5 
REMARK    4  A    between atoms: C_5  and  C_6 
REMARK    5  A    between atoms: C_6  and  C_7 
REMARK    6  A    between atoms: C_7  and  C_8 
REMARK    7  A    between atoms: C_8  and  C_9 
REMARK    8  A    between atoms: C_9  and  C_10 
REMARK    9  A    between atoms: C_10  and  C_11 
REMARK   10  A    between atoms: C_11  and  C_12 
REMARK   11  A    between atoms: C_12  and  C_13 
REMARK   12  A    between atoms: C_13  and  C_14 
REMARK   13  A    between atoms: C_14  and  C_15 
REMARK   14  A    between atoms: C_15  and  C_16 
REMARK   15  A    between atoms: C_16  and  O_17 
REMARK   16  A    between atoms: O_17  and  C_18 
REMARK   17  A    between atoms: C_18  and  C_20 
REMARK   18  A    between atoms: C_20  and  C_21 
REMARK   19  A    between atoms: C_20  and  C_23 
REMARK   20  A    between atoms: C_23  and  C_24 
REMARK   21  A    between atoms: C_24  and  C_25 
ROOT
HETATM    1  C   UNL     1     -20.775  -7.117  -4.917  1.00  0.00     0.000 C 
ENDROOT
BRANCH   1   2
HETATM    2  C   UNL     1     -22.055  -6.665  -4.229  1.00  0.00     0.000 C 
BRANCH   2   3
HETATM    3  C   UNL     1     -21.757  -6.175  -2.829  1.00  0.00     0.000 C 
BRANCH   3   4
HETATM    4  C   UNL     1     -21.289  -7.332  -1.965  1.00  0.00     0.000 C 
BRANCH   4   5
HETATM    5  C   UNL     1     -22.066  -7.349  -0.663  1.00  0.00     0.000 C 
BRANCH   5   6
HETATM    6  C   UNL     1     -22.577  -8.751  -0.385  1.00  0.00     0.000 C 
BRANCH   6   7
HETATM    7  C   UNL     1     -22.023  -9.715  -1.417  1.00  0.00     0.000 C 
BRANCH   7   8
HETATM    8  C   UNL     1     -22.983 -10.875  -1.605  1.00  0.00     0.000 C 
BRANCH   8   9
HETATM    9  C   UNL     1     -23.886 -11.001  -0.393  1.00  0.00     0.000 C 
BRANCH   9  10
HETATM   10  C   UNL     1     -23.774 -12.398   0.192  1.00  0.00     0.000 C 
BRANCH  10  11
HETATM   11  C   UNL     1     -22.449 -12.550   0.922  1.00  0.00    -0.000 C 
BRANCH  11  12
HETATM   12  C   UNL     1     -22.329 -13.945   1.515  1.00  0.00    -0.005 C 
HETATM   13  C   UNL     1     -23.450 -14.191   2.503  1.00  0.00     0.005 C 
ENDBRANCH  11  12
ENDBRANCH  10  11
ENDBRANCH   9  10
ENDBRANCH   8   9
ENDBRANCH   7   8
ENDBRANCH   6   7
ENDBRANCH   5   6
ENDBRANCH   4   5
ENDBRANCH   3   4
ENDBRANCH   2   3
ENDBRANCH   1   2
BRANCH   1  14
HETATM   14  C   UNL     1     -20.579  -6.370  -6.227  1.00  0.00     0.002 C 
BRANCH  14  15
HETATM   15  C   UNL     1     -20.186  -4.915  -5.977  1.00  0.00     0.027 C 
BRANCH  15  16
HETATM   16  C   UNL     1     -20.749  -4.006  -7.058  1.00  0.00     0.178 C 
BRANCH  16  17
HETATM   17  O   UNL     1     -21.330  -4.789  -8.122  1.00  0.00    -0.321 OA
BRANCH  17  18
HETATM   18  C   UNL     1     -22.524  -4.316  -8.574  1.00  0.00     0.263 C 
HETATM   19  O   UNL     1     -23.543  -4.229  -7.869  1.00  0.00    -0.265 OA
BRANCH  18  20
HETATM   20  C   UNL     1     -22.480  -3.891 -10.037  1.00  0.00     0.085 C 
BRANCH  20  21
HETATM   21  C   UNL     1     -21.236  -4.442 -10.757  1.00  0.00     0.010 C 
HETATM   22  C   UNL     1     -20.331  -3.348 -11.289  1.00  0.00     0.006 C 
ENDBRANCH  20  21
BRANCH  20  23
HETATM   23  C   UNL     1     -23.743  -4.401 -10.764  1.00  0.00     0.014 C 
BRANCH  23  24
HETATM   24  C   UNL     1     -24.546  -3.269 -11.407  1.00  0.00     0.000 C 
BRANCH  24  25
HETATM   25  C   UNL     1     -23.922  -2.828 -12.725  1.00  0.00    -0.005 C 
HETATM   26  C   UNL     1     -24.025  -3.950 -13.743  1.00  0.00     0.005 C 
ENDBRANCH  24  25
ENDBRANCH  23  24
ENDBRANCH  20  23
ENDBRANCH  18  20
ENDBRANCH  17  18
ENDBRANCH  16  17
ENDBRANCH  15  16
ENDBRANCH  14  15
ENDBRANCH   1  14
TORSDOF 21
BEGIN_RES ARG D 557
REMARK  4 active torsions:
REMARK  status: ('A' for Active; 'I' for Inactive)
REMARK    1  A    between atoms: CA   and  CB  
REMARK    2  A    between atoms: CB   and  CG  
REMARK    3  A    between atoms: CG   and  CD  
REMARK    4  A    between atoms: CD   and  NE  
REMARK       I    between atoms: NE   and  CZ  
REMARK       I    between atoms: CZ   and  NH1 
REMARK       I    between atoms: CZ   and  NH2 
ROOT
ATOM      1  CA  ARG D 557     -26.217   2.705 -17.014  1.00 35.49     0.159 C 
ENDROOT
BRANCH   1   2
ATOM      2  CB  ARG D 557     -26.789   1.319 -17.183  1.00 35.49     0.034 C 
BRANCH   2   3
ATOM      3  CG  ARG D 557     -28.191   1.131 -16.791  1.00 35.49     0.027 C 
BRANCH   3   4
ATOM      4  CD  ARG D 557     -28.708  -0.205 -17.168  1.00 35.49     0.116 C 
BRANCH   4   5
ATOM      5  NE  ARG D 557     -27.938  -1.270 -16.582  1.00 35.49    -0.212 N 
ATOM      6  CZ  ARG D 557     -28.158  -2.556 -16.744  1.00 35.49     0.666 C 
ATOM      7  NH1 ARG D 557     -29.153  -3.018 -17.477  1.00 35.49    -0.235 N 
ATOM      8  NH2 ARG D 557     -27.345  -3.383 -16.153  1.00 35.49    -0.235 N 
ATOM      9  HH  ARG D 557     -29.699  -2.492 -17.877  1.00 35.49     0.174 HD
ATOM     10  HH  ARG D 557     -29.246  -3.867 -17.549  1.00 35.49     0.174 HD
ATOM     11  HH  ARG D 557     -26.707  -3.055 -15.691  1.00 35.49     0.174 HD
ATOM     12  HH  ARG D 557     -27.453  -4.219 -16.237  1.00 35.49     0.174 HD
ATOM     13  HE  ARG D 557     -27.321  -1.062 -16.035  1.00 35.49     0.178 HD
ENDBRANCH   4   5
ENDBRANCH   3   4
ENDBRANCH   2   3
ENDBRANCH   1   2
END_RES ARG D 557
BEGIN_RES GLU D 570
REMARK  3 active torsions:
REMARK  status: ('A' for Active; 'I' for Inactive)
REMARK    5  A    between atoms: CA   and  CB  
REMARK    6  A    between atoms: CB   and  CG  
REMARK    7  A    between atoms: CG   and  CD  
ROOT
ATOM     14  CA  GLU D 570     -18.033  -6.348 -13.375  1.00 32.92     0.160 C 
ENDROOT
BRANCH  14  15
ATOM     15  CB  GLU D 570     -19.500  -6.345 -13.794  1.00 32.92     0.043 C 
BRANCH  15  16
ATOM     16  CG  GLU D 570     -19.796  -6.336 -15.250  1.00 32.92     0.100 C 
BRANCH  16  17
ATOM     17  CD  GLU D 570     -21.230  -5.973 -15.557  1.00 32.92     0.185 C 
ATOM     18  OE1 GLU D 570     -22.126  -6.811 -15.340  1.00 32.92    -0.647 OA
ATOM     19  OE2 GLU D 570     -21.458  -4.845 -16.037  1.00 32.92    -0.647 OA
ENDBRANCH  16  17
ENDBRANCH  15  16
ENDBRANCH  14  15
END_RES GLU D 570
ENDMDL
MODEL 6
REMARK VINA RESULT:      -6.6      2.356      9.482
REMARK  21 active torsions:
REMARK  status: ('A' for Active; 'I' for Inactive)
REMARK    1  A    between atoms: C_2  and  C_3 
REMARK    2  A    between atoms: C_3  and  C_4 
REMARK    3  A    between atoms: C_4  and  C_5 
REMARK    4  A    between atoms: C_5  and  C_6 
REMARK    5  A    between atoms: C_6  and  C_7 
REMARK    6  A    between atoms: C_7  and  C_8 
REMARK    7  A    between atoms: C_8  and  C_9 
REMARK    8  A    between atoms: C_9  and  C_10 
REMARK    9  A    between atoms: C_10  and  C_11 
REMARK   10  A    between atoms: C_11  and  C_12 
REMARK   11  A    between atoms: C_12  and  C_13 
REMARK   12  A    between atoms: C_13  and  C_14 
REMARK   13  A    between atoms: C_14  and  C_15 
REMARK   14  A    between atoms: C_15  and  C_16 
REMARK   15  A    between atoms: C_16  and  O_17 
REMARK   16  A    between atoms: O_17  and  C_18 
REMARK   17  A    between atoms: C_18  and  C_20 
REMARK   18  A    between atoms: C_20  and  C_21 
REMARK   19  A    between atoms: C_20  and  C_23 
REMARK   20  A    between atoms: C_23  and  C_24 
REMARK   21  A    between atoms: C_24  and  C_25 
ROOT
HETATM    1  C   UNL     1     -21.538  -6.890  -5.098  1.00  0.00     0.000 C 
ENDROOT
BRANCH   1   2
HETATM    2  C   UNL     1     -21.428  -5.750  -6.101  1.00  0.00     0.000 C 
BRANCH   2   3
HETATM    3  C   UNL     1     -20.273  -4.841  -5.742  1.00  0.00     0.000 C 
BRANCH   3   4
HETATM    4  C   UNL     1     -19.355  -4.673  -6.940  1.00  0.00     0.000 C 
BRANCH   4   5
HETATM    5  C   UNL     1     -20.067  -5.130  -8.199  1.00  0.00     0.000 C 
BRANCH   5   6
HETATM    6  C   UNL     1     -20.130  -3.988  -9.199  1.00  0.00     0.000 C 
BRANCH   6   7
HETATM    7  C   UNL     1     -20.295  -4.541 -10.602  1.00  0.00     0.000 C 
BRANCH   7   8
HETATM    8  C   UNL     1     -21.192  -3.627 -11.414  1.00  0.00     0.000 C 
BRANCH   8   9
HETATM    9  C   UNL     1     -22.278  -4.440 -12.094  1.00  0.00     0.000 C 
BRANCH   9  10
HETATM   10  C   UNL     1     -23.388  -4.749 -11.106  1.00  0.00     0.000 C 
BRANCH  10  11
HETATM   11  C   UNL     1     -24.301  -3.543 -10.959  1.00  0.00    -0.000 C 
BRANCH  11  12
HETATM   12  C   UNL     1     -24.498  -3.205  -9.489  1.00  0.00    -0.005 C 
HETATM   13  C   UNL     1     -23.696  -4.153  -8.623  1.00  0.00     0.005 C 
ENDBRANCH  11  12
ENDBRANCH  10  11
ENDBRANCH   9  10
ENDBRANCH   8   9
ENDBRANCH   7   8
ENDBRANCH   6   7
ENDBRANCH   5   6
ENDBRANCH   4   5
ENDBRANCH   3   4
ENDBRANCH   2   3
ENDBRANCH   1   2
BRANCH   1  14
HETATM   14  C   UNL     1     -21.506  -6.355  -3.674  1.00  0.00     0.002 C 
BRANCH  14  15
HETATM   15  C   UNL     1     -21.086  -7.443  -2.687  1.00  0.00     0.027 C 
BRANCH  15  16
HETATM   16  C   UNL     1     -21.187  -8.820  -3.323  1.00  0.00     0.178 C 
BRANCH  16  17
HETATM   17  O   UNL     1     -21.743  -9.767  -2.387  1.00  0.00    -0.321 OA
BRANCH  17  18
HETATM   18  C   UNL     1     -20.874 -10.171  -1.419  1.00  0.00     0.263 C 
HETATM   19  O   UNL     1     -19.742 -10.626  -1.654  1.00  0.00    -0.265 OA
BRANCH  18  20
HETATM   20  C   UNL     1     -21.428  -9.993  -0.010  1.00  0.00     0.085 C 
BRANCH  20  21
HETATM   21  C   UNL     1     -22.917  -9.599  -0.025  1.00  0.00     0.010 C 
HETATM   22  C   UNL     1     -23.157  -8.194   0.492  1.00  0.00     0.006 C 
ENDBRANCH  20  21
BRANCH  20  23
HETATM   23  C   UNL     1     -21.270 -11.310   0.780  1.00  0.00     0.014 C 
BRANCH  23  24
HETATM   24  C   UNL     1     -22.466 -12.246   0.603  1.00  0.00     0.000 C 
BRANCH  24  25
HETATM   25  C   UNL     1     -22.224 -13.587   1.285  1.00  0.00    -0.005 C 
HETATM   26  C   UNL     1     -23.406 -13.934   2.172  1.00  0.00     0.005 C 
ENDBRANCH  24  25
ENDBRANCH  23  24
ENDBRANCH  20  23
ENDBRANCH  18  20
ENDBRANCH  17  18
ENDBRANCH  16  17
ENDBRANCH  15  16
ENDBRANCH  14  15
ENDBRANCH   1  14
TORSDOF 21
BEGIN_RES ARG D 557
REMARK  4 active torsions:
REMARK  status: ('A' for Active; 'I' for Inactive)
REMARK    1  A    between atoms: CA   and  CB  
REMARK    2  A    between atoms: CB   and  CG  
REMARK    3  A    between atoms: CG   and  CD  
REMARK    4  A    between atoms: CD   and  NE  
REMARK       I    between atoms: NE   and  CZ  
REMARK       I    between atoms: CZ   and  NH1 
REMARK       I    between atoms: CZ   and  NH2 
ROOT
ATOM      1  CA  ARG D 557     -26.217   2.705 -17.014  1.00 35.49     0.159 C 
ENDROOT
BRANCH   1   2
ATOM      2  CB  ARG D 557     -26.789   1.319 -17.183  1.00 35.49     0.034 C 
BRANCH   2   3
ATOM      3  CG  ARG D 557     -25.966   0.202 -16.704  1.00 35.49     0.027 C 
BRANCH   3   4
ATOM      4  CD  ARG D 557     -26.777  -0.871 -16.083  1.00 35.49     0.116 C 
BRANCH   4   5
ATOM      5  NE  ARG D 557     -25.983  -1.745 -15.261  1.00 35.49    -0.212 N 
ATOM      6  CZ  ARG D 557     -26.177  -3.034 -15.100  1.00 35.49     0.666 C 
ATOM      7  NH1 ARG D 557     -27.166  -3.682 -15.688  1.00 35.49    -0.235 N 
ATOM      8  NH2 ARG D 557     -25.344  -3.675 -14.332  1.00 35.49    -0.235 N 
ATOM      9  HH  ARG D 557     -27.724  -3.280 -16.199  1.00 35.49     0.174 HD
ATOM     10  HH  ARG D 557     -27.241  -4.524 -15.548  1.00 35.49     0.174 HD
ATOM     11  HH  ARG D 557     -24.711  -3.233 -13.971  1.00 35.49     0.174 HD
ATOM     12  HH  ARG D 557     -25.435  -4.509 -14.207  1.00 35.49     0.174 HD
ATOM     13  HE  ARG D 557     -25.368  -1.397 -14.788  1.00 35.49     0.178 HD
ENDBRANCH   4   5
ENDBRANCH   3   4
ENDBRANCH   2   3
ENDBRANCH   1   2
END_RES ARG D 557
BEGIN_RES GLU D 570
REMARK  3 active torsions:
REMARK  status: ('A' for Active; 'I' for Inactive)
REMARK    5  A    between atoms: CA   and  CB  
REMARK    6  A    between atoms: CB   and  CG  
REMARK    7  A    between atoms: CG   and  CD  
ROOT
ATOM     14  CA  GLU D 570     -18.033  -6.348 -13.375  1.00 32.92     0.160 C 
ENDROOT
BRANCH  14  15
ATOM     15  CB  GLU D 570     -19.500  -6.345 -13.794  1.00 32.92     0.043 C 
BRANCH  15  16
ATOM     16  CG  GLU D 570     -20.093  -7.639 -14.219  1.00 32.92     0.100 C 
BRANCH  16  17
ATOM     17  CD  GLU D 570     -20.703  -7.582 -15.600  1.00 32.92     0.185 C 
ATOM     18  OE1 GLU D 570     -20.821  -6.478 -16.165  1.00 32.92    -0.647 OA
ATOM     19  OE2 GLU D 570     -21.083  -8.652 -16.116  1.00 32.92    -0.647 OA
ENDBRANCH  16  17
ENDBRANCH  15  16
ENDBRANCH  14  15
END_RES GLU D 570
ENDMDL
MODEL 7
REMARK VINA RESULT:      -6.6      3.097      9.672
REMARK  21 active torsions:
REMARK  status: ('A' for Active; 'I' for Inactive)
REMARK    1  A    between atoms: C_2  and  C_3 
REMARK    2  A    between atoms: C_3  and  C_4 
REMARK    3  A    between atoms: C_4  and  C_5 
REMARK    4  A    between atoms: C_5  and  C_6 
REMARK    5  A    between atoms: C_6  and  C_7 
REMARK    6  A    between atoms: C_7  and  C_8 
REMARK    7  A    between atoms: C_8  and  C_9 
REMARK    8  A    between atoms: C_9  and  C_10 
REMARK    9  A    between atoms: C_10  and  C_11 
REMARK   10  A    between atoms: C_11  and  C_12 
REMARK   11  A    between atoms: C_12  and  C_13 
REMARK   12  A    between atoms: C_13  and  C_14 
REMARK   13  A    between atoms: C_14  and  C_15 
REMARK   14  A    between atoms: C_15  and  C_16 
REMARK   15  A    between atoms: C_16  and  O_17 
REMARK   16  A    between atoms: O_17  and  C_18 
REMARK   17  A    between atoms: C_18  and  C_20 
REMARK   18  A    between atoms: C_20  and  C_21 
REMARK   19  A    between atoms: C_20  and  C_23 
REMARK   20  A    between atoms: C_23  and  C_24 
REMARK   21  A    between atoms: C_24  and  C_25 
ROOT
HETATM    1  C   UNL     1     -21.999  -6.697  -3.734  1.00  0.00     0.000 C 
ENDROOT
BRANCH   1   2
HETATM    2  C   UNL     1     -21.111  -5.969  -4.733  1.00  0.00     0.000 C 
BRANCH   2   3
HETATM    3  C   UNL     1     -21.028  -6.745  -6.030  1.00  0.00     0.000 C 
BRANCH   3   4
HETATM    4  C   UNL     1     -20.227  -5.960  -7.052  1.00  0.00     0.000 C 
BRANCH   4   5
HETATM    5  C   UNL     1     -20.278  -4.481  -6.719  1.00  0.00     0.000 C 
BRANCH   5   6
HETATM    6  C   UNL     1     -21.190  -3.763  -7.699  1.00  0.00     0.000 C 
BRANCH   6   7
HETATM    7  C   UNL     1     -21.296  -4.562  -8.984  1.00  0.00     0.000 C 
BRANCH   7   8
HETATM    8  C   UNL     1     -20.181  -4.162  -9.932  1.00  0.00     0.000 C 
BRANCH   8   9
HETATM    9  C   UNL     1     -20.762  -3.460 -11.145  1.00  0.00     0.000 C 
BRANCH   9  10
HETATM   10  C   UNL     1     -21.902  -4.281 -11.721  1.00  0.00     0.000 C 
BRANCH  10  11
HETATM   11  C   UNL     1     -22.584  -3.509 -12.838  1.00  0.00    -0.000 C 
BRANCH  11  12
HETATM   12  C   UNL     1     -23.820  -2.797 -12.311  1.00  0.00    -0.005 C 
HETATM   13  C   UNL     1     -24.311  -3.470 -11.046  1.00  0.00     0.005 C 
ENDBRANCH  11  12
ENDBRANCH  10  11
ENDBRANCH   9  10
ENDBRANCH   8   9
ENDBRANCH   7   8
ENDBRANCH   6   7
ENDBRANCH   5   6
ENDBRANCH   4   5
ENDBRANCH   3   4
ENDBRANCH   2   3
ENDBRANCH   1   2
BRANCH   1  14
HETATM   14  C   UNL     1     -21.295  -6.832  -2.392  1.00  0.00     0.002 C 
BRANCH  14  15
HETATM   15  C   UNL     1     -22.198  -6.370  -1.250  1.00  0.00     0.027 C 
BRANCH  15  16
HETATM   16  C   UNL     1     -22.707  -7.556  -0.446  1.00  0.00     0.178 C 
BRANCH  16  17
HETATM   17  O   UNL     1     -21.622  -8.183   0.269  1.00  0.00    -0.321 OA
BRANCH  17  18
HETATM   18  C   UNL     1     -21.617  -9.543   0.194  1.00  0.00     0.263 C 
HETATM   19  O   UNL     1     -20.899 -10.270   0.902  1.00  0.00    -0.265 OA
BRANCH  18  20
HETATM   20  C   UNL     1     -22.596 -10.086  -0.840  1.00  0.00     0.085 C 
BRANCH  20  21
HETATM   21  C   UNL     1     -21.881 -10.912  -1.927  1.00  0.00     0.010 C 
HETATM   22  C   UNL     1     -22.054 -10.329  -3.315  1.00  0.00     0.006 C 
ENDBRANCH  20  21
BRANCH  20  23
HETATM   23  C   UNL     1     -23.643 -10.981  -0.143  1.00  0.00     0.014 C 
BRANCH  23  24
HETATM   24  C   UNL     1     -23.983 -12.230  -0.958  1.00  0.00     0.000 C 
BRANCH  24  25
HETATM   25  C   UNL     1     -23.750 -13.499  -0.147  1.00  0.00    -0.005 C 
HETATM   26  C   UNL     1     -23.187 -13.141   1.217  1.00  0.00     0.005 C 
ENDBRANCH  24  25
ENDBRANCH  23  24
ENDBRANCH  20  23
ENDBRANCH  18  20
ENDBRANCH  17  18
ENDBRANCH  16  17
ENDBRANCH  15  16
ENDBRANCH  14  15
ENDBRANCH   1  14
TORSDOF 21
BEGIN_RES ARG D 557
REMARK  4 active torsions:
REMARK  status: ('A' for Active; 'I' for Inactive)
REMARK    1  A    between atoms: CA   and  CB  
REMARK    2  A    between atoms: CB   and  CG  
REMARK    3  A    between atoms: CG   and  CD  
REMARK    4  A    between atoms: CD   and  NE  
REMARK       I    between atoms: NE   and  CZ  
REMARK       I    between atoms: CZ   and  NH1 
REMARK       I    between atoms: CZ   and  NH2 
ROOT
ATOM      1  CA  ARG D 557     -26.217   2.705 -17.014  1.00 35.49     0.159 C 
ENDROOT
BRANCH   1   2
ATOM      2  CB  ARG D 557     -26.789   1.319 -17.183  1.00 35.49     0.034 C 
BRANCH   2   3
ATOM      3  CG  ARG D 557     -28.235   1.225 -17.418  1.00 35.49     0.027 C 
BRANCH   3   4
ATOM      4  CD  ARG D 557     -28.901   0.296 -16.476  1.00 35.49     0.116 C 
BRANCH   4   5
ATOM      5  NE  ARG D 557     -29.310  -0.925 -17.117  1.00 35.49    -0.212 N 
ATOM      6  CZ  ARG D 557     -28.688  -2.080 -17.038  1.00 35.49     0.666 C 
ATOM      7  NH1 ARG D 557     -27.574  -2.240 -16.348  1.00 35.49    -0.235 N 
ATOM      8  NH2 ARG D 557     -29.214  -3.090 -17.669  1.00 35.49    -0.235 N 
ATOM      9  HH  ARG D 557     -27.212  -1.590 -15.923  1.00 35.49     0.174 HD
ATOM     10  HH  ARG D 557     -27.214  -3.017 -16.330  1.00 35.49     0.174 HD
ATOM     11  HH  ARG D 557     -29.938  -2.959 -18.100  1.00 35.49     0.174 HD
ATOM     12  HH  ARG D 557     -28.844  -3.852 -17.638  1.00 35.49     0.174 HD
ATOM     13  HE  ARG D 557     -29.979  -0.896 -17.642  1.00 35.49     0.178 HD
ENDBRANCH   4   5
ENDBRANCH   3   4
ENDBRANCH   2   3
ENDBRANCH   1   2
END_RES ARG D 557
BEGIN_RES GLU D 570
REMARK  3 active torsions:
REMARK  status: ('A' for Active; 'I' for Inactive)
REMARK    5  A    between atoms: CA   and  CB  
REMARK    6  A    between atoms: CB   and  CG  
REMARK    7  A    between atoms: CG   and  CD  
ROOT
ATOM     14  CA  GLU D 570     -18.033  -6.348 -13.375  1.00 32.92     0.160 C 
ENDROOT
BRANCH  14  15
ATOM     15  CB  GLU D 570     -19.500  -6.345 -13.794  1.00 32.92     0.043 C 
BRANCH  15  16
ATOM     16  CG  GLU D 570     -19.851  -5.635 -15.051  1.00 32.92     0.100 C 
BRANCH  16  17
ATOM     17  CD  GLU D 570     -21.280  -5.871 -15.481  1.00 32.92     0.185 C 
ATOM     18  OE1 GLU D 570     -22.045  -6.499 -14.724  1.00 32.92    -0.647 OA
ATOM     19  OE2 GLU D 570     -21.635  -5.438 -16.596  1.00 32.92    -0.647 OA
ENDBRANCH  16  17
ENDBRANCH  15  16
ENDBRANCH  14  15
END_RES GLU D 570
ENDMDL
MODEL 8
REMARK VINA RESULT:      -6.6      3.155      9.206
REMARK  21 active torsions:
REMARK  status: ('A' for Active; 'I' for Inactive)
REMARK    1  A    between atoms: C_2  and  C_3 
REMARK    2  A    between atoms: C_3  and  C_4 
REMARK    3  A    between atoms: C_4  and  C_5 
REMARK    4  A    between atoms: C_5  and  C_6 
REMARK    5  A    between atoms: C_6  and  C_7 
REMARK    6  A    between atoms: C_7  and  C_8 
REMARK    7  A    between atoms: C_8  and  C_9 
REMARK    8  A    between atoms: C_9  and  C_10 
REMARK    9  A    between atoms: C_10  and  C_11 
REMARK   10  A    between atoms: C_11  and  C_12 
REMARK   11  A    between atoms: C_12  and  C_13 
REMARK   12  A    between atoms: C_13  and  C_14 
REMARK   13  A    between atoms: C_14  and  C_15 
REMARK   14  A    between atoms: C_15  and  C_16 
REMARK   15  A    between atoms: C_16  and  O_17 
REMARK   16  A    between atoms: O_17  and  C_18 
REMARK   17  A    between atoms: C_18  and  C_20 
REMARK   18  A    between atoms: C_20  and  C_21 
REMARK   19  A    between atoms: C_20  and  C_23 
REMARK   20  A    between atoms: C_23  and  C_24 
REMARK   21  A    between atoms: C_24  and  C_25 
ROOT
HETATM    1  C   UNL     1     -19.821  -8.413  -4.708  1.00  0.00     0.000 C 
ENDROOT
BRANCH   1   2
HETATM    2  C   UNL     1     -21.228  -8.153  -5.228  1.00  0.00     0.000 C 
BRANCH   2   3
HETATM    3  C   UNL     1     -21.280  -6.836  -5.971  1.00  0.00     0.000 C 
BRANCH   3   4
HETATM    4  C   UNL     1     -20.968  -5.694  -5.022  1.00  0.00     0.000 C 
BRANCH   4   5
HETATM    5  C   UNL     1     -20.055  -4.693  -5.705  1.00  0.00     0.000 C 
BRANCH   5   6
HETATM    6  C   UNL     1     -19.664  -5.206  -7.080  1.00  0.00     0.000 C 
BRANCH   6   7
HETATM    7  C   UNL     1     -19.682  -4.064  -8.078  1.00  0.00     0.000 C 
BRANCH   7   8
HETATM    8  C   UNL     1     -20.498  -4.457  -9.296  1.00  0.00     0.000 C 
BRANCH   8   9
HETATM    9  C   UNL     1     -21.949  -4.655  -8.902  1.00  0.00     0.000 C 
BRANCH   9  10
HETATM   10  C   UNL     1     -22.845  -3.807  -9.788  1.00  0.00     0.000 C 
BRANCH  10  11
HETATM   11  C   UNL     1     -23.482  -4.673 -10.862  1.00  0.00    -0.000 C 
BRANCH  11  12
HETATM   12  C   UNL     1     -23.755  -3.850 -12.112  1.00  0.00    -0.005 C 
HETATM   13  C   UNL     1     -22.831  -2.652 -12.160  1.00  0.00     0.005 C 
ENDBRANCH  11  12
ENDBRANCH  10  11
ENDBRANCH   9  10
ENDBRANCH   8   9
ENDBRANCH   7   8
ENDBRANCH   6   7
ENDBRANCH   5   6
ENDBRANCH   4   5
ENDBRANCH   3   4
ENDBRANCH   2   3
ENDBRANCH   1   2
BRANCH   1  14
HETATM   14  C   UNL     1     -19.850  -8.742  -3.224  1.00  0.00     0.002 C 
BRANCH  14  15
HETATM   15  C   UNL     1     -18.525  -9.350  -2.769  1.00  0.00     0.027 C 
BRANCH  15  16
HETATM   16  C   UNL     1     -18.700 -10.812  -2.388  1.00  0.00     0.178 C 
BRANCH  16  17
HETATM   17  O   UNL     1     -20.072 -11.078  -2.031  1.00  0.00    -0.321 OA
BRANCH  17  18
HETATM   18  C   UNL     1     -20.295 -11.150  -0.689  1.00  0.00     0.263 C 
HETATM   19  O   UNL     1     -19.552 -11.753   0.103  1.00  0.00    -0.265 OA
BRANCH  18  20
HETATM   20  C   UNL     1     -21.548 -10.398  -0.253  1.00  0.00     0.085 C 
BRANCH  20  21
HETATM   21  C   UNL     1     -22.639 -11.354   0.262  1.00  0.00     0.010 C 
HETATM   22  C   UNL     1     -23.954 -11.197  -0.478  1.00  0.00     0.006 C 
ENDBRANCH  20  21
BRANCH  20  23
HETATM   23  C   UNL     1     -21.189  -9.401   0.870  1.00  0.00     0.014 C 
BRANCH  23  24
HETATM   24  C   UNL     1     -21.614  -7.969   0.539  1.00  0.00     0.000 C 
BRANCH  24  25
HETATM   25  C   UNL     1     -22.357  -7.906  -0.790  1.00  0.00    -0.005 C 
HETATM   26  C   UNL     1     -22.220  -6.518  -1.390  1.00  0.00     0.005 C 
ENDBRANCH  24  25
ENDBRANCH  23  24
ENDBRANCH  20  23
ENDBRANCH  18  20
ENDBRANCH  17  18
ENDBRANCH  16  17
ENDBRANCH  15  16
ENDBRANCH  14  15
ENDBRANCH   1  14
TORSDOF 21
BEGIN_RES ARG D 557
REMARK  4 active torsions:
REMARK  status: ('A' for Active; 'I' for Inactive)
REMARK    1  A    between atoms: CA   and  CB  
REMARK    2  A    between atoms: CB   and  CG  
REMARK    3  A    between atoms: CG   and  CD  
REMARK    4  A    between atoms: CD   and  NE  
REMARK       I    between atoms: NE   and  CZ  
REMARK       I    between atoms: CZ   and  NH1 
REMARK       I    between atoms: CZ   and  NH2 
ROOT
ATOM      1  CA  ARG D 557     -26.217   2.705 -17.014  1.00 35.49     0.159 C 
ENDROOT
BRANCH   1   2
ATOM      2  CB  ARG D 557     -26.789   1.319 -17.183  1.00 35.49     0.034 C 
BRANCH   2   3
ATOM      3  CG  ARG D 557     -28.233   1.226 -17.433  1.00 35.49     0.027 C 
BRANCH   3   4
ATOM      4  CD  ARG D 557     -28.909   0.300 -16.496  1.00 35.49     0.116 C 
BRANCH   4   5
ATOM      5  NE  ARG D 557     -29.308  -0.925 -17.138  1.00 35.49    -0.212 N 
ATOM      6  CZ  ARG D 557     -28.693  -2.082 -17.036  1.00 35.49     0.666 C 
ATOM      7  NH1 ARG D 557     -27.596  -2.241 -16.319  1.00 35.49    -0.235 N 
ATOM      8  NH2 ARG D 557     -29.209  -3.094 -17.671  1.00 35.49    -0.235 N 
ATOM      9  HH  ARG D 557     -27.240  -1.589 -15.891  1.00 35.49     0.174 HD
ATOM     10  HH  ARG D 557     -27.240  -3.020 -16.288  1.00 35.49     0.174 HD
ATOM     11  HH  ARG D 557     -29.922  -2.963 -18.120  1.00 35.49     0.174 HD
ATOM     12  HH  ARG D 557     -28.843  -3.857 -17.626  1.00 35.49     0.174 HD
ATOM     13  HE  ARG D 557     -29.965  -0.897 -17.678  1.00 35.49     0.178 HD
ENDBRANCH   4   5
ENDBRANCH   3   4
ENDBRANCH   2   3
ENDBRANCH   1   2
END_RES ARG D 557
BEGIN_RES GLU D 570
REMARK  3 active torsions:
REMARK  status: ('A' for Active; 'I' for Inactive)
REMARK    5  A    between atoms: CA   and  CB  
REMARK    6  A    between atoms: CB   and  CG  
REMARK    7  A    between atoms: CG   and  CD  
ROOT
ATOM     14  CA  GLU D 570     -18.033  -6.348 -13.375  1.00 32.92     0.160 C 
ENDROOT
BRANCH  14  15
ATOM     15  CB  GLU D 570     -19.500  -6.345 -13.794  1.00 32.92     0.043 C 
BRANCH  15  16
ATOM     16  CG  GLU D 570     -20.047  -7.596 -14.380  1.00 32.92     0.100 C 
BRANCH  16  17
ATOM     17  CD  GLU D 570     -21.032  -7.342 -15.497  1.00 32.92     0.185 C 
ATOM     18  OE1 GLU D 570     -21.246  -6.170 -15.861  1.00 32.92    -0.647 OA
ATOM     19  OE2 GLU D 570     -21.608  -8.325 -16.003  1.00 32.92    -0.647 OA
ENDBRANCH  16  17
ENDBRANCH  15  16
ENDBRANCH  14  15
END_RES GLU D 570
ENDMDL
MODEL 9
REMARK VINA RESULT:      -6.6      1.851      3.110
REMARK  21 active torsions:
REMARK  status: ('A' for Active; 'I' for Inactive)
REMARK    1  A    between atoms: C_2  and  C_3 
REMARK    2  A    between atoms: C_3  and  C_4 
REMARK    3  A    between atoms: C_4  and  C_5 
REMARK    4  A    between atoms: C_5  and  C_6 
REMARK    5  A    between atoms: C_6  and  C_7 
REMARK    6  A    between atoms: C_7  and  C_8 
REMARK    7  A    between atoms: C_8  and  C_9 
REMARK    8  A    between atoms: C_9  and  C_10 
REMARK    9  A    between atoms: C_10  and  C_11 
REMARK   10  A    between atoms: C_11  and  C_12 
REMARK   11  A    between atoms: C_12  and  C_13 
REMARK   12  A    between atoms: C_13  and  C_14 
REMARK   13  A    between atoms: C_14  and  C_15 
REMARK   14  A    between atoms: C_15  and  C_16 
REMARK   15  A    between atoms: C_16  and  O_17 
REMARK   16  A    between atoms: O_17  and  C_18 
REMARK   17  A    between atoms: C_18  and  C_20 
REMARK   18  A    between atoms: C_20  and  C_21 
REMARK   19  A    between atoms: C_20  and  C_23 
REMARK   20  A    between atoms: C_23  and  C_24 
REMARK   21  A    between atoms: C_24  and  C_25 
ROOT
HETATM    1  C   UNL     1     -20.996  -7.340  -1.773  1.00  0.00     0.000 C 
ENDROOT
BRANCH   1   2
HETATM    2  C   UNL     1     -22.236  -7.459  -0.898  1.00  0.00     0.000 C 
BRANCH   2   3
HETATM    3  C   UNL     1     -21.853  -7.859   0.510  1.00  0.00     0.000 C 
BRANCH   3   4
HETATM    4  C   UNL     1     -22.284  -9.290   0.776  1.00  0.00     0.000 C 
BRANCH   4   5
HETATM    5  C   UNL     1     -23.407  -9.672  -0.169  1.00  0.00     0.000 C 
BRANCH   5   6
HETATM    6  C   UNL     1     -23.749 -11.141   0.003  1.00  0.00     0.000 C 
BRANCH   6   7
HETATM    7  C   UNL     1     -23.790 -11.823  -1.352  1.00  0.00     0.000 C 
BRANCH   7   8
HETATM    8  C   UNL     1     -23.033 -10.991  -2.370  1.00  0.00     0.000 C 
BRANCH   8   9
HETATM    9  C   UNL     1     -22.190 -11.895  -3.250  1.00  0.00     0.000 C 
BRANCH   9  10
HETATM   10  C   UNL     1     -20.887 -12.231  -2.548  1.00  0.00     0.000 C 
BRANCH  10  11
HETATM   11  C   UNL     1     -20.260 -10.966  -1.984  1.00  0.00    -0.000 C 
BRANCH  11  12
HETATM   12  C   UNL     1     -19.579 -11.259  -0.657  1.00  0.00    -0.005 C 
HETATM   13  C   UNL     1     -20.256 -12.425   0.031  1.00  0.00     0.005 C 
ENDBRANCH  11  12
ENDBRANCH  10  11
ENDBRANCH   9  10
ENDBRANCH   8   9
ENDBRANCH   7   8
ENDBRANCH   6   7
ENDBRANCH   5   6
ENDBRANCH   4   5
ENDBRANCH   3   4
ENDBRANCH   2   3
ENDBRANCH   1   2
BRANCH   1  14
HETATM   14  C   UNL     1     -21.344  -7.591  -3.232  1.00  0.00     0.002 C 
BRANCH  14  15
HETATM   15  C   UNL     1     -21.254  -6.303  -4.048  1.00  0.00     0.027 C 
BRANCH  15  16
HETATM   16  C   UNL     1     -22.142  -6.376  -5.279  1.00  0.00     0.178 C 
BRANCH  16  17
HETATM   17  O   UNL     1     -21.852  -5.284  -6.176  1.00  0.00    -0.321 OA
BRANCH  17  18
HETATM   18  C   UNL     1     -21.094  -5.632  -7.252  1.00  0.00     0.263 C 
HETATM   19  O   UNL     1     -20.167  -6.457  -7.205  1.00  0.00    -0.265 OA
BRANCH  18  20
HETATM   20  C   UNL     1     -21.510  -4.913  -8.531  1.00  0.00     0.085 C 
BRANCH  20  21
HETATM   21  C   UNL     1     -22.541  -3.803  -8.254  1.00  0.00     0.010 C 
HETATM   22  C   UNL     1     -23.836  -4.000  -9.017  1.00  0.00     0.006 C 
ENDBRANCH  20  21
BRANCH  20  23
HETATM   23  C   UNL     1     -20.269  -4.285  -9.200  1.00  0.00     0.014 C 
BRANCH  23  24
HETATM   24  C   UNL     1     -20.265  -4.470 -10.718  1.00  0.00     0.000 C 
BRANCH  24  25
HETATM   25  C   UNL     1     -20.867  -3.261 -11.424  1.00  0.00    -0.005 C 
HETATM   26  C   UNL     1     -22.074  -3.689 -12.239  1.00  0.00     0.005 C 
ENDBRANCH  24  25
ENDBRANCH  23  24
ENDBRANCH  20  23
ENDBRANCH  18  20
ENDBRANCH  17  18
ENDBRANCH  16  17
ENDBRANCH  15  16
ENDBRANCH  14  15
ENDBRANCH   1  14
TORSDOF 21
BEGIN_RES ARG D 557
REMARK  4 active torsions:
REMARK  status: ('A' for Active; 'I' for Inactive)
REMARK    1  A    between atoms: CA   and  CB  
REMARK    2  A    between atoms: CB   and  CG  
REMARK    3  A    between atoms: CG   and  CD  
REMARK    4  A    between atoms: CD   and  NE  
REMARK       I    between atoms: NE   and  CZ  
REMARK       I    between atoms: CZ   and  NH1 
REMARK       I    between atoms: CZ   and  NH2 
ROOT
ATOM      1  CA  ARG D 557     -26.217   2.705 -17.014  1.00 35.49     0.159 C 
ENDROOT
BRANCH   1   2
ATOM      2  CB  ARG D 557     -26.789   1.319 -17.183  1.00 35.49     0.034 C 
BRANCH   2   3
ATOM      3  CG  ARG D 557     -25.956   0.200 -16.725  1.00 35.49     0.027 C 
BRANCH   3   4
ATOM      4  CD  ARG D 557     -26.760  -0.903 -16.150  1.00 35.49     0.116 C 
BRANCH   4   5
ATOM      5  NE  ARG D 557     -26.132  -1.487 -14.995  1.00 35.49    -0.212 N 
ATOM      6  CZ  ARG D 557     -26.154  -2.761 -14.670  1.00 35.49     0.666 C 
ATOM      7  NH1 ARG D 557     -26.791  -3.665 -15.390  1.00 35.49    -0.235 N 
ATOM      8  NH2 ARG D 557     -25.510  -3.118 -13.597  1.00 35.49    -0.235 N 
ATOM      9  HH  ARG D 557     -27.220  -3.453 -16.101  1.00 35.49     0.174 HD
ATOM     10  HH  ARG D 557     -26.769  -4.481 -15.131  1.00 35.49     0.174 HD
ATOM     11  HH  ARG D 557     -25.101  -2.513 -13.156  1.00 35.49     0.174 HD
ATOM     12  HH  ARG D 557     -25.498  -3.931 -13.357  1.00 35.49     0.174 HD
ATOM     13  HE  ARG D 557     -25.759  -0.966 -14.436  1.00 35.49     0.178 HD
ENDBRANCH   4   5
ENDBRANCH   3   4
ENDBRANCH   2   3
ENDBRANCH   1   2
END_RES ARG D 557
BEGIN_RES GLU D 570
REMARK  3 active torsions:
REMARK  status: ('A' for Active; 'I' for Inactive)
REMARK    5  A    between atoms: CA   and  CB  
REMARK    6  A    between atoms: CB   and  CG  
REMARK    7  A    between atoms: CG   and  CD  
ROOT
ATOM     14  CA  GLU D 570     -18.033  -6.348 -13.375  1.00 32.92     0.160 C 
ENDROOT
BRANCH  14  15
ATOM     15  CB  GLU D 570     -19.500  -6.345 -13.794  1.00 32.92     0.043 C 
BRANCH  15  16
ATOM     16  CG  GLU D 570     -19.813  -5.935 -15.187  1.00 32.92     0.100 C 
BRANCH  16  17
ATOM     17  CD  GLU D 570     -21.284  -5.666 -15.406  1.00 32.92     0.185 C 
ATOM     18  OE1 GLU D 570     -22.120  -6.278 -14.716  1.00 32.92    -0.647 OA
ATOM     19  OE2 GLU D 570     -21.603  -4.845 -16.289  1.00 32.92    -0.647 OA
ENDBRANCH  16  17
ENDBRANCH  15  16
ENDBRANCH  14  15
END_RES GLU D 570
ENDMDL
