MODEL 1
REMARK VINA RESULT:      -7.4      0.000      0.000
REMARK  13 active torsions:
REMARK  status: ('A' for Active; 'I' for Inactive)
REMARK    1  A    between atoms: C_2  and  C_3 
REMARK    2  A    between atoms: C_3  and  C_4 
REMARK    3  A    between atoms: C_4  and  C_5 
REMARK    4  A    between atoms: C_5  and  C_6 
REMARK    5  A    between atoms: C_6  and  C_7 
REMARK    6  A    between atoms: C_7  and  C_8 
REMARK    7  A    between atoms: C_8  and  C_9 
REMARK    8  A    between atoms: C_9  and  C_10 
REMARK    9  A    between atoms: C_10  and  C_11 
REMARK   10  A    between atoms: C_11  and  C_12 
REMARK       I    between atoms: C_12  and  N_14 
REMARK   11  A    between atoms: N_14  and  C_16 
REMARK   12  A    between atoms: C_16  and  C_17 
REMARK   13  A    between atoms: C_17  and  O_19 
ROOT
HETATM    1  C   UNL     1     -20.481  -4.551  -6.139  1.00  0.00     0.009 C 
ENDROOT
BRANCH   1   2
HETATM    2  C   UNL     1     -20.146  -5.903  -6.768  1.00  0.00     0.000 C 
BRANCH   2   3
HETATM    3  C   UNL     1     -20.106  -7.003  -5.711  1.00  0.00     0.000 C 
BRANCH   3   4
HETATM    4  C   UNL     1     -21.515  -7.421  -5.299  1.00  0.00     0.000 C 
BRANCH   4   5
HETATM    5  C   UNL     1     -21.611  -7.570  -3.783  1.00  0.00     0.000 C 
BRANCH   5   6
HETATM    6  C   UNL     1     -21.550  -6.210  -3.093  1.00  0.00     0.000 C 
BRANCH   6   7
HETATM    7  C   UNL     1     -22.183  -6.274  -1.705  1.00  0.00     0.000 C 
BRANCH   7   8
HETATM    8  C   UNL     1     -21.797  -7.567  -0.990  1.00  0.00    -0.000 C 
BRANCH   8   9
HETATM    9  C   UNL     1     -22.831  -7.944   0.067  1.00  0.00    -0.005 C 
HETATM   10  C   UNL     1     -23.149  -9.429   0.017  1.00  0.00     0.005 C 
ENDBRANCH   8   9
ENDBRANCH   7   8
ENDBRANCH   6   7
ENDBRANCH   5   6
ENDBRANCH   4   5
ENDBRANCH   3   4
ENDBRANCH   2   3
ENDBRANCH   1   2
BRANCH   1  11
HETATM   11  C   UNL     1     -21.133  -3.626  -7.163  1.00  0.00     0.103 C 
BRANCH  11  12
HETATM   12  C   UNL     1     -22.416  -4.199  -7.742  1.00  0.00     0.219 C 
HETATM   13  O   UNL     1     -23.339  -4.573  -7.022  1.00  0.00    -0.273 OA
HETATM   14  N   UNL     1     -22.486  -4.307  -9.129  1.00  0.00    -0.347 N 
HETATM   15  C   UNL     1     -21.454  -3.833 -10.051  1.00  0.00     0.153 C 
BRANCH  14  16
HETATM   16  C   UNL     1     -23.773  -4.698  -9.744  1.00  0.00     0.235 C 
BRANCH  16  17
HETATM   17  C   UNL     1     -24.658  -3.511 -10.111  1.00  0.00     0.158 C 
HETATM   18  O   UNL     1     -24.938  -3.195 -11.256  1.00  0.00    -0.649 OA
BRANCH  17  19
HETATM   19  O   UNL     1     -25.050  -2.781  -9.038  1.00  0.00    -0.775 OA
HETATM   20  H   UNL     1     -25.498  -1.966  -9.340  1.00  0.00     0.167 HD
ENDBRANCH  17  19
ENDBRANCH  16  17
ENDBRANCH  14  16
ENDBRANCH  11  12
ENDBRANCH   1  11
TORSDOF 13
BEGIN_RES ARG D 557
REMARK  4 active torsions:
REMARK  status: ('A' for Active; 'I' for Inactive)
REMARK    1  A    between atoms: CA   and  CB  
REMARK    2  A    between atoms: CB   and  CG  
REMARK    3  A    between atoms: CG   and  CD  
REMARK    4  A    between atoms: CD   and  NE  
REMARK       I    between atoms: NE   and  CZ  
REMARK       I    between atoms: CZ   and  NH1 
REMARK       I    between atoms: CZ   and  NH2 
ROOT
ATOM      1  CA  ARG D 557     -26.217   2.705 -17.014  1.00 35.49     0.159 C 
ENDROOT
BRANCH   1   2
ATOM      2  CB  ARG D 557     -26.789   1.319 -17.183  1.00 35.49     0.034 C 
BRANCH   2   3
ATOM      3  CG  ARG D 557     -25.857   0.196 -17.026  1.00 35.49     0.027 C 
BRANCH   3   4
ATOM      4  CD  ARG D 557     -26.197  -0.661 -15.867  1.00 35.49     0.116 C 
BRANCH   4   5
ATOM      5  NE  ARG D 557     -25.069  -0.871 -14.998  1.00 35.49    -0.212 N 
ATOM      6  CZ  ARG D 557     -24.787  -1.985 -14.360  1.00 35.49     0.666 C 
ATOM      7  NH1 ARG D 557     -25.547  -3.061 -14.443  1.00 35.49    -0.235 N 
ATOM      8  NH2 ARG D 557     -23.709  -2.003 -13.631  1.00 35.49    -0.235 N 
ATOM      9  HH  ARG D 557     -26.260  -3.072 -14.918  1.00 35.49     0.174 HD
ATOM     10  HH  ARG D 557     -25.313  -3.760 -14.006  1.00 35.49     0.174 HD
ATOM     11  HH  ARG D 557     -23.234  -1.296 -13.602  1.00 35.49     0.174 HD
ATOM     12  HH  ARG D 557     -23.493  -2.705 -13.207  1.00 35.49     0.174 HD
ATOM     13  HE  ARG D 557     -24.565  -0.207 -14.830  1.00 35.49     0.178 HD
ENDBRANCH   4   5
ENDBRANCH   3   4
ENDBRANCH   2   3
ENDBRANCH   1   2
END_RES ARG D 557
BEGIN_RES GLU D 570
REMARK  3 active torsions:
REMARK  status: ('A' for Active; 'I' for Inactive)
REMARK    5  A    between atoms: CA   and  CB  
REMARK    6  A    between atoms: CB   and  CG  
REMARK    7  A    between atoms: CG   and  CD  
ROOT
ATOM     14  CA  GLU D 570     -18.033  -6.348 -13.375  1.00 32.92     0.160 C 
ENDROOT
BRANCH  14  15
ATOM     15  CB  GLU D 570     -19.500  -6.345 -13.794  1.00 32.92     0.043 C 
BRANCH  15  16
ATOM     16  CG  GLU D 570     -20.442  -5.533 -12.982  1.00 32.92     0.100 C 
BRANCH  16  17
ATOM     17  CD  GLU D 570     -21.676  -5.117 -13.749  1.00 32.92     0.185 C 
ATOM     18  OE1 GLU D 570     -22.740  -4.931 -13.130  1.00 32.92    -0.647 OA
ATOM     19  OE2 GLU D 570     -21.580  -4.993 -14.986  1.00 32.92    -0.647 OA
ENDBRANCH  16  17
ENDBRANCH  15  16
ENDBRANCH  14  15
END_RES GLU D 570
ENDMDL
MODEL 2
REMARK VINA RESULT:      -7.0      8.644     12.296
REMARK  13 active torsions:
REMARK  status: ('A' for Active; 'I' for Inactive)
REMARK    1  A    between atoms: C_2  and  C_3 
REMARK    2  A    between atoms: C_3  and  C_4 
REMARK    3  A    between atoms: C_4  and  C_5 
REMARK    4  A    between atoms: C_5  and  C_6 
REMARK    5  A    between atoms: C_6  and  C_7 
REMARK    6  A    between atoms: C_7  and  C_8 
REMARK    7  A    between atoms: C_8  and  C_9 
REMARK    8  A    between atoms: C_9  and  C_10 
REMARK    9  A    between atoms: C_10  and  C_11 
REMARK   10  A    between atoms: C_11  and  C_12 
REMARK       I    between atoms: C_12  and  N_14 
REMARK   11  A    between atoms: N_14  and  C_16 
REMARK   12  A    between atoms: C_16  and  C_17 
REMARK   13  A    between atoms: C_17  and  O_19 
ROOT
HETATM    1  C   UNL     1     -37.089  -0.996 -10.764  1.00  0.00     0.009 C 
ENDROOT
BRANCH   1   2
HETATM    2  C   UNL     1     -36.020  -1.966 -10.264  1.00  0.00     0.000 C 
BRANCH   2   3
HETATM    3  C   UNL     1     -34.996  -2.261 -11.356  1.00  0.00     0.000 C 
BRANCH   3   4
HETATM    4  C   UNL     1     -33.587  -2.360 -10.777  1.00  0.00     0.000 C 
BRANCH   4   5
HETATM    5  C   UNL     1     -32.814  -3.501 -11.433  1.00  0.00     0.000 C 
BRANCH   5   6
HETATM    6  C   UNL     1     -33.758  -4.603 -11.908  1.00  0.00     0.000 C 
BRANCH   6   7
HETATM    7  C   UNL     1     -33.526  -5.893 -11.125  1.00  0.00     0.000 C 
BRANCH   7   8
HETATM    8  C   UNL     1     -34.539  -6.032  -9.990  1.00  0.00    -0.000 C 
BRANCH   8   9
HETATM    9  C   UNL     1     -35.047  -7.466  -9.877  1.00  0.00    -0.005 C 
HETATM   10  C   UNL     1     -33.898  -8.458  -9.909  1.00  0.00     0.005 C 
ENDBRANCH   8   9
ENDBRANCH   7   8
ENDBRANCH   6   7
ENDBRANCH   5   6
ENDBRANCH   4   5
ENDBRANCH   3   4
ENDBRANCH   2   3
ENDBRANCH   1   2
BRANCH   1  11
HETATM   11  C   UNL     1     -36.473   0.067 -11.669  1.00  0.00     0.103 C 
BRANCH  11  12
HETATM   12  C   UNL     1     -36.868  -0.099 -13.127  1.00  0.00     0.219 C 
HETATM   13  O   UNL     1     -37.916  -0.654 -13.454  1.00  0.00    -0.273 OA
HETATM   14  N   UNL     1     -35.974   0.384 -14.079  1.00  0.00    -0.347 N 
HETATM   15  C   UNL     1     -34.739   1.103 -13.767  1.00  0.00     0.153 C 
BRANCH  14  16
HETATM   16  C   UNL     1     -36.390   0.398 -15.499  1.00  0.00     0.235 C 
BRANCH  16  17
HETATM   17  C   UNL     1     -35.944  -0.836 -16.276  1.00  0.00     0.158 C 
HETATM   18  O   UNL     1     -35.204  -1.696 -15.827  1.00  0.00    -0.649 OA
BRANCH  17  19
HETATM   19  O   UNL     1     -36.389  -0.855 -17.556  1.00  0.00    -0.775 OA
HETATM   20  H   UNL     1     -37.100  -1.520 -17.649  1.00  0.00     0.167 HD
ENDBRANCH  17  19
ENDBRANCH  16  17
ENDBRANCH  14  16
ENDBRANCH  11  12
ENDBRANCH   1  11
TORSDOF 13
BEGIN_RES ARG D 557
REMARK  4 active torsions:
REMARK  status: ('A' for Active; 'I' for Inactive)
REMARK    1  A    between atoms: CA   and  CB  
REMARK    2  A    between atoms: CB   and  CG  
REMARK    3  A    between atoms: CG   and  CD  
REMARK    4  A    between atoms: CD   and  NE  
REMARK       I    between atoms: NE   and  CZ  
REMARK       I    between atoms: CZ   and  NH1 
REMARK       I    between atoms: CZ   and  NH2 
ROOT
ATOM      1  CA  ARG D 557     -26.217   2.705 -17.014  1.00 35.49     0.159 C 
ENDROOT
BRANCH   1   2
ATOM      2  CB  ARG D 557     -26.789   1.319 -17.183  1.00 35.49     0.034 C 
BRANCH   2   3
ATOM      3  CG  ARG D 557     -25.861   0.195 -17.005  1.00 35.49     0.027 C 
BRANCH   3   4
ATOM      4  CD  ARG D 557     -26.267  -0.701 -15.898  1.00 35.49     0.116 C 
BRANCH   4   5
ATOM      5  NE  ARG D 557     -25.196  -0.928 -14.964  1.00 35.49    -0.212 N 
ATOM      6  CZ  ARG D 557     -24.988  -2.036 -14.288  1.00 35.49     0.666 C 
ATOM      7  NH1 ARG D 557     -25.778  -3.088 -14.391  1.00 35.49    -0.235 N 
ATOM      8  NH2 ARG D 557     -23.954  -2.073 -13.499  1.00 35.49    -0.235 N 
ATOM      9  HH  ARG D 557     -26.464  -3.087 -14.906  1.00 35.49     0.174 HD
ATOM     10  HH  ARG D 557     -25.592  -3.784 -13.928  1.00 35.49     0.174 HD
ATOM     11  HH  ARG D 557     -23.457  -1.381 -13.458  1.00 35.49     0.174 HD
ATOM     12  HH  ARG D 557     -23.785  -2.772 -13.050  1.00 35.49     0.174 HD
ATOM     13  HE  ARG D 557     -24.681  -0.277 -14.781  1.00 35.49     0.178 HD
ENDBRANCH   4   5
ENDBRANCH   3   4
ENDBRANCH   2   3
ENDBRANCH   1   2
END_RES ARG D 557
BEGIN_RES GLU D 570
REMARK  3 active torsions:
REMARK  status: ('A' for Active; 'I' for Inactive)
REMARK    5  A    between atoms: CA   and  CB  
REMARK    6  A    between atoms: CB   and  CG  
REMARK    7  A    between atoms: CG   and  CD  
ROOT
ATOM     14  CA  GLU D 570     -18.033  -6.348 -13.375  1.00 32.92     0.160 C 
ENDROOT
BRANCH  14  15
ATOM     15  CB  GLU D 570     -19.500  -6.345 -13.794  1.00 32.92     0.043 C 
BRANCH  15  16
ATOM     16  CG  GLU D 570     -20.442  -5.530 -12.984  1.00 32.92     0.100 C 
BRANCH  16  17
ATOM     17  CD  GLU D 570     -21.728  -5.217 -13.712  1.00 32.92     0.185 C 
ATOM     18  OE1 GLU D 570     -22.682  -4.732 -13.074  1.00 32.92    -0.647 OA
ATOM     19  OE2 GLU D 570     -21.787  -5.475 -14.931  1.00 32.92    -0.647 OA
ENDBRANCH  16  17
ENDBRANCH  15  16
ENDBRANCH  14  15
END_RES GLU D 570
ENDMDL
MODEL 3
REMARK VINA RESULT:      -6.9      8.814     12.571
REMARK  13 active torsions:
REMARK  status: ('A' for Active; 'I' for Inactive)
REMARK    1  A    between atoms: C_2  and  C_3 
REMARK    2  A    between atoms: C_3  and  C_4 
REMARK    3  A    between atoms: C_4  and  C_5 
REMARK    4  A    between atoms: C_5  and  C_6 
REMARK    5  A    between atoms: C_6  and  C_7 
REMARK    6  A    between atoms: C_7  and  C_8 
REMARK    7  A    between atoms: C_8  and  C_9 
REMARK    8  A    between atoms: C_9  and  C_10 
REMARK    9  A    between atoms: C_10  and  C_11 
REMARK   10  A    between atoms: C_11  and  C_12 
REMARK       I    between atoms: C_12  and  N_14 
REMARK   11  A    between atoms: N_14  and  C_16 
REMARK   12  A    between atoms: C_16  and  C_17 
REMARK   13  A    between atoms: C_17  and  O_19 
ROOT
HETATM    1  C   UNL     1     -36.874  -1.086 -10.805  1.00  0.00     0.009 C 
ENDROOT
BRANCH   1   2
HETATM    2  C   UNL     1     -35.642  -1.845 -10.315  1.00  0.00     0.000 C 
BRANCH   2   3
HETATM    3  C   UNL     1     -34.512  -1.772 -11.338  1.00  0.00     0.000 C 
BRANCH   3   4
HETATM    4  C   UNL     1     -33.234  -2.403 -10.793  1.00  0.00     0.000 C 
BRANCH   4   5
HETATM    5  C   UNL     1     -32.867  -3.651 -11.592  1.00  0.00     0.000 C 
BRANCH   5   6
HETATM    6  C   UNL     1     -33.997  -4.051 -12.537  1.00  0.00     0.000 C 
BRANCH   6   7
HETATM    7  C   UNL     1     -34.690  -5.321 -12.050  1.00  0.00     0.000 C 
BRANCH   7   8
HETATM    8  C   UNL     1     -33.878  -5.996 -10.946  1.00  0.00    -0.000 C 
BRANCH   8   9
HETATM    9  C   UNL     1     -34.781  -6.772  -9.992  1.00  0.00    -0.005 C 
HETATM   10  C   UNL     1     -34.390  -8.239  -9.939  1.00  0.00     0.005 C 
ENDBRANCH   8   9
ENDBRANCH   7   8
ENDBRANCH   6   7
ENDBRANCH   5   6
ENDBRANCH   4   5
ENDBRANCH   3   4
ENDBRANCH   2   3
ENDBRANCH   1   2
BRANCH   1  11
HETATM   11  C   UNL     1     -36.468   0.092 -11.686  1.00  0.00     0.103 C 
BRANCH  11  12
HETATM   12  C   UNL     1     -36.871  -0.091 -13.140  1.00  0.00     0.219 C 
HETATM   13  O   UNL     1     -37.916  -0.658 -13.453  1.00  0.00    -0.273 OA
HETATM   14  N   UNL     1     -35.987   0.388 -14.102  1.00  0.00    -0.347 N 
HETATM   15  C   UNL     1     -34.756   1.121 -13.806  1.00  0.00     0.153 C 
BRANCH  14  16
HETATM   16  C   UNL     1     -36.412   0.385 -15.519  1.00  0.00     0.235 C 
BRANCH  16  17
HETATM   17  C   UNL     1     -35.953  -0.848 -16.289  1.00  0.00     0.158 C 
HETATM   18  O   UNL     1     -35.208  -1.701 -15.833  1.00  0.00    -0.649 OA
BRANCH  17  19
HETATM   19  O   UNL     1     -36.390  -0.875 -17.572  1.00  0.00    -0.775 OA
HETATM   20  H   UNL     1     -37.091  -1.550 -17.668  1.00  0.00     0.167 HD
ENDBRANCH  17  19
ENDBRANCH  16  17
ENDBRANCH  14  16
ENDBRANCH  11  12
ENDBRANCH   1  11
TORSDOF 13
BEGIN_RES ARG D 557
REMARK  4 active torsions:
REMARK  status: ('A' for Active; 'I' for Inactive)
REMARK    1  A    between atoms: CA   and  CB  
REMARK    2  A    between atoms: CB   and  CG  
REMARK    3  A    between atoms: CG   and  CD  
REMARK    4  A    between atoms: CD   and  NE  
REMARK       I    between atoms: NE   and  CZ  
REMARK       I    between atoms: CZ   and  NH1 
REMARK       I    between atoms: CZ   and  NH2 
ROOT
ATOM      1  CA  ARG D 557     -26.217   2.705 -17.014  1.00 35.49     0.159 C 
ENDROOT
BRANCH   1   2
ATOM      2  CB  ARG D 557     -26.789   1.319 -17.183  1.00 35.49     0.034 C 
BRANCH   2   3
ATOM      3  CG  ARG D 557     -28.153   1.102 -16.686  1.00 35.49     0.027 C 
BRANCH   3   4
ATOM      4  CD  ARG D 557     -28.788  -0.094 -17.285  1.00 35.49     0.116 C 
BRANCH   4   5
ATOM      5  NE  ARG D 557     -28.170  -1.316 -16.841  1.00 35.49    -0.212 N 
ATOM      6  CZ  ARG D 557     -28.644  -2.528 -17.025  1.00 35.49     0.666 C 
ATOM      7  NH1 ARG D 557     -29.786  -2.755 -17.647  1.00 35.49    -0.235 N 
ATOM      8  NH2 ARG D 557     -27.938  -3.523 -16.573  1.00 35.49    -0.235 N 
ATOM      9  HH  ARG D 557     -30.266  -2.115 -17.954  1.00 35.49     0.174 HD
ATOM     10  HH  ARG D 557     -30.044  -3.567 -17.740  1.00 35.49     0.174 HD
ATOM     11  HH  ARG D 557     -27.201  -3.346 -16.182  1.00 35.49     0.174 HD
ATOM     12  HH  ARG D 557     -28.210  -4.320 -16.676  1.00 35.49     0.174 HD
ATOM     13  HE  ARG D 557     -27.466  -1.258 -16.367  1.00 35.49     0.178 HD
ENDBRANCH   4   5
ENDBRANCH   3   4
ENDBRANCH   2   3
ENDBRANCH   1   2
END_RES ARG D 557
BEGIN_RES GLU D 570
REMARK  3 active torsions:
REMARK  status: ('A' for Active; 'I' for Inactive)
REMARK    5  A    between atoms: CA   and  CB  
REMARK    6  A    between atoms: CB   and  CG  
REMARK    7  A    between atoms: CG   and  CD  
ROOT
ATOM     14  CA  GLU D 570     -18.033  -6.348 -13.375  1.00 32.92     0.160 C 
ENDROOT
BRANCH  14  15
ATOM     15  CB  GLU D 570     -19.500  -6.345 -13.794  1.00 32.92     0.043 C 
BRANCH  15  16
ATOM     16  CG  GLU D 570     -20.047  -7.596 -14.379  1.00 32.92     0.100 C 
BRANCH  16  17
ATOM     17  CD  GLU D 570     -20.769  -7.368 -15.687  1.00 32.92     0.185 C 
ATOM     18  OE1 GLU D 570     -20.522  -6.339 -16.343  1.00 32.92    -0.647 OA
ATOM     19  OE2 GLU D 570     -21.604  -8.221 -16.050  1.00 32.92    -0.647 OA
ENDBRANCH  16  17
ENDBRANCH  15  16
ENDBRANCH  14  15
END_RES GLU D 570
ENDMDL
MODEL 4
REMARK VINA RESULT:      -6.9      2.147      3.503
REMARK  13 active torsions:
REMARK  status: ('A' for Active; 'I' for Inactive)
REMARK    1  A    between atoms: C_2  and  C_3 
REMARK    2  A    between atoms: C_3  and  C_4 
REMARK    3  A    between atoms: C_4  and  C_5 
REMARK    4  A    between atoms: C_5  and  C_6 
REMARK    5  A    between atoms: C_6  and  C_7 
REMARK    6  A    between atoms: C_7  and  C_8 
REMARK    7  A    between atoms: C_8  and  C_9 
REMARK    8  A    between atoms: C_9  and  C_10 
REMARK    9  A    between atoms: C_10  and  C_11 
REMARK   10  A    between atoms: C_11  and  C_12 
REMARK       I    between atoms: C_12  and  N_14 
REMARK   11  A    between atoms: N_14  and  C_16 
REMARK   12  A    between atoms: C_16  and  C_17 
REMARK   13  A    between atoms: C_17  and  O_19 
ROOT
HETATM    1  C   UNL     1     -22.288  -3.679  -9.056  1.00  0.00     0.009 C 
ENDROOT
BRANCH   1   2
HETATM    2  C   UNL     1     -20.963  -4.431  -9.177  1.00  0.00     0.000 C 
BRANCH   2   3
HETATM    3  C   UNL     1     -20.653  -5.202  -7.897  1.00  0.00     0.000 C 
BRANCH   3   4
HETATM    4  C   UNL     1     -20.585  -4.265  -6.694  1.00  0.00     0.000 C 
BRANCH   4   5
HETATM    5  C   UNL     1     -20.369  -5.056  -5.406  1.00  0.00     0.000 C 
BRANCH   5   6
HETATM    6  C   UNL     1     -21.018  -6.435  -5.494  1.00  0.00     0.000 C 
BRANCH   6   7
HETATM    7  C   UNL     1     -22.035  -6.630  -4.372  1.00  0.00     0.000 C 
BRANCH   7   8
HETATM    8  C   UNL     1     -21.339  -6.744  -3.018  1.00  0.00    -0.000 C 
BRANCH   8   9
HETATM    9  C   UNL     1     -22.214  -6.190  -1.898  1.00  0.00    -0.005 C 
HETATM   10  C   UNL     1     -22.230  -7.126  -0.702  1.00  0.00     0.005 C 
ENDBRANCH   8   9
ENDBRANCH   7   8
ENDBRANCH   6   7
ENDBRANCH   5   6
ENDBRANCH   4   5
ENDBRANCH   3   4
ENDBRANCH   2   3
ENDBRANCH   1   2
BRANCH   1  11
HETATM   11  C   UNL     1     -23.433  -4.508  -9.631  1.00  0.00     0.103 C 
BRANCH  11  12
HETATM   12  C   UNL     1     -24.305  -3.719 -10.594  1.00  0.00     0.219 C 
HETATM   13  O   UNL     1     -25.311  -3.122 -10.215  1.00  0.00    -0.273 OA
HETATM   14  N   UNL     1     -23.927  -3.727 -11.935  1.00  0.00    -0.347 N 
HETATM   15  C   UNL     1     -22.717  -4.366 -12.451  1.00  0.00     0.153 C 
BRANCH  14  16
HETATM   16  C   UNL     1     -24.643  -2.840 -12.877  1.00  0.00     0.235 C 
BRANCH  16  17
HETATM   17  C   UNL     1     -24.498  -3.260 -14.337  1.00  0.00     0.158 C 
HETATM   18  O   UNL     1     -25.202  -4.096 -14.880  1.00  0.00    -0.649 OA
BRANCH  17  19
HETATM   19  O   UNL     1     -23.453  -2.668 -14.965  1.00  0.00    -0.775 OA
HETATM   20  H   UNL     1     -22.704  -3.295 -15.021  1.00  0.00     0.167 HD
ENDBRANCH  17  19
ENDBRANCH  16  17
ENDBRANCH  14  16
ENDBRANCH  11  12
ENDBRANCH   1  11
TORSDOF 13
BEGIN_RES ARG D 557
REMARK  4 active torsions:
REMARK  status: ('A' for Active; 'I' for Inactive)
REMARK    1  A    between atoms: CA   and  CB  
REMARK    2  A    between atoms: CB   and  CG  
REMARK    3  A    between atoms: CG   and  CD  
REMARK    4  A    between atoms: CD   and  NE  
REMARK       I    between atoms: NE   and  CZ  
REMARK       I    between atoms: CZ   and  NH1 
REMARK       I    between atoms: CZ   and  NH2 
ROOT
ATOM      1  CA  ARG D 557     -26.217   2.705 -17.014  1.00 35.49     0.159 C 
ENDROOT
BRANCH   1   2
ATOM      2  CB  ARG D 557     -26.789   1.319 -17.183  1.00 35.49     0.034 C 
BRANCH   2   3
ATOM      3  CG  ARG D 557     -28.239   1.223 -17.388  1.00 35.49     0.027 C 
BRANCH   3   4
ATOM      4  CD  ARG D 557     -28.877   0.256 -16.465  1.00 35.49     0.116 C 
BRANCH   4   5
ATOM      5  NE  ARG D 557     -29.214  -0.979 -17.123  1.00 35.49    -0.212 N 
ATOM      6  CZ  ARG D 557     -28.565  -2.115 -17.002  1.00 35.49     0.666 C 
ATOM      7  NH1 ARG D 557     -27.488  -2.240 -16.249  1.00 35.49    -0.235 N 
ATOM      8  NH2 ARG D 557     -29.026  -3.142 -17.656  1.00 35.49    -0.235 N 
ATOM      9  HH  ARG D 557     -27.169  -1.578 -15.808  1.00 35.49     0.174 HD
ATOM     10  HH  ARG D 557     -27.108  -3.007 -16.207  1.00 35.49     0.174 HD
ATOM     11  HH  ARG D 557     -29.727  -3.033 -18.129  1.00 35.49     0.174 HD
ATOM     12  HH  ARG D 557     -28.636  -3.893 -17.601  1.00 35.49     0.174 HD
ATOM     13  HE  ARG D 557     -29.853  -0.971 -17.685  1.00 35.49     0.178 HD
ENDBRANCH   4   5
ENDBRANCH   3   4
ENDBRANCH   2   3
ENDBRANCH   1   2
END_RES ARG D 557
BEGIN_RES GLU D 570
REMARK  3 active torsions:
REMARK  status: ('A' for Active; 'I' for Inactive)
REMARK    5  A    between atoms: CA   and  CB  
REMARK    6  A    between atoms: CB   and  CG  
REMARK    7  A    between atoms: CG   and  CD  
ROOT
ATOM     14  CA  GLU D 570     -18.033  -6.348 -13.375  1.00 32.92     0.160 C 
ENDROOT
BRANCH  14  15
ATOM     15  CB  GLU D 570     -19.500  -6.345 -13.794  1.00 32.92     0.043 C 
BRANCH  15  16
ATOM     16  CG  GLU D 570     -19.807  -6.019 -15.211  1.00 32.92     0.100 C 
BRANCH  16  17
ATOM     17  CD  GLU D 570     -21.280  -5.791 -15.457  1.00 32.92     0.185 C 
ATOM     18  OE1 GLU D 570     -22.103  -6.608 -15.002  1.00 32.92    -0.647 OA
ATOM     19  OE2 GLU D 570     -21.613  -4.794 -16.128  1.00 32.92    -0.647 OA
ENDBRANCH  16  17
ENDBRANCH  15  16
ENDBRANCH  14  15
END_RES GLU D 570
ENDMDL
MODEL 5
REMARK VINA RESULT:      -6.9      2.506      4.330
REMARK  13 active torsions:
REMARK  status: ('A' for Active; 'I' for Inactive)
REMARK    1  A    between atoms: C_2  and  C_3 
REMARK    2  A    between atoms: C_3  and  C_4 
REMARK    3  A    between atoms: C_4  and  C_5 
REMARK    4  A    between atoms: C_5  and  C_6 
REMARK    5  A    between atoms: C_6  and  C_7 
REMARK    6  A    between atoms: C_7  and  C_8 
REMARK    7  A    between atoms: C_8  and  C_9 
REMARK    8  A    between atoms: C_9  and  C_10 
REMARK    9  A    between atoms: C_10  and  C_11 
REMARK   10  A    between atoms: C_11  and  C_12 
REMARK       I    between atoms: C_12  and  N_14 
REMARK   11  A    between atoms: N_14  and  C_16 
REMARK   12  A    between atoms: C_16  and  C_17 
REMARK   13  A    between atoms: C_17  and  O_19 
ROOT
HETATM    1  C   UNL     1     -20.709  -4.302 -11.152  1.00  0.00     0.009 C 
ENDROOT
BRANCH   1   2
HETATM    2  C   UNL     1     -20.573  -4.176  -9.635  1.00  0.00     0.000 C 
BRANCH   2   3
HETATM    3  C   UNL     1     -21.940  -4.025  -8.975  1.00  0.00     0.000 C 
BRANCH   3   4
HETATM    4  C   UNL     1     -21.810  -3.919  -7.458  1.00  0.00     0.000 C 
BRANCH   4   5
HETATM    5  C   UNL     1     -20.398  -4.291  -7.012  1.00  0.00     0.000 C 
BRANCH   5   6
HETATM    6  C   UNL     1     -20.400  -4.848  -5.591  1.00  0.00     0.000 C 
BRANCH   6   7
HETATM    7  C   UNL     1     -20.664  -6.352  -5.596  1.00  0.00     0.000 C 
BRANCH   7   8
HETATM    8  C   UNL     1     -21.812  -6.707  -4.654  1.00  0.00    -0.000 C 
BRANCH   8   9
HETATM    9  C   UNL     1     -21.300  -7.010  -3.249  1.00  0.00    -0.005 C 
HETATM   10  C   UNL     1     -22.000  -6.146  -2.214  1.00  0.00     0.005 C 
ENDBRANCH   8   9
ENDBRANCH   7   8
ENDBRANCH   6   7
ENDBRANCH   5   6
ENDBRANCH   4   5
ENDBRANCH   3   4
ENDBRANCH   2   3
ENDBRANCH   1   2
BRANCH   1  11
HETATM   11  C   UNL     1     -22.178  -4.377 -11.558  1.00  0.00     0.103 C 
BRANCH  11  12
HETATM   12  C   UNL     1     -22.615  -3.199 -12.413  1.00  0.00     0.219 C 
HETATM   13  O   UNL     1     -22.615  -2.049 -11.977  1.00  0.00    -0.273 OA
HETATM   14  N   UNL     1     -23.041  -3.486 -13.707  1.00  0.00    -0.347 N 
HETATM   15  C   UNL     1     -23.016  -4.818 -14.312  1.00  0.00     0.153 C 
BRANCH  14  16
HETATM   16  C   UNL     1     -23.313  -2.362 -14.629  1.00  0.00     0.235 C 
BRANCH  16  17
HETATM   17  C   UNL     1     -24.763  -1.889 -14.601  1.00  0.00     0.158 C 
HETATM   18  O   UNL     1     -25.727  -2.637 -14.635  1.00  0.00    -0.649 OA
BRANCH  17  19
HETATM   19  O   UNL     1     -24.888  -0.540 -14.614  1.00  0.00    -0.775 OA
HETATM   20  H   UNL     1     -25.033  -0.230 -15.530  1.00  0.00     0.167 HD
ENDBRANCH  17  19
ENDBRANCH  16  17
ENDBRANCH  14  16
ENDBRANCH  11  12
ENDBRANCH   1  11
TORSDOF 13
BEGIN_RES ARG D 557
REMARK  4 active torsions:
REMARK  status: ('A' for Active; 'I' for Inactive)
REMARK    1  A    between atoms: CA   and  CB  
REMARK    2  A    between atoms: CB   and  CG  
REMARK    3  A    between atoms: CG   and  CD  
REMARK    4  A    between atoms: CD   and  NE  
REMARK       I    between atoms: NE   and  CZ  
REMARK       I    between atoms: CZ   and  NH1 
REMARK       I    between atoms: CZ   and  NH2 
ROOT
ATOM      1  CA  ARG D 557     -26.217   2.705 -17.014  1.00 35.49     0.159 C 
ENDROOT
BRANCH   1   2
ATOM      2  CB  ARG D 557     -26.789   1.319 -17.183  1.00 35.49     0.034 C 
BRANCH   2   3
ATOM      3  CG  ARG D 557     -28.147   1.098 -16.672  1.00 35.49     0.027 C 
BRANCH   3   4
ATOM      4  CD  ARG D 557     -28.782  -0.105 -17.258  1.00 35.49     0.116 C 
BRANCH   4   5
ATOM      5  NE  ARG D 557     -28.152  -1.321 -16.815  1.00 35.49    -0.212 N 
ATOM      6  CZ  ARG D 557     -28.613  -2.537 -17.004  1.00 35.49     0.666 C 
ATOM      7  NH1 ARG D 557     -29.750  -2.775 -17.631  1.00 35.49    -0.235 N 
ATOM      8  NH2 ARG D 557     -27.899  -3.526 -16.552  1.00 35.49    -0.235 N 
ATOM      9  HH  ARG D 557     -30.235  -2.139 -17.939  1.00 35.49     0.174 HD
ATOM     10  HH  ARG D 557     -29.999  -3.589 -17.727  1.00 35.49     0.174 HD
ATOM     11  HH  ARG D 557     -27.165  -3.343 -16.158  1.00 35.49     0.174 HD
ATOM     12  HH  ARG D 557     -28.161  -4.326 -16.658  1.00 35.49     0.174 HD
ATOM     13  HE  ARG D 557     -27.451  -1.257 -16.339  1.00 35.49     0.178 HD
ENDBRANCH   4   5
ENDBRANCH   3   4
ENDBRANCH   2   3
ENDBRANCH   1   2
END_RES ARG D 557
BEGIN_RES GLU D 570
REMARK  3 active torsions:
REMARK  status: ('A' for Active; 'I' for Inactive)
REMARK    5  A    between atoms: CA   and  CB  
REMARK    6  A    between atoms: CB   and  CG  
REMARK    7  A    between atoms: CG   and  CD  
ROOT
ATOM     14  CA  GLU D 570     -18.033  -6.348 -13.375  1.00 32.92     0.160 C 
ENDROOT
BRANCH  14  15
ATOM     15  CB  GLU D 570     -19.500  -6.345 -13.794  1.00 32.92     0.043 C 
BRANCH  15  16
ATOM     16  CG  GLU D 570     -20.085  -7.633 -14.248  1.00 32.92     0.100 C 
BRANCH  16  17
ATOM     17  CD  GLU D 570     -20.660  -7.560 -15.643  1.00 32.92     0.185 C 
ATOM     18  OE1 GLU D 570     -21.208  -8.570 -16.125  1.00 32.92    -0.647 OA
ATOM     19  OE2 GLU D 570     -20.547  -6.487 -16.267  1.00 32.92    -0.647 OA
ENDBRANCH  16  17
ENDBRANCH  15  16
ENDBRANCH  14  15
END_RES GLU D 570
ENDMDL
MODEL 6
REMARK VINA RESULT:      -6.3      4.347      6.595
REMARK  13 active torsions:
REMARK  status: ('A' for Active; 'I' for Inactive)
REMARK    1  A    between atoms: C_2  and  C_3 
REMARK    2  A    between atoms: C_3  and  C_4 
REMARK    3  A    between atoms: C_4  and  C_5 
REMARK    4  A    between atoms: C_5  and  C_6 
REMARK    5  A    between atoms: C_6  and  C_7 
REMARK    6  A    between atoms: C_7  and  C_8 
REMARK    7  A    between atoms: C_8  and  C_9 
REMARK    8  A    between atoms: C_9  and  C_10 
REMARK    9  A    between atoms: C_10  and  C_11 
REMARK   10  A    between atoms: C_11  and  C_12 
REMARK       I    between atoms: C_12  and  N_14 
REMARK   11  A    between atoms: N_14  and  C_16 
REMARK   12  A    between atoms: C_16  and  C_17 
REMARK   13  A    between atoms: C_17  and  O_19 
ROOT
HETATM    1  C   UNL     1     -22.644  -4.044 -14.197  1.00  0.00     0.009 C 
ENDROOT
BRANCH   1   2
HETATM    2  C   UNL     1     -22.428  -3.814 -12.702  1.00  0.00     0.000 C 
BRANCH   2   3
HETATM    3  C   UNL     1     -23.080  -4.921 -11.878  1.00  0.00     0.000 C 
BRANCH   3   4
HETATM    4  C   UNL     1     -23.934  -4.340 -10.755  1.00  0.00     0.000 C 
BRANCH   4   5
HETATM    5  C   UNL     1     -23.070  -3.555  -9.771  1.00  0.00     0.000 C 
BRANCH   5   6
HETATM    6  C   UNL     1     -23.219  -4.101  -8.354  1.00  0.00     0.000 C 
BRANCH   6   7
HETATM    7  C   UNL     1     -21.911  -4.724  -7.871  1.00  0.00     0.000 C 
BRANCH   7   8
HETATM    8  C   UNL     1     -20.753  -4.344  -8.792  1.00  0.00    -0.000 C 
BRANCH   8   9
HETATM    9  C   UNL     1     -19.434  -4.287  -8.026  1.00  0.00    -0.005 C 
HETATM   10  C   UNL     1     -19.612  -4.762  -6.594  1.00  0.00     0.005 C 
ENDBRANCH   8   9
ENDBRANCH   7   8
ENDBRANCH   6   7
ENDBRANCH   5   6
ENDBRANCH   4   5
ENDBRANCH   3   4
ENDBRANCH   2   3
ENDBRANCH   1   2
BRANCH   1  11
HETATM   11  C   UNL     1     -23.346  -5.377 -14.441  1.00  0.00     0.103 C 
BRANCH  11  12
HETATM   12  C   UNL     1     -24.728  -5.212 -15.053  1.00  0.00     0.219 C 
HETATM   13  O   UNL     1     -25.390  -4.189 -14.887  1.00  0.00    -0.273 OA
HETATM   14  N   UNL     1     -25.222  -6.286 -15.787  1.00  0.00    -0.347 N 
HETATM   15  C   UNL     1     -24.473  -7.510 -16.073  1.00  0.00     0.153 C 
BRANCH  14  16
HETATM   16  C   UNL     1     -26.483  -6.110 -16.539  1.00  0.00     0.235 C 
BRANCH  16  17
HETATM   17  C   UNL     1     -27.730  -6.431 -15.721  1.00  0.00     0.158 C 
HETATM   18  O   UNL     1     -27.908  -7.485 -15.133  1.00  0.00    -0.649 OA
BRANCH  17  19
HETATM   19  O   UNL     1     -28.671  -5.456 -15.769  1.00  0.00    -0.775 OA
HETATM   20  H   UNL     1     -28.321  -4.639 -15.360  1.00  0.00     0.167 HD
ENDBRANCH  17  19
ENDBRANCH  16  17
ENDBRANCH  14  16
ENDBRANCH  11  12
ENDBRANCH   1  11
TORSDOF 13
BEGIN_RES ARG D 557
REMARK  4 active torsions:
REMARK  status: ('A' for Active; 'I' for Inactive)
REMARK    1  A    between atoms: CA   and  CB  
REMARK    2  A    between atoms: CB   and  CG  
REMARK    3  A    between atoms: CG   and  CD  
REMARK    4  A    between atoms: CD   and  NE  
REMARK       I    between atoms: NE   and  CZ  
REMARK       I    between atoms: CZ   and  NH1 
REMARK       I    between atoms: CZ   and  NH2 
ROOT
ATOM      1  CA  ARG D 557     -26.217   2.705 -17.014  1.00 35.49     0.159 C 
ENDROOT
BRANCH   1   2
ATOM      2  CB  ARG D 557     -26.789   1.319 -17.183  1.00 35.49     0.034 C 
BRANCH   2   3
ATOM      3  CG  ARG D 557     -28.249   1.216 -17.293  1.00 35.49     0.027 C 
BRANCH   3   4
ATOM      4  CD  ARG D 557     -28.811   0.183 -16.393  1.00 35.49     0.116 C 
BRANCH   4   5
ATOM      5  NE  ARG D 557     -29.237  -0.989 -17.112  1.00 35.49    -0.212 N 
ATOM      6  CZ  ARG D 557     -28.676  -2.176 -17.048  1.00 35.49     0.666 C 
ATOM      7  NH1 ARG D 557     -27.615  -2.419 -16.301  1.00 35.49    -0.235 N 
ATOM      8  NH2 ARG D 557     -29.210  -3.131 -17.753  1.00 35.49    -0.235 N 
ATOM      9  HH  ARG D 557     -27.249  -1.806 -15.828  1.00 35.49     0.174 HD
ATOM     10  HH  ARG D 557     -27.294  -3.214 -16.298  1.00 35.49     0.174 HD
ATOM     11  HH  ARG D 557     -29.899  -2.946 -18.221  1.00 35.49     0.174 HD
ATOM     12  HH  ARG D 557     -28.878  -3.911 -17.735  1.00 35.49     0.174 HD
ATOM     13  HE  ARG D 557     -29.871  -0.905 -17.673  1.00 35.49     0.178 HD
ENDBRANCH   4   5
ENDBRANCH   3   4
ENDBRANCH   2   3
ENDBRANCH   1   2
END_RES ARG D 557
BEGIN_RES GLU D 570
REMARK  3 active torsions:
REMARK  status: ('A' for Active; 'I' for Inactive)
REMARK    5  A    between atoms: CA   and  CB  
REMARK    6  A    between atoms: CB   and  CG  
REMARK    7  A    between atoms: CG   and  CD  
ROOT
ATOM     14  CA  GLU D 570     -18.033  -6.348 -13.375  1.00 32.92     0.160 C 
ENDROOT
BRANCH  14  15
ATOM     15  CB  GLU D 570     -19.500  -6.345 -13.794  1.00 32.92     0.043 C 
BRANCH  15  16
ATOM     16  CG  GLU D 570     -20.101  -7.644 -14.192  1.00 32.92     0.100 C 
BRANCH  16  17
ATOM     17  CD  GLU D 570     -20.544  -7.671 -15.636  1.00 32.92     0.185 C 
ATOM     18  OE1 GLU D 570     -20.755  -8.770 -16.184  1.00 32.92    -0.647 OA
ATOM     19  OE2 GLU D 570     -20.666  -6.582 -16.231  1.00 32.92    -0.647 OA
ENDBRANCH  16  17
ENDBRANCH  15  16
ENDBRANCH  14  15
END_RES GLU D 570
ENDMDL
MODEL 7
REMARK VINA RESULT:      -6.1      5.215      7.860
REMARK  13 active torsions:
REMARK  status: ('A' for Active; 'I' for Inactive)
REMARK    1  A    between atoms: C_2  and  C_3 
REMARK    2  A    between atoms: C_3  and  C_4 
REMARK    3  A    between atoms: C_4  and  C_5 
REMARK    4  A    between atoms: C_5  and  C_6 
REMARK    5  A    between atoms: C_6  and  C_7 
REMARK    6  A    between atoms: C_7  and  C_8 
REMARK    7  A    between atoms: C_8  and  C_9 
REMARK    8  A    between atoms: C_9  and  C_10 
REMARK    9  A    between atoms: C_10  and  C_11 
REMARK   10  A    between atoms: C_11  and  C_12 
REMARK       I    between atoms: C_12  and  N_14 
REMARK   11  A    between atoms: N_14  and  C_16 
REMARK   12  A    between atoms: C_16  and  C_17 
REMARK   13  A    between atoms: C_17  and  O_19 
ROOT
HETATM    1  C   UNL     1     -25.086  -5.712 -15.137  1.00  0.00     0.009 C 
ENDROOT
BRANCH   1   2
HETATM    2  C   UNL     1     -23.777  -6.242 -14.553  1.00  0.00     0.000 C 
BRANCH   2   3
HETATM    3  C   UNL     1     -22.944  -5.108 -13.961  1.00  0.00     0.000 C 
BRANCH   3   4
HETATM    4  C   UNL     1     -23.653  -4.470 -12.770  1.00  0.00     0.000 C 
BRANCH   4   5
HETATM    5  C   UNL     1     -22.774  -4.532 -11.523  1.00  0.00     0.000 C 
BRANCH   5   6
HETATM    6  C   UNL     1     -22.027  -3.218 -11.312  1.00  0.00     0.000 C 
BRANCH   6   7
HETATM    7  C   UNL     1     -20.536  -3.469 -11.096  1.00  0.00     0.000 C 
BRANCH   7   8
HETATM    8  C   UNL     1     -20.313  -4.630 -10.129  1.00  0.00    -0.000 C 
BRANCH   8   9
HETATM    9  C   UNL     1     -20.598  -4.211  -8.690  1.00  0.00    -0.005 C 
HETATM   10  C   UNL     1     -19.354  -4.337  -7.827  1.00  0.00     0.005 C 
ENDBRANCH   8   9
ENDBRANCH   7   8
ENDBRANCH   6   7
ENDBRANCH   5   6
ENDBRANCH   4   5
ENDBRANCH   3   4
ENDBRANCH   2   3
ENDBRANCH   1   2
BRANCH   1  11
HETATM   11  C   UNL     1     -25.624  -6.661 -16.204  1.00  0.00     0.103 C 
BRANCH  11  12
HETATM   12  C   UNL     1     -27.087  -7.018 -15.992  1.00  0.00     0.219 C 
HETATM   13  O   UNL     1     -27.469  -7.606 -14.983  1.00  0.00    -0.273 OA
HETATM   14  N   UNL     1     -27.972  -6.670 -17.010  1.00  0.00    -0.347 N 
HETATM   15  C   UNL     1     -27.601  -5.921 -18.211  1.00  0.00     0.153 C 
BRANCH  14  16
HETATM   16  C   UNL     1     -29.422  -6.842 -16.776  1.00  0.00     0.235 C 
BRANCH  16  17
HETATM   17  C   UNL     1     -30.078  -5.638 -16.109  1.00  0.00     0.158 C 
HETATM   18  O   UNL     1     -30.670  -4.759 -16.715  1.00  0.00    -0.649 OA
BRANCH  17  19
HETATM   19  O   UNL     1     -29.877  -5.590 -14.770  1.00  0.00    -0.775 OA
HETATM   20  H   UNL     1     -29.563  -6.460 -14.451  1.00  0.00     0.167 HD
ENDBRANCH  17  19
ENDBRANCH  16  17
ENDBRANCH  14  16
ENDBRANCH  11  12
ENDBRANCH   1  11
TORSDOF 13
BEGIN_RES ARG D 557
REMARK  4 active torsions:
REMARK  status: ('A' for Active; 'I' for Inactive)
REMARK    1  A    between atoms: CA   and  CB  
REMARK    2  A    between atoms: CB   and  CG  
REMARK    3  A    between atoms: CG   and  CD  
REMARK    4  A    between atoms: CD   and  NE  
REMARK       I    between atoms: NE   and  CZ  
REMARK       I    between atoms: CZ   and  NH1 
REMARK       I    between atoms: CZ   and  NH2 
ROOT
ATOM      1  CA  ARG D 557     -26.217   2.705 -17.014  1.00 35.49     0.159 C 
ENDROOT
BRANCH   1   2
ATOM      2  CB  ARG D 557     -26.789   1.319 -17.183  1.00 35.49     0.034 C 
BRANCH   2   3
ATOM      3  CG  ARG D 557     -28.229   1.227 -17.454  1.00 35.49     0.027 C 
BRANCH   3   4
ATOM      4  CD  ARG D 557     -28.915   0.280 -16.544  1.00 35.49     0.116 C 
BRANCH   4   5
ATOM      5  NE  ARG D 557     -28.091  -0.855 -16.222  1.00 35.49    -0.212 N 
ATOM      6  CZ  ARG D 557     -28.267  -2.081 -16.660  1.00 35.49     0.666 C 
ATOM      7  NH1 ARG D 557     -29.264  -2.412 -17.460  1.00 35.49    -0.235 N 
ATOM      8  NH2 ARG D 557     -27.409  -2.983 -16.281  1.00 35.49    -0.235 N 
ATOM      9  HH  ARG D 557     -29.839  -1.834 -17.723  1.00 35.49     0.174 HD
ATOM     10  HH  ARG D 557     -29.327  -3.227 -17.716  1.00 35.49     0.174 HD
ATOM     11  HH  ARG D 557     -26.771  -2.739 -15.770  1.00 35.49     0.174 HD
ATOM     12  HH  ARG D 557     -27.488  -3.785 -16.546  1.00 35.49     0.174 HD
ATOM     13  HE  ARG D 557     -27.467  -0.747 -15.654  1.00 35.49     0.178 HD
ENDBRANCH   4   5
ENDBRANCH   3   4
ENDBRANCH   2   3
ENDBRANCH   1   2
END_RES ARG D 557
BEGIN_RES GLU D 570
REMARK  3 active torsions:
REMARK  status: ('A' for Active; 'I' for Inactive)
REMARK    5  A    between atoms: CA   and  CB  
REMARK    6  A    between atoms: CB   and  CG  
REMARK    7  A    between atoms: CG   and  CD  
ROOT
ATOM     14  CA  GLU D 570     -18.033  -6.348 -13.375  1.00 32.92     0.160 C 
ENDROOT
BRANCH  14  15
ATOM     15  CB  GLU D 570     -19.500  -6.345 -13.794  1.00 32.92     0.043 C 
BRANCH  15  16
ATOM     16  CG  GLU D 570     -20.088  -7.635 -14.238  1.00 32.92     0.100 C 
BRANCH  16  17
ATOM     17  CD  GLU D 570     -20.630  -7.582 -15.647  1.00 32.92     0.185 C 
ATOM     18  OE1 GLU D 570     -20.555  -6.515 -16.284  1.00 32.92    -0.647 OA
ATOM     19  OE2 GLU D 570     -21.151  -8.615 -16.112  1.00 32.92    -0.647 OA
ENDBRANCH  16  17
ENDBRANCH  15  16
ENDBRANCH  14  15
END_RES GLU D 570
ENDMDL
MODEL 8
REMARK VINA RESULT:      -5.9      3.482      6.887
REMARK  13 active torsions:
REMARK  status: ('A' for Active; 'I' for Inactive)
REMARK    1  A    between atoms: C_2  and  C_3 
REMARK    2  A    between atoms: C_3  and  C_4 
REMARK    3  A    between atoms: C_4  and  C_5 
REMARK    4  A    between atoms: C_5  and  C_6 
REMARK    5  A    between atoms: C_6  and  C_7 
REMARK    6  A    between atoms: C_7  and  C_8 
REMARK    7  A    between atoms: C_8  and  C_9 
REMARK    8  A    between atoms: C_9  and  C_10 
REMARK    9  A    between atoms: C_10  and  C_11 
REMARK   10  A    between atoms: C_11  and  C_12 
REMARK       I    between atoms: C_12  and  N_14 
REMARK   11  A    between atoms: N_14  and  C_16 
REMARK   12  A    between atoms: C_16  and  C_17 
REMARK   13  A    between atoms: C_17  and  O_19 
ROOT
HETATM    1  C   UNL     1     -22.377  -6.471  -4.816  1.00  0.00     0.009 C 
ENDROOT
BRANCH   1   2
HETATM    2  C   UNL     1     -21.814  -5.655  -5.978  1.00  0.00     0.000 C 
BRANCH   2   3
HETATM    3  C   UNL     1     -20.464  -5.044  -5.614  1.00  0.00     0.000 C 
BRANCH   3   4
HETATM    4  C   UNL     1     -19.681  -4.656  -6.865  1.00  0.00     0.000 C 
BRANCH   4   5
HETATM    5  C   UNL     1     -20.240  -5.368  -8.094  1.00  0.00     0.000 C 
BRANCH   5   6
HETATM    6  C   UNL     1     -20.019  -4.541  -9.357  1.00  0.00     0.000 C 
BRANCH   6   7
HETATM    7  C   UNL     1     -21.330  -3.923  -9.839  1.00  0.00     0.000 C 
BRANCH   7   8
HETATM    8  C   UNL     1     -22.519  -4.804  -9.463  1.00  0.00    -0.000 C 
BRANCH   8   9
HETATM    9  C   UNL     1     -23.621  -3.988  -8.794  1.00  0.00    -0.005 C 
HETATM   10  C   UNL     1     -24.557  -3.383  -9.826  1.00  0.00     0.005 C 
ENDBRANCH   8   9
ENDBRANCH   7   8
ENDBRANCH   6   7
ENDBRANCH   5   6
ENDBRANCH   4   5
ENDBRANCH   3   4
ENDBRANCH   2   3
ENDBRANCH   1   2
BRANCH   1  11
HETATM   11  C   UNL     1     -21.253  -6.968  -3.911  1.00  0.00     0.103 C 
BRANCH  11  12
HETATM   12  C   UNL     1     -21.612  -6.906  -2.435  1.00  0.00     0.219 C 
HETATM   13  O   UNL     1     -22.389  -6.062  -1.995  1.00  0.00    -0.273 OA
HETATM   14  N   UNL     1     -20.998  -7.836  -1.600  1.00  0.00    -0.347 N 
HETATM   15  C   UNL     1     -20.109  -8.903  -2.059  1.00  0.00     0.153 C 
BRANCH  14  16
HETATM   16  C   UNL     1     -21.442  -7.924  -0.192  1.00  0.00     0.235 C 
BRANCH  16  17
HETATM   17  C   UNL     1     -22.823  -8.550  -0.028  1.00  0.00     0.158 C 
HETATM   18  O   UNL     1     -23.084  -9.711  -0.301  1.00  0.00    -0.649 OA
BRANCH  17  19
HETATM   19  O   UNL     1     -23.768  -7.669   0.383  1.00  0.00    -0.775 OA
HETATM   20  H   UNL     1     -23.890  -6.976  -0.297  1.00  0.00     0.167 HD
ENDBRANCH  17  19
ENDBRANCH  16  17
ENDBRANCH  14  16
ENDBRANCH  11  12
ENDBRANCH   1  11
TORSDOF 13
BEGIN_RES ARG D 557
REMARK  4 active torsions:
REMARK  status: ('A' for Active; 'I' for Inactive)
REMARK    1  A    between atoms: CA   and  CB  
REMARK    2  A    between atoms: CB   and  CG  
REMARK    3  A    between atoms: CG   and  CD  
REMARK    4  A    between atoms: CD   and  NE  
REMARK       I    between atoms: NE   and  CZ  
REMARK       I    between atoms: CZ   and  NH1 
REMARK       I    between atoms: CZ   and  NH2 
ROOT
ATOM      1  CA  ARG D 557     -26.217   2.705 -17.014  1.00 35.49     0.159 C 
ENDROOT
BRANCH   1   2
ATOM      2  CB  ARG D 557     -26.789   1.319 -17.183  1.00 35.49     0.034 C 
BRANCH   2   3
ATOM      3  CG  ARG D 557     -28.227   1.227 -17.466  1.00 35.49     0.027 C 
BRANCH   3   4
ATOM      4  CD  ARG D 557     -28.908   0.233 -16.607  1.00 35.49     0.116 C 
BRANCH   4   5
ATOM      5  NE  ARG D 557     -28.032  -0.841 -16.219  1.00 35.49    -0.212 N 
ATOM      6  CZ  ARG D 557     -28.138  -2.095 -16.599  1.00 35.49     0.666 C 
ATOM      7  NH1 ARG D 557     -29.105  -2.515 -17.394  1.00 35.49    -0.235 N 
ATOM      8  NH2 ARG D 557     -27.240  -2.931 -16.167  1.00 35.49    -0.235 N 
ATOM      9  HH  ARG D 557     -29.706  -1.982 -17.692  1.00 35.49     0.174 HD
ATOM     10  HH  ARG D 557     -29.122  -3.344 -17.610  1.00 35.49     0.174 HD
ATOM     11  HH  ARG D 557     -26.623  -2.630 -15.661  1.00 35.49     0.174 HD
ATOM     12  HH  ARG D 557     -27.273  -3.748 -16.394  1.00 35.49     0.174 HD
ATOM     13  HE  ARG D 557     -27.423  -0.673 -15.650  1.00 35.49     0.178 HD
ENDBRANCH   4   5
ENDBRANCH   3   4
ENDBRANCH   2   3
ENDBRANCH   1   2
END_RES ARG D 557
BEGIN_RES GLU D 570
REMARK  3 active torsions:
REMARK  status: ('A' for Active; 'I' for Inactive)
REMARK    5  A    between atoms: CA   and  CB  
REMARK    6  A    between atoms: CB   and  CG  
REMARK    7  A    between atoms: CG   and  CD  
ROOT
ATOM     14  CA  GLU D 570     -18.033  -6.348 -13.375  1.00 32.92     0.160 C 
ENDROOT
BRANCH  14  15
ATOM     15  CB  GLU D 570     -19.500  -6.345 -13.794  1.00 32.92     0.043 C 
BRANCH  15  16
ATOM     16  CG  GLU D 570     -19.800  -6.518 -15.239  1.00 32.92     0.100 C 
BRANCH  16  17
ATOM     17  CD  GLU D 570     -21.032  -7.356 -15.489  1.00 32.92     0.185 C 
ATOM     18  OE1 GLU D 570     -20.904  -8.475 -16.023  1.00 32.92    -0.647 OA
ATOM     19  OE2 GLU D 570     -22.138  -6.881 -15.164  1.00 32.92    -0.647 OA
ENDBRANCH  16  17
ENDBRANCH  15  16
ENDBRANCH  14  15
END_RES GLU D 570
ENDMDL
MODEL 9
REMARK VINA RESULT:      -5.8      2.290      2.794
REMARK  13 active torsions:
REMARK  status: ('A' for Active; 'I' for Inactive)
REMARK    1  A    between atoms: C_2  and  C_3 
REMARK    2  A    between atoms: C_3  and  C_4 
REMARK    3  A    between atoms: C_4  and  C_5 
REMARK    4  A    between atoms: C_5  and  C_6 
REMARK    5  A    between atoms: C_6  and  C_7 
REMARK    6  A    between atoms: C_7  and  C_8 
REMARK    7  A    between atoms: C_8  and  C_9 
REMARK    8  A    between atoms: C_9  and  C_10 
REMARK    9  A    between atoms: C_10  and  C_11 
REMARK   10  A    between atoms: C_11  and  C_12 
REMARK       I    between atoms: C_12  and  N_14 
REMARK   11  A    between atoms: N_14  and  C_16 
REMARK   12  A    between atoms: C_16  and  C_17 
REMARK   13  A    between atoms: C_17  and  O_19 
ROOT
HETATM    1  C   UNL     1     -21.933  -5.401  -6.314  1.00  0.00     0.009 C 
ENDROOT
BRANCH   1   2
HETATM    2  C   UNL     1     -20.848  -5.837  -5.332  1.00  0.00     0.000 C 
BRANCH   2   3
HETATM    3  C   UNL     1     -20.679  -7.354  -5.342  1.00  0.00     0.000 C 
BRANCH   3   4
HETATM    4  C   UNL     1     -20.645  -7.913  -3.922  1.00  0.00     0.000 C 
BRANCH   4   5
HETATM    5  C   UNL     1     -21.264  -6.923  -2.938  1.00  0.00     0.000 C 
BRANCH   5   6
HETATM    6  C   UNL     1     -21.214  -7.463  -1.512  1.00  0.00     0.000 C 
BRANCH   6   7
HETATM    7  C   UNL     1     -22.474  -7.079  -0.740  1.00  0.00     0.000 C 
BRANCH   7   8
HETATM    8  C   UNL     1     -22.894  -8.198   0.211  1.00  0.00    -0.000 C 
BRANCH   8   9
HETATM    9  C   UNL     1     -22.646  -9.570  -0.408  1.00  0.00    -0.005 C 
HETATM   10  C   UNL     1     -23.813 -10.507  -0.147  1.00  0.00     0.005 C 
ENDBRANCH   8   9
ENDBRANCH   7   8
ENDBRANCH   6   7
ENDBRANCH   5   6
ENDBRANCH   4   5
ENDBRANCH   3   4
ENDBRANCH   2   3
ENDBRANCH   1   2
BRANCH   1  11
HETATM   11  C   UNL     1     -21.553  -4.086  -6.990  1.00  0.00     0.103 C 
BRANCH  11  12
HETATM   12  C   UNL     1     -21.248  -4.250  -8.470  1.00  0.00     0.219 C 
HETATM   13  O   UNL     1     -20.114  -4.503  -8.872  1.00  0.00    -0.273 OA
HETATM   14  N   UNL     1     -22.310  -4.072  -9.353  1.00  0.00    -0.347 N 
HETATM   15  C   UNL     1     -23.693  -3.825  -8.947  1.00  0.00     0.153 C 
BRANCH  14  16
HETATM   16  C   UNL     1     -22.101  -4.387 -10.783  1.00  0.00     0.235 C 
BRANCH  16  17
HETATM   17  C   UNL     1     -21.757  -3.167 -11.631  1.00  0.00     0.158 C 
HETATM   18  O   UNL     1     -22.554  -2.590 -12.354  1.00  0.00    -0.649 OA
BRANCH  17  19
HETATM   19  O   UNL     1     -20.448  -2.822 -11.569  1.00  0.00    -0.775 OA
HETATM   20  H   UNL     1     -19.935  -3.354 -12.211  1.00  0.00     0.167 HD
ENDBRANCH  17  19
ENDBRANCH  16  17
ENDBRANCH  14  16
ENDBRANCH  11  12
ENDBRANCH   1  11
TORSDOF 13
BEGIN_RES ARG D 557
REMARK  4 active torsions:
REMARK  status: ('A' for Active; 'I' for Inactive)
REMARK    1  A    between atoms: CA   and  CB  
REMARK    2  A    between atoms: CB   and  CG  
REMARK    3  A    between atoms: CG   and  CD  
REMARK    4  A    between atoms: CD   and  NE  
REMARK       I    between atoms: NE   and  CZ  
REMARK       I    between atoms: CZ   and  NH1 
REMARK       I    between atoms: CZ   and  NH2 
ROOT
ATOM      1  CA  ARG D 557     -26.217   2.705 -17.014  1.00 35.49     0.159 C 
ENDROOT
BRANCH   1   2
ATOM      2  CB  ARG D 557     -26.789   1.319 -17.183  1.00 35.49     0.034 C 
BRANCH   2   3
ATOM      3  CG  ARG D 557     -28.225   1.228 -17.475  1.00 35.49     0.027 C 
BRANCH   3   4
ATOM      4  CD  ARG D 557     -28.927   0.293 -16.566  1.00 35.49     0.116 C 
BRANCH   4   5
ATOM      5  NE  ARG D 557     -28.130  -0.866 -16.259  1.00 35.49    -0.212 N 
ATOM      6  CZ  ARG D 557     -28.341  -2.083 -16.706  1.00 35.49     0.666 C 
ATOM      7  NH1 ARG D 557     -29.352  -2.382 -17.502  1.00 35.49    -0.235 N 
ATOM      8  NH2 ARG D 557     -27.504  -3.010 -16.341  1.00 35.49    -0.235 N 
ATOM      9  HH  ARG D 557     -29.914  -1.787 -17.757  1.00 35.49     0.174 HD
ATOM     10  HH  ARG D 557     -29.438  -3.193 -17.764  1.00 35.49     0.174 HD
ATOM     11  HH  ARG D 557     -26.856  -2.787 -15.833  1.00 35.49     0.174 HD
ATOM     12  HH  ARG D 557     -27.605  -3.807 -16.613  1.00 35.49     0.174 HD
ATOM     13  HE  ARG D 557     -27.500  -0.779 -15.695  1.00 35.49     0.178 HD
ENDBRANCH   4   5
ENDBRANCH   3   4
ENDBRANCH   2   3
ENDBRANCH   1   2
END_RES ARG D 557
BEGIN_RES GLU D 570
REMARK  3 active torsions:
REMARK  status: ('A' for Active; 'I' for Inactive)
REMARK    5  A    between atoms: CA   and  CB  
REMARK    6  A    between atoms: CB   and  CG  
REMARK    7  A    between atoms: CG   and  CD  
ROOT
ATOM     14  CA  GLU D 570     -18.033  -6.348 -13.375  1.00 32.92     0.160 C 
ENDROOT
BRANCH  14  15
ATOM     15  CB  GLU D 570     -19.500  -6.345 -13.794  1.00 32.92     0.043 C 
BRANCH  15  16
ATOM     16  CG  GLU D 570     -20.049  -7.599 -14.372  1.00 32.92     0.100 C 
BRANCH  16  17
ATOM     17  CD  GLU D 570     -21.219  -7.358 -15.298  1.00 32.92     0.185 C 
ATOM     18  OE1 GLU D 570     -21.233  -7.914 -16.413  1.00 32.92    -0.647 OA
ATOM     19  OE2 GLU D 570     -22.122  -6.591 -14.911  1.00 32.92    -0.647 OA
ENDBRANCH  16  17
ENDBRANCH  15  16
ENDBRANCH  14  15
END_RES GLU D 570
ENDMDL
