MODEL 1
REMARK VINA RESULT:      -8.2      0.000      0.000
REMARK WARNING: 32 MAX_TORS EXCEEDED!!!
REMARK  35 active torsions:
REMARK  status: ('A' for Active; 'I' for Inactive)
REMARK    1  A    between atoms: C_2  and  C_3 
REMARK    2  A    between atoms: C_3  and  C_4 
REMARK    3  A    between atoms: C_4  and  C_5 
REMARK    4  A    between atoms: C_5  and  C_6 
REMARK    5  A    between atoms: C_6  and  C_7 
REMARK    6  A    between atoms: C_7  and  C_8 
REMARK    7  A    between atoms: C_8  and  C_9 
REMARK    8  A    between atoms: C_9  and  C_10 
REMARK    9  A    between atoms: C_10  and  C_11 
REMARK   10  A    between atoms: C_11  and  C_12 
REMARK   11  A    between atoms: C_12  and  C_13 
REMARK   12  A    between atoms: C_13  and  C_14 
REMARK   13  A    between atoms: C_14  and  C_15 
REMARK   14  A    between atoms: C_15  and  C_16 
REMARK   15  A    between atoms: C_16  and  O_18 
REMARK   16  A    between atoms: O_18  and  C_19 
REMARK   17  A    between atoms: C_19  and  C_20 
REMARK   18  A    between atoms: C_25  and  O_46 
REMARK   19  A    between atoms: C_26  and  C_27 
REMARK   20  A    between atoms: C_27  and  O_28 
REMARK   21  A    between atoms: O_28  and  C_29 
REMARK   22  A    between atoms: C_29  and  C_31 
REMARK   23  A    between atoms: C_31  and  C_32 
REMARK   24  A    between atoms: C_32  and  C_33 
REMARK   25  A    between atoms: C_33  and  C_34 
REMARK   26  A    between atoms: C_34  and  C_35 
REMARK   27  A    between atoms: C_35  and  C_36 
REMARK   28  A    between atoms: C_36  and  C_37 
REMARK   29  A    between atoms: C_37  and  C_38 
REMARK   30  A    between atoms: C_38  and  C_39 
REMARK   31  A    between atoms: C_39  and  C_40 
REMARK   32  A    between atoms: C_40  and  C_41 
REMARK   33  A    between atoms: C_41  and  C_42 
REMARK   34  A    between atoms: C_42  and  C_43 
REMARK   35  A    between atoms: C_43  and  C_44 
ROOT
HETATM    1  C   UNL     1     -27.157  -6.322 -17.740  1.00  0.00    -0.007 A 
HETATM    2  C   UNL     1     -27.525  -6.293 -19.079  1.00  0.00     0.098 A 
HETATM    3  N   UNL     1     -26.709  -6.602 -20.110  1.00  0.00    -0.367 N 
ATOM      4  HN  UNL     1     -27.032  -6.556 -21.076  1.00  0.00     0.165 HD
HETATM    5  C   UNL     1     -25.444  -6.973 -19.805  1.00  0.00     0.039 A 
HETATM    6  C   UNL     1     -24.968  -7.017 -18.493  1.00  0.00     0.096 A 
HETATM    7  C   UNL     1     -25.827  -6.673 -17.434  1.00  0.00     0.011 A 
HETATM    8  C   UNL     1     -24.563  -7.352 -20.958  1.00  0.00     0.071 C 
ENDROOT
BRANCH   1   9
HETATM    9  C   UNL     1     -28.185  -6.003 -16.694  1.00  0.00     0.219 C 
BRANCH   9  10
HETATM   10  O   UNL     1     -29.283  -5.273 -17.280  1.00  0.00    -0.317 OA
BRANCH  10  11
HETATM   11  C   UNL     1     -30.525  -5.768 -16.989  1.00  0.00     0.259 C 
HETATM   12  O   UNL     1     -30.923  -6.881 -17.275  1.00  0.00    -0.265 OA
BRANCH  11  13
HETATM   13  C   UNL     1     -31.356  -4.719 -16.271  1.00  0.00     0.111 C 
BRANCH  13  14
HETATM   14  C   UNL     1     -32.783  -4.731 -16.814  1.00  0.00     0.010 C 
BRANCH  14  15
HETATM   15  C   UNL     1     -33.701  -3.770 -16.069  1.00  0.00     0.000 C 
BRANCH  15  16
HETATM   16  C   UNL     1     -34.366  -4.484 -14.895  1.00  0.00     0.000 C 
BRANCH  16  17
HETATM   17  C   UNL     1     -34.163  -3.701 -13.607  1.00  0.00     0.000 C 
BRANCH  17  18
HETATM   18  C   UNL     1     -33.144  -4.397 -12.718  1.00  0.00     0.000 C 
BRANCH  18  19
HETATM   19  C   UNL     1     -32.766  -3.495 -11.554  1.00  0.00     0.000 C 
BRANCH  19  20
HETATM   20  C   UNL     1     -33.882  -3.473 -10.525  1.00  0.00     0.000 C 
BRANCH  20  21
HETATM   21  C   UNL     1     -34.402  -2.057 -10.353  1.00  0.00     0.000 C 
BRANCH  21  22
HETATM   22  C   UNL     1     -35.854  -1.980 -10.791  1.00  0.00     0.000 C 
BRANCH  22  23
HETATM   23  C   UNL     1     -36.181  -0.575 -11.270  1.00  0.00     0.000 C 
BRANCH  23  24
HETATM   24  C   UNL     1     -36.059  -0.499 -12.784  1.00  0.00     0.000 C 
BRANCH  24  25
HETATM   25  C   UNL     1     -34.925   0.437 -13.172  1.00  0.00    -0.000 C 
BRANCH  25  26
HETATM   26  C   UNL     1     -34.983   0.761 -14.658  1.00  0.00    -0.005 C 
HETATM   27  C   UNL     1     -35.557  -0.409 -15.435  1.00  0.00     0.005 C 
ENDBRANCH  25  26
ENDBRANCH  24  25
ENDBRANCH  23  24
ENDBRANCH  22  23
ENDBRANCH  21  22
ENDBRANCH  20  21
ENDBRANCH  19  20
ENDBRANCH  18  19
ENDBRANCH  17  18
ENDBRANCH  16  17
ENDBRANCH  15  16
ENDBRANCH  14  15
ENDBRANCH  13  14
ENDBRANCH  11  13
ENDBRANCH  10  11
ENDBRANCH   9  10
ENDBRANCH   1   9
BRANCH   7  28
HETATM   28  C   UNL     1     -25.367  -6.682 -15.989  1.00  0.00     0.221 C 
BRANCH  28  29
HETATM   29  O   UNL     1     -24.173  -5.912 -15.793  1.00  0.00    -0.317 OA
BRANCH  29  30
HETATM   30  C   UNL     1     -24.197  -5.083 -14.715  1.00  0.00     0.259 C 
HETATM   31  O   UNL     1     -24.825  -4.043 -14.630  1.00  0.00    -0.265 OA
BRANCH  30  32
HETATM   32  C   UNL     1     -23.329  -5.647 -13.622  1.00  0.00     0.111 C 
BRANCH  32  33
HETATM   33  C   UNL     1     -22.810  -4.508 -12.765  1.00  0.00     0.010 C 
BRANCH  33  34
HETATM   34  C   UNL     1     -23.002  -4.778 -11.283  1.00  0.00     0.000 C 
BRANCH  34  35
HETATM   35  C   UNL     1     -23.784  -3.631 -10.660  1.00  0.00     0.000 C 
BRANCH  35  36
HETATM   36  C   UNL     1     -23.667  -3.672  -9.148  1.00  0.00     0.000 C 
BRANCH  36  37
HETATM   37  C   UNL     1     -22.415  -4.430  -8.740  1.00  0.00     0.000 C 
BRANCH  37  38
HETATM   38  C   UNL     1     -21.785  -3.774  -7.524  1.00  0.00     0.000 C 
BRANCH  38  39
HETATM   39  C   UNL     1     -20.311  -4.126  -7.448  1.00  0.00     0.000 C 
BRANCH  39  40
HETATM   40  C   UNL     1     -20.138  -5.498  -6.821  1.00  0.00     0.000 C 
BRANCH  40  41
HETATM   41  C   UNL     1     -20.751  -5.515  -5.432  1.00  0.00     0.000 C 
BRANCH  41  42
HETATM   42  C   UNL     1     -21.613  -6.755  -5.257  1.00  0.00     0.000 C 
BRANCH  42  43
HETATM   43  C   UNL     1     -21.527  -7.252  -3.823  1.00  0.00     0.000 C 
BRANCH  43  44
HETATM   44  C   UNL     1     -21.789  -6.109  -2.855  1.00  0.00    -0.000 C 
BRANCH  44  45
HETATM   45  C   UNL     1     -22.184  -6.646  -1.486  1.00  0.00    -0.005 C 
HETATM   46  C   UNL     1     -21.327  -7.841  -1.117  1.00  0.00     0.005 C 
ENDBRANCH  44  45
ENDBRANCH  43  44
ENDBRANCH  42  43
ENDBRANCH  41  42
ENDBRANCH  40  41
ENDBRANCH  39  40
ENDBRANCH  38  39
ENDBRANCH  37  38
ENDBRANCH  36  37
ENDBRANCH  35  36
ENDBRANCH  34  35
ENDBRANCH  33  34
ENDBRANCH  32  33
ENDBRANCH  30  32
ENDBRANCH  29  30
ENDBRANCH  28  29
ENDBRANCH   7  28
BRANCH   6  47
HETATM   47  O   UNL     1     -23.673  -7.400 -18.239  1.00  0.00    -0.358 OA
HETATM   48  H   UNL     1     -23.419  -7.153 -17.339  1.00  0.00     0.217 HD
ENDBRANCH   6  47
TORSDOF 35
BEGIN_RES ARG D 557
REMARK  4 active torsions:
REMARK  status: ('A' for Active; 'I' for Inactive)
REMARK    1  A    between atoms: CA   and  CB  
REMARK    2  A    between atoms: CB   and  CG  
REMARK    3  A    between atoms: CG   and  CD  
REMARK    4  A    between atoms: CD   and  NE  
REMARK       I    between atoms: NE   and  CZ  
REMARK       I    between atoms: CZ   and  NH1 
REMARK       I    between atoms: CZ   and  NH2 
ROOT
ATOM      1  CA  ARG D 557     -26.217   2.705 -17.014  1.00 35.49     0.159 C 
ENDROOT
BRANCH   1   2
ATOM      2  CB  ARG D 557     -26.789   1.319 -17.183  1.00 35.49     0.034 C 
BRANCH   2   3
ATOM      3  CG  ARG D 557     -28.233   1.226 -17.431  1.00 35.49     0.027 C 
BRANCH   3   4
ATOM      4  CD  ARG D 557     -28.901   0.266 -16.522  1.00 35.49     0.116 C 
BRANCH   4   5
ATOM      5  NE  ARG D 557     -28.027  -0.808 -16.131  1.00 35.49    -0.212 N 
ATOM      6  CZ  ARG D 557     -28.091  -2.047 -16.565  1.00 35.49     0.666 C 
ATOM      7  NH1 ARG D 557     -29.008  -2.451 -17.425  1.00 35.49    -0.235 N 
ATOM      8  NH2 ARG D 557     -27.202  -2.887 -16.118  1.00 35.49    -0.235 N 
ATOM      9  HH  ARG D 557     -29.601  -1.915 -17.734  1.00 35.49     0.174 HD
ATOM     10  HH  ARG D 557     -28.999  -3.270 -17.675  1.00 35.49     0.174 HD
ATOM     11  HH  ARG D 557     -26.618  -2.596 -15.569  1.00 35.49     0.174 HD
ATOM     12  HH  ARG D 557     -27.210  -3.694 -16.378  1.00 35.49     0.174 HD
ATOM     13  HE  ARG D 557     -27.452  -0.654 -15.524  1.00 35.49     0.178 HD
ENDBRANCH   4   5
ENDBRANCH   3   4
ENDBRANCH   2   3
ENDBRANCH   1   2
END_RES ARG D 557
BEGIN_RES GLU D 570
REMARK  3 active torsions:
REMARK  status: ('A' for Active; 'I' for Inactive)
REMARK    5  A    between atoms: CA   and  CB  
REMARK    6  A    between atoms: CB   and  CG  
REMARK    7  A    between atoms: CG   and  CD  
ROOT
ATOM     14  CA  GLU D 570     -18.033  -6.348 -13.375  1.00 32.92     0.160 C 
ENDROOT
BRANCH  14  15
ATOM     15  CB  GLU D 570     -19.500  -6.345 -13.794  1.00 32.92     0.043 C 
BRANCH  15  16
ATOM     16  CG  GLU D 570     -19.802  -6.092 -15.227  1.00 32.92     0.100 C 
BRANCH  16  17
ATOM     17  CD  GLU D 570     -20.677  -7.160 -15.842  1.00 32.92     0.185 C 
ATOM     18  OE1 GLU D 570     -21.273  -6.914 -16.908  1.00 32.92    -0.647 OA
ATOM     19  OE2 GLU D 570     -20.780  -8.248 -15.242  1.00 32.92    -0.647 OA
ENDBRANCH  16  17
ENDBRANCH  15  16
ENDBRANCH  14  15
END_RES GLU D 570
ENDMDL
MODEL 2
REMARK VINA RESULT:      -8.2      1.132      2.601
REMARK WARNING: 32 MAX_TORS EXCEEDED!!!
REMARK  35 active torsions:
REMARK  status: ('A' for Active; 'I' for Inactive)
REMARK    1  A    between atoms: C_2  and  C_3 
REMARK    2  A    between atoms: C_3  and  C_4 
REMARK    3  A    between atoms: C_4  and  C_5 
REMARK    4  A    between atoms: C_5  and  C_6 
REMARK    5  A    between atoms: C_6  and  C_7 
REMARK    6  A    between atoms: C_7  and  C_8 
REMARK    7  A    between atoms: C_8  and  C_9 
REMARK    8  A    between atoms: C_9  and  C_10 
REMARK    9  A    between atoms: C_10  and  C_11 
REMARK   10  A    between atoms: C_11  and  C_12 
REMARK   11  A    between atoms: C_12  and  C_13 
REMARK   12  A    between atoms: C_13  and  C_14 
REMARK   13  A    between atoms: C_14  and  C_15 
REMARK   14  A    between atoms: C_15  and  C_16 
REMARK   15  A    between atoms: C_16  and  O_18 
REMARK   16  A    between atoms: O_18  and  C_19 
REMARK   17  A    between atoms: C_19  and  C_20 
REMARK   18  A    between atoms: C_25  and  O_46 
REMARK   19  A    between atoms: C_26  and  C_27 
REMARK   20  A    between atoms: C_27  and  O_28 
REMARK   21  A    between atoms: O_28  and  C_29 
REMARK   22  A    between atoms: C_29  and  C_31 
REMARK   23  A    between atoms: C_31  and  C_32 
REMARK   24  A    between atoms: C_32  and  C_33 
REMARK   25  A    between atoms: C_33  and  C_34 
REMARK   26  A    between atoms: C_34  and  C_35 
REMARK   27  A    between atoms: C_35  and  C_36 
REMARK   28  A    between atoms: C_36  and  C_37 
REMARK   29  A    between atoms: C_37  and  C_38 
REMARK   30  A    between atoms: C_38  and  C_39 
REMARK   31  A    between atoms: C_39  and  C_40 
REMARK   32  A    between atoms: C_40  and  C_41 
REMARK   33  A    between atoms: C_41  and  C_42 
REMARK   34  A    between atoms: C_42  and  C_43 
REMARK   35  A    between atoms: C_43  and  C_44 
ROOT
HETATM    1  C   UNL     1     -27.359  -6.269 -17.797  1.00  0.00    -0.007 A 
HETATM    2  C   UNL     1     -27.499  -6.417 -19.172  1.00  0.00     0.098 A 
HETATM    3  N   UNL     1     -26.503  -6.767 -20.015  1.00  0.00    -0.367 N 
ATOM      4  HN  UNL     1     -26.662  -6.853 -21.019  1.00  0.00     0.165 HD
HETATM    5  C   UNL     1     -25.286  -6.997 -19.470  1.00  0.00     0.039 A 
HETATM    6  C   UNL     1     -25.035  -6.860 -18.103  1.00  0.00     0.096 A 
HETATM    7  C   UNL     1     -26.079  -6.475 -17.243  1.00  0.00     0.011 A 
HETATM    8  C   UNL     1     -24.202  -7.425 -20.414  1.00  0.00     0.071 C 
ENDROOT
BRANCH   1   9
HETATM    9  C   UNL     1     -28.566  -5.925 -16.975  1.00  0.00     0.219 C 
BRANCH   9  10
HETATM   10  O   UNL     1     -29.663  -5.545 -17.833  1.00  0.00    -0.317 OA
BRANCH  10  11
HETATM   11  C   UNL     1     -30.907  -5.757 -17.305  1.00  0.00     0.259 C 
HETATM   12  O   UNL     1     -31.534  -6.797 -17.379  1.00  0.00    -0.265 OA
BRANCH  11  13
HETATM   13  C   UNL     1     -31.413  -4.497 -16.627  1.00  0.00     0.111 C 
BRANCH  13  14
HETATM   14  C   UNL     1     -32.940  -4.487 -16.630  1.00  0.00     0.010 C 
BRANCH  14  15
HETATM   15  C   UNL     1     -33.517  -3.198 -17.203  1.00  0.00     0.000 C 
BRANCH  15  16
HETATM   16  C   UNL     1     -34.719  -2.749 -16.376  1.00  0.00     0.000 C 
BRANCH  16  17
HETATM   17  C   UNL     1     -35.141  -1.340 -16.765  1.00  0.00     0.000 C 
BRANCH  17  18
HETATM   18  C   UNL     1     -36.121  -0.778 -15.747  1.00  0.00     0.000 C 
BRANCH  18  19
HETATM   19  C   UNL     1     -35.436   0.271 -14.887  1.00  0.00     0.000 C 
BRANCH  19  20
HETATM   20  C   UNL     1     -35.902   0.153 -13.447  1.00  0.00     0.000 C 
BRANCH  20  21
HETATM   21  C   UNL     1     -34.826  -0.510 -12.604  1.00  0.00     0.000 C 
BRANCH  21  22
HETATM   22  C   UNL     1     -35.288  -1.887 -12.161  1.00  0.00     0.000 C 
BRANCH  22  23
HETATM   23  C   UNL     1     -34.323  -2.948 -12.665  1.00  0.00     0.000 C 
BRANCH  23  24
HETATM   24  C   UNL     1     -33.297  -3.273 -11.591  1.00  0.00     0.000 C 
BRANCH  24  25
HETATM   25  C   UNL     1     -33.876  -4.268 -10.597  1.00  0.00    -0.000 C 
BRANCH  25  26
HETATM   26  C   UNL     1     -33.598  -5.696 -11.046  1.00  0.00    -0.005 C 
HETATM   27  C   UNL     1     -34.498  -6.669 -10.309  1.00  0.00     0.005 C 
ENDBRANCH  25  26
ENDBRANCH  24  25
ENDBRANCH  23  24
ENDBRANCH  22  23
ENDBRANCH  21  22
ENDBRANCH  20  21
ENDBRANCH  19  20
ENDBRANCH  18  19
ENDBRANCH  17  18
ENDBRANCH  16  17
ENDBRANCH  15  16
ENDBRANCH  14  15
ENDBRANCH  13  14
ENDBRANCH  11  13
ENDBRANCH  10  11
ENDBRANCH   9  10
ENDBRANCH   1   9
BRANCH   7  28
HETATM   28  C   UNL     1     -25.869  -6.289 -15.753  1.00  0.00     0.221 C 
BRANCH  28  29
HETATM   29  O   UNL     1     -25.091  -5.121 -15.455  1.00  0.00    -0.317 OA
BRANCH  29  30
HETATM   30  C   UNL     1     -24.141  -5.296 -14.499  1.00  0.00     0.259 C 
HETATM   31  O   UNL     1     -23.854  -6.351 -13.963  1.00  0.00    -0.265 OA
BRANCH  30  32
HETATM   32  C   UNL     1     -23.479  -3.978 -14.195  1.00  0.00     0.111 C 
BRANCH  32  33
HETATM   33  C   UNL     1     -24.154  -3.350 -12.991  1.00  0.00     0.010 C 
BRANCH  33  34
HETATM   34  C   UNL     1     -23.160  -2.657 -12.076  1.00  0.00     0.000 C 
BRANCH  34  35
HETATM   35  C   UNL     1     -21.882  -3.483 -12.006  1.00  0.00     0.000 C 
BRANCH  35  36
HETATM   36  C   UNL     1     -21.969  -4.492 -10.876  1.00  0.00     0.000 C 
BRANCH  36  37
HETATM   37  C   UNL     1     -21.389  -3.903  -9.601  1.00  0.00     0.000 C 
BRANCH  37  38
HETATM   38  C   UNL     1     -20.088  -4.605  -9.252  1.00  0.00     0.000 C 
BRANCH  38  39
HETATM   39  C   UNL     1     -19.669  -4.248  -7.838  1.00  0.00     0.000 C 
BRANCH  39  40
HETATM   40  C   UNL     1     -20.846  -4.408  -6.893  1.00  0.00     0.000 C 
BRANCH  40  41
HETATM   41  C   UNL     1     -20.403  -5.118  -5.626  1.00  0.00     0.000 C 
BRANCH  41  42
HETATM   42  C   UNL     1     -20.087  -6.573  -5.927  1.00  0.00     0.000 C 
BRANCH  42  43
HETATM   43  C   UNL     1     -21.160  -7.473  -5.337  1.00  0.00     0.000 C 
BRANCH  43  44
HETATM   44  C   UNL     1     -22.030  -6.687  -4.369  1.00  0.00    -0.000 C 
BRANCH  44  45
HETATM   45  C   UNL     1     -21.833  -7.187  -2.944  1.00  0.00    -0.005 C 
HETATM   46  C   UNL     1     -21.999  -6.050  -1.955  1.00  0.00     0.005 C 
ENDBRANCH  44  45
ENDBRANCH  43  44
ENDBRANCH  42  43
ENDBRANCH  41  42
ENDBRANCH  40  41
ENDBRANCH  39  40
ENDBRANCH  38  39
ENDBRANCH  37  38
ENDBRANCH  36  37
ENDBRANCH  35  36
ENDBRANCH  34  35
ENDBRANCH  33  34
ENDBRANCH  32  33
ENDBRANCH  30  32
ENDBRANCH  29  30
ENDBRANCH  28  29
ENDBRANCH   7  28
BRANCH   6  47
HETATM   47  O   UNL     1     -23.779  -7.105 -17.602  1.00  0.00    -0.358 OA
HETATM   48  H   UNL     1     -23.404  -6.297 -17.225  1.00  0.00     0.217 HD
ENDBRANCH   6  47
TORSDOF 35
BEGIN_RES ARG D 557
REMARK  4 active torsions:
REMARK  status: ('A' for Active; 'I' for Inactive)
REMARK    1  A    between atoms: CA   and  CB  
REMARK    2  A    between atoms: CB   and  CG  
REMARK    3  A    between atoms: CG   and  CD  
REMARK    4  A    between atoms: CD   and  NE  
REMARK       I    between atoms: NE   and  CZ  
REMARK       I    between atoms: CZ   and  NH1 
REMARK       I    between atoms: CZ   and  NH2 
ROOT
ATOM      1  CA  ARG D 557     -26.217   2.705 -17.014  1.00 35.49     0.159 C 
ENDROOT
BRANCH   1   2
ATOM      2  CB  ARG D 557     -26.789   1.319 -17.183  1.00 35.49     0.034 C 
BRANCH   2   3
ATOM      3  CG  ARG D 557     -28.252   1.206 -17.201  1.00 35.49     0.027 C 
BRANCH   3   4
ATOM      4  CD  ARG D 557     -28.720  -0.137 -16.789  1.00 35.49     0.116 C 
BRANCH   4   5
ATOM      5  NE  ARG D 557     -27.708  -0.867 -16.072  1.00 35.49    -0.212 N 
ATOM      6  CZ  ARG D 557     -27.495  -2.162 -16.148  1.00 35.49     0.666 C 
ATOM      7  NH1 ARG D 557     -28.225  -2.957 -16.908  1.00 35.49    -0.235 N 
ATOM      8  NH2 ARG D 557     -26.518  -2.652 -15.442  1.00 35.49    -0.235 N 
ATOM      9  HH  ARG D 557     -28.872  -2.656 -17.383  1.00 35.49     0.174 HD
ATOM     10  HH  ARG D 557     -28.039  -3.793 -16.920  1.00 35.49     0.174 HD
ATOM     11  HH  ARG D 557     -26.059  -2.114 -14.966  1.00 35.49     0.174 HD
ATOM     12  HH  ARG D 557     -26.348  -3.483 -15.468  1.00 35.49     0.174 HD
ATOM     13  HE  ARG D 557     -27.238  -0.444 -15.503  1.00 35.49     0.178 HD
ENDBRANCH   4   5
ENDBRANCH   3   4
ENDBRANCH   2   3
ENDBRANCH   1   2
END_RES ARG D 557
BEGIN_RES GLU D 570
REMARK  3 active torsions:
REMARK  status: ('A' for Active; 'I' for Inactive)
REMARK    5  A    between atoms: CA   and  CB  
REMARK    6  A    between atoms: CB   and  CG  
REMARK    7  A    between atoms: CG   and  CD  
ROOT
ATOM     14  CA  GLU D 570     -18.033  -6.348 -13.375  1.00 32.92     0.160 C 
ENDROOT
BRANCH  14  15
ATOM     15  CB  GLU D 570     -19.500  -6.345 -13.794  1.00 32.92     0.043 C 
BRANCH  15  16
ATOM     16  CG  GLU D 570     -19.915  -7.314 -14.842  1.00 32.92     0.100 C 
BRANCH  16  17
ATOM     17  CD  GLU D 570     -20.682  -6.667 -15.971  1.00 32.92     0.185 C 
ATOM     18  OE1 GLU D 570     -21.158  -7.387 -16.870  1.00 32.92    -0.647 OA
ATOM     19  OE2 GLU D 570     -20.794  -5.425 -15.967  1.00 32.92    -0.647 OA
ENDBRANCH  16  17
ENDBRANCH  15  16
ENDBRANCH  14  15
END_RES GLU D 570
ENDMDL
MODEL 3
REMARK VINA RESULT:      -7.6      6.425     13.953
REMARK WARNING: 32 MAX_TORS EXCEEDED!!!
REMARK  35 active torsions:
REMARK  status: ('A' for Active; 'I' for Inactive)
REMARK    1  A    between atoms: C_2  and  C_3 
REMARK    2  A    between atoms: C_3  and  C_4 
REMARK    3  A    between atoms: C_4  and  C_5 
REMARK    4  A    between atoms: C_5  and  C_6 
REMARK    5  A    between atoms: C_6  and  C_7 
REMARK    6  A    between atoms: C_7  and  C_8 
REMARK    7  A    between atoms: C_8  and  C_9 
REMARK    8  A    between atoms: C_9  and  C_10 
REMARK    9  A    between atoms: C_10  and  C_11 
REMARK   10  A    between atoms: C_11  and  C_12 
REMARK   11  A    between atoms: C_12  and  C_13 
REMARK   12  A    between atoms: C_13  and  C_14 
REMARK   13  A    between atoms: C_14  and  C_15 
REMARK   14  A    between atoms: C_15  and  C_16 
REMARK   15  A    between atoms: C_16  and  O_18 
REMARK   16  A    between atoms: O_18  and  C_19 
REMARK   17  A    between atoms: C_19  and  C_20 
REMARK   18  A    between atoms: C_25  and  O_46 
REMARK   19  A    between atoms: C_26  and  C_27 
REMARK   20  A    between atoms: C_27  and  O_28 
REMARK   21  A    between atoms: O_28  and  C_29 
REMARK   22  A    between atoms: C_29  and  C_31 
REMARK   23  A    between atoms: C_31  and  C_32 
REMARK   24  A    between atoms: C_32  and  C_33 
REMARK   25  A    between atoms: C_33  and  C_34 
REMARK   26  A    between atoms: C_34  and  C_35 
REMARK   27  A    between atoms: C_35  and  C_36 
REMARK   28  A    between atoms: C_36  and  C_37 
REMARK   29  A    between atoms: C_37  and  C_38 
REMARK   30  A    between atoms: C_38  and  C_39 
REMARK   31  A    between atoms: C_39  and  C_40 
REMARK   32  A    between atoms: C_40  and  C_41 
REMARK   33  A    between atoms: C_41  and  C_42 
REMARK   34  A    between atoms: C_42  and  C_43 
REMARK   35  A    between atoms: C_43  and  C_44 
ROOT
HETATM    1  C   UNL     1     -18.486 -13.334  -3.985  1.00  0.00    -0.007 A 
HETATM    2  C   UNL     1     -19.785 -13.472  -4.459  1.00  0.00     0.098 A 
HETATM    3  N   UNL     1     -20.142 -13.397  -5.760  1.00  0.00    -0.367 N 
ATOM      4  HN  UNL     1     -21.114 -13.499  -6.050  1.00  0.00     0.165 HD
HETATM    5  C   UNL     1     -19.155 -13.182  -6.659  1.00  0.00     0.039 A 
HETATM    6  C   UNL     1     -17.820 -13.011  -6.285  1.00  0.00     0.096 A 
HETATM    7  C   UNL     1     -17.470 -13.072  -4.925  1.00  0.00     0.011 A 
HETATM    8  C   UNL     1     -19.563 -13.142  -8.102  1.00  0.00     0.071 C 
ENDROOT
BRANCH   1   9
HETATM    9  C   UNL     1     -18.227 -13.491  -2.515  1.00  0.00     0.219 C 
BRANCH   9  10
HETATM   10  O   UNL     1     -19.226 -12.781  -1.753  1.00  0.00    -0.317 OA
BRANCH  10  11
HETATM   11  C   UNL     1     -18.763 -12.176  -0.616  1.00  0.00     0.259 C 
HETATM   12  O   UNL     1     -17.593 -11.971  -0.356  1.00  0.00    -0.265 OA
BRANCH  11  13
HETATM   13  C   UNL     1     -19.920 -11.811   0.295  1.00  0.00     0.111 C 
BRANCH  13  14
HETATM   14  C   UNL     1     -20.442 -10.422  -0.065  1.00  0.00     0.010 C 
BRANCH  14  15
HETATM   15  C   UNL     1     -21.074  -9.706   1.123  1.00  0.00     0.000 C 
BRANCH  15  16
HETATM   16  C   UNL     1     -21.293  -8.232   0.791  1.00  0.00     0.000 C 
BRANCH  16  17
HETATM   17  C   UNL     1     -22.534  -8.055  -0.070  1.00  0.00     0.000 C 
BRANCH  17  18
HETATM   18  C   UNL     1     -22.352  -6.890  -1.030  1.00  0.00     0.000 C 
BRANCH  18  19
HETATM   19  C   UNL     1     -21.179  -7.157  -1.959  1.00  0.00     0.000 C 
BRANCH  19  20
HETATM   20  C   UNL     1     -21.181  -6.160  -3.104  1.00  0.00     0.000 C 
BRANCH  20  21
HETATM   21  C   UNL     1     -22.188  -6.582  -4.160  1.00  0.00     0.000 C 
BRANCH  21  22
HETATM   22  C   UNL     1     -21.520  -6.637  -5.522  1.00  0.00     0.000 C 
BRANCH  22  23
HETATM   23  C   UNL     1     -20.397  -5.615  -5.594  1.00  0.00     0.000 C 
BRANCH  23  24
HETATM   24  C   UNL     1     -20.152  -5.210  -7.039  1.00  0.00     0.000 C 
BRANCH  24  25
HETATM   25  C   UNL     1     -21.459  -5.227  -7.817  1.00  0.00    -0.000 C 
BRANCH  25  26
HETATM   26  C   UNL     1     -21.543  -4.025  -8.747  1.00  0.00    -0.005 C 
HETATM   27  C   UNL     1     -20.368  -4.011  -9.705  1.00  0.00     0.005 C 
ENDBRANCH  25  26
ENDBRANCH  24  25
ENDBRANCH  23  24
ENDBRANCH  22  23
ENDBRANCH  21  22
ENDBRANCH  20  21
ENDBRANCH  19  20
ENDBRANCH  18  19
ENDBRANCH  17  18
ENDBRANCH  16  17
ENDBRANCH  15  16
ENDBRANCH  14  15
ENDBRANCH  13  14
ENDBRANCH  11  13
ENDBRANCH  10  11
ENDBRANCH   9  10
ENDBRANCH   1   9
BRANCH   7  28
HETATM   28  C   UNL     1     -16.043 -12.877  -4.451  1.00  0.00     0.221 C 
BRANCH  28  29
HETATM   29  O   UNL     1     -15.358 -11.857  -5.193  1.00  0.00    -0.317 OA
BRANCH  29  30
HETATM   30  C   UNL     1     -15.536 -10.593  -4.726  1.00  0.00     0.259 C 
HETATM   31  O   UNL     1     -15.451  -9.571  -5.383  1.00  0.00    -0.265 OA
BRANCH  30  32
HETATM   32  C   UNL     1     -15.867 -10.637  -3.258  1.00  0.00     0.111 C 
BRANCH  32  33
HETATM   33  C   UNL     1     -16.669  -9.403  -2.893  1.00  0.00     0.010 C 
BRANCH  33  34
HETATM   34  C   UNL     1     -18.165  -9.643  -2.999  1.00  0.00     0.000 C 
BRANCH  34  35
HETATM   35  C   UNL     1     -18.670  -9.091  -4.324  1.00  0.00     0.000 C 
BRANCH  35  36
HETATM   36  C   UNL     1     -19.933  -9.816  -4.750  1.00  0.00     0.000 C 
BRANCH  36  37
HETATM   37  C   UNL     1     -20.730 -10.241  -3.528  1.00  0.00     0.000 C 
BRANCH  37  38
HETATM   38  C   UNL     1     -22.216 -10.188  -3.837  1.00  0.00     0.000 C 
BRANCH  38  39
HETATM   39  C   UNL     1     -22.911 -11.407  -3.257  1.00  0.00     0.000 C 
BRANCH  39  40
HETATM   40  C   UNL     1     -23.333 -11.130  -1.825  1.00  0.00     0.000 C 
BRANCH  40  41
HETATM   41  C   UNL     1     -23.819 -12.411  -1.169  1.00  0.00     0.000 C 
BRANCH  41  42
HETATM   42  C   UNL     1     -22.746 -13.483  -1.261  1.00  0.00     0.000 C 
BRANCH  42  43
HETATM   43  C   UNL     1     -22.741 -14.325   0.005  1.00  0.00     0.000 C 
BRANCH  43  44
HETATM   44  C   UNL     1     -23.338 -13.538   1.160  1.00  0.00    -0.000 C 
BRANCH  44  45
HETATM   45  C   UNL     1     -22.900 -14.129   2.493  1.00  0.00    -0.005 C 
HETATM   46  C   UNL     1     -24.084 -14.735   3.221  1.00  0.00     0.005 C 
ENDBRANCH  44  45
ENDBRANCH  43  44
ENDBRANCH  42  43
ENDBRANCH  41  42
ENDBRANCH  40  41
ENDBRANCH  39  40
ENDBRANCH  38  39
ENDBRANCH  37  38
ENDBRANCH  36  37
ENDBRANCH  35  36
ENDBRANCH  34  35
ENDBRANCH  33  34
ENDBRANCH  32  33
ENDBRANCH  30  32
ENDBRANCH  29  30
ENDBRANCH  28  29
ENDBRANCH   7  28
BRANCH   6  47
HETATM   47  O   UNL     1     -16.856 -12.793  -7.240  1.00  0.00    -0.358 OA
HETATM   48  H   UNL     1     -16.362 -11.985  -7.041  1.00  0.00     0.217 HD
ENDBRANCH   6  47
TORSDOF 35
BEGIN_RES ARG D 557
REMARK  4 active torsions:
REMARK  status: ('A' for Active; 'I' for Inactive)
REMARK    1  A    between atoms: CA   and  CB  
REMARK    2  A    between atoms: CB   and  CG  
REMARK    3  A    between atoms: CG   and  CD  
REMARK    4  A    between atoms: CD   and  NE  
REMARK       I    between atoms: NE   and  CZ  
REMARK       I    between atoms: CZ   and  NH1 
REMARK       I    between atoms: CZ   and  NH2 
ROOT
ATOM      1  CA  ARG D 557     -26.217   2.705 -17.014  1.00 35.49     0.159 C 
ENDROOT
BRANCH   1   2
ATOM      2  CB  ARG D 557     -26.789   1.319 -17.183  1.00 35.49     0.034 C 
BRANCH   2   3
ATOM      3  CG  ARG D 557     -25.841   0.200 -17.113  1.00 35.49     0.027 C 
BRANCH   3   4
ATOM      4  CD  ARG D 557     -24.759   0.438 -16.131  1.00 35.49     0.116 C 
BRANCH   4   5
ATOM      5  NE  ARG D 557     -24.873  -0.420 -14.981  1.00 35.49    -0.212 N 
ATOM      6  CZ  ARG D 557     -24.052  -1.398 -14.668  1.00 35.49     0.666 C 
ATOM      7  NH1 ARG D 557     -23.008  -1.713 -15.412  1.00 35.49    -0.235 N 
ATOM      8  NH2 ARG D 557     -24.296  -2.060 -13.574  1.00 35.49    -0.235 N 
ATOM      9  HH  ARG D 557     -22.827  -1.289 -16.134  1.00 35.49     0.174 HD
ATOM     10  HH  ARG D 557     -22.506  -2.358 -15.156  1.00 35.49     0.174 HD
ATOM     11  HH  ARG D 557     -24.973  -1.829 -13.110  1.00 35.49     0.174 HD
ATOM     12  HH  ARG D 557     -23.786  -2.695 -13.337  1.00 35.49     0.174 HD
ATOM     13  HE  ARG D 557     -25.558  -0.335 -14.485  1.00 35.49     0.178 HD
ENDBRANCH   4   5
ENDBRANCH   3   4
ENDBRANCH   2   3
ENDBRANCH   1   2
END_RES ARG D 557
BEGIN_RES GLU D 570
REMARK  3 active torsions:
REMARK  status: ('A' for Active; 'I' for Inactive)
REMARK    5  A    between atoms: CA   and  CB  
REMARK    6  A    between atoms: CB   and  CG  
REMARK    7  A    between atoms: CG   and  CD  
ROOT
ATOM     14  CA  GLU D 570     -18.033  -6.348 -13.375  1.00 32.92     0.160 C 
ENDROOT
BRANCH  14  15
ATOM     15  CB  GLU D 570     -19.500  -6.345 -13.794  1.00 32.92     0.043 C 
BRANCH  15  16
ATOM     16  CG  GLU D 570     -20.451  -5.573 -12.953  1.00 32.92     0.100 C 
BRANCH  16  17
ATOM     17  CD  GLU D 570     -21.735  -5.236 -13.673  1.00 32.92     0.185 C 
ATOM     18  OE1 GLU D 570     -22.205  -4.087 -13.567  1.00 32.92    -0.647 OA
ATOM     19  OE2 GLU D 570     -22.287  -6.136 -14.336  1.00 32.92    -0.647 OA
ENDBRANCH  16  17
ENDBRANCH  15  16
ENDBRANCH  14  15
END_RES GLU D 570
ENDMDL
MODEL 4
REMARK VINA RESULT:      -7.5      6.641     13.543
REMARK WARNING: 32 MAX_TORS EXCEEDED!!!
REMARK  35 active torsions:
REMARK  status: ('A' for Active; 'I' for Inactive)
REMARK    1  A    between atoms: C_2  and  C_3 
REMARK    2  A    between atoms: C_3  and  C_4 
REMARK    3  A    between atoms: C_4  and  C_5 
REMARK    4  A    between atoms: C_5  and  C_6 
REMARK    5  A    between atoms: C_6  and  C_7 
REMARK    6  A    between atoms: C_7  and  C_8 
REMARK    7  A    between atoms: C_8  and  C_9 
REMARK    8  A    between atoms: C_9  and  C_10 
REMARK    9  A    between atoms: C_10  and  C_11 
REMARK   10  A    between atoms: C_11  and  C_12 
REMARK   11  A    between atoms: C_12  and  C_13 
REMARK   12  A    between atoms: C_13  and  C_14 
REMARK   13  A    between atoms: C_14  and  C_15 
REMARK   14  A    between atoms: C_15  and  C_16 
REMARK   15  A    between atoms: C_16  and  O_18 
REMARK   16  A    between atoms: O_18  and  C_19 
REMARK   17  A    between atoms: C_19  and  C_20 
REMARK   18  A    between atoms: C_25  and  O_46 
REMARK   19  A    between atoms: C_26  and  C_27 
REMARK   20  A    between atoms: C_27  and  O_28 
REMARK   21  A    between atoms: O_28  and  C_29 
REMARK   22  A    between atoms: C_29  and  C_31 
REMARK   23  A    between atoms: C_31  and  C_32 
REMARK   24  A    between atoms: C_32  and  C_33 
REMARK   25  A    between atoms: C_33  and  C_34 
REMARK   26  A    between atoms: C_34  and  C_35 
REMARK   27  A    between atoms: C_35  and  C_36 
REMARK   28  A    between atoms: C_36  and  C_37 
REMARK   29  A    between atoms: C_37  and  C_38 
REMARK   30  A    between atoms: C_38  and  C_39 
REMARK   31  A    between atoms: C_39  and  C_40 
REMARK   32  A    between atoms: C_40  and  C_41 
REMARK   33  A    between atoms: C_41  and  C_42 
REMARK   34  A    between atoms: C_42  and  C_43 
REMARK   35  A    between atoms: C_43  and  C_44 
ROOT
HETATM    1  C   UNL     1     -21.871  -9.960  -0.518  1.00  0.00    -0.007 A 
HETATM    2  C   UNL     1     -23.257 -10.048  -0.531  1.00  0.00     0.098 A 
HETATM    3  N   UNL     1     -23.955 -11.202  -0.617  1.00  0.00    -0.367 N 
ATOM      4  HN  UNL     1     -24.975 -11.207  -0.630  1.00  0.00     0.165 HD
HETATM    5  C   UNL     1     -23.243 -12.350  -0.687  1.00  0.00     0.039 A 
HETATM    6  C   UNL     1     -21.846 -12.369  -0.699  1.00  0.00     0.096 A 
HETATM    7  C   UNL     1     -21.137 -11.158  -0.629  1.00  0.00     0.011 A 
HETATM    8  C   UNL     1     -24.033 -13.624  -0.741  1.00  0.00     0.071 C 
ENDROOT
BRANCH   1   9
HETATM    9  C   UNL     1     -21.229  -8.612  -0.366  1.00  0.00     0.219 C 
BRANCH   9  10
HETATM   10  O   UNL     1     -21.037  -8.001  -1.659  1.00  0.00    -0.317 OA
BRANCH  10  11
HETATM   11  C   UNL     1     -21.797  -6.887  -1.889  1.00  0.00     0.259 C 
HETATM   12  O   UNL     1     -22.709  -6.500  -1.183  1.00  0.00    -0.265 OA
BRANCH  11  13
HETATM   13  C   UNL     1     -21.356  -6.204  -3.171  1.00  0.00     0.111 C 
BRANCH  13  14
HETATM   14  C   UNL     1     -21.832  -7.011  -4.376  1.00  0.00     0.010 C 
BRANCH  14  15
HETATM   15  C   UNL     1     -21.127  -6.610  -5.666  1.00  0.00     0.000 C 
BRANCH  15  16
HETATM   16  C   UNL     1     -20.377  -5.295  -5.468  1.00  0.00     0.000 C 
BRANCH  16  17
HETATM   17  C   UNL     1     -20.762  -4.291  -6.544  1.00  0.00     0.000 C 
BRANCH  17  18
HETATM   18  C   UNL     1     -22.053  -4.714  -7.226  1.00  0.00     0.000 C 
BRANCH  18  19
HETATM   19  C   UNL     1     -21.962  -4.457  -8.722  1.00  0.00     0.000 C 
BRANCH  19  20
HETATM   20  C   UNL     1     -20.511  -4.480  -9.168  1.00  0.00     0.000 C 
BRANCH  20  21
HETATM   21  C   UNL     1     -20.430  -4.349 -10.679  1.00  0.00     0.000 C 
BRANCH  21  22
HETATM   22  C   UNL     1     -21.826  -4.354 -11.276  1.00  0.00     0.000 C 
BRANCH  22  23
HETATM   23  C   UNL     1     -22.066  -3.069 -12.052  1.00  0.00     0.000 C 
BRANCH  23  24
HETATM   24  C   UNL     1     -23.555  -2.767 -12.113  1.00  0.00     0.000 C 
BRANCH  24  25
HETATM   25  C   UNL     1     -24.195  -3.519 -13.270  1.00  0.00    -0.000 C 
BRANCH  25  26
HETATM   26  C   UNL     1     -25.357  -2.722 -13.848  1.00  0.00    -0.005 C 
HETATM   27  C   UNL     1     -24.845  -1.610 -14.744  1.00  0.00     0.005 C 
ENDBRANCH  25  26
ENDBRANCH  24  25
ENDBRANCH  23  24
ENDBRANCH  22  23
ENDBRANCH  21  22
ENDBRANCH  20  21
ENDBRANCH  19  20
ENDBRANCH  18  19
ENDBRANCH  17  18
ENDBRANCH  16  17
ENDBRANCH  15  16
ENDBRANCH  14  15
ENDBRANCH  13  14
ENDBRANCH  11  13
ENDBRANCH  10  11
ENDBRANCH   9  10
ENDBRANCH   1   9
BRANCH   7  28
HETATM   28  C   UNL     1     -19.622 -11.108  -0.657  1.00  0.00     0.221 C 
BRANCH  28  29
HETATM   29  O   UNL     1     -19.032 -11.894   0.389  1.00  0.00    -0.317 OA
BRANCH  29  30
HETATM   30  C   UNL     1     -18.014 -12.703  -0.008  1.00  0.00     0.259 C 
HETATM   31  O   UNL     1     -18.120 -13.868  -0.347  1.00  0.00    -0.265 OA
BRANCH  30  32
HETATM   32  C   UNL     1     -16.717 -11.939   0.026  1.00  0.00     0.111 C 
BRANCH  32  33
HETATM   33  C   UNL     1     -15.795 -12.480  -1.049  1.00  0.00     0.010 C 
BRANCH  33  34
HETATM   34  C   UNL     1     -15.990 -11.771  -2.378  1.00  0.00     0.000 C 
BRANCH  34  35
HETATM   35  C   UNL     1     -15.772 -10.277  -2.186  1.00  0.00     0.000 C 
BRANCH  35  36
HETATM   36  C   UNL     1     -16.365  -9.505  -3.350  1.00  0.00     0.000 C 
BRANCH  36  37
HETATM   37  C   UNL     1     -17.872  -9.390  -3.190  1.00  0.00     0.000 C 
BRANCH  37  38
HETATM   38  C   UNL     1     -18.544  -9.469  -4.549  1.00  0.00     0.000 C 
BRANCH  38  39
HETATM   39  C   UNL     1     -17.516  -9.790  -5.619  1.00  0.00     0.000 C 
BRANCH  39  40
HETATM   40  C   UNL     1     -17.879 -11.091  -6.313  1.00  0.00     0.000 C 
BRANCH  40  41
HETATM   41  C   UNL     1     -16.935 -12.195  -5.873  1.00  0.00     0.000 C 
BRANCH  41  42
HETATM   42  C   UNL     1     -15.827 -12.372  -6.897  1.00  0.00     0.000 C 
BRANCH  42  43
HETATM   43  C   UNL     1     -14.523 -11.804  -6.359  1.00  0.00     0.000 C 
BRANCH  43  44
HETATM   44  C   UNL     1     -13.410 -12.831  -6.489  1.00  0.00    -0.000 C 
BRANCH  44  45
HETATM   45  C   UNL     1     -13.461 -13.825  -5.336  1.00  0.00    -0.005 C 
HETATM   46  C   UNL     1     -13.377 -13.100  -4.007  1.00  0.00     0.005 C 
ENDBRANCH  44  45
ENDBRANCH  43  44
ENDBRANCH  42  43
ENDBRANCH  41  42
ENDBRANCH  40  41
ENDBRANCH  39  40
ENDBRANCH  38  39
ENDBRANCH  37  38
ENDBRANCH  36  37
ENDBRANCH  35  36
ENDBRANCH  34  35
ENDBRANCH  33  34
ENDBRANCH  32  33
ENDBRANCH  30  32
ENDBRANCH  29  30
ENDBRANCH  28  29
ENDBRANCH   7  28
BRANCH   6  47
HETATM   47  O   UNL     1     -21.172 -13.564  -0.773  1.00  0.00    -0.358 OA
HETATM   48  H   UNL     1     -20.362 -13.527  -0.244  1.00  0.00     0.217 HD
ENDBRANCH   6  47
TORSDOF 35
BEGIN_RES ARG D 557
REMARK  4 active torsions:
REMARK  status: ('A' for Active; 'I' for Inactive)
REMARK    1  A    between atoms: CA   and  CB  
REMARK    2  A    between atoms: CB   and  CG  
REMARK    3  A    between atoms: CG   and  CD  
REMARK    4  A    between atoms: CD   and  NE  
REMARK       I    between atoms: NE   and  CZ  
REMARK       I    between atoms: CZ   and  NH1 
REMARK       I    between atoms: CZ   and  NH2 
ROOT
ATOM      1  CA  ARG D 557     -26.217   2.705 -17.014  1.00 35.49     0.159 C 
ENDROOT
BRANCH   1   2
ATOM      2  CB  ARG D 557     -26.789   1.319 -17.183  1.00 35.49     0.034 C 
BRANCH   2   3
ATOM      3  CG  ARG D 557     -28.241   1.223 -17.379  1.00 35.49     0.027 C 
BRANCH   3   4
ATOM      4  CD  ARG D 557     -28.880   0.295 -16.418  1.00 35.49     0.116 C 
BRANCH   4   5
ATOM      5  NE  ARG D 557     -28.147  -0.936 -16.284  1.00 35.49    -0.212 N 
ATOM      6  CZ  ARG D 557     -28.506  -2.101 -16.776  1.00 35.49     0.666 C 
ATOM      7  NH1 ARG D 557     -29.624  -2.269 -17.457  1.00 35.49    -0.235 N 
ATOM      8  NH2 ARG D 557     -27.707  -3.109 -16.576  1.00 35.49    -0.235 N 
ATOM      9  HH  ARG D 557     -30.163  -1.619 -17.603  1.00 35.49     0.174 HD
ATOM     10  HH  ARG D 557     -29.805  -3.051 -17.757  1.00 35.49     0.174 HD
ATOM     11  HH  ARG D 557     -26.988  -2.969 -16.139  1.00 35.49     0.174 HD
ATOM     12  HH  ARG D 557     -27.903  -3.875 -16.881  1.00 35.49     0.174 HD
ATOM     13  HE  ARG D 557     -27.449  -0.935 -15.798  1.00 35.49     0.178 HD
ENDBRANCH   4   5
ENDBRANCH   3   4
ENDBRANCH   2   3
ENDBRANCH   1   2
END_RES ARG D 557
BEGIN_RES GLU D 570
REMARK  3 active torsions:
REMARK  status: ('A' for Active; 'I' for Inactive)
REMARK    5  A    between atoms: CA   and  CB  
REMARK    6  A    between atoms: CB   and  CG  
REMARK    7  A    between atoms: CG   and  CD  
ROOT
ATOM     14  CA  GLU D 570     -18.033  -6.348 -13.375  1.00 32.92     0.160 C 
ENDROOT
BRANCH  14  15
ATOM     15  CB  GLU D 570     -19.500  -6.345 -13.794  1.00 32.92     0.043 C 
BRANCH  15  16
ATOM     16  CG  GLU D 570     -19.796  -6.325 -15.250  1.00 32.92     0.100 C 
BRANCH  16  17
ATOM     17  CD  GLU D 570     -21.192  -5.836 -15.561  1.00 32.92     0.185 C 
ATOM     18  OE1 GLU D 570     -22.138  -6.212 -14.843  1.00 32.92    -0.647 OA
ATOM     19  OE2 GLU D 570     -21.342  -5.083 -16.543  1.00 32.92    -0.647 OA
ENDBRANCH  16  17
ENDBRANCH  15  16
ENDBRANCH  14  15
END_RES GLU D 570
ENDMDL
MODEL 5
REMARK VINA RESULT:      -7.4      6.324     13.582
REMARK WARNING: 32 MAX_TORS EXCEEDED!!!
REMARK  35 active torsions:
REMARK  status: ('A' for Active; 'I' for Inactive)
REMARK    1  A    between atoms: C_2  and  C_3 
REMARK    2  A    between atoms: C_3  and  C_4 
REMARK    3  A    between atoms: C_4  and  C_5 
REMARK    4  A    between atoms: C_5  and  C_6 
REMARK    5  A    between atoms: C_6  and  C_7 
REMARK    6  A    between atoms: C_7  and  C_8 
REMARK    7  A    between atoms: C_8  and  C_9 
REMARK    8  A    between atoms: C_9  and  C_10 
REMARK    9  A    between atoms: C_10  and  C_11 
REMARK   10  A    between atoms: C_11  and  C_12 
REMARK   11  A    between atoms: C_12  and  C_13 
REMARK   12  A    between atoms: C_13  and  C_14 
REMARK   13  A    between atoms: C_14  and  C_15 
REMARK   14  A    between atoms: C_15  and  C_16 
REMARK   15  A    between atoms: C_16  and  O_18 
REMARK   16  A    between atoms: O_18  and  C_19 
REMARK   17  A    between atoms: C_19  and  C_20 
REMARK   18  A    between atoms: C_25  and  O_46 
REMARK   19  A    between atoms: C_26  and  C_27 
REMARK   20  A    between atoms: C_27  and  O_28 
REMARK   21  A    between atoms: O_28  and  C_29 
REMARK   22  A    between atoms: C_29  and  C_31 
REMARK   23  A    between atoms: C_31  and  C_32 
REMARK   24  A    between atoms: C_32  and  C_33 
REMARK   25  A    between atoms: C_33  and  C_34 
REMARK   26  A    between atoms: C_34  and  C_35 
REMARK   27  A    between atoms: C_35  and  C_36 
REMARK   28  A    between atoms: C_36  and  C_37 
REMARK   29  A    between atoms: C_37  and  C_38 
REMARK   30  A    between atoms: C_38  and  C_39 
REMARK   31  A    between atoms: C_39  and  C_40 
REMARK   32  A    between atoms: C_40  and  C_41 
REMARK   33  A    between atoms: C_41  and  C_42 
REMARK   34  A    between atoms: C_42  and  C_43 
REMARK   35  A    between atoms: C_43  and  C_44 
ROOT
HETATM    1  C   UNL     1     -22.125 -10.435   0.113  1.00  0.00    -0.007 A 
HETATM    2  C   UNL     1     -23.477 -10.518  -0.194  1.00  0.00     0.098 A 
HETATM    3  N   UNL     1     -24.131 -11.661  -0.494  1.00  0.00    -0.367 N 
ATOM      4  HN  UNL     1     -25.126 -11.661  -0.719  1.00  0.00     0.165 HD
HETATM    5  C   UNL     1     -23.409 -12.805  -0.483  1.00  0.00     0.039 A 
HETATM    6  C   UNL     1     -22.041 -12.829  -0.206  1.00  0.00     0.096 A 
HETATM    7  C   UNL     1     -21.373 -11.626   0.085  1.00  0.00     0.011 A 
HETATM    8  C   UNL     1     -24.159 -14.070  -0.779  1.00  0.00     0.071 C 
ENDROOT
BRANCH   1   9
HETATM    9  C   UNL     1     -21.541  -9.101   0.478  1.00  0.00     0.219 C 
BRANCH   9  10
HETATM   10  O   UNL     1     -21.275  -8.330  -0.713  1.00  0.00    -0.317 OA
BRANCH  10  11
HETATM   11  C   UNL     1     -22.132  -7.285  -0.926  1.00  0.00     0.259 C 
HETATM   12  O   UNL     1     -23.088  -7.006  -0.228  1.00  0.00    -0.265 OA
BRANCH  11  13
HETATM   13  C   UNL     1     -21.734  -6.525  -2.179  1.00  0.00     0.111 C 
BRANCH  13  14
HETATM   14  C   UNL     1     -21.006  -7.460  -3.140  1.00  0.00     0.010 C 
BRANCH  14  15
HETATM   15  C   UNL     1     -21.735  -7.620  -4.469  1.00  0.00     0.000 C 
BRANCH  15  16
HETATM   16  C   UNL     1     -20.874  -7.079  -5.608  1.00  0.00     0.000 C 
BRANCH  16  17
HETATM   17  C   UNL     1     -20.886  -5.558  -5.613  1.00  0.00     0.000 C 
BRANCH  17  18
HETATM   18  C   UNL     1     -21.589  -5.038  -6.858  1.00  0.00     0.000 C 
BRANCH  18  19
HETATM   19  C   UNL     1     -21.067  -3.655  -7.212  1.00  0.00     0.000 C 
BRANCH  19  20
HETATM   20  C   UNL     1     -19.983  -3.761  -8.270  1.00  0.00     0.000 C 
BRANCH  20  21
HETATM   21  C   UNL     1     -20.306  -4.890  -9.233  1.00  0.00     0.000 C 
BRANCH  21  22
HETATM   22  C   UNL     1     -19.934  -4.486 -10.649  1.00  0.00     0.000 C 
BRANCH  22  23
HETATM   23  C   UNL     1     -21.085  -3.732 -11.295  1.00  0.00     0.000 C 
BRANCH  23  24
HETATM   24  C   UNL     1     -22.365  -4.547 -11.195  1.00  0.00     0.000 C 
BRANCH  24  25
HETATM   25  C   UNL     1     -23.551  -3.720 -11.669  1.00  0.00    -0.000 C 
BRANCH  25  26
HETATM   26  C   UNL     1     -24.384  -3.253 -10.483  1.00  0.00    -0.005 C 
HETATM   27  C   UNL     1     -24.173  -4.167  -9.292  1.00  0.00     0.005 C 
ENDBRANCH  25  26
ENDBRANCH  24  25
ENDBRANCH  23  24
ENDBRANCH  22  23
ENDBRANCH  21  22
ENDBRANCH  20  21
ENDBRANCH  19  20
ENDBRANCH  18  19
ENDBRANCH  17  18
ENDBRANCH  16  17
ENDBRANCH  15  16
ENDBRANCH  14  15
ENDBRANCH  13  14
ENDBRANCH  11  13
ENDBRANCH  10  11
ENDBRANCH   9  10
ENDBRANCH   1   9
BRANCH   7  28
HETATM   28  C   UNL     1     -19.886 -11.581   0.376  1.00  0.00     0.221 C 
BRANCH  28  29
HETATM   29  O   UNL     1     -19.140 -12.481  -0.456  1.00  0.00    -0.317 OA
BRANCH  29  30
HETATM   30  C   UNL     1     -18.056 -11.933  -1.064  1.00  0.00     0.259 C 
HETATM   31  O   UNL     1     -16.963 -11.763  -0.554  1.00  0.00    -0.265 OA
BRANCH  30  32
HETATM   32  C   UNL     1     -18.401 -11.564  -2.482  1.00  0.00     0.111 C 
BRANCH  32  33
HETATM   33  C   UNL     1     -18.385 -10.054  -2.620  1.00  0.00     0.010 C 
BRANCH  33  34
HETATM   34  C   UNL     1     -17.635  -9.602  -3.860  1.00  0.00     0.000 C 
BRANCH  34  35
HETATM   35  C   UNL     1     -16.138  -9.645  -3.585  1.00  0.00     0.000 C 
BRANCH  35  36
HETATM   36  C   UNL     1     -15.361  -9.592  -4.888  1.00  0.00     0.000 C 
BRANCH  36  37
HETATM   37  C   UNL     1     -16.166 -10.238  -6.003  1.00  0.00     0.000 C 
BRANCH  37  38
HETATM   38  C   UNL     1     -15.754 -11.691  -6.163  1.00  0.00     0.000 C 
BRANCH  38  39
HETATM   39  C   UNL     1     -16.975 -12.548  -6.444  1.00  0.00     0.000 C 
BRANCH  39  40
HETATM   40  C   UNL     1     -18.077 -11.698  -7.050  1.00  0.00     0.000 C 
BRANCH  40  41
HETATM   41  C   UNL     1     -19.008 -12.567  -7.877  1.00  0.00     0.000 C 
BRANCH  41  42
HETATM   42  C   UNL     1     -20.386 -12.609  -7.238  1.00  0.00     0.000 C 
BRANCH  42  43
HETATM   43  C   UNL     1     -20.454 -11.627  -6.080  1.00  0.00     0.000 C 
BRANCH  43  44
HETATM   44  C   UNL     1     -21.268 -12.217  -4.939  1.00  0.00    -0.000 C 
BRANCH  44  45
HETATM   45  C   UNL     1     -21.596 -11.148  -3.906  1.00  0.00    -0.005 C 
HETATM   46  C   UNL     1     -23.091 -11.081  -3.667  1.00  0.00     0.005 C 
ENDBRANCH  44  45
ENDBRANCH  43  44
ENDBRANCH  42  43
ENDBRANCH  41  42
ENDBRANCH  40  41
ENDBRANCH  39  40
ENDBRANCH  38  39
ENDBRANCH  37  38
ENDBRANCH  36  37
ENDBRANCH  35  36
ENDBRANCH  34  35
ENDBRANCH  33  34
ENDBRANCH  32  33
ENDBRANCH  30  32
ENDBRANCH  29  30
ENDBRANCH  28  29
ENDBRANCH   7  28
BRANCH   6  47
HETATM   47  O   UNL     1     -21.354 -14.020  -0.210  1.00  0.00    -0.358 OA
HETATM   48  H   UNL     1     -21.538 -14.511  -1.022  1.00  0.00     0.217 HD
ENDBRANCH   6  47
TORSDOF 35
BEGIN_RES ARG D 557
REMARK  4 active torsions:
REMARK  status: ('A' for Active; 'I' for Inactive)
REMARK    1  A    between atoms: CA   and  CB  
REMARK    2  A    between atoms: CB   and  CG  
REMARK    3  A    between atoms: CG   and  CD  
REMARK    4  A    between atoms: CD   and  NE  
REMARK       I    between atoms: NE   and  CZ  
REMARK       I    between atoms: CZ   and  NH1 
REMARK       I    between atoms: CZ   and  NH2 
ROOT
ATOM      1  CA  ARG D 557     -26.217   2.705 -17.014  1.00 35.49     0.159 C 
ENDROOT
BRANCH   1   2
ATOM      2  CB  ARG D 557     -26.789   1.319 -17.183  1.00 35.49     0.034 C 
BRANCH   2   3
ATOM      3  CG  ARG D 557     -28.148   1.099 -16.674  1.00 35.49     0.027 C 
BRANCH   3   4
ATOM      4  CD  ARG D 557     -28.787  -0.098 -17.269  1.00 35.49     0.116 C 
BRANCH   4   5
ATOM      5  NE  ARG D 557     -28.163  -1.319 -16.833  1.00 35.49    -0.212 N 
ATOM      6  CZ  ARG D 557     -28.634  -2.532 -17.020  1.00 35.49     0.666 C 
ATOM      7  NH1 ARG D 557     -29.778  -2.760 -17.639  1.00 35.49    -0.235 N 
ATOM      8  NH2 ARG D 557     -27.924  -3.527 -16.575  1.00 35.49    -0.235 N 
ATOM      9  HH  ARG D 557     -30.260  -2.120 -17.942  1.00 35.49     0.174 HD
ATOM     10  HH  ARG D 557     -30.034  -3.572 -17.734  1.00 35.49     0.174 HD
ATOM     11  HH  ARG D 557     -27.186  -3.350 -16.186  1.00 35.49     0.174 HD
ATOM     12  HH  ARG D 557     -28.193  -4.324 -16.681  1.00 35.49     0.174 HD
ATOM     13  HE  ARG D 557     -27.457  -1.261 -16.362  1.00 35.49     0.178 HD
ENDBRANCH   4   5
ENDBRANCH   3   4
ENDBRANCH   2   3
ENDBRANCH   1   2
END_RES ARG D 557
BEGIN_RES GLU D 570
REMARK  3 active torsions:
REMARK  status: ('A' for Active; 'I' for Inactive)
REMARK    5  A    between atoms: CA   and  CB  
REMARK    6  A    between atoms: CB   and  CG  
REMARK    7  A    between atoms: CG   and  CD  
ROOT
ATOM     14  CA  GLU D 570     -18.033  -6.348 -13.375  1.00 32.92     0.160 C 
ENDROOT
BRANCH  14  15
ATOM     15  CB  GLU D 570     -19.500  -6.345 -13.794  1.00 32.92     0.043 C 
BRANCH  15  16
ATOM     16  CG  GLU D 570     -19.799  -6.181 -15.240  1.00 32.92     0.100 C 
BRANCH  16  17
ATOM     17  CD  GLU D 570     -21.162  -5.584 -15.497  1.00 32.92     0.185 C 
ATOM     18  OE1 GLU D 570     -21.414  -5.111 -16.622  1.00 32.92    -0.647 OA
ATOM     19  OE2 GLU D 570     -21.982  -5.573 -14.557  1.00 32.92    -0.647 OA
ENDBRANCH  16  17
ENDBRANCH  15  16
ENDBRANCH  14  15
END_RES GLU D 570
ENDMDL
MODEL 6
REMARK VINA RESULT:      -7.2      6.829     16.588
REMARK WARNING: 32 MAX_TORS EXCEEDED!!!
REMARK  35 active torsions:
REMARK  status: ('A' for Active; 'I' for Inactive)
REMARK    1  A    between atoms: C_2  and  C_3 
REMARK    2  A    between atoms: C_3  and  C_4 
REMARK    3  A    between atoms: C_4  and  C_5 
REMARK    4  A    between atoms: C_5  and  C_6 
REMARK    5  A    between atoms: C_6  and  C_7 
REMARK    6  A    between atoms: C_7  and  C_8 
REMARK    7  A    between atoms: C_8  and  C_9 
REMARK    8  A    between atoms: C_9  and  C_10 
REMARK    9  A    between atoms: C_10  and  C_11 
REMARK   10  A    between atoms: C_11  and  C_12 
REMARK   11  A    between atoms: C_12  and  C_13 
REMARK   12  A    between atoms: C_13  and  C_14 
REMARK   13  A    between atoms: C_14  and  C_15 
REMARK   14  A    between atoms: C_15  and  C_16 
REMARK   15  A    between atoms: C_16  and  O_18 
REMARK   16  A    between atoms: O_18  and  C_19 
REMARK   17  A    between atoms: C_19  and  C_20 
REMARK   18  A    between atoms: C_25  and  O_46 
REMARK   19  A    between atoms: C_26  and  C_27 
REMARK   20  A    between atoms: C_27  and  O_28 
REMARK   21  A    between atoms: O_28  and  C_29 
REMARK   22  A    between atoms: C_29  and  C_31 
REMARK   23  A    between atoms: C_31  and  C_32 
REMARK   24  A    between atoms: C_32  and  C_33 
REMARK   25  A    between atoms: C_33  and  C_34 
REMARK   26  A    between atoms: C_34  and  C_35 
REMARK   27  A    between atoms: C_35  and  C_36 
REMARK   28  A    between atoms: C_36  and  C_37 
REMARK   29  A    between atoms: C_37  and  C_38 
REMARK   30  A    between atoms: C_38  and  C_39 
REMARK   31  A    between atoms: C_39  and  C_40 
REMARK   32  A    between atoms: C_40  and  C_41 
REMARK   33  A    between atoms: C_41  and  C_42 
REMARK   34  A    between atoms: C_42  and  C_43 
REMARK   35  A    between atoms: C_43  and  C_44 
ROOT
HETATM    1  C   UNL     1     -20.441 -11.697  -0.832  1.00  0.00    -0.007 A 
HETATM    2  C   UNL     1     -19.947 -12.765  -0.094  1.00  0.00     0.098 A 
HETATM    3  N   UNL     1     -20.664 -13.483   0.798  1.00  0.00    -0.367 N 
ATOM      4  HN  UNL     1     -20.247 -14.254   1.319  1.00  0.00     0.165 HD
HETATM    5  C   UNL     1     -21.959 -13.134   0.972  1.00  0.00     0.039 A 
HETATM    6  C   UNL     1     -22.548 -12.064   0.293  1.00  0.00     0.096 A 
HETATM    7  C   UNL     1     -21.781 -11.316  -0.617  1.00  0.00     0.011 A 
HETATM    8  C   UNL     1     -22.752 -13.966   1.935  1.00  0.00     0.071 C 
ENDROOT
BRANCH   1   9
HETATM    9  C   UNL     1     -19.543 -11.022  -1.827  1.00  0.00     0.219 C 
BRANCH   9  10
HETATM   10  O   UNL     1     -19.083 -11.972  -2.811  1.00  0.00    -0.317 OA
BRANCH  10  11
HETATM   11  C   UNL     1     -19.617 -11.812  -4.061  1.00  0.00     0.259 C 
HETATM   12  O   UNL     1     -20.750 -11.440  -4.299  1.00  0.00    -0.265 OA
BRANCH  11  13
HETATM   13  C   UNL     1     -18.597 -12.186  -5.121  1.00  0.00     0.111 C 
BRANCH  13  14
HETATM   14  C   UNL     1     -18.509 -11.076  -6.166  1.00  0.00     0.010 C 
BRANCH  14  15
HETATM   15  C   UNL     1     -17.911  -9.790  -5.608  1.00  0.00     0.000 C 
BRANCH  15  16
HETATM   16  C   UNL     1     -16.427  -9.708  -5.956  1.00  0.00     0.000 C 
BRANCH  16  17
HETATM   17  C   UNL     1     -15.573 -10.060  -4.748  1.00  0.00     0.000 C 
BRANCH  17  18
HETATM   18  C   UNL     1     -16.245  -9.590  -3.467  1.00  0.00     0.000 C 
BRANCH  18  19
HETATM   19  C   UNL     1     -15.815 -10.464  -2.301  1.00  0.00     0.000 C 
BRANCH  19  20
HETATM   20  C   UNL     1     -15.323 -11.808  -2.808  1.00  0.00     0.000 C 
BRANCH  20  21
HETATM   21  C   UNL     1     -15.842 -12.922  -1.916  1.00  0.00     0.000 C 
BRANCH  21  22
HETATM   22  C   UNL     1     -16.300 -12.351  -0.586  1.00  0.00     0.000 C 
BRANCH  22  23
HETATM   23  C   UNL     1     -15.990 -13.328   0.536  1.00  0.00     0.000 C 
BRANCH  23  24
HETATM   24  C   UNL     1     -14.651 -12.986   1.171  1.00  0.00     0.000 C 
BRANCH  24  25
HETATM   25  C   UNL     1     -13.797 -14.238   1.302  1.00  0.00    -0.000 C 
BRANCH  25  26
HETATM   26  C   UNL     1     -12.670 -14.226   0.279  1.00  0.00    -0.005 C 
HETATM   27  C   UNL     1     -13.008 -15.125  -0.895  1.00  0.00     0.005 C 
ENDBRANCH  25  26
ENDBRANCH  24  25
ENDBRANCH  23  24
ENDBRANCH  22  23
ENDBRANCH  21  22
ENDBRANCH  20  21
ENDBRANCH  19  20
ENDBRANCH  18  19
ENDBRANCH  17  18
ENDBRANCH  16  17
ENDBRANCH  15  16
ENDBRANCH  14  15
ENDBRANCH  13  14
ENDBRANCH  11  13
ENDBRANCH  10  11
ENDBRANCH   9  10
ENDBRANCH   1   9
BRANCH   7  28
HETATM   28  C   UNL     1     -22.354 -10.133  -1.372  1.00  0.00     0.221 C 
BRANCH  28  29
HETATM   29  O   UNL     1     -22.918  -9.148  -0.494  1.00  0.00    -0.317 OA
BRANCH  29  30
HETATM   30  C   UNL     1     -22.034  -8.228  -0.025  1.00  0.00     0.259 C 
HETATM   31  O   UNL     1     -21.871  -7.927   1.144  1.00  0.00    -0.265 OA
BRANCH  30  32
HETATM   32  C   UNL     1     -21.270  -7.627  -1.174  1.00  0.00     0.111 C 
BRANCH  32  33
HETATM   33  C   UNL     1     -22.056  -6.457  -1.734  1.00  0.00     0.010 C 
BRANCH  33  34
HETATM   34  C   UNL     1     -22.146  -6.503  -3.249  1.00  0.00     0.000 C 
BRANCH  34  35
HETATM   35  C   UNL     1     -21.145  -7.519  -3.781  1.00  0.00     0.000 C 
BRANCH  35  36
HETATM   36  C   UNL     1     -20.463  -6.984  -5.027  1.00  0.00     0.000 C 
BRANCH  36  37
HETATM   37  C   UNL     1     -20.970  -5.587  -5.343  1.00  0.00     0.000 C 
BRANCH  37  38
HETATM   38  C   UNL     1     -19.851  -4.756  -5.947  1.00  0.00     0.000 C 
BRANCH  38  39
HETATM   39  C   UNL     1     -19.649  -5.135  -7.402  1.00  0.00     0.000 C 
BRANCH  39  40
HETATM   40  C   UNL     1     -19.854  -3.919  -8.287  1.00  0.00     0.000 C 
BRANCH  40  41
HETATM   41  C   UNL     1     -20.593  -4.316  -9.553  1.00  0.00     0.000 C 
BRANCH  41  42
HETATM   42  C   UNL     1     -22.045  -4.627  -9.234  1.00  0.00     0.000 C 
BRANCH  42  43
HETATM   43  C   UNL     1     -22.883  -4.568 -10.501  1.00  0.00     0.000 C 
BRANCH  43  44
HETATM   44  C   UNL     1     -22.057  -4.010 -11.650  1.00  0.00    -0.000 C 
BRANCH  44  45
HETATM   45  C   UNL     1     -22.716  -2.766 -12.229  1.00  0.00    -0.005 C 
HETATM   46  C   UNL     1     -24.216  -2.960 -12.335  1.00  0.00     0.005 C 
ENDBRANCH  44  45
ENDBRANCH  43  44
ENDBRANCH  42  43
ENDBRANCH  41  42
ENDBRANCH  40  41
ENDBRANCH  39  40
ENDBRANCH  38  39
ENDBRANCH  37  38
ENDBRANCH  36  37
ENDBRANCH  35  36
ENDBRANCH  34  35
ENDBRANCH  33  34
ENDBRANCH  32  33
ENDBRANCH  30  32
ENDBRANCH  29  30
ENDBRANCH  28  29
ENDBRANCH   7  28
BRANCH   6  47
HETATM   47  O   UNL     1     -23.869 -11.751   0.507  1.00  0.00    -0.358 OA
HETATM   48  H   UNL     1     -24.012 -11.513   1.434  1.00  0.00     0.217 HD
ENDBRANCH   6  47
TORSDOF 35
BEGIN_RES ARG D 557
REMARK  4 active torsions:
REMARK  status: ('A' for Active; 'I' for Inactive)
REMARK    1  A    between atoms: CA   and  CB  
REMARK    2  A    between atoms: CB   and  CG  
REMARK    3  A    between atoms: CG   and  CD  
REMARK    4  A    between atoms: CD   and  NE  
REMARK       I    between atoms: NE   and  CZ  
REMARK       I    between atoms: CZ   and  NH1 
REMARK       I    between atoms: CZ   and  NH2 
ROOT
ATOM      1  CA  ARG D 557     -26.217   2.705 -17.014  1.00 35.49     0.159 C 
ENDROOT
BRANCH   1   2
ATOM      2  CB  ARG D 557     -26.789   1.319 -17.183  1.00 35.49     0.034 C 
BRANCH   2   3
ATOM      3  CG  ARG D 557     -28.236   1.225 -17.413  1.00 35.49     0.027 C 
BRANCH   3   4
ATOM      4  CD  ARG D 557     -28.894   0.279 -16.483  1.00 35.49     0.116 C 
BRANCH   4   5
ATOM      5  NE  ARG D 557     -29.303  -0.933 -17.142  1.00 35.49    -0.212 N 
ATOM      6  CZ  ARG D 557     -28.698  -2.096 -17.056  1.00 35.49     0.666 C 
ATOM      7  NH1 ARG D 557     -27.603  -2.274 -16.340  1.00 35.49    -0.235 N 
ATOM      8  NH2 ARG D 557     -29.221  -3.095 -17.705  1.00 35.49    -0.235 N 
ATOM      9  HH  ARG D 557     -27.243  -1.631 -15.902  1.00 35.49     0.174 HD
ATOM     10  HH  ARG D 557     -27.253  -3.056 -16.318  1.00 35.49     0.174 HD
ATOM     11  HH  ARG D 557     -29.933  -2.953 -18.153  1.00 35.49     0.174 HD
ATOM     12  HH  ARG D 557     -28.861  -3.862 -17.670  1.00 35.49     0.174 HD
ATOM     13  HE  ARG D 557     -29.959  -0.892 -17.683  1.00 35.49     0.178 HD
ENDBRANCH   4   5
ENDBRANCH   3   4
ENDBRANCH   2   3
ENDBRANCH   1   2
END_RES ARG D 557
BEGIN_RES GLU D 570
REMARK  3 active torsions:
REMARK  status: ('A' for Active; 'I' for Inactive)
REMARK    5  A    between atoms: CA   and  CB  
REMARK    6  A    between atoms: CB   and  CG  
REMARK    7  A    between atoms: CG   and  CD  
ROOT
ATOM     14  CA  GLU D 570     -18.033  -6.348 -13.375  1.00 32.92     0.160 C 
ENDROOT
BRANCH  14  15
ATOM     15  CB  GLU D 570     -19.500  -6.345 -13.794  1.00 32.92     0.043 C 
BRANCH  15  16
ATOM     16  CG  GLU D 570     -20.089  -7.637 -14.232  1.00 32.92     0.100 C 
BRANCH  16  17
ATOM     17  CD  GLU D 570     -20.673  -7.576 -15.625  1.00 32.92     0.185 C 
ATOM     18  OE1 GLU D 570     -21.207  -8.595 -16.102  1.00 32.92    -0.647 OA
ATOM     19  OE2 GLU D 570     -20.578  -6.502 -16.252  1.00 32.92    -0.647 OA
ENDBRANCH  16  17
ENDBRANCH  15  16
ENDBRANCH  14  15
END_RES GLU D 570
ENDMDL
MODEL 7
REMARK VINA RESULT:      -7.2      6.641     14.113
REMARK WARNING: 32 MAX_TORS EXCEEDED!!!
REMARK  35 active torsions:
REMARK  status: ('A' for Active; 'I' for Inactive)
REMARK    1  A    between atoms: C_2  and  C_3 
REMARK    2  A    between atoms: C_3  and  C_4 
REMARK    3  A    between atoms: C_4  and  C_5 
REMARK    4  A    between atoms: C_5  and  C_6 
REMARK    5  A    between atoms: C_6  and  C_7 
REMARK    6  A    between atoms: C_7  and  C_8 
REMARK    7  A    between atoms: C_8  and  C_9 
REMARK    8  A    between atoms: C_9  and  C_10 
REMARK    9  A    between atoms: C_10  and  C_11 
REMARK   10  A    between atoms: C_11  and  C_12 
REMARK   11  A    between atoms: C_12  and  C_13 
REMARK   12  A    between atoms: C_13  and  C_14 
REMARK   13  A    between atoms: C_14  and  C_15 
REMARK   14  A    between atoms: C_15  and  C_16 
REMARK   15  A    between atoms: C_16  and  O_18 
REMARK   16  A    between atoms: O_18  and  C_19 
REMARK   17  A    between atoms: C_19  and  C_20 
REMARK   18  A    between atoms: C_25  and  O_46 
REMARK   19  A    between atoms: C_26  and  C_27 
REMARK   20  A    between atoms: C_27  and  O_28 
REMARK   21  A    between atoms: O_28  and  C_29 
REMARK   22  A    between atoms: C_29  and  C_31 
REMARK   23  A    between atoms: C_31  and  C_32 
REMARK   24  A    between atoms: C_32  and  C_33 
REMARK   25  A    between atoms: C_33  and  C_34 
REMARK   26  A    between atoms: C_34  and  C_35 
REMARK   27  A    between atoms: C_35  and  C_36 
REMARK   28  A    between atoms: C_36  and  C_37 
REMARK   29  A    between atoms: C_37  and  C_38 
REMARK   30  A    between atoms: C_38  and  C_39 
REMARK   31  A    between atoms: C_39  and  C_40 
REMARK   32  A    between atoms: C_40  and  C_41 
REMARK   33  A    between atoms: C_41  and  C_42 
REMARK   34  A    between atoms: C_42  and  C_43 
REMARK   35  A    between atoms: C_43  and  C_44 
ROOT
HETATM    1  C   UNL     1     -19.016 -12.220  -1.114  1.00  0.00    -0.007 A 
HETATM    2  C   UNL     1     -18.807 -11.946   0.232  1.00  0.00     0.098 A 
HETATM    3  N   UNL     1     -17.605 -11.980   0.847  1.00  0.00    -0.367 N 
ATOM      4  HN  UNL     1     -17.511 -11.776   1.842  1.00  0.00     0.165 HD
HETATM    5  C   UNL     1     -16.531 -12.297   0.087  1.00  0.00     0.039 A 
HETATM    6  C   UNL     1     -16.636 -12.608  -1.270  1.00  0.00     0.096 A 
HETATM    7  C   UNL     1     -17.898 -12.586  -1.890  1.00  0.00     0.011 A 
HETATM    8  C   UNL     1     -15.199 -12.290   0.777  1.00  0.00     0.071 C 
ENDROOT
BRANCH   1   9
HETATM    9  C   UNL     1     -20.402 -12.094  -1.676  1.00  0.00     0.219 C 
BRANCH   9  10
HETATM   10  O   UNL     1     -20.866 -10.732  -1.562  1.00  0.00    -0.317 OA
BRANCH  10  11
HETATM   11  C   UNL     1     -22.218 -10.595  -1.405  1.00  0.00     0.259 C 
HETATM   12  O   UNL     1     -23.041 -10.676  -2.297  1.00  0.00    -0.265 OA
BRANCH  11  13
HETATM   13  C   UNL     1     -22.553 -10.302   0.046  1.00  0.00     0.111 C 
BRANCH  13  14
HETATM   14  C   UNL     1     -23.074  -8.873   0.178  1.00  0.00     0.010 C 
BRANCH  14  15
HETATM   15  C   UNL     1     -21.977  -7.830   0.001  1.00  0.00     0.000 C 
BRANCH  15  16
HETATM   16  C   UNL     1     -22.333  -6.882  -1.142  1.00  0.00     0.000 C 
BRANCH  16  17
HETATM   17  C   UNL     1     -21.340  -7.024  -2.285  1.00  0.00     0.000 C 
BRANCH  17  18
HETATM   18  C   UNL     1     -21.939  -6.495  -3.578  1.00  0.00     0.000 C 
BRANCH  18  19
HETATM   19  C   UNL     1     -20.847  -5.908  -4.458  1.00  0.00     0.000 C 
BRANCH  19  20
HETATM   20  C   UNL     1     -21.098  -6.267  -5.912  1.00  0.00     0.000 C 
BRANCH  20  21
HETATM   21  C   UNL     1     -19.816  -6.115  -6.713  1.00  0.00     0.000 C 
BRANCH  21  22
HETATM   22  C   UNL     1     -19.991  -5.044  -7.774  1.00  0.00     0.000 C 
BRANCH  22  23
HETATM   23  C   UNL     1     -21.432  -5.020  -8.258  1.00  0.00     0.000 C 
BRANCH  23  24
HETATM   24  C   UNL     1     -21.649  -3.840  -9.193  1.00  0.00     0.000 C 
BRANCH  24  25
HETATM   25  C   UNL     1     -20.740  -3.960 -10.407  1.00  0.00    -0.000 C 
BRANCH  25  26
HETATM   26  C   UNL     1     -21.508  -3.641 -11.683  1.00  0.00    -0.005 C 
HETATM   27  C   UNL     1     -22.901  -3.139 -11.354  1.00  0.00     0.005 C 
ENDBRANCH  25  26
ENDBRANCH  24  25
ENDBRANCH  23  24
ENDBRANCH  22  23
ENDBRANCH  21  22
ENDBRANCH  20  21
ENDBRANCH  19  20
ENDBRANCH  18  19
ENDBRANCH  17  18
ENDBRANCH  16  17
ENDBRANCH  15  16
ENDBRANCH  14  15
ENDBRANCH  13  14
ENDBRANCH  11  13
ENDBRANCH  10  11
ENDBRANCH   9  10
ENDBRANCH   1   9
BRANCH   7  28
HETATM   28  C   UNL     1     -18.083 -12.932  -3.354  1.00  0.00     0.221 C 
BRANCH  28  29
HETATM   29  O   UNL     1     -17.244 -14.021  -3.766  1.00  0.00    -0.317 OA
BRANCH  29  30
HETATM   30  C   UNL     1     -17.173 -14.210  -5.111  1.00  0.00     0.259 C 
HETATM   31  O   UNL     1     -16.242 -14.717  -5.711  1.00  0.00    -0.265 OA
BRANCH  30  32
HETATM   32  C   UNL     1     -18.431 -13.702  -5.762  1.00  0.00     0.111 C 
BRANCH  32  33
HETATM   33  C   UNL     1     -18.079 -13.074  -7.097  1.00  0.00     0.010 C 
BRANCH  33  34
HETATM   34  C   UNL     1     -19.307 -12.559  -7.827  1.00  0.00     0.000 C 
BRANCH  34  35
HETATM   35  C   UNL     1     -20.556 -12.952  -7.048  1.00  0.00     0.000 C 
BRANCH  35  36
HETATM   36  C   UNL     1     -21.392 -11.723  -6.741  1.00  0.00     0.000 C 
BRANCH  36  37
HETATM   37  C   UNL     1     -21.286 -11.374  -5.266  1.00  0.00     0.000 C 
BRANCH  37  38
HETATM   38  C   UNL     1     -20.990  -9.893  -5.106  1.00  0.00     0.000 C 
BRANCH  38  39
HETATM   39  C   UNL     1     -19.594  -9.700  -4.541  1.00  0.00     0.000 C 
BRANCH  39  40
HETATM   40  C   UNL     1     -18.644  -9.268  -5.644  1.00  0.00     0.000 C 
BRANCH  40  41
HETATM   41  C   UNL     1     -17.329 -10.017  -5.520  1.00  0.00     0.000 C 
BRANCH  41  42
HETATM   42  C   UNL     1     -16.667  -9.691  -4.193  1.00  0.00     0.000 C 
BRANCH  42  43
HETATM   43  C   UNL     1     -15.345 -10.434  -4.073  1.00  0.00     0.000 C 
BRANCH  43  44
HETATM   44  C   UNL     1     -15.060 -11.206  -5.351  1.00  0.00    -0.000 C 
BRANCH  44  45
HETATM   45  C   UNL     1     -13.899 -12.170  -5.147  1.00  0.00    -0.005 C 
HETATM   46  C   UNL     1     -13.402 -12.692  -6.480  1.00  0.00     0.005 C 
ENDBRANCH  44  45
ENDBRANCH  43  44
ENDBRANCH  42  43
ENDBRANCH  41  42
ENDBRANCH  40  41
ENDBRANCH  39  40
ENDBRANCH  38  39
ENDBRANCH  37  38
ENDBRANCH  36  37
ENDBRANCH  35  36
ENDBRANCH  34  35
ENDBRANCH  33  34
ENDBRANCH  32  33
ENDBRANCH  30  32
ENDBRANCH  29  30
ENDBRANCH  28  29
ENDBRANCH   7  28
BRANCH   6  47
HETATM   47  O   UNL     1     -15.513 -12.924  -1.996  1.00  0.00    -0.358 OA
HETATM   48  H   UNL     1     -15.584 -12.575  -2.896  1.00  0.00     0.217 HD
ENDBRANCH   6  47
TORSDOF 35
BEGIN_RES ARG D 557
REMARK  4 active torsions:
REMARK  status: ('A' for Active; 'I' for Inactive)
REMARK    1  A    between atoms: CA   and  CB  
REMARK    2  A    between atoms: CB   and  CG  
REMARK    3  A    between atoms: CG   and  CD  
REMARK    4  A    between atoms: CD   and  NE  
REMARK       I    between atoms: NE   and  CZ  
REMARK       I    between atoms: CZ   and  NH1 
REMARK       I    between atoms: CZ   and  NH2 
ROOT
ATOM      1  CA  ARG D 557     -26.217   2.705 -17.014  1.00 35.49     0.159 C 
ENDROOT
BRANCH   1   2
ATOM      2  CB  ARG D 557     -26.789   1.319 -17.183  1.00 35.49     0.034 C 
BRANCH   2   3
ATOM      3  CG  ARG D 557     -25.947   0.199 -16.745  1.00 35.49     0.027 C 
BRANCH   3   4
ATOM      4  CD  ARG D 557     -26.739  -0.904 -16.154  1.00 35.49     0.116 C 
BRANCH   4   5
ATOM      5  NE  ARG D 557     -26.044  -1.552 -15.073  1.00 35.49    -0.212 N 
ATOM      6  CZ  ARG D 557     -26.090  -2.834 -14.789  1.00 35.49     0.666 C 
ATOM      7  NH1 ARG D 557     -26.817  -3.689 -15.484  1.00 35.49    -0.235 N 
ATOM      8  NH2 ARG D 557     -25.377  -3.252 -13.783  1.00 35.49    -0.235 N 
ATOM      9  HH  ARG D 557     -27.292  -3.436 -16.151  1.00 35.49     0.174 HD
ATOM     10  HH  ARG D 557     -26.806  -4.514 -15.254  1.00 35.49     0.174 HD
ATOM     11  HH  ARG D 557     -24.911  -2.679 -13.357  1.00 35.49     0.174 HD
ATOM     12  HH  ARG D 557     -25.378  -4.073 -13.572  1.00 35.49     0.174 HD
ATOM     13  HE  ARG D 557     -25.608  -1.064 -14.529  1.00 35.49     0.178 HD
ENDBRANCH   4   5
ENDBRANCH   3   4
ENDBRANCH   2   3
ENDBRANCH   1   2
END_RES ARG D 557
BEGIN_RES GLU D 570
REMARK  3 active torsions:
REMARK  status: ('A' for Active; 'I' for Inactive)
REMARK    5  A    between atoms: CA   and  CB  
REMARK    6  A    between atoms: CB   and  CG  
REMARK    7  A    between atoms: CG   and  CD  
ROOT
ATOM     14  CA  GLU D 570     -18.033  -6.348 -13.375  1.00 32.92     0.160 C 
ENDROOT
BRANCH  14  15
ATOM     15  CB  GLU D 570     -19.500  -6.345 -13.794  1.00 32.92     0.043 C 
BRANCH  15  16
ATOM     16  CG  GLU D 570     -19.796  -6.319 -15.250  1.00 32.92     0.100 C 
BRANCH  16  17
ATOM     17  CD  GLU D 570     -21.044  -5.535 -15.584  1.00 32.92     0.185 C 
ATOM     18  OE1 GLU D 570     -21.854  -5.271 -14.675  1.00 32.92    -0.647 OA
ATOM     19  OE2 GLU D 570     -21.221  -5.197 -16.770  1.00 32.92    -0.647 OA
ENDBRANCH  16  17
ENDBRANCH  15  16
ENDBRANCH  14  15
END_RES GLU D 570
ENDMDL
MODEL 8
REMARK VINA RESULT:      -7.1      6.758     16.429
REMARK WARNING: 32 MAX_TORS EXCEEDED!!!
REMARK  35 active torsions:
REMARK  status: ('A' for Active; 'I' for Inactive)
REMARK    1  A    between atoms: C_2  and  C_3 
REMARK    2  A    between atoms: C_3  and  C_4 
REMARK    3  A    between atoms: C_4  and  C_5 
REMARK    4  A    between atoms: C_5  and  C_6 
REMARK    5  A    between atoms: C_6  and  C_7 
REMARK    6  A    between atoms: C_7  and  C_8 
REMARK    7  A    between atoms: C_8  and  C_9 
REMARK    8  A    between atoms: C_9  and  C_10 
REMARK    9  A    between atoms: C_10  and  C_11 
REMARK   10  A    between atoms: C_11  and  C_12 
REMARK   11  A    between atoms: C_12  and  C_13 
REMARK   12  A    between atoms: C_13  and  C_14 
REMARK   13  A    between atoms: C_14  and  C_15 
REMARK   14  A    between atoms: C_15  and  C_16 
REMARK   15  A    between atoms: C_16  and  O_18 
REMARK   16  A    between atoms: O_18  and  C_19 
REMARK   17  A    between atoms: C_19  and  C_20 
REMARK   18  A    between atoms: C_25  and  O_46 
REMARK   19  A    between atoms: C_26  and  C_27 
REMARK   20  A    between atoms: C_27  and  O_28 
REMARK   21  A    between atoms: O_28  and  C_29 
REMARK   22  A    between atoms: C_29  and  C_31 
REMARK   23  A    between atoms: C_31  and  C_32 
REMARK   24  A    between atoms: C_32  and  C_33 
REMARK   25  A    between atoms: C_33  and  C_34 
REMARK   26  A    between atoms: C_34  and  C_35 
REMARK   27  A    between atoms: C_35  and  C_36 
REMARK   28  A    between atoms: C_36  and  C_37 
REMARK   29  A    between atoms: C_37  and  C_38 
REMARK   30  A    between atoms: C_38  and  C_39 
REMARK   31  A    between atoms: C_39  and  C_40 
REMARK   32  A    between atoms: C_40  and  C_41 
REMARK   33  A    between atoms: C_41  and  C_42 
REMARK   34  A    between atoms: C_42  and  C_43 
REMARK   35  A    between atoms: C_43  and  C_44 
ROOT
HETATM    1  C   UNL     1     -19.370 -10.371  -3.851  1.00  0.00    -0.007 A 
HETATM    2  C   UNL     1     -19.052 -10.521  -5.194  1.00  0.00     0.098 A 
HETATM    3  N   UNL     1     -19.862 -11.077  -6.121  1.00  0.00    -0.367 N 
ATOM      4  HN  UNL     1     -19.572 -11.168  -7.095  1.00  0.00     0.165 HD
HETATM    5  C   UNL     1     -21.073 -11.509  -5.702  1.00  0.00     0.039 A 
HETATM    6  C   UNL     1     -21.483 -11.422  -4.370  1.00  0.00     0.096 A 
HETATM    7  C   UNL     1     -20.619 -10.858  -3.415  1.00  0.00     0.011 A 
HETATM    8  C   UNL     1     -21.976 -12.087  -6.751  1.00  0.00     0.071 C 
ENDROOT
BRANCH   1   9
HETATM    9  C   UNL     1     -18.391  -9.687  -2.942  1.00  0.00     0.219 C 
BRANCH   9  10
HETATM   10  O   UNL     1     -17.296  -9.142  -3.707  1.00  0.00    -0.317 OA
BRANCH  10  11
HETATM   11  C   UNL     1     -16.076  -9.707  -3.449  1.00  0.00     0.259 C 
HETATM   12  O   UNL     1     -15.564  -9.803  -2.351  1.00  0.00    -0.265 OA
BRANCH  11  13
HETATM   13  C   UNL     1     -15.433 -10.183  -4.740  1.00  0.00     0.111 C 
BRANCH  13  14
HETATM   14  C   UNL     1     -15.417 -11.710  -4.775  1.00  0.00     0.010 C 
BRANCH  14  15
HETATM   15  C   UNL     1     -14.008 -12.278  -4.894  1.00  0.00     0.000 C 
BRANCH  15  16
HETATM   16  C   UNL     1     -13.553 -12.836  -3.547  1.00  0.00     0.000 C 
BRANCH  16  17
HETATM   17  C   UNL     1     -13.172 -14.303  -3.676  1.00  0.00     0.000 C 
BRANCH  17  18
HETATM   18  C   UNL     1     -13.473 -15.044  -2.383  1.00  0.00     0.000 C 
BRANCH  18  19
HETATM   19  C   UNL     1     -13.112 -14.178  -1.188  1.00  0.00     0.000 C 
BRANCH  19  20
HETATM   20  C   UNL     1     -13.194 -14.991   0.092  1.00  0.00     0.000 C 
BRANCH  20  21
HETATM   21  C   UNL     1     -13.556 -14.088   1.259  1.00  0.00     0.000 C 
BRANCH  21  22
HETATM   22  C   UNL     1     -14.988 -14.348   1.692  1.00  0.00     0.000 C 
BRANCH  22  23
HETATM   23  C   UNL     1     -15.708 -13.032   1.930  1.00  0.00     0.000 C 
BRANCH  23  24
HETATM   24  C   UNL     1     -15.547 -12.123   0.721  1.00  0.00     0.000 C 
BRANCH  24  25
HETATM   25  C   UNL     1     -16.826 -12.113  -0.102  1.00  0.00    -0.000 C 
BRANCH  25  26
HETATM   26  C   UNL     1     -16.645 -12.919  -1.381  1.00  0.00    -0.005 C 
HETATM   27  C   UNL     1     -17.616 -14.084  -1.416  1.00  0.00     0.005 C 
ENDBRANCH  25  26
ENDBRANCH  24  25
ENDBRANCH  23  24
ENDBRANCH  22  23
ENDBRANCH  21  22
ENDBRANCH  20  21
ENDBRANCH  19  20
ENDBRANCH  18  19
ENDBRANCH  17  18
ENDBRANCH  16  17
ENDBRANCH  15  16
ENDBRANCH  14  15
ENDBRANCH  13  14
ENDBRANCH  11  13
ENDBRANCH  10  11
ENDBRANCH   9  10
ENDBRANCH   1   9
BRANCH   7  28
HETATM   28  C   UNL     1     -20.996 -10.752  -1.951  1.00  0.00     0.221 C 
BRANCH  28  29
HETATM   29  O   UNL     1     -22.375 -10.400  -1.768  1.00  0.00    -0.317 OA
BRANCH  29  30
HETATM   30  C   UNL     1     -22.614  -9.537  -0.745  1.00  0.00     0.259 C 
HETATM   31  O   UNL     1     -23.499  -9.644   0.085  1.00  0.00    -0.265 OA
BRANCH  30  32
HETATM   32  C   UNL     1     -21.609  -8.417  -0.781  1.00  0.00     0.111 C 
BRANCH  32  33
HETATM   33  C   UNL     1     -22.346  -7.094  -0.868  1.00  0.00     0.010 C 
BRANCH  33  34
HETATM   34  C   UNL     1     -21.978  -6.318  -2.120  1.00  0.00     0.000 C 
BRANCH  34  35
HETATM   35  C   UNL     1     -21.792  -7.289  -3.277  1.00  0.00     0.000 C 
BRANCH  35  36
HETATM   36  C   UNL     1     -20.735  -6.771  -4.235  1.00  0.00     0.000 C 
BRANCH  36  37
HETATM   37  C   UNL     1     -20.938  -7.374  -5.614  1.00  0.00     0.000 C 
BRANCH  37  38
HETATM   38  C   UNL     1     -21.130  -6.270  -6.638  1.00  0.00     0.000 C 
BRANCH  38  39
HETATM   39  C   UNL     1     -20.456  -4.996  -6.162  1.00  0.00     0.000 C 
BRANCH  39  40
HETATM   40  C   UNL     1     -20.309  -4.024  -7.319  1.00  0.00     0.000 C 
BRANCH  40  41
HETATM   41  C   UNL     1     -20.915  -4.619  -8.578  1.00  0.00     0.000 C 
BRANCH  41  42
HETATM   42  C   UNL     1     -20.264  -4.010  -9.808  1.00  0.00     0.000 C 
BRANCH  42  43
HETATM   43  C   UNL     1     -21.086  -4.332 -11.046  1.00  0.00     0.000 C 
BRANCH  43  44
HETATM   44  C   UNL     1     -21.605  -3.050 -11.679  1.00  0.00    -0.000 C 
BRANCH  44  45
HETATM   45  C   UNL     1     -23.127  -3.025 -11.666  1.00  0.00    -0.005 C 
HETATM   46  C   UNL     1     -23.677  -4.380 -11.266  1.00  0.00     0.005 C 
ENDBRANCH  44  45
ENDBRANCH  43  44
ENDBRANCH  42  43
ENDBRANCH  41  42
ENDBRANCH  40  41
ENDBRANCH  39  40
ENDBRANCH  38  39
ENDBRANCH  37  38
ENDBRANCH  36  37
ENDBRANCH  35  36
ENDBRANCH  34  35
ENDBRANCH  33  34
ENDBRANCH  32  33
ENDBRANCH  30  32
ENDBRANCH  29  30
ENDBRANCH  28  29
ENDBRANCH   7  28
BRANCH   6  47
HETATM   47  O   UNL     1     -22.725 -11.878  -3.997  1.00  0.00    -0.358 OA
HETATM   48  H   UNL     1     -23.372 -11.160  -4.034  1.00  0.00     0.217 HD
ENDBRANCH   6  47
TORSDOF 35
BEGIN_RES ARG D 557
REMARK  4 active torsions:
REMARK  status: ('A' for Active; 'I' for Inactive)
REMARK    1  A    between atoms: CA   and  CB  
REMARK    2  A    between atoms: CB   and  CG  
REMARK    3  A    between atoms: CG   and  CD  
REMARK    4  A    between atoms: CD   and  NE  
REMARK       I    between atoms: NE   and  CZ  
REMARK       I    between atoms: CZ   and  NH1 
REMARK       I    between atoms: CZ   and  NH2 
ROOT
ATOM      1  CA  ARG D 557     -26.217   2.705 -17.014  1.00 35.49     0.159 C 
ENDROOT
BRANCH   1   2
ATOM      2  CB  ARG D 557     -26.789   1.319 -17.183  1.00 35.49     0.034 C 
BRANCH   2   3
ATOM      3  CG  ARG D 557     -28.237   1.224 -17.404  1.00 35.49     0.027 C 
BRANCH   3   4
ATOM      4  CD  ARG D 557     -28.889   0.272 -16.476  1.00 35.49     0.116 C 
BRANCH   4   5
ATOM      5  NE  ARG D 557     -29.259  -0.955 -17.130  1.00 35.49    -0.212 N 
ATOM      6  CZ  ARG D 557     -28.621  -2.100 -17.032  1.00 35.49     0.666 C 
ATOM      7  NH1 ARG D 557     -27.526  -2.243 -16.309  1.00 35.49    -0.235 N 
ATOM      8  NH2 ARG D 557     -29.112  -3.118 -17.679  1.00 35.49    -0.235 N 
ATOM      9  HH  ARG D 557     -27.187  -1.587 -15.874  1.00 35.49     0.174 HD
ATOM     10  HH  ARG D 557     -27.154  -3.014 -16.281  1.00 35.49     0.174 HD
ATOM     11  HH  ARG D 557     -29.824  -2.998 -18.132  1.00 35.49     0.174 HD
ATOM     12  HH  ARG D 557     -28.730  -3.874 -17.637  1.00 35.49     0.174 HD
ATOM     13  HE  ARG D 557     -29.912  -0.936 -17.674  1.00 35.49     0.178 HD
ENDBRANCH   4   5
ENDBRANCH   3   4
ENDBRANCH   2   3
ENDBRANCH   1   2
END_RES ARG D 557
BEGIN_RES GLU D 570
REMARK  3 active torsions:
REMARK  status: ('A' for Active; 'I' for Inactive)
REMARK    5  A    between atoms: CA   and  CB  
REMARK    6  A    between atoms: CB   and  CG  
REMARK    7  A    between atoms: CG   and  CD  
ROOT
ATOM     14  CA  GLU D 570     -18.033  -6.348 -13.375  1.00 32.92     0.160 C 
ENDROOT
BRANCH  14  15
ATOM     15  CB  GLU D 570     -19.500  -6.345 -13.794  1.00 32.92     0.043 C 
BRANCH  15  16
ATOM     16  CG  GLU D 570     -19.810  -5.971 -15.198  1.00 32.92     0.100 C 
BRANCH  16  17
ATOM     17  CD  GLU D 570     -21.209  -5.426 -15.367  1.00 32.92     0.185 C 
ATOM     18  OE1 GLU D 570     -21.927  -5.277 -14.360  1.00 32.92    -0.647 OA
ATOM     19  OE2 GLU D 570     -21.598  -5.161 -16.522  1.00 32.92    -0.647 OA
ENDBRANCH  16  17
ENDBRANCH  15  16
ENDBRANCH  14  15
END_RES GLU D 570
ENDMDL
MODEL 9
REMARK VINA RESULT:      -7.1      6.571     13.889
REMARK WARNING: 32 MAX_TORS EXCEEDED!!!
REMARK  35 active torsions:
REMARK  status: ('A' for Active; 'I' for Inactive)
REMARK    1  A    between atoms: C_2  and  C_3 
REMARK    2  A    between atoms: C_3  and  C_4 
REMARK    3  A    between atoms: C_4  and  C_5 
REMARK    4  A    between atoms: C_5  and  C_6 
REMARK    5  A    between atoms: C_6  and  C_7 
REMARK    6  A    between atoms: C_7  and  C_8 
REMARK    7  A    between atoms: C_8  and  C_9 
REMARK    8  A    between atoms: C_9  and  C_10 
REMARK    9  A    between atoms: C_10  and  C_11 
REMARK   10  A    between atoms: C_11  and  C_12 
REMARK   11  A    between atoms: C_12  and  C_13 
REMARK   12  A    between atoms: C_13  and  C_14 
REMARK   13  A    between atoms: C_14  and  C_15 
REMARK   14  A    between atoms: C_15  and  C_16 
REMARK   15  A    between atoms: C_16  and  O_18 
REMARK   16  A    between atoms: O_18  and  C_19 
REMARK   17  A    between atoms: C_19  and  C_20 
REMARK   18  A    between atoms: C_25  and  O_46 
REMARK   19  A    between atoms: C_26  and  C_27 
REMARK   20  A    between atoms: C_27  and  O_28 
REMARK   21  A    between atoms: O_28  and  C_29 
REMARK   22  A    between atoms: C_29  and  C_31 
REMARK   23  A    between atoms: C_31  and  C_32 
REMARK   24  A    between atoms: C_32  and  C_33 
REMARK   25  A    between atoms: C_33  and  C_34 
REMARK   26  A    between atoms: C_34  and  C_35 
REMARK   27  A    between atoms: C_35  and  C_36 
REMARK   28  A    between atoms: C_36  and  C_37 
REMARK   29  A    between atoms: C_37  and  C_38 
REMARK   30  A    between atoms: C_38  and  C_39 
REMARK   31  A    between atoms: C_39  and  C_40 
REMARK   32  A    between atoms: C_40  and  C_41 
REMARK   33  A    between atoms: C_41  and  C_42 
REMARK   34  A    between atoms: C_42  and  C_43 
REMARK   35  A    between atoms: C_43  and  C_44 
ROOT
HETATM    1  C   UNL     1     -22.406 -10.233  -0.020  1.00  0.00    -0.007 A 
HETATM    2  C   UNL     1     -23.724 -10.459  -0.395  1.00  0.00     0.098 A 
HETATM    3  N   UNL     1     -24.232 -11.663  -0.739  1.00  0.00    -0.367 N 
ATOM      4  HN  UNL     1     -25.209 -11.769  -1.013  1.00  0.00     0.165 HD
HETATM    5  C   UNL     1     -23.390 -12.721  -0.705  1.00  0.00     0.039 A 
HETATM    6  C   UNL     1     -22.042 -12.598  -0.360  1.00  0.00     0.096 A 
HETATM    7  C   UNL     1     -21.526 -11.334  -0.024  1.00  0.00     0.011 A 
HETATM    8  C   UNL     1     -23.979 -14.056  -1.050  1.00  0.00     0.071 C 
ENDROOT
BRANCH   1   9
HETATM    9  C   UNL     1     -21.991  -8.849   0.386  1.00  0.00     0.219 C 
BRANCH   9  10
HETATM   10  O   UNL     1     -22.720  -7.865  -0.378  1.00  0.00    -0.317 OA
BRANCH  10  11
HETATM   11  C   UNL     1     -21.958  -7.128  -1.243  1.00  0.00     0.259 C 
HETATM   12  O   UNL     1     -22.295  -6.079  -1.758  1.00  0.00    -0.265 OA
BRANCH  11  13
HETATM   13  C   UNL     1     -20.628  -7.817  -1.492  1.00  0.00     0.111 C 
BRANCH  13  14
HETATM   14  C   UNL     1     -20.354  -7.882  -2.993  1.00  0.00     0.010 C 
BRANCH  14  15
HETATM   15  C   UNL     1     -21.542  -8.415  -3.784  1.00  0.00     0.000 C 
BRANCH  15  16
HETATM   16  C   UNL     1     -21.557  -7.805  -5.183  1.00  0.00     0.000 C 
BRANCH  16  17
HETATM   17  C   UNL     1     -20.311  -6.963  -5.414  1.00  0.00     0.000 C 
BRANCH  17  18
HETATM   18  C   UNL     1     -20.477  -6.099  -6.654  1.00  0.00     0.000 C 
BRANCH  18  19
HETATM   19  C   UNL     1     -20.699  -4.649  -6.253  1.00  0.00     0.000 C 
BRANCH  19  20
HETATM   20  C   UNL     1     -20.925  -3.795  -7.488  1.00  0.00     0.000 C 
BRANCH  20  21
HETATM   21  C   UNL     1     -21.178  -4.681  -8.694  1.00  0.00     0.000 C 
BRANCH  21  22
HETATM   22  C   UNL     1     -20.453  -4.126  -9.908  1.00  0.00     0.000 C 
BRANCH  22  23
HETATM   23  C   UNL     1     -21.353  -4.197 -11.130  1.00  0.00     0.000 C 
BRANCH  23  24
HETATM   24  C   UNL     1     -22.272  -2.985 -11.173  1.00  0.00     0.000 C 
BRANCH  24  25
HETATM   25  C   UNL     1     -23.194  -3.069 -12.379  1.00  0.00    -0.000 C 
BRANCH  25  26
HETATM   26  C   UNL     1     -22.599  -3.979 -13.445  1.00  0.00    -0.005 C 
HETATM   27  C   UNL     1     -22.584  -3.281 -14.792  1.00  0.00     0.005 C 
ENDBRANCH  25  26
ENDBRANCH  24  25
ENDBRANCH  23  24
ENDBRANCH  22  23
ENDBRANCH  21  22
ENDBRANCH  20  21
ENDBRANCH  19  20
ENDBRANCH  18  19
ENDBRANCH  17  18
ENDBRANCH  16  17
ENDBRANCH  15  16
ENDBRANCH  14  15
ENDBRANCH  13  14
ENDBRANCH  11  13
ENDBRANCH  10  11
ENDBRANCH   9  10
ENDBRANCH   1   9
BRANCH   7  28
HETATM   28  C   UNL     1     -20.068 -11.130   0.341  1.00  0.00     0.221 C 
BRANCH  28  29
HETATM   29  O   UNL     1     -19.197 -11.291  -0.788  1.00  0.00    -0.317 OA
BRANCH  29  30
HETATM   30  C   UNL     1     -18.162 -12.150  -0.593  1.00  0.00     0.259 C 
HETATM   31  O   UNL     1     -18.229 -13.232  -0.039  1.00  0.00    -0.265 OA
BRANCH  30  32
HETATM   32  C   UNL     1     -16.902 -11.567  -1.175  1.00  0.00     0.111 C 
BRANCH  32  33
HETATM   33  C   UNL     1     -15.831 -12.640  -1.213  1.00  0.00     0.010 C 
BRANCH  33  34
HETATM   34  C   UNL     1     -15.609 -13.174  -2.617  1.00  0.00     0.000 C 
BRANCH  34  35
HETATM   35  C   UNL     1     -14.150 -12.976  -3.004  1.00  0.00     0.000 C 
BRANCH  35  36
HETATM   36  C   UNL     1     -13.954 -13.261  -4.482  1.00  0.00     0.000 C 
BRANCH  36  37
HETATM   37  C   UNL     1     -13.915 -11.960  -5.266  1.00  0.00     0.000 C 
BRANCH  37  38
HETATM   38  C   UNL     1     -15.226 -11.763  -6.006  1.00  0.00     0.000 C 
BRANCH  38  39
HETATM   39  C   UNL     1     -15.694 -10.327  -5.861  1.00  0.00     0.000 C 
BRANCH  39  40
HETATM   40  C   UNL     1     -15.998 -10.025  -4.405  1.00  0.00     0.000 C 
BRANCH  40  41
HETATM   41  C   UNL     1     -17.447  -9.599  -4.253  1.00  0.00     0.000 C 
BRANCH  41  42
HETATM   42  C   UNL     1     -18.169  -9.722  -5.584  1.00  0.00     0.000 C 
BRANCH  42  43
HETATM   43  C   UNL     1     -19.252 -10.785  -5.494  1.00  0.00     0.000 C 
BRANCH  43  44
HETATM   44  C   UNL     1     -18.996 -11.882  -6.516  1.00  0.00    -0.000 C 
BRANCH  44  45
HETATM   45  C   UNL     1     -18.957 -13.245  -5.840  1.00  0.00    -0.005 C 
HETATM   46  C   UNL     1     -18.777 -13.089  -4.342  1.00  0.00     0.005 C 
ENDBRANCH  44  45
ENDBRANCH  43  44
ENDBRANCH  42  43
ENDBRANCH  41  42
ENDBRANCH  40  41
ENDBRANCH  39  40
ENDBRANCH  38  39
ENDBRANCH  37  38
ENDBRANCH  36  37
ENDBRANCH  35  36
ENDBRANCH  34  35
ENDBRANCH  33  34
ENDBRANCH  32  33
ENDBRANCH  30  32
ENDBRANCH  29  30
ENDBRANCH  28  29
ENDBRANCH   7  28
BRANCH   6  47
HETATM   47  O   UNL     1     -21.228 -13.706  -0.342  1.00  0.00    -0.358 OA
HETATM   48  H   UNL     1     -21.254 -14.156  -1.198  1.00  0.00     0.217 HD
ENDBRANCH   6  47
TORSDOF 35
BEGIN_RES ARG D 557
REMARK  4 active torsions:
REMARK  status: ('A' for Active; 'I' for Inactive)
REMARK    1  A    between atoms: CA   and  CB  
REMARK    2  A    between atoms: CB   and  CG  
REMARK    3  A    between atoms: CG   and  CD  
REMARK    4  A    between atoms: CD   and  NE  
REMARK       I    between atoms: NE   and  CZ  
REMARK       I    between atoms: CZ   and  NH1 
REMARK       I    between atoms: CZ   and  NH2 
ROOT
ATOM      1  CA  ARG D 557     -26.217   2.705 -17.014  1.00 35.49     0.159 C 
ENDROOT
BRANCH   1   2
ATOM      2  CB  ARG D 557     -26.789   1.319 -17.183  1.00 35.49     0.034 C 
BRANCH   2   3
ATOM      3  CG  ARG D 557     -28.060   1.041 -16.503  1.00 35.49     0.027 C 
BRANCH   3   4
ATOM      4  CD  ARG D 557     -28.780  -0.107 -17.099  1.00 35.49     0.116 C 
BRANCH   4   5
ATOM      5  NE  ARG D 557     -28.179  -1.366 -16.745  1.00 35.49    -0.212 N 
ATOM      6  CZ  ARG D 557     -28.654  -2.555 -17.043  1.00 35.49     0.666 C 
ATOM      7  NH1 ARG D 557     -29.781  -2.721 -17.710  1.00 35.49    -0.235 N 
ATOM      8  NH2 ARG D 557     -27.965  -3.590 -16.659  1.00 35.49    -0.235 N 
ATOM      9  HH  ARG D 557     -30.250  -2.054 -17.974  1.00 35.49     0.174 HD
ATOM     10  HH  ARG D 557     -30.041  -3.521 -17.877  1.00 35.49     0.174 HD
ATOM     11  HH  ARG D 557     -27.237  -3.452 -16.237  1.00 35.49     0.174 HD
ATOM     12  HH  ARG D 557     -28.238  -4.373 -16.836  1.00 35.49     0.174 HD
ATOM     13  HE  ARG D 557     -27.487  -1.354 -16.251  1.00 35.49     0.178 HD
ENDBRANCH   4   5
ENDBRANCH   3   4
ENDBRANCH   2   3
ENDBRANCH   1   2
END_RES ARG D 557
BEGIN_RES GLU D 570
REMARK  3 active torsions:
REMARK  status: ('A' for Active; 'I' for Inactive)
REMARK    5  A    between atoms: CA   and  CB  
REMARK    6  A    between atoms: CB   and  CG  
REMARK    7  A    between atoms: CG   and  CD  
ROOT
ATOM     14  CA  GLU D 570     -18.033  -6.348 -13.375  1.00 32.92     0.160 C 
ENDROOT
BRANCH  14  15
ATOM     15  CB  GLU D 570     -19.500  -6.345 -13.794  1.00 32.92     0.043 C 
BRANCH  15  16
ATOM     16  CG  GLU D 570     -19.799  -6.513 -15.240  1.00 32.92     0.100 C 
BRANCH  16  17
ATOM     17  CD  GLU D 570     -21.031  -7.352 -15.493  1.00 32.92     0.185 C 
ATOM     18  OE1 GLU D 570     -22.149  -6.890 -15.195  1.00 32.92    -0.647 OA
ATOM     19  OE2 GLU D 570     -20.874  -8.489 -15.978  1.00 32.92    -0.647 OA
ENDBRANCH  16  17
ENDBRANCH  15  16
ENDBRANCH  14  15
END_RES GLU D 570
ENDMDL
