MODEL 1
REMARK VINA RESULT:      -6.9      0.000      0.000
REMARK  6 active torsions:
REMARK  status: ('A' for Active; 'I' for Inactive)
REMARK    1  A    between atoms: C_1  and  C_2 
REMARK    2  A    between atoms: C_1  and  O_12 
REMARK    3  A    between atoms: C_2  and  C_3 
REMARK    4  A    between atoms: C_2  and  O_11 
REMARK    5  A    between atoms: C_4  and  O_10 
REMARK    6  A    between atoms: C_5  and  O_9 
ROOT
HETATM    1  C   UNL     1     -24.163  -3.327 -13.483  1.00  0.00     0.226 A 
HETATM    2  C   UNL     1     -23.051  -4.070 -12.773  1.00  0.00     0.156 A 
HETATM    3  C   UNL     1     -23.323  -4.046 -11.464  1.00  0.00     0.177 A 
HETATM    4  C   UNL     1     -24.589  -3.341 -11.220  1.00  0.00     0.320 A 
HETATM    5  O   UNL     1     -25.136  -3.145 -10.150  1.00  0.00    -0.257 OA
HETATM    6  O   UNL     1     -25.062  -2.917 -12.428  1.00  0.00    -0.301 OA
ENDROOT
BRANCH   1   7
HETATM    7  C   UNL     1     -23.814  -2.054 -14.308  1.00  0.00     0.177 C 
BRANCH   7   8
HETATM    8  C   UNL     1     -25.024  -1.328 -14.906  1.00  0.00     0.198 C 
BRANCH   8   9
HETATM    9  O   UNL     1     -24.915   0.101 -14.868  1.00  0.00    -0.398 OA
HETATM   10  H   UNL     1     -24.457   0.347 -15.699  1.00  0.00     0.209 HD
ENDBRANCH   8   9
ENDBRANCH   7   8
BRANCH   7  11
HETATM   11  O   UNL     1     -22.885  -2.298 -15.374  1.00  0.00    -0.390 OA
HETATM   12  H   UNL     1     -23.326  -2.883 -16.017  1.00  0.00     0.210 HD
ENDBRANCH   7  11
ENDBRANCH   1   7
BRANCH   2  13
HETATM   13  O   UNL     1     -22.139  -4.610 -13.449  1.00  0.00    -0.191 OA
HETATM   14 NA   UNL     2     -21.062  -4.184 -15.218  1.00  0.00     0.000 Na
ENDBRANCH   2  13
BRANCH   3  15
HETATM   15  O   UNL     1     -22.543  -4.642 -10.511  1.00  0.00    -0.353 OA
HETATM   16  H   UNL     1     -22.347  -5.508 -10.922  1.00  0.00     0.218 HD
ENDBRANCH   3  15
TORSDOF 6
BEGIN_RES ARG D 557
REMARK  4 active torsions:
REMARK  status: ('A' for Active; 'I' for Inactive)
REMARK    1  A    between atoms: CA   and  CB  
REMARK    2  A    between atoms: CB   and  CG  
REMARK    3  A    between atoms: CG   and  CD  
REMARK    4  A    between atoms: CD   and  NE  
REMARK       I    between atoms: NE   and  CZ  
REMARK       I    between atoms: CZ   and  NH1 
REMARK       I    between atoms: CZ   and  NH2 
ROOT
ATOM      1  CA  ARG D 557     -26.217   2.705 -17.014  1.00 35.49     0.159 C 
ENDROOT
BRANCH   1   2
ATOM      2  CB  ARG D 557     -26.789   1.319 -17.183  1.00 35.49     0.034 C 
BRANCH   2   3
ATOM      3  CG  ARG D 557     -28.150   1.100 -16.679  1.00 35.49     0.027 C 
BRANCH   3   4
ATOM      4  CD  ARG D 557     -28.785  -0.100 -17.271  1.00 35.49     0.116 C 
BRANCH   4   5
ATOM      5  NE  ARG D 557     -28.157  -1.318 -16.832  1.00 35.49    -0.212 N 
ATOM      6  CZ  ARG D 557     -28.623  -2.533 -17.018  1.00 35.49     0.666 C 
ATOM      7  NH1 ARG D 557     -29.765  -2.767 -17.637  1.00 35.49    -0.235 N 
ATOM      8  NH2 ARG D 557     -27.910  -3.524 -16.570  1.00 35.49    -0.235 N 
ATOM      9  HH  ARG D 557     -30.250  -2.129 -17.942  1.00 35.49     0.174 HD
ATOM     10  HH  ARG D 557     -30.018  -3.580 -17.732  1.00 35.49     0.174 HD
ATOM     11  HH  ARG D 557     -27.173  -3.344 -16.180  1.00 35.49     0.174 HD
ATOM     12  HH  ARG D 557     -28.176  -4.323 -16.674  1.00 35.49     0.174 HD
ATOM     13  HE  ARG D 557     -27.452  -1.256 -16.360  1.00 35.49     0.178 HD
ENDBRANCH   4   5
ENDBRANCH   3   4
ENDBRANCH   2   3
ENDBRANCH   1   2
END_RES ARG D 557
BEGIN_RES GLU D 570
REMARK  3 active torsions:
REMARK  status: ('A' for Active; 'I' for Inactive)
REMARK    5  A    between atoms: CA   and  CB  
REMARK    6  A    between atoms: CB   and  CG  
REMARK    7  A    between atoms: CG   and  CD  
ROOT
ATOM     14  CA  GLU D 570     -18.033  -6.348 -13.375  1.00 32.92     0.160 C 
ENDROOT
BRANCH  14  15
ATOM     15  CB  GLU D 570     -19.500  -6.345 -13.794  1.00 32.92     0.043 C 
BRANCH  15  16
ATOM     16  CG  GLU D 570     -20.095  -7.640 -14.214  1.00 32.92     0.100 C 
BRANCH  16  17
ATOM     17  CD  GLU D 570     -20.691  -7.593 -15.601  1.00 32.92     0.185 C 
ATOM     18  OE1 GLU D 570     -21.061  -6.497 -16.064  1.00 32.92    -0.647 OA
ATOM     19  OE2 GLU D 570     -20.805  -8.666 -16.225  1.00 32.92    -0.647 OA
ENDBRANCH  16  17
ENDBRANCH  15  16
ENDBRANCH  14  15
END_RES GLU D 570
ENDMDL
MODEL 2
REMARK VINA RESULT:      -6.8      2.212      2.871
REMARK  6 active torsions:
REMARK  status: ('A' for Active; 'I' for Inactive)
REMARK    1  A    between atoms: C_1  and  C_2 
REMARK    2  A    between atoms: C_1  and  O_12 
REMARK    3  A    between atoms: C_2  and  C_3 
REMARK    4  A    between atoms: C_2  and  O_11 
REMARK    5  A    between atoms: C_4  and  O_10 
REMARK    6  A    between atoms: C_5  and  O_9 
ROOT
HETATM    1  C   UNL     1     -23.429  -2.601 -12.211  1.00  0.00     0.226 A 
HETATM    2  C   UNL     1     -23.909  -3.356 -10.990  1.00  0.00     0.156 A 
HETATM    3  C   UNL     1     -22.871  -4.046 -10.509  1.00  0.00     0.177 A 
HETATM    4  C   UNL     1     -21.672  -3.794 -11.322  1.00  0.00     0.320 A 
HETATM    5  O   UNL     1     -20.555  -4.252 -11.160  1.00  0.00    -0.257 OA
HETATM    6  O   UNL     1     -22.029  -2.943 -12.327  1.00  0.00    -0.301 OA
ENDROOT
BRANCH   1   7
HETATM    7  C   UNL     1     -24.088  -2.895 -13.590  1.00  0.00     0.177 C 
BRANCH   7   8
HETATM    8  C   UNL     1     -23.596  -2.008 -14.738  1.00  0.00     0.198 C 
BRANCH   8   9
HETATM    9  O   UNL     1     -22.404  -2.490 -15.371  1.00  0.00    -0.398 OA
HETATM   10  H   UNL     1     -22.333  -1.983 -16.206  1.00  0.00     0.209 HD
ENDBRANCH   8   9
ENDBRANCH   7   8
BRANCH   7  11
HETATM   11  O   UNL     1     -25.521  -2.821 -13.569  1.00  0.00    -0.390 OA
HETATM   12  H   UNL     1     -25.862  -3.640 -13.974  1.00  0.00     0.210 HD
ENDBRANCH   7  11
ENDBRANCH   1   7
BRANCH   2  13
HETATM   13  O   UNL     1     -25.093  -3.201 -10.593  1.00  0.00    -0.191 OA
HETATM   14 NA   UNL     2     -26.506  -4.300  -9.468  1.00  0.00     0.000 Na
ENDBRANCH   2  13
BRANCH   3  15
HETATM   15  O   UNL     1     -22.927  -4.832  -9.391  1.00  0.00    -0.353 OA
HETATM   16  H   UNL     1     -23.744  -5.346  -9.546  1.00  0.00     0.218 HD
ENDBRANCH   3  15
TORSDOF 6
BEGIN_RES ARG D 557
REMARK  4 active torsions:
REMARK  status: ('A' for Active; 'I' for Inactive)
REMARK    1  A    between atoms: CA   and  CB  
REMARK    2  A    between atoms: CB   and  CG  
REMARK    3  A    between atoms: CG   and  CD  
REMARK    4  A    between atoms: CD   and  NE  
REMARK       I    between atoms: NE   and  CZ  
REMARK       I    between atoms: CZ   and  NH1 
REMARK       I    between atoms: CZ   and  NH2 
ROOT
ATOM      1  CA  ARG D 557     -26.217   2.705 -17.014  1.00 35.49     0.159 C 
ENDROOT
BRANCH   1   2
ATOM      2  CB  ARG D 557     -26.789   1.319 -17.183  1.00 35.49     0.034 C 
BRANCH   2   3
ATOM      3  CG  ARG D 557     -28.230   1.227 -17.449  1.00 35.49     0.027 C 
BRANCH   3   4
ATOM      4  CD  ARG D 557     -28.899   0.225 -16.588  1.00 35.49     0.116 C 
BRANCH   4   5
ATOM      5  NE  ARG D 557     -27.999  -0.815 -16.165  1.00 35.49    -0.212 N 
ATOM      6  CZ  ARG D 557     -28.044  -2.072 -16.546  1.00 35.49     0.666 C 
ATOM      7  NH1 ARG D 557     -28.964  -2.528 -17.377  1.00 35.49    -0.235 N 
ATOM      8  NH2 ARG D 557     -27.133  -2.874 -16.078  1.00 35.49    -0.235 N 
ATOM      9  HH  ARG D 557     -29.571  -2.017 -17.699  1.00 35.49     0.174 HD
ATOM     10  HH  ARG D 557     -28.942  -3.357 -17.593  1.00 35.49     0.174 HD
ATOM     11  HH  ARG D 557     -26.548  -2.550 -15.549  1.00 35.49     0.174 HD
ATOM     12  HH  ARG D 557     -27.128  -3.691 -16.305  1.00 35.49     0.174 HD
ATOM     13  HE  ARG D 557     -27.419  -0.625 -15.573  1.00 35.49     0.178 HD
ENDBRANCH   4   5
ENDBRANCH   3   4
ENDBRANCH   2   3
ENDBRANCH   1   2
END_RES ARG D 557
BEGIN_RES GLU D 570
REMARK  3 active torsions:
REMARK  status: ('A' for Active; 'I' for Inactive)
REMARK    5  A    between atoms: CA   and  CB  
REMARK    6  A    between atoms: CB   and  CG  
REMARK    7  A    between atoms: CG   and  CD  
ROOT
ATOM     14  CA  GLU D 570     -18.033  -6.348 -13.375  1.00 32.92     0.160 C 
ENDROOT
BRANCH  14  15
ATOM     15  CB  GLU D 570     -19.500  -6.345 -13.794  1.00 32.92     0.043 C 
BRANCH  15  16
ATOM     16  CG  GLU D 570     -19.800  -6.132 -15.233  1.00 32.92     0.100 C 
BRANCH  16  17
ATOM     17  CD  GLU D 570     -21.165  -5.527 -15.467  1.00 32.92     0.185 C 
ATOM     18  OE1 GLU D 570     -21.455  -5.111 -16.605  1.00 32.92    -0.647 OA
ATOM     19  OE2 GLU D 570     -21.946  -5.454 -14.498  1.00 32.92    -0.647 OA
ENDBRANCH  16  17
ENDBRANCH  15  16
ENDBRANCH  14  15
END_RES GLU D 570
ENDMDL
MODEL 3
REMARK VINA RESULT:      -6.8      1.939      3.777
REMARK  6 active torsions:
REMARK  status: ('A' for Active; 'I' for Inactive)
REMARK    1  A    between atoms: C_1  and  C_2 
REMARK    2  A    between atoms: C_1  and  O_12 
REMARK    3  A    between atoms: C_2  and  C_3 
REMARK    4  A    between atoms: C_2  and  O_11 
REMARK    5  A    between atoms: C_4  and  O_10 
REMARK    6  A    between atoms: C_5  and  O_9 
ROOT
HETATM    1  C   UNL     1     -23.294  -3.626 -12.627  1.00  0.00     0.226 A 
HETATM    2  C   UNL     1     -24.560  -2.844 -12.902  1.00  0.00     0.156 A 
HETATM    3  C   UNL     1     -24.376  -2.166 -14.039  1.00  0.00     0.177 A 
HETATM    4  C   UNL     1     -23.045  -2.454 -14.593  1.00  0.00     0.320 A 
HETATM    5  O   UNL     1     -22.557  -2.015 -15.619  1.00  0.00    -0.257 OA
HETATM    6  O   UNL     1     -22.421  -3.312 -13.735  1.00  0.00    -0.301 OA
ENDROOT
BRANCH   1   7
HETATM    7  C   UNL     1     -22.497  -3.340 -11.321  1.00  0.00     0.177 C 
BRANCH   7   8
HETATM    8  C   UNL     1     -21.243  -4.201 -11.134  1.00  0.00     0.198 C 
BRANCH   8   9
HETATM    9  O   UNL     1     -20.081  -3.678 -11.791  1.00  0.00    -0.398 OA
HETATM   10  H   UNL     1     -19.940  -2.791 -11.399  1.00  0.00     0.209 HD
ENDBRANCH   8   9
ENDBRANCH   7   8
BRANCH   7  11
HETATM   11  O   UNL     1     -23.286  -3.460 -10.129  1.00  0.00    -0.390 OA
HETATM   12  H   UNL     1     -23.970  -2.766 -10.161  1.00  0.00     0.210 HD
ENDBRANCH   7  11
ENDBRANCH   1   7
BRANCH   2  13
HETATM   13  O   UNL     1     -25.545  -2.971 -12.129  1.00  0.00    -0.191 OA
HETATM   14 NA   UNL     2     -25.871  -3.514 -10.112  1.00  0.00     0.000 Na
ENDBRANCH   2  13
BRANCH   3  15
HETATM   15  O   UNL     1     -25.324  -1.363 -14.612  1.00  0.00    -0.353 OA
HETATM   16  H   UNL     1     -24.923  -0.476 -14.514  1.00  0.00     0.218 HD
ENDBRANCH   3  15
TORSDOF 6
BEGIN_RES ARG D 557
REMARK  4 active torsions:
REMARK  status: ('A' for Active; 'I' for Inactive)
REMARK    1  A    between atoms: CA   and  CB  
REMARK    2  A    between atoms: CB   and  CG  
REMARK    3  A    between atoms: CG   and  CD  
REMARK    4  A    between atoms: CD   and  NE  
REMARK       I    between atoms: NE   and  CZ  
REMARK       I    between atoms: CZ   and  NH1 
REMARK       I    between atoms: CZ   and  NH2 
ROOT
ATOM      1  CA  ARG D 557     -26.217   2.705 -17.014  1.00 35.49     0.159 C 
ENDROOT
BRANCH   1   2
ATOM      2  CB  ARG D 557     -26.789   1.319 -17.183  1.00 35.49     0.034 C 
BRANCH   2   3
ATOM      3  CG  ARG D 557     -28.198   1.136 -16.814  1.00 35.49     0.027 C 
BRANCH   3   4
ATOM      4  CD  ARG D 557     -28.695  -0.221 -17.138  1.00 35.49     0.116 C 
BRANCH   4   5
ATOM      5  NE  ARG D 557     -27.911  -1.250 -16.506  1.00 35.49    -0.212 N 
ATOM      6  CZ  ARG D 557     -28.075  -2.544 -16.663  1.00 35.49     0.666 C 
ATOM      7  NH1 ARG D 557     -29.019  -3.052 -17.434  1.00 35.49    -0.235 N 
ATOM      8  NH2 ARG D 557     -27.257  -3.334 -16.028  1.00 35.49    -0.235 N 
ATOM      9  HH  ARG D 557     -29.566  -2.551 -17.862  1.00 35.49     0.174 HD
ATOM     10  HH  ARG D 557     -29.076  -3.904 -17.500  1.00 35.49     0.174 HD
ATOM     11  HH  ARG D 557     -26.653  -2.978 -15.544  1.00 35.49     0.174 HD
ATOM     12  HH  ARG D 557     -27.329  -4.175 -16.108  1.00 35.49     0.174 HD
ATOM     13  HE  ARG D 557     -27.327  -1.013 -15.936  1.00 35.49     0.178 HD
ENDBRANCH   4   5
ENDBRANCH   3   4
ENDBRANCH   2   3
ENDBRANCH   1   2
END_RES ARG D 557
BEGIN_RES GLU D 570
REMARK  3 active torsions:
REMARK  status: ('A' for Active; 'I' for Inactive)
REMARK    5  A    between atoms: CA   and  CB  
REMARK    6  A    between atoms: CB   and  CG  
REMARK    7  A    between atoms: CG   and  CD  
ROOT
ATOM     14  CA  GLU D 570     -18.033  -6.348 -13.375  1.00 32.92     0.160 C 
ENDROOT
BRANCH  14  15
ATOM     15  CB  GLU D 570     -19.500  -6.345 -13.794  1.00 32.92     0.043 C 
BRANCH  15  16
ATOM     16  CG  GLU D 570     -19.798  -6.183 -15.240  1.00 32.92     0.100 C 
BRANCH  16  17
ATOM     17  CD  GLU D 570     -21.263  -5.932 -15.516  1.00 32.92     0.185 C 
ATOM     18  OE1 GLU D 570     -22.118  -6.511 -14.818  1.00 32.92    -0.647 OA
ATOM     19  OE2 GLU D 570     -21.558  -5.161 -16.450  1.00 32.92    -0.647 OA
ENDBRANCH  16  17
ENDBRANCH  15  16
ENDBRANCH  14  15
END_RES GLU D 570
ENDMDL
MODEL 4
REMARK VINA RESULT:      -6.8      1.614      3.199
REMARK  6 active torsions:
REMARK  status: ('A' for Active; 'I' for Inactive)
REMARK    1  A    between atoms: C_1  and  C_2 
REMARK    2  A    between atoms: C_1  and  O_12 
REMARK    3  A    between atoms: C_2  and  C_3 
REMARK    4  A    between atoms: C_2  and  O_11 
REMARK    5  A    between atoms: C_4  and  O_10 
REMARK    6  A    between atoms: C_5  and  O_9 
ROOT
HETATM    1  C   UNL     1     -23.974  -3.044 -11.784  1.00  0.00     0.226 A 
HETATM    2  C   UNL     1     -22.772  -2.881 -12.690  1.00  0.00     0.156 A 
HETATM    3  C   UNL     1     -23.206  -2.963 -13.952  1.00  0.00     0.177 A 
HETATM    4  C   UNL     1     -24.663  -3.153 -13.978  1.00  0.00     0.320 A 
HETATM    5  O   UNL     1     -25.382  -3.257 -14.956  1.00  0.00    -0.257 OA
HETATM    6  O   UNL     1     -25.093  -3.206 -12.684  1.00  0.00    -0.301 OA
ENDROOT
BRANCH   1   7
HETATM    7  C   UNL     1     -24.012  -4.238 -10.786  1.00  0.00     0.177 C 
BRANCH   7   8
HETATM    8  C   UNL     1     -24.772  -3.962  -9.485  1.00  0.00     0.198 C 
BRANCH   8   9
HETATM    9  O   UNL     1     -25.995  -3.236  -9.674  1.00  0.00    -0.398 OA
HETATM   10  H   UNL     1     -25.755  -2.468 -10.234  1.00  0.00     0.209 HD
ENDBRANCH   8   9
ENDBRANCH   7   8
BRANCH   7  11
HETATM   11  O   UNL     1     -22.712  -4.732 -10.432  1.00  0.00    -0.390 OA
HETATM   12  H   UNL     1     -22.213  -3.988 -10.045  1.00  0.00     0.210 HD
ENDBRANCH   7  11
ENDBRANCH   1   7
BRANCH   2  13
HETATM   13  O   UNL     1     -21.644  -2.652 -12.185  1.00  0.00    -0.191 OA
HETATM   14 NA   UNL     2     -19.773  -3.631 -12.064  1.00  0.00     0.000 Na
ENDBRANCH   2  13
BRANCH   3  15
HETATM   15  O   UNL     1     -22.396  -2.838 -15.048  1.00  0.00    -0.353 OA
HETATM   16  H   UNL     1     -21.994  -3.728 -15.105  1.00  0.00     0.218 HD
ENDBRANCH   3  15
TORSDOF 6
BEGIN_RES ARG D 557
REMARK  4 active torsions:
REMARK  status: ('A' for Active; 'I' for Inactive)
REMARK    1  A    between atoms: CA   and  CB  
REMARK    2  A    between atoms: CB   and  CG  
REMARK    3  A    between atoms: CG   and  CD  
REMARK    4  A    between atoms: CD   and  NE  
REMARK       I    between atoms: NE   and  CZ  
REMARK       I    between atoms: CZ   and  NH1 
REMARK       I    between atoms: CZ   and  NH2 
ROOT
ATOM      1  CA  ARG D 557     -26.217   2.705 -17.014  1.00 35.49     0.159 C 
ENDROOT
BRANCH   1   2
ATOM      2  CB  ARG D 557     -26.789   1.319 -17.183  1.00 35.49     0.034 C 
BRANCH   2   3
ATOM      3  CG  ARG D 557     -28.229   1.227 -17.455  1.00 35.49     0.027 C 
BRANCH   3   4
ATOM      4  CD  ARG D 557     -28.924   0.319 -16.514  1.00 35.49     0.116 C 
BRANCH   4   5
ATOM      5  NE  ARG D 557     -29.326  -0.911 -17.144  1.00 35.49    -0.212 N 
ATOM      6  CZ  ARG D 557     -28.698  -2.062 -17.053  1.00 35.49     0.666 C 
ATOM      7  NH1 ARG D 557     -27.585  -2.209 -16.359  1.00 35.49    -0.235 N 
ATOM      8  NH2 ARG D 557     -29.218  -3.080 -17.675  1.00 35.49    -0.235 N 
ATOM      9  HH  ARG D 557     -27.226  -1.553 -15.940  1.00 35.49     0.174 HD
ATOM     10  HH  ARG D 557     -27.221  -2.985 -16.333  1.00 35.49     0.174 HD
ATOM     11  HH  ARG D 557     -29.941  -2.957 -18.109  1.00 35.49     0.174 HD
ATOM     12  HH  ARG D 557     -28.843  -3.840 -17.636  1.00 35.49     0.174 HD
ATOM     13  HE  ARG D 557     -29.993  -0.890 -17.671  1.00 35.49     0.178 HD
ENDBRANCH   4   5
ENDBRANCH   3   4
ENDBRANCH   2   3
ENDBRANCH   1   2
END_RES ARG D 557
BEGIN_RES GLU D 570
REMARK  3 active torsions:
REMARK  status: ('A' for Active; 'I' for Inactive)
REMARK    5  A    between atoms: CA   and  CB  
REMARK    6  A    between atoms: CB   and  CG  
REMARK    7  A    between atoms: CG   and  CD  
ROOT
ATOM     14  CA  GLU D 570     -18.033  -6.348 -13.375  1.00 32.92     0.160 C 
ENDROOT
BRANCH  14  15
ATOM     15  CB  GLU D 570     -19.500  -6.345 -13.794  1.00 32.92     0.043 C 
BRANCH  15  16
ATOM     16  CG  GLU D 570     -19.797  -6.418 -15.248  1.00 32.92     0.100 C 
BRANCH  16  17
ATOM     17  CD  GLU D 570     -21.224  -6.046 -15.578  1.00 32.92     0.185 C 
ATOM     18  OE1 GLU D 570     -21.437  -5.126 -16.390  1.00 32.92    -0.647 OA
ATOM     19  OE2 GLU D 570     -22.138  -6.672 -15.005  1.00 32.92    -0.647 OA
ENDBRANCH  16  17
ENDBRANCH  15  16
ENDBRANCH  14  15
END_RES GLU D 570
ENDMDL
MODEL 5
REMARK VINA RESULT:      -6.7      4.606      6.756
REMARK  6 active torsions:
REMARK  status: ('A' for Active; 'I' for Inactive)
REMARK    1  A    between atoms: C_1  and  C_2 
REMARK    2  A    between atoms: C_1  and  O_12 
REMARK    3  A    between atoms: C_2  and  C_3 
REMARK    4  A    between atoms: C_2  and  O_11 
REMARK    5  A    between atoms: C_4  and  O_10 
REMARK    6  A    between atoms: C_5  and  O_9 
ROOT
HETATM    1  C   UNL     1     -29.573  -5.369 -17.142  1.00  0.00     0.226 A 
HETATM    2  C   UNL     1     -28.793  -4.074 -17.079  1.00  0.00     0.156 A 
HETATM    3  C   UNL     1     -29.644  -3.078 -17.345  1.00  0.00     0.177 A 
HETATM    4  C   UNL     1     -30.996  -3.610 -17.569  1.00  0.00     0.320 A 
HETATM    5  O   UNL     1     -32.008  -2.983 -17.824  1.00  0.00    -0.257 OA
HETATM    6  O   UNL     1     -30.927  -4.968 -17.453  1.00  0.00    -0.301 OA
ENDROOT
BRANCH   1   7
HETATM    7  C   UNL     1     -29.164  -6.448 -18.187  1.00  0.00     0.177 C 
BRANCH   7   8
HETATM    8  C   UNL     1     -30.039  -7.705 -18.186  1.00  0.00     0.198 C 
BRANCH   8   9
HETATM    9  O   UNL     1     -29.550  -8.750 -19.037  1.00  0.00    -0.398 OA
HETATM   10  H   UNL     1     -29.473  -9.538 -18.460  1.00  0.00     0.209 HD
ENDBRANCH   8   9
ENDBRANCH   7   8
BRANCH   7  11
HETATM   11  O   UNL     1     -27.798  -6.871 -18.071  1.00  0.00    -0.390 OA
HETATM   12  H   UNL     1     -27.750  -7.500 -17.327  1.00  0.00     0.210 HD
ENDBRANCH   7  11
ENDBRANCH   1   7
BRANCH   2  13
HETATM   13  O   UNL     1     -27.577  -4.099 -16.756  1.00  0.00    -0.191 OA
HETATM   14 NA   UNL     2     -26.008  -5.517 -16.740  1.00  0.00     0.000 Na
ENDBRANCH   2  13
BRANCH   3  15
HETATM   15  O   UNL     1     -29.294  -1.755 -17.354  1.00  0.00    -0.353 OA
HETATM   16  H   UNL     1     -30.166  -1.315 -17.410  1.00  0.00     0.218 HD
ENDBRANCH   3  15
TORSDOF 6
BEGIN_RES ARG D 557
REMARK  4 active torsions:
REMARK  status: ('A' for Active; 'I' for Inactive)
REMARK    1  A    between atoms: CA   and  CB  
REMARK    2  A    between atoms: CB   and  CG  
REMARK    3  A    between atoms: CG   and  CD  
REMARK    4  A    between atoms: CD   and  NE  
REMARK       I    between atoms: NE   and  CZ  
REMARK       I    between atoms: CZ   and  NH1 
REMARK       I    between atoms: CZ   and  NH2 
ROOT
ATOM      1  CA  ARG D 557     -26.217   2.705 -17.014  1.00 35.49     0.159 C 
ENDROOT
BRANCH   1   2
ATOM      2  CB  ARG D 557     -26.789   1.319 -17.183  1.00 35.49     0.034 C 
BRANCH   2   3
ATOM      3  CG  ARG D 557     -25.865   0.195 -16.992  1.00 35.49     0.027 C 
BRANCH   3   4
ATOM      4  CD  ARG D 557     -26.305  -0.721 -15.915  1.00 35.49     0.116 C 
BRANCH   4   5
ATOM      5  NE  ARG D 557     -25.270  -0.951 -14.941  1.00 35.49    -0.212 N 
ATOM      6  CZ  ARG D 557     -25.000  -2.101 -14.365  1.00 35.49     0.666 C 
ATOM      7  NH1 ARG D 557     -25.686  -3.200 -14.619  1.00 35.49    -0.235 N 
ATOM      8  NH2 ARG D 557     -24.011  -2.131 -13.520  1.00 35.49    -0.235 N 
ATOM      9  HH  ARG D 557     -26.340  -3.204 -15.172  1.00 35.49     0.174 HD
ATOM     10  HH  ARG D 557     -25.463  -3.922 -14.214  1.00 35.49     0.174 HD
ATOM     11  HH  ARG D 557     -23.581  -1.408 -13.381  1.00 35.49     0.174 HD
ATOM     12  HH  ARG D 557     -23.804  -2.856 -13.131  1.00 35.49     0.174 HD
ATOM     13  HE  ARG D 557     -24.826  -0.281 -14.665  1.00 35.49     0.178 HD
ENDBRANCH   4   5
ENDBRANCH   3   4
ENDBRANCH   2   3
ENDBRANCH   1   2
END_RES ARG D 557
BEGIN_RES GLU D 570
REMARK  3 active torsions:
REMARK  status: ('A' for Active; 'I' for Inactive)
REMARK    5  A    between atoms: CA   and  CB  
REMARK    6  A    between atoms: CB   and  CG  
REMARK    7  A    between atoms: CG   and  CD  
ROOT
ATOM     14  CA  GLU D 570     -18.033  -6.348 -13.375  1.00 32.92     0.160 C 
ENDROOT
BRANCH  14  15
ATOM     15  CB  GLU D 570     -19.500  -6.345 -13.794  1.00 32.92     0.043 C 
BRANCH  15  16
ATOM     16  CG  GLU D 570     -20.446  -5.549 -12.969  1.00 32.92     0.100 C 
BRANCH  16  17
ATOM     17  CD  GLU D 570     -21.688  -5.141 -13.726  1.00 32.92     0.185 C 
ATOM     18  OE1 GLU D 570     -22.748  -4.958 -13.097  1.00 32.92    -0.647 OA
ATOM     19  OE2 GLU D 570     -21.605  -5.019 -14.964  1.00 32.92    -0.647 OA
ENDBRANCH  16  17
ENDBRANCH  15  16
ENDBRANCH  14  15
END_RES GLU D 570
ENDMDL
MODEL 6
REMARK VINA RESULT:      -6.6      1.899      2.460
REMARK  6 active torsions:
REMARK  status: ('A' for Active; 'I' for Inactive)
REMARK    1  A    between atoms: C_1  and  C_2 
REMARK    2  A    between atoms: C_1  and  O_12 
REMARK    3  A    between atoms: C_2  and  C_3 
REMARK    4  A    between atoms: C_2  and  O_11 
REMARK    5  A    between atoms: C_4  and  O_10 
REMARK    6  A    between atoms: C_5  and  O_9 
ROOT
HETATM    1  C   UNL     1     -23.409  -3.913 -11.406  1.00  0.00     0.226 A 
HETATM    2  C   UNL     1     -22.985  -4.250  -9.992  1.00  0.00     0.156 A 
HETATM    3  C   UNL     1     -23.993  -3.918  -9.180  1.00  0.00     0.177 A 
HETATM    4  C   UNL     1     -25.120  -3.386  -9.959  1.00  0.00     0.320 A 
HETATM    5  O   UNL     1     -26.197  -2.999  -9.540  1.00  0.00    -0.257 OA
HETATM    6  O   UNL     1     -24.747  -3.385 -11.272  1.00  0.00    -0.301 OA
ENDROOT
BRANCH   1   7
HETATM    7  C   UNL     1     -22.583  -2.871 -12.215  1.00  0.00     0.177 C 
BRANCH   7   8
HETATM    8  C   UNL     1     -23.078  -2.633 -13.646  1.00  0.00     0.198 C 
BRANCH   8   9
HETATM    9  O   UNL     1     -24.216  -1.765 -13.726  1.00  0.00    -0.398 OA
HETATM   10  H   UNL     1     -23.896  -0.892 -13.416  1.00  0.00     0.209 HD
ENDBRANCH   8   9
ENDBRANCH   7   8
BRANCH   7  11
HETATM   11  O   UNL     1     -21.183  -3.178 -12.287  1.00  0.00    -0.390 OA
HETATM   12  H   UNL     1     -21.071  -3.871 -12.962  1.00  0.00     0.210 HD
ENDBRANCH   7  11
ENDBRANCH   1   7
BRANCH   2  13
HETATM   13  O   UNL     1     -21.870  -4.798  -9.795  1.00  0.00    -0.191 OA
HETATM   14 NA   UNL     2     -20.008  -4.924 -10.789  1.00  0.00     0.000 Na
ENDBRANCH   2  13
BRANCH   3  15
HETATM   15  O   UNL     1     -23.975  -4.102  -7.824  1.00  0.00    -0.353 OA
HETATM   16  H   UNL     1     -23.258  -4.760  -7.719  1.00  0.00     0.218 HD
ENDBRANCH   3  15
TORSDOF 6
BEGIN_RES ARG D 557
REMARK  4 active torsions:
REMARK  status: ('A' for Active; 'I' for Inactive)
REMARK    1  A    between atoms: CA   and  CB  
REMARK    2  A    between atoms: CB   and  CG  
REMARK    3  A    between atoms: CG   and  CD  
REMARK    4  A    between atoms: CD   and  NE  
REMARK       I    between atoms: NE   and  CZ  
REMARK       I    between atoms: CZ   and  NH1 
REMARK       I    between atoms: CZ   and  NH2 
ROOT
ATOM      1  CA  ARG D 557     -26.217   2.705 -17.014  1.00 35.49     0.159 C 
ENDROOT
BRANCH   1   2
ATOM      2  CB  ARG D 557     -26.789   1.319 -17.183  1.00 35.49     0.034 C 
BRANCH   2   3
ATOM      3  CG  ARG D 557     -28.220   1.156 -16.901  1.00 35.49     0.027 C 
BRANCH   3   4
ATOM      4  CD  ARG D 557     -28.603  -0.264 -16.727  1.00 35.49     0.116 C 
BRANCH   4   5
ATOM      5  NE  ARG D 557     -27.601  -1.012 -16.015  1.00 35.49    -0.212 N 
ATOM      6  CZ  ARG D 557     -27.419  -2.312 -16.086  1.00 35.49     0.666 C 
ATOM      7  NH1 ARG D 557     -28.174  -3.095 -16.835  1.00 35.49    -0.235 N 
ATOM      8  NH2 ARG D 557     -26.447  -2.821 -15.386  1.00 35.49    -0.235 N 
ATOM      9  HH  ARG D 557     -28.818  -2.781 -17.305  1.00 35.49     0.174 HD
ATOM     10  HH  ARG D 557     -28.006  -3.935 -16.843  1.00 35.49     0.174 HD
ATOM     11  HH  ARG D 557     -25.971  -2.290 -14.917  1.00 35.49     0.174 HD
ATOM     12  HH  ARG D 557     -26.296  -3.655 -15.409  1.00 35.49     0.174 HD
ATOM     13  HE  ARG D 557     -27.117  -0.597 -15.453  1.00 35.49     0.178 HD
ENDBRANCH   4   5
ENDBRANCH   3   4
ENDBRANCH   2   3
ENDBRANCH   1   2
END_RES ARG D 557
BEGIN_RES GLU D 570
REMARK  3 active torsions:
REMARK  status: ('A' for Active; 'I' for Inactive)
REMARK    5  A    between atoms: CA   and  CB  
REMARK    6  A    between atoms: CB   and  CG  
REMARK    7  A    between atoms: CG   and  CD  
ROOT
ATOM     14  CA  GLU D 570     -18.033  -6.348 -13.375  1.00 32.92     0.160 C 
ENDROOT
BRANCH  14  15
ATOM     15  CB  GLU D 570     -19.500  -6.345 -13.794  1.00 32.92     0.043 C 
BRANCH  15  16
ATOM     16  CG  GLU D 570     -19.819  -5.877 -15.168  1.00 32.92     0.100 C 
BRANCH  16  17
ATOM     17  CD  GLU D 570     -21.274  -5.511 -15.343  1.00 32.92     0.185 C 
ATOM     18  OE1 GLU D 570     -22.099  -5.886 -14.488  1.00 32.92    -0.647 OA
ATOM     19  OE2 GLU D 570     -21.595  -4.857 -16.355  1.00 32.92    -0.647 OA
ENDBRANCH  16  17
ENDBRANCH  15  16
ENDBRANCH  14  15
END_RES GLU D 570
ENDMDL
MODEL 7
REMARK VINA RESULT:      -6.3      2.933      4.990
REMARK  6 active torsions:
REMARK  status: ('A' for Active; 'I' for Inactive)
REMARK    1  A    between atoms: C_1  and  C_2 
REMARK    2  A    between atoms: C_1  and  O_12 
REMARK    3  A    between atoms: C_2  and  C_3 
REMARK    4  A    between atoms: C_2  and  O_11 
REMARK    5  A    between atoms: C_4  and  O_10 
REMARK    6  A    between atoms: C_5  and  O_9 
ROOT
HETATM    1  C   UNL     1     -22.597  -4.696  -9.434  1.00  0.00     0.226 A 
HETATM    2  C   UNL     1     -23.298  -3.934 -10.538  1.00  0.00     0.156 A 
HETATM    3  C   UNL     1     -22.363  -3.533 -11.406  1.00  0.00     0.177 A 
HETATM    4  C   UNL     1     -21.037  -3.999 -10.976  1.00  0.00     0.320 A 
HETATM    5  O   UNL     1     -19.970  -3.821 -11.536  1.00  0.00    -0.257 OA
HETATM    6  O   UNL     1     -21.200  -4.677  -9.803  1.00  0.00    -0.301 OA
ENDROOT
BRANCH   1   7
HETATM    7  C   UNL     1     -22.692  -4.168  -7.973  1.00  0.00     0.177 C 
BRANCH   7   8
HETATM    8  C   UNL     1     -21.812  -4.913  -6.964  1.00  0.00     0.198 C 
BRANCH   8   9
HETATM    9  O   UNL     1     -21.196  -6.093  -7.496  1.00  0.00    -0.398 OA
HETATM   10  H   UNL     1     -20.998  -5.880  -8.432  1.00  0.00     0.209 HD
ENDBRANCH   8   9
ENDBRANCH   7   8
BRANCH   7  11
HETATM   11  O   UNL     1     -24.030  -4.153  -7.453  1.00  0.00    -0.390 OA
HETATM   12  H   UNL     1     -23.964  -4.155  -6.480  1.00  0.00     0.210 HD
ENDBRANCH   7  11
ENDBRANCH   1   7
BRANCH   2  13
HETATM   13  O   UNL     1     -24.552  -3.840 -10.525  1.00  0.00    -0.191 OA
HETATM   14 NA   UNL     2     -26.164  -4.758  -9.510  1.00  0.00     0.000 Na
ENDBRANCH   2  13
BRANCH   3  15
HETATM   15  O   UNL     1     -22.633  -2.831 -12.549  1.00  0.00    -0.353 OA
HETATM   16  H   UNL     1     -22.115  -3.325 -13.216  1.00  0.00     0.218 HD
ENDBRANCH   3  15
TORSDOF 6
BEGIN_RES ARG D 557
REMARK  4 active torsions:
REMARK  status: ('A' for Active; 'I' for Inactive)
REMARK    1  A    between atoms: CA   and  CB  
REMARK    2  A    between atoms: CB   and  CG  
REMARK    3  A    between atoms: CG   and  CD  
REMARK    4  A    between atoms: CD   and  NE  
REMARK       I    between atoms: NE   and  CZ  
REMARK       I    between atoms: CZ   and  NH1 
REMARK       I    between atoms: CZ   and  NH2 
ROOT
ATOM      1  CA  ARG D 557     -26.217   2.705 -17.014  1.00 35.49     0.159 C 
ENDROOT
BRANCH   1   2
ATOM      2  CB  ARG D 557     -26.789   1.319 -17.183  1.00 35.49     0.034 C 
BRANCH   2   3
ATOM      3  CG  ARG D 557     -25.939   0.198 -16.765  1.00 35.49     0.027 C 
BRANCH   3   4
ATOM      4  CD  ARG D 557     -26.711  -0.883 -16.111  1.00 35.49     0.116 C 
BRANCH   4   5
ATOM      5  NE  ARG D 557     -26.023  -1.428 -14.971  1.00 35.49    -0.212 N 
ATOM      6  CZ  ARG D 557     -25.991  -2.697 -14.627  1.00 35.49     0.666 C 
ATOM      7  NH1 ARG D 557     -26.622  -3.633 -15.311  1.00 35.49    -0.235 N 
ATOM      8  NH2 ARG D 557     -25.298  -3.015 -13.573  1.00 35.49    -0.235 N 
ATOM      9  HH  ARG D 557     -27.082  -3.446 -16.010  1.00 35.49     0.174 HD
ATOM     10  HH  ARG D 557     -26.563  -4.444 -15.041  1.00 35.49     0.174 HD
ATOM     11  HH  ARG D 557     -24.895  -2.391 -13.155  1.00 35.49     0.174 HD
ATOM     12  HH  ARG D 557     -25.250  -3.824 -13.322  1.00 35.49     0.174 HD
ATOM     13  HE  ARG D 557     -25.649  -0.886 -14.433  1.00 35.49     0.178 HD
ENDBRANCH   4   5
ENDBRANCH   3   4
ENDBRANCH   2   3
ENDBRANCH   1   2
END_RES ARG D 557
BEGIN_RES GLU D 570
REMARK  3 active torsions:
REMARK  status: ('A' for Active; 'I' for Inactive)
REMARK    5  A    between atoms: CA   and  CB  
REMARK    6  A    between atoms: CB   and  CG  
REMARK    7  A    between atoms: CG   and  CD  
ROOT
ATOM     14  CA  GLU D 570     -18.033  -6.348 -13.375  1.00 32.92     0.160 C 
ENDROOT
BRANCH  14  15
ATOM     15  CB  GLU D 570     -19.500  -6.345 -13.794  1.00 32.92     0.043 C 
BRANCH  15  16
ATOM     16  CG  GLU D 570     -19.799  -6.167 -15.238  1.00 32.92     0.100 C 
BRANCH  16  17
ATOM     17  CD  GLU D 570     -21.064  -5.378 -15.485  1.00 32.92     0.185 C 
ATOM     18  OE1 GLU D 570     -21.720  -4.965 -14.510  1.00 32.92    -0.647 OA
ATOM     19  OE2 GLU D 570     -21.412  -5.186 -16.667  1.00 32.92    -0.647 OA
ENDBRANCH  16  17
ENDBRANCH  15  16
ENDBRANCH  14  15
END_RES GLU D 570
ENDMDL
MODEL 8
REMARK VINA RESULT:      -6.1      7.836      9.822
REMARK  6 active torsions:
REMARK  status: ('A' for Active; 'I' for Inactive)
REMARK    1  A    between atoms: C_1  and  C_2 
REMARK    2  A    between atoms: C_1  and  O_12 
REMARK    3  A    between atoms: C_2  and  C_3 
REMARK    4  A    between atoms: C_2  and  O_11 
REMARK    5  A    between atoms: C_4  and  O_10 
REMARK    6  A    between atoms: C_5  and  O_9 
ROOT
HETATM    1  C   UNL     1     -34.932  -1.109 -12.507  1.00  0.00     0.226 A 
HETATM    2  C   UNL     1     -35.809  -0.759 -13.690  1.00  0.00     0.156 A 
HETATM    3  C   UNL     1     -36.901  -0.151 -13.215  1.00  0.00     0.177 A 
HETATM    4  C   UNL     1     -36.823  -0.035 -11.752  1.00  0.00     0.320 A 
HETATM    5  O   UNL     1     -37.639   0.471 -11.002  1.00  0.00    -0.257 OA
HETATM    6  O   UNL     1     -35.654  -0.616 -11.355  1.00  0.00    -0.301 OA
ENDROOT
BRANCH   1   7
HETATM    7  C   UNL     1     -34.595  -2.603 -12.231  1.00  0.00     0.177 C 
BRANCH   7   8
HETATM    8  C   UNL     1     -33.450  -2.829 -11.238  1.00  0.00     0.198 C 
BRANCH   8   9
HETATM    9  O   UNL     1     -33.179  -1.696 -10.403  1.00  0.00    -0.398 OA
HETATM   10  H   UNL     1     -32.303  -1.877 -10.001  1.00  0.00     0.209 HD
ENDBRANCH   8   9
ENDBRANCH   7   8
BRANCH   7  11
HETATM   11  O   UNL     1     -34.294  -3.352 -13.418  1.00  0.00    -0.390 OA
HETATM   12  H   UNL     1     -33.399  -3.095 -13.705  1.00  0.00     0.210 HD
ENDBRANCH   7  11
ENDBRANCH   1   7
BRANCH   2  13
HETATM   13  O   UNL     1     -35.405  -1.008 -14.854  1.00  0.00    -0.191 OA
HETATM   14 NA   UNL     2     -34.354  -2.563 -15.830  1.00  0.00     0.000 Na
ENDBRANCH   2  13
BRANCH   3  15
HETATM   15  O   UNL     1     -37.913   0.328 -14.002  1.00  0.00    -0.353 OA
HETATM   16  H   UNL     1     -37.419   0.821 -14.688  1.00  0.00     0.218 HD
ENDBRANCH   3  15
TORSDOF 6
BEGIN_RES ARG D 557
REMARK  4 active torsions:
REMARK  status: ('A' for Active; 'I' for Inactive)
REMARK    1  A    between atoms: CA   and  CB  
REMARK    2  A    between atoms: CB   and  CG  
REMARK    3  A    between atoms: CG   and  CD  
REMARK    4  A    between atoms: CD   and  NE  
REMARK       I    between atoms: NE   and  CZ  
REMARK       I    between atoms: CZ   and  NH1 
REMARK       I    between atoms: CZ   and  NH2 
ROOT
ATOM      1  CA  ARG D 557     -26.217   2.705 -17.014  1.00 35.49     0.159 C 
ENDROOT
BRANCH   1   2
ATOM      2  CB  ARG D 557     -26.789   1.319 -17.183  1.00 35.49     0.034 C 
BRANCH   2   3
ATOM      3  CG  ARG D 557     -25.839   0.201 -17.130  1.00 35.49     0.027 C 
BRANCH   3   4
ATOM      4  CD  ARG D 557     -24.757   0.427 -16.144  1.00 35.49     0.116 C 
BRANCH   4   5
ATOM      5  NE  ARG D 557     -24.885  -0.427 -14.993  1.00 35.49    -0.212 N 
ATOM      6  CZ  ARG D 557     -24.068  -1.402 -14.665  1.00 35.49     0.666 C 
ATOM      7  NH1 ARG D 557     -23.014  -1.719 -15.394  1.00 35.49    -0.235 N 
ATOM      8  NH2 ARG D 557     -24.326  -2.061 -13.573  1.00 35.49    -0.235 N 
ATOM      9  HH  ARG D 557     -22.823  -1.298 -16.116  1.00 35.49     0.174 HD
ATOM     10  HH  ARG D 557     -22.514  -2.364 -15.129  1.00 35.49     0.174 HD
ATOM     11  HH  ARG D 557     -25.009  -1.829 -13.118  1.00 35.49     0.174 HD
ATOM     12  HH  ARG D 557     -23.819  -2.694 -13.327  1.00 35.49     0.174 HD
ATOM     13  HE  ARG D 557     -25.577  -0.340 -14.506  1.00 35.49     0.178 HD
ENDBRANCH   4   5
ENDBRANCH   3   4
ENDBRANCH   2   3
ENDBRANCH   1   2
END_RES ARG D 557
BEGIN_RES GLU D 570
REMARK  3 active torsions:
REMARK  status: ('A' for Active; 'I' for Inactive)
REMARK    5  A    between atoms: CA   and  CB  
REMARK    6  A    between atoms: CB   and  CG  
REMARK    7  A    between atoms: CG   and  CD  
ROOT
ATOM     14  CA  GLU D 570     -18.033  -6.348 -13.375  1.00 32.92     0.160 C 
ENDROOT
BRANCH  14  15
ATOM     15  CB  GLU D 570     -19.500  -6.345 -13.794  1.00 32.92     0.043 C 
BRANCH  15  16
ATOM     16  CG  GLU D 570     -20.439  -5.518 -12.993  1.00 32.92     0.100 C 
BRANCH  16  17
ATOM     17  CD  GLU D 570     -21.747  -5.257 -13.702  1.00 32.92     0.185 C 
ATOM     18  OE1 GLU D 570     -22.223  -6.141 -14.440  1.00 32.92    -0.647 OA
ATOM     19  OE2 GLU D 570     -22.293  -4.149 -13.532  1.00 32.92    -0.647 OA
ENDBRANCH  16  17
ENDBRANCH  15  16
ENDBRANCH  14  15
END_RES GLU D 570
ENDMDL
MODEL 9
REMARK VINA RESULT:      -6.1      4.610      5.790
REMARK  6 active torsions:
REMARK  status: ('A' for Active; 'I' for Inactive)
REMARK    1  A    between atoms: C_1  and  C_2 
REMARK    2  A    between atoms: C_1  and  O_12 
REMARK    3  A    between atoms: C_2  and  C_3 
REMARK    4  A    between atoms: C_2  and  O_11 
REMARK    5  A    between atoms: C_4  and  O_10 
REMARK    6  A    between atoms: C_5  and  O_9 
ROOT
HETATM    1  C   UNL     1     -28.732  -5.360 -16.298  1.00  0.00     0.226 A 
HETATM    2  C   UNL     1     -28.071  -6.715 -16.168  1.00  0.00     0.156 A 
HETATM    3  C   UNL     1     -26.793  -6.509 -15.833  1.00  0.00     0.177 A 
HETATM    4  C   UNL     1     -26.528  -5.070 -15.698  1.00  0.00     0.320 A 
HETATM    5  O   UNL     1     -25.477  -4.533 -15.396  1.00  0.00    -0.257 OA
HETATM    6  O   UNL     1     -27.688  -4.410 -15.986  1.00  0.00    -0.301 OA
ENDROOT
BRANCH   1   7
HETATM    7  C   UNL     1     -29.336  -4.942 -17.670  1.00  0.00     0.177 C 
BRANCH   7   8
HETATM    8  C   UNL     1     -30.316  -3.766 -17.606  1.00  0.00     0.198 C 
BRANCH   8   9
HETATM    9  O   UNL     1     -29.677  -2.485 -17.534  1.00  0.00    -0.398 OA
HETATM   10  H   UNL     1     -29.177  -2.399 -18.373  1.00  0.00     0.209 HD
ENDBRANCH   8   9
ENDBRANCH   7   8
BRANCH   7  11
HETATM   11  O   UNL     1     -29.992  -6.016 -18.360  1.00  0.00    -0.390 OA
HETATM   12  H   UNL     1     -30.924  -5.759 -18.479  1.00  0.00     0.210 HD
ENDBRANCH   7  11
ENDBRANCH   1   7
BRANCH   2  13
HETATM   13  O   UNL     1     -28.760  -7.756 -16.318  1.00  0.00    -0.191 OA
HETATM   14 NA   UNL     2     -30.141  -8.509 -17.732  1.00  0.00     0.000 Na
ENDBRANCH   2  13
BRANCH   3  15
HETATM   15  O   UNL     1     -25.890  -7.513 -15.608  1.00  0.00    -0.353 OA
HETATM   16  H   UNL     1     -25.098  -7.182 -16.078  1.00  0.00     0.218 HD
ENDBRANCH   3  15
TORSDOF 6
BEGIN_RES ARG D 557
REMARK  4 active torsions:
REMARK  status: ('A' for Active; 'I' for Inactive)
REMARK    1  A    between atoms: CA   and  CB  
REMARK    2  A    between atoms: CB   and  CG  
REMARK    3  A    between atoms: CG   and  CD  
REMARK    4  A    between atoms: CD   and  NE  
REMARK       I    between atoms: NE   and  CZ  
REMARK       I    between atoms: CZ   and  NH1 
REMARK       I    between atoms: CZ   and  NH2 
ROOT
ATOM      1  CA  ARG D 557     -26.217   2.705 -17.014  1.00 35.49     0.159 C 
ENDROOT
BRANCH   1   2
ATOM      2  CB  ARG D 557     -26.789   1.319 -17.183  1.00 35.49     0.034 C 
BRANCH   2   3
ATOM      3  CG  ARG D 557     -25.838   0.202 -17.139  1.00 35.49     0.027 C 
BRANCH   3   4
ATOM      4  CD  ARG D 557     -24.768   0.411 -16.137  1.00 35.49     0.116 C 
BRANCH   4   5
ATOM      5  NE  ARG D 557     -24.899  -0.475 -15.011  1.00 35.49    -0.212 N 
ATOM      6  CZ  ARG D 557     -24.066  -1.441 -14.692  1.00 35.49     0.666 C 
ATOM      7  NH1 ARG D 557     -22.991  -1.715 -15.408  1.00 35.49    -0.235 N 
ATOM      8  NH2 ARG D 557     -24.330  -2.133 -13.622  1.00 35.49    -0.235 N 
ATOM      9  HH  ARG D 557     -22.796  -1.271 -16.115  1.00 35.49     0.174 HD
ATOM     10  HH  ARG D 557     -22.483  -2.355 -15.150  1.00 35.49     0.174 HD
ATOM     11  HH  ARG D 557     -25.027  -1.928 -13.175  1.00 35.49     0.174 HD
ATOM     12  HH  ARG D 557     -23.814  -2.761 -13.382  1.00 35.49     0.174 HD
ATOM     13  HE  ARG D 557     -25.602  -0.416 -14.536  1.00 35.49     0.178 HD
ENDBRANCH   4   5
ENDBRANCH   3   4
ENDBRANCH   2   3
ENDBRANCH   1   2
END_RES ARG D 557
BEGIN_RES GLU D 570
REMARK  3 active torsions:
REMARK  status: ('A' for Active; 'I' for Inactive)
REMARK    5  A    between atoms: CA   and  CB  
REMARK    6  A    between atoms: CB   and  CG  
REMARK    7  A    between atoms: CG   and  CD  
ROOT
ATOM     14  CA  GLU D 570     -18.033  -6.348 -13.375  1.00 32.92     0.160 C 
ENDROOT
BRANCH  14  15
ATOM     15  CB  GLU D 570     -19.500  -6.345 -13.794  1.00 32.92     0.043 C 
BRANCH  15  16
ATOM     16  CG  GLU D 570     -19.827  -5.798 -15.136  1.00 32.92     0.100 C 
BRANCH  16  17
ATOM     17  CD  GLU D 570     -21.306  -5.554 -15.328  1.00 32.92     0.185 C 
ATOM     18  OE1 GLU D 570     -21.680  -4.491 -15.859  1.00 32.92    -0.647 OA
ATOM     19  OE2 GLU D 570     -22.100  -6.429 -14.929  1.00 32.92    -0.647 OA
ENDBRANCH  16  17
ENDBRANCH  15  16
ENDBRANCH  14  15
END_RES GLU D 570
ENDMDL
