MODEL 1
REMARK VINA RESULT:      -1.0      0.000      0.000
REMARK  5 active torsions:
REMARK  status: ('A' for Active; 'I' for Inactive)
REMARK    1  A    between atoms: N_2  and  C_5 
REMARK    2  A    between atoms: C_9  and  N_11 
REMARK    3  A    between atoms: C_15  and  N_27 
REMARK    4  A    between atoms: C_20  and  N_26 
REMARK    5  A    between atoms: C_23  and  O_24 
ROOT
HETATM    1 CL   UNL     2     -36.996   0.504  -4.880  1.00  0.00     0.000 Cl
ENDROOT
TORSDOF 5
BEGIN_RES ARG D 557
REMARK  4 active torsions:
REMARK  status: ('A' for Active; 'I' for Inactive)
REMARK    1  A    between atoms: CA   and  CB  
REMARK    2  A    between atoms: CB   and  CG  
REMARK    3  A    between atoms: CG   and  CD  
REMARK    4  A    between atoms: CD   and  NE  
REMARK       I    between atoms: NE   and  CZ  
REMARK       I    between atoms: CZ   and  NH1 
REMARK       I    between atoms: CZ   and  NH2 
ROOT
ATOM      1  CA  ARG D 557     -26.217   2.705 -17.014  1.00 35.49     0.159 C 
ENDROOT
BRANCH   1   2
ATOM      2  CB  ARG D 557     -26.789   1.319 -17.183  1.00 35.49     0.034 C 
BRANCH   2   3
ATOM      3  CG  ARG D 557     -25.835   0.204 -17.163  1.00 35.49     0.027 C 
BRANCH   3   4
ATOM      4  CD  ARG D 557     -24.745   0.411 -16.182  1.00 35.49     0.116 C 
BRANCH   4   5
ATOM      5  NE  ARG D 557     -24.888  -0.432 -15.025  1.00 35.49    -0.212 N 
ATOM      6  CZ  ARG D 557     -24.074  -1.403 -14.676  1.00 35.49     0.666 C 
ATOM      7  NH1 ARG D 557     -23.009  -1.725 -15.387  1.00 35.49    -0.235 N 
ATOM      8  NH2 ARG D 557     -24.348  -2.052 -13.582  1.00 35.49    -0.235 N 
ATOM      9  HH  ARG D 557     -22.809  -1.310 -16.109  1.00 35.49     0.174 HD
ATOM     10  HH  ARG D 557     -22.513  -2.366 -15.109  1.00 35.49     0.174 HD
ATOM     11  HH  ARG D 557     -25.038  -1.817 -13.139  1.00 35.49     0.174 HD
ATOM     12  HH  ARG D 557     -23.843  -2.682 -13.322  1.00 35.49     0.174 HD
ATOM     13  HE  ARG D 557     -25.588  -0.342 -14.550  1.00 35.49     0.178 HD
ENDBRANCH   4   5
ENDBRANCH   3   4
ENDBRANCH   2   3
ENDBRANCH   1   2
END_RES ARG D 557
BEGIN_RES GLU D 570
REMARK  3 active torsions:
REMARK  status: ('A' for Active; 'I' for Inactive)
REMARK    5  A    between atoms: CA   and  CB  
REMARK    6  A    between atoms: CB   and  CG  
REMARK    7  A    between atoms: CG   and  CD  
ROOT
ATOM     14  CA  GLU D 570     -18.033  -6.348 -13.375  1.00 32.92     0.160 C 
ENDROOT
BRANCH  14  15
ATOM     15  CB  GLU D 570     -19.500  -6.345 -13.794  1.00 32.92     0.043 C 
BRANCH  15  16
ATOM     16  CG  GLU D 570     -20.441  -5.527 -12.986  1.00 32.92     0.100 C 
BRANCH  16  17
ATOM     17  CD  GLU D 570     -21.742  -5.247 -13.701  1.00 32.92     0.185 C 
ATOM     18  OE1 GLU D 570     -22.304  -4.148 -13.529  1.00 32.92    -0.647 OA
ATOM     19  OE2 GLU D 570     -22.214  -6.144 -14.428  1.00 32.92    -0.647 OA
ENDBRANCH  16  17
ENDBRANCH  15  16
ENDBRANCH  14  15
END_RES GLU D 570
ENDMDL
MODEL 2
REMARK VINA RESULT:      -1.0      2.528      2.528
REMARK  5 active torsions:
REMARK  status: ('A' for Active; 'I' for Inactive)
REMARK    1  A    between atoms: N_2  and  C_5 
REMARK    2  A    between atoms: C_9  and  N_11 
REMARK    3  A    between atoms: C_15  and  N_27 
REMARK    4  A    between atoms: C_20  and  N_26 
REMARK    5  A    between atoms: C_23  and  O_24 
ROOT
HETATM    1 CL   UNL     2     -33.043  -3.277 -11.231  1.00  0.00     0.000 Cl
ENDROOT
TORSDOF 5
BEGIN_RES ARG D 557
REMARK  4 active torsions:
REMARK  status: ('A' for Active; 'I' for Inactive)
REMARK    1  A    between atoms: CA   and  CB  
REMARK    2  A    between atoms: CB   and  CG  
REMARK    3  A    between atoms: CG   and  CD  
REMARK    4  A    between atoms: CD   and  NE  
REMARK       I    between atoms: NE   and  CZ  
REMARK       I    between atoms: CZ   and  NH1 
REMARK       I    between atoms: CZ   and  NH2 
ROOT
ATOM      1  CA  ARG D 557     -26.217   2.705 -17.014  1.00 35.49     0.159 C 
ENDROOT
BRANCH   1   2
ATOM      2  CB  ARG D 557     -26.789   1.319 -17.183  1.00 35.49     0.034 C 
BRANCH   2   3
ATOM      3  CG  ARG D 557     -25.835   0.203 -17.162  1.00 35.49     0.027 C 
BRANCH   3   4
ATOM      4  CD  ARG D 557     -24.754   0.404 -16.170  1.00 35.49     0.116 C 
BRANCH   4   5
ATOM      5  NE  ARG D 557     -24.914  -0.442 -15.016  1.00 35.49    -0.212 N 
ATOM      6  CZ  ARG D 557     -24.107  -1.418 -14.662  1.00 35.49     0.666 C 
ATOM      7  NH1 ARG D 557     -23.036  -1.742 -15.363  1.00 35.49    -0.235 N 
ATOM      8  NH2 ARG D 557     -24.395  -2.068 -13.572  1.00 35.49    -0.235 N 
ATOM      9  HH  ARG D 557     -22.827  -1.326 -16.082  1.00 35.49     0.174 HD
ATOM     10  HH  ARG D 557     -22.546  -2.386 -15.081  1.00 35.49     0.174 HD
ATOM     11  HH  ARG D 557     -25.089  -1.832 -13.136  1.00 35.49     0.174 HD
ATOM     12  HH  ARG D 557     -23.896  -2.702 -13.310  1.00 35.49     0.174 HD
ATOM     13  HE  ARG D 557     -25.617  -0.350 -14.548  1.00 35.49     0.178 HD
ENDBRANCH   4   5
ENDBRANCH   3   4
ENDBRANCH   2   3
ENDBRANCH   1   2
END_RES ARG D 557
BEGIN_RES GLU D 570
REMARK  3 active torsions:
REMARK  status: ('A' for Active; 'I' for Inactive)
REMARK    5  A    between atoms: CA   and  CB  
REMARK    6  A    between atoms: CB   and  CG  
REMARK    7  A    between atoms: CG   and  CD  
ROOT
ATOM     14  CA  GLU D 570     -18.033  -6.348 -13.375  1.00 32.92     0.160 C 
ENDROOT
BRANCH  14  15
ATOM     15  CB  GLU D 570     -19.500  -6.345 -13.794  1.00 32.92     0.043 C 
BRANCH  15  16
ATOM     16  CG  GLU D 570     -20.439  -5.518 -12.993  1.00 32.92     0.100 C 
BRANCH  16  17
ATOM     17  CD  GLU D 570     -21.736  -5.233 -13.714  1.00 32.92     0.185 C 
ATOM     18  OE1 GLU D 570     -22.337  -4.167 -13.479  1.00 32.92    -0.647 OA
ATOM     19  OE2 GLU D 570     -22.163  -6.092 -14.510  1.00 32.92    -0.647 OA
ENDBRANCH  16  17
ENDBRANCH  15  16
ENDBRANCH  14  15
END_RES GLU D 570
ENDMDL
MODEL 3
REMARK VINA RESULT:      -1.0      2.387      2.387
REMARK  5 active torsions:
REMARK  status: ('A' for Active; 'I' for Inactive)
REMARK    1  A    between atoms: N_2  and  C_5 
REMARK    2  A    between atoms: C_9  and  N_11 
REMARK    3  A    between atoms: C_15  and  N_27 
REMARK    4  A    between atoms: C_20  and  N_26 
REMARK    5  A    between atoms: C_23  and  O_24 
ROOT
HETATM    1 CL   UNL     2     -34.295  -5.957  -1.189  1.00  0.00     0.000 Cl
ENDROOT
TORSDOF 5
BEGIN_RES ARG D 557
REMARK  4 active torsions:
REMARK  status: ('A' for Active; 'I' for Inactive)
REMARK    1  A    between atoms: CA   and  CB  
REMARK    2  A    between atoms: CB   and  CG  
REMARK    3  A    between atoms: CG   and  CD  
REMARK    4  A    between atoms: CD   and  NE  
REMARK       I    between atoms: NE   and  CZ  
REMARK       I    between atoms: CZ   and  NH1 
REMARK       I    between atoms: CZ   and  NH2 
ROOT
ATOM      1  CA  ARG D 557     -26.217   2.705 -17.014  1.00 35.49     0.159 C 
ENDROOT
BRANCH   1   2
ATOM      2  CB  ARG D 557     -26.789   1.319 -17.183  1.00 35.49     0.034 C 
BRANCH   2   3
ATOM      3  CG  ARG D 557     -25.834   0.204 -17.171  1.00 35.49     0.027 C 
BRANCH   3   4
ATOM      4  CD  ARG D 557     -24.740   0.409 -16.195  1.00 35.49     0.116 C 
BRANCH   4   5
ATOM      5  NE  ARG D 557     -24.889  -0.424 -15.031  1.00 35.49    -0.212 N 
ATOM      6  CZ  ARG D 557     -24.086  -1.403 -14.679  1.00 35.49     0.666 C 
ATOM      7  NH1 ARG D 557     -23.028  -1.744 -15.392  1.00 35.49    -0.235 N 
ATOM      8  NH2 ARG D 557     -24.362  -2.040 -13.578  1.00 35.49    -0.235 N 
ATOM      9  HH  ARG D 557     -22.826  -1.337 -16.119  1.00 35.49     0.174 HD
ATOM     10  HH  ARG D 557     -22.539  -2.389 -15.112  1.00 35.49     0.174 HD
ATOM     11  HH  ARG D 557     -25.047  -1.793 -13.134  1.00 35.49     0.174 HD
ATOM     12  HH  ARG D 557     -23.865  -2.675 -13.316  1.00 35.49     0.174 HD
ATOM     13  HE  ARG D 557     -25.584  -0.321 -14.553  1.00 35.49     0.178 HD
ENDBRANCH   4   5
ENDBRANCH   3   4
ENDBRANCH   2   3
ENDBRANCH   1   2
END_RES ARG D 557
BEGIN_RES GLU D 570
REMARK  3 active torsions:
REMARK  status: ('A' for Active; 'I' for Inactive)
REMARK    5  A    between atoms: CA   and  CB  
REMARK    6  A    between atoms: CB   and  CG  
REMARK    7  A    between atoms: CG   and  CD  
ROOT
ATOM     14  CA  GLU D 570     -18.033  -6.348 -13.375  1.00 32.92     0.160 C 
ENDROOT
BRANCH  14  15
ATOM     15  CB  GLU D 570     -19.500  -6.345 -13.794  1.00 32.92     0.043 C 
BRANCH  15  16
ATOM     16  CG  GLU D 570     -20.441  -5.527 -12.986  1.00 32.92     0.100 C 
BRANCH  16  17
ATOM     17  CD  GLU D 570     -21.736  -5.233 -13.708  1.00 32.92     0.185 C 
ATOM     18  OE1 GLU D 570     -22.314  -4.150 -13.496  1.00 32.92    -0.647 OA
ATOM     19  OE2 GLU D 570     -22.185  -6.103 -14.480  1.00 32.92    -0.647 OA
ENDBRANCH  16  17
ENDBRANCH  15  16
ENDBRANCH  14  15
END_RES GLU D 570
ENDMDL
MODEL 4
REMARK VINA RESULT:      -1.0      3.831      3.943
REMARK  5 active torsions:
REMARK  status: ('A' for Active; 'I' for Inactive)
REMARK    1  A    between atoms: N_2  and  C_5 
REMARK    2  A    between atoms: C_9  and  N_11 
REMARK    3  A    between atoms: C_15  and  N_27 
REMARK    4  A    between atoms: C_20  and  N_26 
REMARK    5  A    between atoms: C_23  and  O_24 
ROOT
HETATM    1 CL   UNL     2     -29.822   7.429 -12.753  1.00  0.00     0.000 Cl
ENDROOT
TORSDOF 5
BEGIN_RES ARG D 557
REMARK  4 active torsions:
REMARK  status: ('A' for Active; 'I' for Inactive)
REMARK    1  A    between atoms: CA   and  CB  
REMARK    2  A    between atoms: CB   and  CG  
REMARK    3  A    between atoms: CG   and  CD  
REMARK    4  A    between atoms: CD   and  NE  
REMARK       I    between atoms: NE   and  CZ  
REMARK       I    between atoms: CZ   and  NH1 
REMARK       I    between atoms: CZ   and  NH2 
ROOT
ATOM      1  CA  ARG D 557     -26.217   2.705 -17.014  1.00 35.49     0.159 C 
ENDROOT
BRANCH   1   2
ATOM      2  CB  ARG D 557     -26.789   1.319 -17.183  1.00 35.49     0.034 C 
BRANCH   2   3
ATOM      3  CG  ARG D 557     -25.834   0.204 -17.168  1.00 35.49     0.027 C 
BRANCH   3   4
ATOM      4  CD  ARG D 557     -24.744   0.408 -16.187  1.00 35.49     0.116 C 
BRANCH   4   5
ATOM      5  NE  ARG D 557     -24.890  -0.436 -15.030  1.00 35.49    -0.212 N 
ATOM      6  CZ  ARG D 557     -24.075  -1.406 -14.679  1.00 35.49     0.666 C 
ATOM      7  NH1 ARG D 557     -23.007  -1.725 -15.387  1.00 35.49    -0.235 N 
ATOM      8  NH2 ARG D 557     -24.350  -2.055 -13.586  1.00 35.49    -0.235 N 
ATOM      9  HH  ARG D 557     -22.805  -1.310 -16.108  1.00 35.49     0.174 HD
ATOM     10  HH  ARG D 557     -22.510  -2.365 -15.108  1.00 35.49     0.174 HD
ATOM     11  HH  ARG D 557     -25.043  -1.822 -13.146  1.00 35.49     0.174 HD
ATOM     12  HH  ARG D 557     -23.846  -2.685 -13.325  1.00 35.49     0.174 HD
ATOM     13  HE  ARG D 557     -25.591  -0.347 -14.557  1.00 35.49     0.178 HD
ENDBRANCH   4   5
ENDBRANCH   3   4
ENDBRANCH   2   3
ENDBRANCH   1   2
END_RES ARG D 557
BEGIN_RES GLU D 570
REMARK  3 active torsions:
REMARK  status: ('A' for Active; 'I' for Inactive)
REMARK    5  A    between atoms: CA   and  CB  
REMARK    6  A    between atoms: CB   and  CG  
REMARK    7  A    between atoms: CG   and  CD  
ROOT
ATOM     14  CA  GLU D 570     -18.033  -6.348 -13.375  1.00 32.92     0.160 C 
ENDROOT
BRANCH  14  15
ATOM     15  CB  GLU D 570     -19.500  -6.345 -13.794  1.00 32.92     0.043 C 
BRANCH  15  16
ATOM     16  CG  GLU D 570     -20.441  -5.528 -12.985  1.00 32.92     0.100 C 
BRANCH  16  17
ATOM     17  CD  GLU D 570     -21.741  -5.244 -13.702  1.00 32.92     0.185 C 
ATOM     18  OE1 GLU D 570     -22.208  -6.105 -14.472  1.00 32.92    -0.647 OA
ATOM     19  OE2 GLU D 570     -22.290  -4.142 -13.504  1.00 32.92    -0.647 OA
ENDBRANCH  16  17
ENDBRANCH  15  16
ENDBRANCH  14  15
END_RES GLU D 570
ENDMDL
MODEL 5
REMARK VINA RESULT:      -1.0      4.968      5.055
REMARK  5 active torsions:
REMARK  status: ('A' for Active; 'I' for Inactive)
REMARK    1  A    between atoms: N_2  and  C_5 
REMARK    2  A    between atoms: C_9  and  N_11 
REMARK    3  A    between atoms: C_15  and  N_27 
REMARK    4  A    between atoms: C_20  and  N_26 
REMARK    5  A    between atoms: C_23  and  O_24 
ROOT
HETATM    1 CL   UNL     2     -22.260  -6.189  -1.800  1.00  0.00     0.000 Cl
ENDROOT
TORSDOF 5
BEGIN_RES ARG D 557
REMARK  4 active torsions:
REMARK  status: ('A' for Active; 'I' for Inactive)
REMARK    1  A    between atoms: CA   and  CB  
REMARK    2  A    between atoms: CB   and  CG  
REMARK    3  A    between atoms: CG   and  CD  
REMARK    4  A    between atoms: CD   and  NE  
REMARK       I    between atoms: NE   and  CZ  
REMARK       I    between atoms: CZ   and  NH1 
REMARK       I    between atoms: CZ   and  NH2 
ROOT
ATOM      1  CA  ARG D 557     -26.217   2.705 -17.014  1.00 35.49     0.159 C 
ENDROOT
BRANCH   1   2
ATOM      2  CB  ARG D 557     -26.789   1.319 -17.183  1.00 35.49     0.034 C 
BRANCH   2   3
ATOM      3  CG  ARG D 557     -25.836   0.203 -17.156  1.00 35.49     0.027 C 
BRANCH   3   4
ATOM      4  CD  ARG D 557     -24.750   0.412 -16.171  1.00 35.49     0.116 C 
BRANCH   4   5
ATOM      5  NE  ARG D 557     -24.894  -0.435 -15.017  1.00 35.49    -0.212 N 
ATOM      6  CZ  ARG D 557     -24.079  -1.406 -14.670  1.00 35.49     0.666 C 
ATOM      7  NH1 ARG D 557     -23.013  -1.724 -15.380  1.00 35.49    -0.235 N 
ATOM      8  NH2 ARG D 557     -24.353  -2.058 -13.578  1.00 35.49    -0.235 N 
ATOM      9  HH  ARG D 557     -22.812  -1.307 -16.101  1.00 35.49     0.174 HD
ATOM     10  HH  ARG D 557     -22.516  -2.365 -15.103  1.00 35.49     0.174 HD
ATOM     11  HH  ARG D 557     -25.044  -1.826 -13.135  1.00 35.49     0.174 HD
ATOM     12  HH  ARG D 557     -23.848  -2.689 -13.320  1.00 35.49     0.174 HD
ATOM     13  HE  ARG D 557     -25.594  -0.347 -14.542  1.00 35.49     0.178 HD
ENDBRANCH   4   5
ENDBRANCH   3   4
ENDBRANCH   2   3
ENDBRANCH   1   2
END_RES ARG D 557
BEGIN_RES GLU D 570
REMARK  3 active torsions:
REMARK  status: ('A' for Active; 'I' for Inactive)
REMARK    5  A    between atoms: CA   and  CB  
REMARK    6  A    between atoms: CB   and  CG  
REMARK    7  A    between atoms: CG   and  CD  
ROOT
ATOM     14  CA  GLU D 570     -18.033  -6.348 -13.375  1.00 32.92     0.160 C 
ENDROOT
BRANCH  14  15
ATOM     15  CB  GLU D 570     -19.500  -6.345 -13.794  1.00 32.92     0.043 C 
BRANCH  15  16
ATOM     16  CG  GLU D 570     -20.445  -5.543 -12.974  1.00 32.92     0.100 C 
BRANCH  16  17
ATOM     17  CD  GLU D 570     -21.743  -5.249 -13.689  1.00 32.92     0.185 C 
ATOM     18  OE1 GLU D 570     -22.240  -6.123 -14.425  1.00 32.92    -0.647 OA
ATOM     19  OE2 GLU D 570     -22.259  -4.126 -13.524  1.00 32.92    -0.647 OA
ENDBRANCH  16  17
ENDBRANCH  15  16
ENDBRANCH  14  15
END_RES GLU D 570
ENDMDL
MODEL 6
REMARK VINA RESULT:      -0.9      6.450      6.450
REMARK  5 active torsions:
REMARK  status: ('A' for Active; 'I' for Inactive)
REMARK    1  A    between atoms: N_2  and  C_5 
REMARK    2  A    between atoms: C_9  and  N_11 
REMARK    3  A    between atoms: C_15  and  N_27 
REMARK    4  A    between atoms: C_20  and  N_26 
REMARK    5  A    between atoms: C_23  and  O_24 
ROOT
HETATM    1 CL   UNL     2     -20.944  -5.747 -17.565  1.00  0.00     0.000 Cl
ENDROOT
TORSDOF 5
BEGIN_RES ARG D 557
REMARK  4 active torsions:
REMARK  status: ('A' for Active; 'I' for Inactive)
REMARK    1  A    between atoms: CA   and  CB  
REMARK    2  A    between atoms: CB   and  CG  
REMARK    3  A    between atoms: CG   and  CD  
REMARK    4  A    between atoms: CD   and  NE  
REMARK       I    between atoms: NE   and  CZ  
REMARK       I    between atoms: CZ   and  NH1 
REMARK       I    between atoms: CZ   and  NH2 
ROOT
ATOM      1  CA  ARG D 557     -26.217   2.705 -17.014  1.00 35.49     0.159 C 
ENDROOT
BRANCH   1   2
ATOM      2  CB  ARG D 557     -26.789   1.319 -17.183  1.00 35.49     0.034 C 
BRANCH   2   3
ATOM      3  CG  ARG D 557     -25.835   0.204 -17.163  1.00 35.49     0.027 C 
BRANCH   3   4
ATOM      4  CD  ARG D 557     -24.749   0.407 -16.177  1.00 35.49     0.116 C 
BRANCH   4   5
ATOM      5  NE  ARG D 557     -24.898  -0.440 -15.023  1.00 35.49    -0.212 N 
ATOM      6  CZ  ARG D 557     -24.083  -1.409 -14.672  1.00 35.49     0.666 C 
ATOM      7  NH1 ARG D 557     -23.012  -1.725 -15.376  1.00 35.49    -0.235 N 
ATOM      8  NH2 ARG D 557     -24.362  -2.062 -13.581  1.00 35.49    -0.235 N 
ATOM      9  HH  ARG D 557     -22.808  -1.307 -16.095  1.00 35.49     0.174 HD
ATOM     10  HH  ARG D 557     -22.515  -2.365 -15.096  1.00 35.49     0.174 HD
ATOM     11  HH  ARG D 557     -25.056  -1.831 -13.143  1.00 35.49     0.174 HD
ATOM     12  HH  ARG D 557     -23.857  -2.691 -13.320  1.00 35.49     0.174 HD
ATOM     13  HE  ARG D 557     -25.601  -0.354 -14.553  1.00 35.49     0.178 HD
ENDBRANCH   4   5
ENDBRANCH   3   4
ENDBRANCH   2   3
ENDBRANCH   1   2
END_RES ARG D 557
BEGIN_RES GLU D 570
REMARK  3 active torsions:
REMARK  status: ('A' for Active; 'I' for Inactive)
REMARK    5  A    between atoms: CA   and  CB  
REMARK    6  A    between atoms: CB   and  CG  
REMARK    7  A    between atoms: CG   and  CD  
ROOT
ATOM     14  CA  GLU D 570     -18.033  -6.348 -13.375  1.00 32.92     0.160 C 
ENDROOT
BRANCH  14  15
ATOM     15  CB  GLU D 570     -19.500  -6.345 -13.794  1.00 32.92     0.043 C 
BRANCH  15  16
ATOM     16  CG  GLU D 570     -20.444  -5.541 -12.975  1.00 32.92     0.100 C 
BRANCH  16  17
ATOM     17  CD  GLU D 570     -21.743  -5.249 -13.690  1.00 32.92     0.185 C 
ATOM     18  OE1 GLU D 570     -22.281  -4.136 -13.536  1.00 32.92    -0.647 OA
ATOM     19  OE2 GLU D 570     -22.236  -6.149 -14.398  1.00 32.92    -0.647 OA
ENDBRANCH  16  17
ENDBRANCH  15  16
ENDBRANCH  14  15
END_RES GLU D 570
ENDMDL
MODEL 7
REMARK VINA RESULT:      -0.8      4.428      4.428
REMARK  5 active torsions:
REMARK  status: ('A' for Active; 'I' for Inactive)
REMARK    1  A    between atoms: N_2  and  C_5 
REMARK    2  A    between atoms: C_9  and  N_11 
REMARK    3  A    between atoms: C_15  and  N_27 
REMARK    4  A    between atoms: C_20  and  N_26 
REMARK    5  A    between atoms: C_23  and  O_24 
ROOT
HETATM    1 CL   UNL     2     -23.816   6.007  -1.460  1.00  0.00     0.000 Cl
ENDROOT
TORSDOF 5
BEGIN_RES ARG D 557
REMARK  4 active torsions:
REMARK  status: ('A' for Active; 'I' for Inactive)
REMARK    1  A    between atoms: CA   and  CB  
REMARK    2  A    between atoms: CB   and  CG  
REMARK    3  A    between atoms: CG   and  CD  
REMARK    4  A    between atoms: CD   and  NE  
REMARK       I    between atoms: NE   and  CZ  
REMARK       I    between atoms: CZ   and  NH1 
REMARK       I    between atoms: CZ   and  NH2 
ROOT
ATOM      1  CA  ARG D 557     -26.217   2.705 -17.014  1.00 35.49     0.159 C 
ENDROOT
BRANCH   1   2
ATOM      2  CB  ARG D 557     -26.789   1.319 -17.183  1.00 35.49     0.034 C 
BRANCH   2   3
ATOM      3  CG  ARG D 557     -25.835   0.203 -17.161  1.00 35.49     0.027 C 
BRANCH   3   4
ATOM      4  CD  ARG D 557     -24.750   0.408 -16.175  1.00 35.49     0.116 C 
BRANCH   4   5
ATOM      5  NE  ARG D 557     -24.898  -0.440 -15.022  1.00 35.49    -0.212 N 
ATOM      6  CZ  ARG D 557     -24.082  -1.409 -14.671  1.00 35.49     0.666 C 
ATOM      7  NH1 ARG D 557     -23.011  -1.724 -15.376  1.00 35.49    -0.235 N 
ATOM      8  NH2 ARG D 557     -24.360  -2.063 -13.581  1.00 35.49    -0.235 N 
ATOM      9  HH  ARG D 557     -22.808  -1.306 -16.096  1.00 35.49     0.174 HD
ATOM     10  HH  ARG D 557     -22.514  -2.364 -15.098  1.00 35.49     0.174 HD
ATOM     11  HH  ARG D 557     -25.054  -1.833 -13.142  1.00 35.49     0.174 HD
ATOM     12  HH  ARG D 557     -23.855  -2.693 -13.321  1.00 35.49     0.174 HD
ATOM     13  HE  ARG D 557     -25.600  -0.354 -14.550  1.00 35.49     0.178 HD
ENDBRANCH   4   5
ENDBRANCH   3   4
ENDBRANCH   2   3
ENDBRANCH   1   2
END_RES ARG D 557
BEGIN_RES GLU D 570
REMARK  3 active torsions:
REMARK  status: ('A' for Active; 'I' for Inactive)
REMARK    5  A    between atoms: CA   and  CB  
REMARK    6  A    between atoms: CB   and  CG  
REMARK    7  A    between atoms: CG   and  CD  
ROOT
ATOM     14  CA  GLU D 570     -18.033  -6.348 -13.375  1.00 32.92     0.160 C 
ENDROOT
BRANCH  14  15
ATOM     15  CB  GLU D 570     -19.500  -6.345 -13.794  1.00 32.92     0.043 C 
BRANCH  15  16
ATOM     16  CG  GLU D 570     -20.436  -5.505 -13.003  1.00 32.92     0.100 C 
BRANCH  16  17
ATOM     17  CD  GLU D 570     -21.739  -5.240 -13.720  1.00 32.92     0.185 C 
ATOM     18  OE1 GLU D 570     -22.307  -4.142 -13.558  1.00 32.92    -0.647 OA
ATOM     19  OE2 GLU D 570     -22.206  -6.145 -14.438  1.00 32.92    -0.647 OA
ENDBRANCH  16  17
ENDBRANCH  15  16
ENDBRANCH  14  15
END_RES GLU D 570
ENDMDL
MODEL 8
REMARK VINA RESULT:      -0.8      5.463      5.542
REMARK  5 active torsions:
REMARK  status: ('A' for Active; 'I' for Inactive)
REMARK    1  A    between atoms: N_2  and  C_5 
REMARK    2  A    between atoms: C_9  and  N_11 
REMARK    3  A    between atoms: C_15  and  N_27 
REMARK    4  A    between atoms: C_20  and  N_26 
REMARK    5  A    between atoms: C_23  and  O_24 
ROOT
HETATM    1 CL   UNL     2     -29.755 -15.246   0.384  1.00  0.00     0.000 Cl
ENDROOT
TORSDOF 5
BEGIN_RES ARG D 557
REMARK  4 active torsions:
REMARK  status: ('A' for Active; 'I' for Inactive)
REMARK    1  A    between atoms: CA   and  CB  
REMARK    2  A    between atoms: CB   and  CG  
REMARK    3  A    between atoms: CG   and  CD  
REMARK    4  A    between atoms: CD   and  NE  
REMARK       I    between atoms: NE   and  CZ  
REMARK       I    between atoms: CZ   and  NH1 
REMARK       I    between atoms: CZ   and  NH2 
ROOT
ATOM      1  CA  ARG D 557     -26.217   2.705 -17.014  1.00 35.49     0.159 C 
ENDROOT
BRANCH   1   2
ATOM      2  CB  ARG D 557     -26.789   1.319 -17.183  1.00 35.49     0.034 C 
BRANCH   2   3
ATOM      3  CG  ARG D 557     -25.836   0.203 -17.156  1.00 35.49     0.027 C 
BRANCH   3   4
ATOM      4  CD  ARG D 557     -24.755   0.408 -16.164  1.00 35.49     0.116 C 
BRANCH   4   5
ATOM      5  NE  ARG D 557     -24.906  -0.445 -15.014  1.00 35.49    -0.212 N 
ATOM      6  CZ  ARG D 557     -24.093  -1.418 -14.668  1.00 35.49     0.666 C 
ATOM      7  NH1 ARG D 557     -23.024  -1.734 -15.375  1.00 35.49    -0.235 N 
ATOM      8  NH2 ARG D 557     -24.373  -2.075 -13.580  1.00 35.49    -0.235 N 
ATOM      9  HH  ARG D 557     -22.819  -1.313 -16.093  1.00 35.49     0.174 HD
ATOM     10  HH  ARG D 557     -22.529  -2.377 -15.099  1.00 35.49     0.174 HD
ATOM     11  HH  ARG D 557     -25.066  -1.844 -13.140  1.00 35.49     0.174 HD
ATOM     12  HH  ARG D 557     -23.870  -2.708 -13.323  1.00 35.49     0.174 HD
ATOM     13  HE  ARG D 557     -25.608  -0.358 -14.542  1.00 35.49     0.178 HD
ENDBRANCH   4   5
ENDBRANCH   3   4
ENDBRANCH   2   3
ENDBRANCH   1   2
END_RES ARG D 557
BEGIN_RES GLU D 570
REMARK  3 active torsions:
REMARK  status: ('A' for Active; 'I' for Inactive)
REMARK    5  A    between atoms: CA   and  CB  
REMARK    6  A    between atoms: CB   and  CG  
REMARK    7  A    between atoms: CG   and  CD  
ROOT
ATOM     14  CA  GLU D 570     -18.033  -6.348 -13.375  1.00 32.92     0.160 C 
ENDROOT
BRANCH  14  15
ATOM     15  CB  GLU D 570     -19.500  -6.345 -13.794  1.00 32.92     0.043 C 
BRANCH  15  16
ATOM     16  CG  GLU D 570     -20.442  -5.532 -12.983  1.00 32.92     0.100 C 
BRANCH  16  17
ATOM     17  CD  GLU D 570     -21.739  -5.239 -13.701  1.00 32.92     0.185 C 
ATOM     18  OE1 GLU D 570     -22.199  -6.088 -14.489  1.00 32.92    -0.647 OA
ATOM     19  OE2 GLU D 570     -22.291  -4.143 -13.487  1.00 32.92    -0.647 OA
ENDBRANCH  16  17
ENDBRANCH  15  16
ENDBRANCH  14  15
END_RES GLU D 570
ENDMDL
MODEL 9
REMARK VINA RESULT:      -0.8      5.387      5.467
REMARK  5 active torsions:
REMARK  status: ('A' for Active; 'I' for Inactive)
REMARK    1  A    between atoms: N_2  and  C_5 
REMARK    2  A    between atoms: C_9  and  N_11 
REMARK    3  A    between atoms: C_15  and  N_27 
REMARK    4  A    between atoms: C_20  and  N_26 
REMARK    5  A    between atoms: C_23  and  O_24 
ROOT
HETATM    1 CL   UNL     2     -29.855 -15.296  -9.185  1.00  0.00     0.000 Cl
ENDROOT
TORSDOF 5
BEGIN_RES ARG D 557
REMARK  4 active torsions:
REMARK  status: ('A' for Active; 'I' for Inactive)
REMARK    1  A    between atoms: CA   and  CB  
REMARK    2  A    between atoms: CB   and  CG  
REMARK    3  A    between atoms: CG   and  CD  
REMARK    4  A    between atoms: CD   and  NE  
REMARK       I    between atoms: NE   and  CZ  
REMARK       I    between atoms: CZ   and  NH1 
REMARK       I    between atoms: CZ   and  NH2 
ROOT
ATOM      1  CA  ARG D 557     -26.217   2.705 -17.014  1.00 35.49     0.159 C 
ENDROOT
BRANCH   1   2
ATOM      2  CB  ARG D 557     -26.789   1.319 -17.183  1.00 35.49     0.034 C 
BRANCH   2   3
ATOM      3  CG  ARG D 557     -25.838   0.202 -17.140  1.00 35.49     0.027 C 
BRANCH   3   4
ATOM      4  CD  ARG D 557     -24.761   0.415 -16.146  1.00 35.49     0.116 C 
BRANCH   4   5
ATOM      5  NE  ARG D 557     -24.899  -0.451 -15.004  1.00 35.49    -0.212 N 
ATOM      6  CZ  ARG D 557     -24.073  -1.416 -14.668  1.00 35.49     0.666 C 
ATOM      7  NH1 ARG D 557     -23.000  -1.710 -15.378  1.00 35.49    -0.235 N 
ATOM      8  NH2 ARG D 557     -24.343  -2.088 -13.586  1.00 35.49    -0.235 N 
ATOM      9  HH  ARG D 557     -22.802  -1.280 -16.092  1.00 35.49     0.174 HD
ATOM     10  HH  ARG D 557     -22.496  -2.349 -15.109  1.00 35.49     0.174 HD
ATOM     11  HH  ARG D 557     -25.039  -1.871 -13.144  1.00 35.49     0.174 HD
ATOM     12  HH  ARG D 557     -23.831  -2.715 -13.335  1.00 35.49     0.174 HD
ATOM     13  HE  ARG D 557     -25.602  -0.379 -14.531  1.00 35.49     0.178 HD
ENDBRANCH   4   5
ENDBRANCH   3   4
ENDBRANCH   2   3
ENDBRANCH   1   2
END_RES ARG D 557
BEGIN_RES GLU D 570
REMARK  3 active torsions:
REMARK  status: ('A' for Active; 'I' for Inactive)
REMARK    5  A    between atoms: CA   and  CB  
REMARK    6  A    between atoms: CB   and  CG  
REMARK    7  A    between atoms: CG   and  CD  
ROOT
ATOM     14  CA  GLU D 570     -18.033  -6.348 -13.375  1.00 32.92     0.160 C 
ENDROOT
BRANCH  14  15
ATOM     15  CB  GLU D 570     -19.500  -6.345 -13.794  1.00 32.92     0.043 C 
BRANCH  15  16
ATOM     16  CG  GLU D 570     -20.448  -5.560 -12.961  1.00 32.92     0.100 C 
BRANCH  16  17
ATOM     17  CD  GLU D 570     -21.743  -5.252 -13.676  1.00 32.92     0.185 C 
ATOM     18  OE1 GLU D 570     -22.276  -6.136 -14.373  1.00 32.92    -0.647 OA
ATOM     19  OE2 GLU D 570     -22.222  -4.107 -13.550  1.00 32.92    -0.647 OA
ENDBRANCH  16  17
ENDBRANCH  15  16
ENDBRANCH  14  15
END_RES GLU D 570
ENDMDL
