MODEL 1
REMARK VINA RESULT:      -8.3      0.000      0.000
REMARK  13 active torsions:
REMARK  status: ('A' for Active; 'I' for Inactive)
REMARK    1  A    between atoms: C_2  and  C_3 
REMARK    2  A    between atoms: C_3  and  C_4 
REMARK    3  A    between atoms: C_4  and  C_5 
REMARK    4  A    between atoms: C_5  and  C_6 
REMARK    5  A    between atoms: C_6  and  C_7 
REMARK    6  A    between atoms: C_7  and  C_8 
REMARK    7  A    between atoms: C_8  and  C_9 
REMARK    8  A    between atoms: C_9  and  C_10 
REMARK    9  A    between atoms: C_10  and  C_11 
REMARK   10  A    between atoms: C_11  and  C_12 
REMARK   11  A    between atoms: C_12  and  C_13 
REMARK   12  A    between atoms: C_18  and  S_19 
REMARK   13  A    between atoms: S_19  and  O_22 
ROOT
HETATM    1  C   UNL     1     -22.235  -4.497  -7.781  1.00  0.00     0.040 C 
ENDROOT
BRANCH   1   2
HETATM    2  C   UNL     1     -21.218  -3.873  -6.840  1.00  0.00     0.005 C 
BRANCH   2   3
HETATM    3  C   UNL     1     -20.600  -4.943  -5.945  1.00  0.00     0.000 C 
BRANCH   3   4
HETATM    4  C   UNL     1     -21.682  -5.911  -5.510  1.00  0.00     0.000 C 
BRANCH   4   5
HETATM    5  C   UNL     1     -21.190  -6.739  -4.342  1.00  0.00     0.000 C 
BRANCH   5   6
HETATM    6  C   UNL     1     -21.879  -6.288  -3.069  1.00  0.00     0.000 C 
BRANCH   6   7
HETATM    7  C   UNL     1     -21.578  -7.272  -1.954  1.00  0.00     0.000 C 
BRANCH   7   8
HETATM    8  C   UNL     1     -22.460  -6.982  -0.754  1.00  0.00     0.000 C 
BRANCH   8   9
HETATM    9  C   UNL     1     -22.412  -8.151   0.218  1.00  0.00     0.000 C 
BRANCH   9  10
HETATM   10  C   UNL     1     -22.475  -9.466  -0.542  1.00  0.00    -0.000 C 
BRANCH  10  11
HETATM   11  C   UNL     1     -23.647 -10.309  -0.056  1.00  0.00    -0.005 C 
HETATM   12  C   UNL     1     -24.038 -11.331  -1.107  1.00  0.00     0.005 C 
ENDBRANCH  10  11
ENDBRANCH   9  10
ENDBRANCH   8   9
ENDBRANCH   7   8
ENDBRANCH   6   7
ENDBRANCH   5   6
ENDBRANCH   4   5
ENDBRANCH   3   4
ENDBRANCH   2   3
ENDBRANCH   1   2
BRANCH   1  13
HETATM   13  C   UNL     1     -21.875  -4.242  -9.222  1.00  0.00    -0.035 A 
HETATM   14  C   UNL     1     -20.500  -4.295  -9.541  1.00  0.00     0.009 A 
HETATM   15  C   UNL     1     -20.047  -4.118 -10.849  1.00  0.00     0.001 A 
HETATM   16  C   UNL     1     -20.956  -3.963 -11.884  1.00  0.00     0.002 A 
HETATM   17  C   UNL     1     -22.321  -3.941 -11.597  1.00  0.00     0.026 A 
HETATM   18  C   UNL     1     -22.788  -4.036 -10.277  1.00  0.00     0.078 A 
BRANCH  18  19
HETATM   19  S   UNL     1     -24.542  -3.768 -10.096  1.00  0.00     0.130 S 
HETATM   20  O   UNL     1     -24.993  -3.133 -11.333  1.00  0.00    -0.598 OA
HETATM   21  O   UNL     1     -25.135  -4.992  -9.624  1.00  0.00    -0.598 OA
BRANCH  19  22
HETATM   22  O   UNL     1     -24.738  -2.629  -8.975  1.00  0.00    -0.292 OA
HETATM   23  H   UNL     1     -24.810  -1.760  -9.417  1.00  0.00     0.232 HD
ENDBRANCH  19  22
ENDBRANCH  18  19
ENDBRANCH   1  13
TORSDOF 13
BEGIN_RES ARG D 557
REMARK  4 active torsions:
REMARK  status: ('A' for Active; 'I' for Inactive)
REMARK    1  A    between atoms: CA   and  CB  
REMARK    2  A    between atoms: CB   and  CG  
REMARK    3  A    between atoms: CG   and  CD  
REMARK    4  A    between atoms: CD   and  NE  
REMARK       I    between atoms: NE   and  CZ  
REMARK       I    between atoms: CZ   and  NH1 
REMARK       I    between atoms: CZ   and  NH2 
ROOT
ATOM      1  CA  ARG D 557     -26.217   2.705 -17.014  1.00 35.49     0.159 C 
ENDROOT
BRANCH   1   2
ATOM      2  CB  ARG D 557     -26.789   1.319 -17.183  1.00 35.49     0.034 C 
BRANCH   2   3
ATOM      3  CG  ARG D 557     -25.938   0.198 -16.766  1.00 35.49     0.027 C 
BRANCH   3   4
ATOM      4  CD  ARG D 557     -26.694  -0.841 -16.030  1.00 35.49     0.116 C 
BRANCH   4   5
ATOM      5  NE  ARG D 557     -25.847  -1.613 -15.159  1.00 35.49    -0.212 N 
ATOM      6  CZ  ARG D 557     -25.962  -2.900 -14.920  1.00 35.49     0.666 C 
ATOM      7  NH1 ARG D 557     -26.910  -3.641 -15.463  1.00 35.49    -0.235 N 
ATOM      8  NH2 ARG D 557     -25.091  -3.442 -14.118  1.00 35.49    -0.235 N 
ATOM      9  HH  ARG D 557     -27.493  -3.306 -15.995  1.00 35.49     0.174 HD
ATOM     10  HH  ARG D 557     -26.934  -4.476 -15.272  1.00 35.49     0.174 HD
ATOM     11  HH  ARG D 557     -24.485  -2.940 -13.788  1.00 35.49     0.174 HD
ATOM     12  HH  ARG D 557     -25.131  -4.270 -13.943  1.00 35.49     0.174 HD
ATOM     13  HE  ARG D 557     -25.253  -1.201 -14.711  1.00 35.49     0.178 HD
ENDBRANCH   4   5
ENDBRANCH   3   4
ENDBRANCH   2   3
ENDBRANCH   1   2
END_RES ARG D 557
BEGIN_RES GLU D 570
REMARK  3 active torsions:
REMARK  status: ('A' for Active; 'I' for Inactive)
REMARK    5  A    between atoms: CA   and  CB  
REMARK    6  A    between atoms: CB   and  CG  
REMARK    7  A    between atoms: CG   and  CD  
ROOT
ATOM     14  CA  GLU D 570     -18.033  -6.348 -13.375  1.00 32.92     0.160 C 
ENDROOT
BRANCH  14  15
ATOM     15  CB  GLU D 570     -19.500  -6.345 -13.794  1.00 32.92     0.043 C 
BRANCH  15  16
ATOM     16  CG  GLU D 570     -19.817  -5.894 -15.174  1.00 32.92     0.100 C 
BRANCH  16  17
ATOM     17  CD  GLU D 570     -21.298  -5.701 -15.405  1.00 32.92     0.185 C 
ATOM     18  OE1 GLU D 570     -21.709  -4.595 -15.804  1.00 32.92    -0.647 OA
ATOM     19  OE2 GLU D 570     -22.056  -6.661 -15.168  1.00 32.92    -0.647 OA
ENDBRANCH  16  17
ENDBRANCH  15  16
ENDBRANCH  14  15
END_RES GLU D 570
ENDMDL
MODEL 2
REMARK VINA RESULT:      -7.5      2.030      3.708
REMARK  13 active torsions:
REMARK  status: ('A' for Active; 'I' for Inactive)
REMARK    1  A    between atoms: C_2  and  C_3 
REMARK    2  A    between atoms: C_3  and  C_4 
REMARK    3  A    between atoms: C_4  and  C_5 
REMARK    4  A    between atoms: C_5  and  C_6 
REMARK    5  A    between atoms: C_6  and  C_7 
REMARK    6  A    between atoms: C_7  and  C_8 
REMARK    7  A    between atoms: C_8  and  C_9 
REMARK    8  A    between atoms: C_9  and  C_10 
REMARK    9  A    between atoms: C_10  and  C_11 
REMARK   10  A    between atoms: C_11  and  C_12 
REMARK   11  A    between atoms: C_12  and  C_13 
REMARK   12  A    between atoms: C_18  and  S_19 
REMARK   13  A    between atoms: S_19  and  O_22 
ROOT
HETATM    1  C   UNL     1     -21.554  -3.054 -11.405  1.00  0.00     0.040 C 
ENDROOT
BRANCH   1   2
HETATM    2  C   UNL     1     -21.172  -4.524 -11.354  1.00  0.00     0.005 C 
BRANCH   2   3
HETATM    3  C   UNL     1     -19.954  -4.724 -10.459  1.00  0.00     0.000 C 
BRANCH   3   4
HETATM    4  C   UNL     1     -20.156  -3.957  -9.168  1.00  0.00     0.000 C 
BRANCH   4   5
HETATM    5  C   UNL     1     -20.697  -4.884  -8.099  1.00  0.00     0.000 C 
BRANCH   5   6
HETATM    6  C   UNL     1     -20.871  -4.122  -6.800  1.00  0.00     0.000 C 
BRANCH   6   7
HETATM    7  C   UNL     1     -20.479  -5.010  -5.635  1.00  0.00     0.000 C 
BRANCH   7   8
HETATM    8  C   UNL     1     -20.270  -6.434  -6.116  1.00  0.00     0.000 C 
BRANCH   8   9
HETATM    9  C   UNL     1     -20.521  -7.408  -4.975  1.00  0.00     0.000 C 
BRANCH   9  10
HETATM   10  C   UNL     1     -21.689  -6.931  -4.127  1.00  0.00    -0.000 C 
BRANCH  10  11
HETATM   11  C   UNL     1     -21.411  -7.173  -2.649  1.00  0.00    -0.005 C 
HETATM   12  C   UNL     1     -22.201  -6.201  -1.793  1.00  0.00     0.005 C 
ENDBRANCH  10  11
ENDBRANCH   9  10
ENDBRANCH   8   9
ENDBRANCH   7   8
ENDBRANCH   6   7
ENDBRANCH   5   6
ENDBRANCH   4   5
ENDBRANCH   3   4
ENDBRANCH   2   3
ENDBRANCH   1   2
BRANCH   1  13
HETATM   13  C   UNL     1     -22.820  -2.845 -12.195  1.00  0.00    -0.035 A 
HETATM   14  C   UNL     1     -22.664  -2.324 -13.499  1.00  0.00     0.009 A 
HETATM   15  C   UNL     1     -23.759  -2.127 -14.341  1.00  0.00     0.001 A 
HETATM   16  C   UNL     1     -25.026  -2.516 -13.937  1.00  0.00     0.002 A 
HETATM   17  C   UNL     1     -25.200  -3.064 -12.666  1.00  0.00     0.026 A 
HETATM   18  C   UNL     1     -24.122  -3.194 -11.777  1.00  0.00     0.078 A 
BRANCH  18  19
HETATM   19  S   UNL     1     -24.582  -3.707 -10.132  1.00  0.00     0.130 S 
HETATM   20  O   UNL     1     -25.894  -3.120  -9.868  1.00  0.00    -0.598 OA
HETATM   21  O   UNL     1     -24.362  -5.127 -10.029  1.00  0.00    -0.598 OA
BRANCH  19  22
HETATM   22  O   UNL     1     -23.599  -2.953  -9.103  1.00  0.00    -0.292 OA
HETATM   23  H   UNL     1     -24.136  -2.540  -8.399  1.00  0.00     0.232 HD
ENDBRANCH  19  22
ENDBRANCH  18  19
ENDBRANCH   1  13
TORSDOF 13
BEGIN_RES ARG D 557
REMARK  4 active torsions:
REMARK  status: ('A' for Active; 'I' for Inactive)
REMARK    1  A    between atoms: CA   and  CB  
REMARK    2  A    between atoms: CB   and  CG  
REMARK    3  A    between atoms: CG   and  CD  
REMARK    4  A    between atoms: CD   and  NE  
REMARK       I    between atoms: NE   and  CZ  
REMARK       I    between atoms: CZ   and  NH1 
REMARK       I    between atoms: CZ   and  NH2 
ROOT
ATOM      1  CA  ARG D 557     -26.217   2.705 -17.014  1.00 35.49     0.159 C 
ENDROOT
BRANCH   1   2
ATOM      2  CB  ARG D 557     -26.789   1.319 -17.183  1.00 35.49     0.034 C 
BRANCH   2   3
ATOM      3  CG  ARG D 557     -28.189   1.129 -16.785  1.00 35.49     0.027 C 
BRANCH   3   4
ATOM      4  CD  ARG D 557     -28.735  -0.169 -17.244  1.00 35.49     0.116 C 
BRANCH   4   5
ATOM      5  NE  ARG D 557     -28.022  -1.286 -16.684  1.00 35.49    -0.212 N 
ATOM      6  CZ  ARG D 557     -28.318  -2.554 -16.862  1.00 35.49     0.666 C 
ATOM      7  NH1 ARG D 557     -29.348  -2.946 -17.589  1.00 35.49    -0.235 N 
ATOM      8  NH2 ARG D 557     -27.548  -3.436 -16.294  1.00 35.49    -0.235 N 
ATOM      9  HH  ARG D 557     -29.867  -2.383 -17.973  1.00 35.49     0.174 HD
ATOM     10  HH  ARG D 557     -29.491  -3.787 -17.672  1.00 35.49     0.174 HD
ATOM     11  HH  ARG D 557     -26.886  -3.154 -15.837  1.00 35.49     0.174 HD
ATOM     12  HH  ARG D 557     -27.705  -4.264 -16.390  1.00 35.49     0.174 HD
ATOM     13  HE  ARG D 557     -27.387  -1.123 -16.142  1.00 35.49     0.178 HD
ENDBRANCH   4   5
ENDBRANCH   3   4
ENDBRANCH   2   3
ENDBRANCH   1   2
END_RES ARG D 557
BEGIN_RES GLU D 570
REMARK  3 active torsions:
REMARK  status: ('A' for Active; 'I' for Inactive)
REMARK    5  A    between atoms: CA   and  CB  
REMARK    6  A    between atoms: CB   and  CG  
REMARK    7  A    between atoms: CG   and  CD  
ROOT
ATOM     14  CA  GLU D 570     -18.033  -6.348 -13.375  1.00 32.92     0.160 C 
ENDROOT
BRANCH  14  15
ATOM     15  CB  GLU D 570     -19.500  -6.345 -13.794  1.00 32.92     0.043 C 
BRANCH  15  16
ATOM     16  CG  GLU D 570     -19.887  -7.210 -14.938  1.00 32.92     0.100 C 
BRANCH  16  17
ATOM     17  CD  GLU D 570     -21.350  -7.094 -15.297  1.00 32.92     0.185 C 
ATOM     18  OE1 GLU D 570     -22.044  -6.226 -14.733  1.00 32.92    -0.647 OA
ATOM     19  OE2 GLU D 570     -21.811  -7.890 -16.139  1.00 32.92    -0.647 OA
ENDBRANCH  16  17
ENDBRANCH  15  16
ENDBRANCH  14  15
END_RES GLU D 570
ENDMDL
MODEL 3
REMARK VINA RESULT:      -7.5      3.870      7.944
REMARK  13 active torsions:
REMARK  status: ('A' for Active; 'I' for Inactive)
REMARK    1  A    between atoms: C_2  and  C_3 
REMARK    2  A    between atoms: C_3  and  C_4 
REMARK    3  A    between atoms: C_4  and  C_5 
REMARK    4  A    between atoms: C_5  and  C_6 
REMARK    5  A    between atoms: C_6  and  C_7 
REMARK    6  A    between atoms: C_7  and  C_8 
REMARK    7  A    between atoms: C_8  and  C_9 
REMARK    8  A    between atoms: C_9  and  C_10 
REMARK    9  A    between atoms: C_10  and  C_11 
REMARK   10  A    between atoms: C_11  and  C_12 
REMARK   11  A    between atoms: C_12  and  C_13 
REMARK   12  A    between atoms: C_18  and  S_19 
REMARK   13  A    between atoms: S_19  and  O_22 
ROOT
HETATM    1  C   UNL     1     -20.899  -7.087  -2.492  1.00  0.00     0.040 C 
ENDROOT
BRANCH   1   2
HETATM    2  C   UNL     1     -21.828  -6.418  -3.490  1.00  0.00     0.005 C 
BRANCH   2   3
HETATM    3  C   UNL     1     -21.703  -7.083  -4.857  1.00  0.00     0.000 C 
BRANCH   3   4
HETATM    4  C   UNL     1     -21.724  -6.014  -5.932  1.00  0.00     0.000 C 
BRANCH   4   5
HETATM    5  C   UNL     1     -20.442  -5.211  -5.883  1.00  0.00     0.000 C 
BRANCH   5   6
HETATM    6  C   UNL     1     -20.537  -4.034  -6.834  1.00  0.00     0.000 C 
BRANCH   6   7
HETATM    7  C   UNL     1     -19.528  -4.205  -7.954  1.00  0.00     0.000 C 
BRANCH   7   8
HETATM    8  C   UNL     1     -20.183  -4.878  -9.145  1.00  0.00     0.000 C 
BRANCH   8   9
HETATM    9  C   UNL     1     -21.209  -3.945  -9.768  1.00  0.00     0.000 C 
BRANCH   9  10
HETATM   10  C   UNL     1     -22.579  -4.604  -9.777  1.00  0.00    -0.000 C 
BRANCH  10  11
HETATM   11  C   UNL     1     -23.569  -3.792  -8.952  1.00  0.00    -0.005 C 
HETATM   12  C   UNL     1     -24.758  -3.382  -9.800  1.00  0.00     0.005 C 
ENDBRANCH  10  11
ENDBRANCH   9  10
ENDBRANCH   8   9
ENDBRANCH   7   8
ENDBRANCH   6   7
ENDBRANCH   5   6
ENDBRANCH   4   5
ENDBRANCH   3   4
ENDBRANCH   2   3
ENDBRANCH   1   2
BRANCH   1  13
HETATM   13  C   UNL     1     -21.666  -7.947  -1.522  1.00  0.00    -0.035 A 
HETATM   14  C   UNL     1     -22.411  -7.264  -0.535  1.00  0.00     0.009 A 
HETATM   15  C   UNL     1     -23.195  -7.951   0.392  1.00  0.00     0.001 A 
HETATM   16  C   UNL     1     -23.320  -9.329   0.313  1.00  0.00     0.002 A 
HETATM   17  C   UNL     1     -22.619 -10.022  -0.674  1.00  0.00     0.026 A 
HETATM   18  C   UNL     1     -21.762  -9.354  -1.563  1.00  0.00     0.078 A 
BRANCH  18  19
HETATM   19  S   UNL     1     -20.793 -10.432  -2.601  1.00  0.00     0.130 S 
HETATM   20  O   UNL     1     -20.758 -11.730  -1.930  1.00  0.00    -0.598 OA
HETATM   21  O   UNL     1     -21.272 -10.301  -3.953  1.00  0.00    -0.598 OA
BRANCH  19  22
HETATM   22  O   UNL     1     -19.269  -9.914  -2.537  1.00  0.00    -0.292 OA
HETATM   23  H   UNL     1     -18.917 -10.078  -1.640  1.00  0.00     0.232 HD
ENDBRANCH  19  22
ENDBRANCH  18  19
ENDBRANCH   1  13
TORSDOF 13
BEGIN_RES ARG D 557
REMARK  4 active torsions:
REMARK  status: ('A' for Active; 'I' for Inactive)
REMARK    1  A    between atoms: CA   and  CB  
REMARK    2  A    between atoms: CB   and  CG  
REMARK    3  A    between atoms: CG   and  CD  
REMARK    4  A    between atoms: CD   and  NE  
REMARK       I    between atoms: NE   and  CZ  
REMARK       I    between atoms: CZ   and  NH1 
REMARK       I    between atoms: CZ   and  NH2 
ROOT
ATOM      1  CA  ARG D 557     -26.217   2.705 -17.014  1.00 35.49     0.159 C 
ENDROOT
BRANCH   1   2
ATOM      2  CB  ARG D 557     -26.789   1.319 -17.183  1.00 35.49     0.034 C 
BRANCH   2   3
ATOM      3  CG  ARG D 557     -25.843   0.200 -17.104  1.00 35.49     0.027 C 
BRANCH   3   4
ATOM      4  CD  ARG D 557     -24.762   0.442 -16.122  1.00 35.49     0.116 C 
BRANCH   4   5
ATOM      5  NE  ARG D 557     -24.838  -0.455 -14.999  1.00 35.49    -0.212 N 
ATOM      6  CZ  ARG D 557     -23.979  -1.409 -14.718  1.00 35.49     0.666 C 
ATOM      7  NH1 ARG D 557     -22.927  -1.660 -15.474  1.00 35.49    -0.235 N 
ATOM      8  NH2 ARG D 557     -24.194  -2.114 -13.645  1.00 35.49    -0.235 N 
ATOM      9  HH  ARG D 557     -22.765  -1.208 -16.183  1.00 35.49     0.174 HD
ATOM     10  HH  ARG D 557     -22.399  -2.294 -15.240  1.00 35.49     0.174 HD
ATOM     11  HH  ARG D 557     -24.878  -1.924 -13.172  1.00 35.49     0.174 HD
ATOM     12  HH  ARG D 557     -23.660  -2.735 -13.429  1.00 35.49     0.174 HD
ATOM     13  HE  ARG D 557     -25.525  -0.411 -14.499  1.00 35.49     0.178 HD
ENDBRANCH   4   5
ENDBRANCH   3   4
ENDBRANCH   2   3
ENDBRANCH   1   2
END_RES ARG D 557
BEGIN_RES GLU D 570
REMARK  3 active torsions:
REMARK  status: ('A' for Active; 'I' for Inactive)
REMARK    5  A    between atoms: CA   and  CB  
REMARK    6  A    between atoms: CB   and  CG  
REMARK    7  A    between atoms: CG   and  CD  
ROOT
ATOM     14  CA  GLU D 570     -18.033  -6.348 -13.375  1.00 32.92     0.160 C 
ENDROOT
BRANCH  14  15
ATOM     15  CB  GLU D 570     -19.500  -6.345 -13.794  1.00 32.92     0.043 C 
BRANCH  15  16
ATOM     16  CG  GLU D 570     -20.435  -5.500 -13.007  1.00 32.92     0.100 C 
BRANCH  16  17
ATOM     17  CD  GLU D 570     -21.641  -5.058 -13.802  1.00 32.92     0.185 C 
ATOM     18  OE1 GLU D 570     -22.700  -4.794 -13.200  1.00 32.92    -0.647 OA
ATOM     19  OE2 GLU D 570     -21.532  -4.991 -15.042  1.00 32.92    -0.647 OA
ENDBRANCH  16  17
ENDBRANCH  15  16
ENDBRANCH  14  15
END_RES GLU D 570
ENDMDL
MODEL 4
REMARK VINA RESULT:      -7.4      2.790      5.183
REMARK  13 active torsions:
REMARK  status: ('A' for Active; 'I' for Inactive)
REMARK    1  A    between atoms: C_2  and  C_3 
REMARK    2  A    between atoms: C_3  and  C_4 
REMARK    3  A    between atoms: C_4  and  C_5 
REMARK    4  A    between atoms: C_5  and  C_6 
REMARK    5  A    between atoms: C_6  and  C_7 
REMARK    6  A    between atoms: C_7  and  C_8 
REMARK    7  A    between atoms: C_8  and  C_9 
REMARK    8  A    between atoms: C_9  and  C_10 
REMARK    9  A    between atoms: C_10  and  C_11 
REMARK   10  A    between atoms: C_11  and  C_12 
REMARK   11  A    between atoms: C_12  and  C_13 
REMARK   12  A    between atoms: C_18  and  S_19 
REMARK   13  A    between atoms: S_19  and  O_22 
ROOT
HETATM    1  C   UNL     1     -22.376  -4.627 -13.458  1.00  0.00     0.040 C 
ENDROOT
BRANCH   1   2
HETATM    2  C   UNL     1     -22.640  -4.777 -11.969  1.00  0.00     0.005 C 
BRANCH   2   3
HETATM    3  C   UNL     1     -22.011  -3.620 -11.200  1.00  0.00     0.000 C 
BRANCH   3   4
HETATM    4  C   UNL     1     -20.594  -3.995 -10.813  1.00  0.00     0.000 C 
BRANCH   4   5
HETATM    5  C   UNL     1     -20.584  -4.599  -9.425  1.00  0.00     0.000 C 
BRANCH   5   6
HETATM    6  C   UNL     1     -21.683  -3.976  -8.587  1.00  0.00     0.000 C 
BRANCH   6   7
HETATM    7  C   UNL     1     -21.156  -3.689  -7.194  1.00  0.00     0.000 C 
BRANCH   7   8
HETATM    8  C   UNL     1     -19.944  -4.555  -6.908  1.00  0.00     0.000 C 
BRANCH   8   9
HETATM    9  C   UNL     1     -20.197  -5.410  -5.676  1.00  0.00     0.000 C 
BRANCH   9  10
HETATM   10  C   UNL     1     -21.231  -6.480  -5.985  1.00  0.00    -0.000 C 
BRANCH  10  11
HETATM   11  C   UNL     1     -22.085  -6.770  -4.757  1.00  0.00    -0.005 C 
HETATM   12  C   UNL     1     -21.451  -6.171  -3.516  1.00  0.00     0.005 C 
ENDBRANCH  10  11
ENDBRANCH   9  10
ENDBRANCH   8   9
ENDBRANCH   7   8
ENDBRANCH   6   7
ENDBRANCH   5   6
ENDBRANCH   4   5
ENDBRANCH   3   4
ENDBRANCH   2   3
ENDBRANCH   1   2
BRANCH   1  13
HETATM   13  C   UNL     1     -23.588  -5.002 -14.269  1.00  0.00    -0.035 A 
HETATM   14  C   UNL     1     -23.702  -6.363 -14.632  1.00  0.00     0.009 A 
HETATM   15  C   UNL     1     -24.802  -6.837 -15.347  1.00  0.00     0.001 A 
HETATM   16  C   UNL     1     -25.854  -5.987 -15.650  1.00  0.00     0.002 A 
HETATM   17  C   UNL     1     -25.779  -4.647 -15.273  1.00  0.00     0.026 A 
HETATM   18  C   UNL     1     -24.644  -4.135 -14.625  1.00  0.00     0.078 A 
BRANCH  18  19
HETATM   19  S   UNL     1     -24.646  -2.363 -14.424  1.00  0.00     0.130 S 
HETATM   20  O   UNL     1     -23.416  -1.876 -15.046  1.00  0.00    -0.598 OA
HETATM   21  O   UNL     1     -25.936  -1.869 -14.829  1.00  0.00    -0.598 OA
BRANCH  19  22
HETATM   22  O   UNL     1     -24.441  -2.060 -12.856  1.00  0.00    -0.292 OA
HETATM   23  H   UNL     1     -24.756  -2.830 -12.342  1.00  0.00     0.232 HD
ENDBRANCH  19  22
ENDBRANCH  18  19
ENDBRANCH   1  13
TORSDOF 13
BEGIN_RES ARG D 557
REMARK  4 active torsions:
REMARK  status: ('A' for Active; 'I' for Inactive)
REMARK    1  A    between atoms: CA   and  CB  
REMARK    2  A    between atoms: CB   and  CG  
REMARK    3  A    between atoms: CG   and  CD  
REMARK    4  A    between atoms: CD   and  NE  
REMARK       I    between atoms: NE   and  CZ  
REMARK       I    between atoms: CZ   and  NH1 
REMARK       I    between atoms: CZ   and  NH2 
ROOT
ATOM      1  CA  ARG D 557     -26.217   2.705 -17.014  1.00 35.49     0.159 C 
ENDROOT
BRANCH   1   2
ATOM      2  CB  ARG D 557     -26.789   1.319 -17.183  1.00 35.49     0.034 C 
BRANCH   2   3
ATOM      3  CG  ARG D 557     -28.252   1.200 -17.156  1.00 35.49     0.027 C 
BRANCH   3   4
ATOM      4  CD  ARG D 557     -28.712   0.088 -16.294  1.00 35.49     0.116 C 
BRANCH   4   5
ATOM      5  NE  ARG D 557     -29.416  -0.922 -17.041  1.00 35.49    -0.212 N 
ATOM      6  CZ  ARG D 557     -29.053  -2.179 -17.163  1.00 35.49     0.666 C 
ATOM      7  NH1 ARG D 557     -27.957  -2.658 -16.605  1.00 35.49    -0.235 N 
ATOM      8  NH2 ARG D 557     -29.824  -2.961 -17.862  1.00 35.49    -0.235 N 
ATOM      9  HH  ARG D 557     -27.436  -2.162 -16.139  1.00 35.49     0.174 HD
ATOM     10  HH  ARG D 557     -27.772  -3.487 -16.717  1.00 35.49     0.174 HD
ATOM     11  HH  ARG D 557     -30.529  -2.625 -18.204  1.00 35.49     0.174 HD
ATOM     12  HH  ARG D 557     -29.625  -3.779 -17.960  1.00 35.49     0.174 HD
ATOM     13  HE  ARG D 557     -30.095  -0.683 -17.493  1.00 35.49     0.178 HD
ENDBRANCH   4   5
ENDBRANCH   3   4
ENDBRANCH   2   3
ENDBRANCH   1   2
END_RES ARG D 557
BEGIN_RES GLU D 570
REMARK  3 active torsions:
REMARK  status: ('A' for Active; 'I' for Inactive)
REMARK    5  A    between atoms: CA   and  CB  
REMARK    6  A    between atoms: CB   and  CG  
REMARK    7  A    between atoms: CG   and  CD  
ROOT
ATOM     14  CA  GLU D 570     -18.033  -6.348 -13.375  1.00 32.92     0.160 C 
ENDROOT
BRANCH  14  15
ATOM     15  CB  GLU D 570     -19.500  -6.345 -13.794  1.00 32.92     0.043 C 
BRANCH  15  16
ATOM     16  CG  GLU D 570     -20.087  -7.635 -14.240  1.00 32.92     0.100 C 
BRANCH  16  17
ATOM     17  CD  GLU D 570     -20.632  -7.579 -15.648  1.00 32.92     0.185 C 
ATOM     18  OE1 GLU D 570     -21.115  -8.611 -16.152  1.00 32.92    -0.647 OA
ATOM     19  OE2 GLU D 570     -20.560  -6.495 -16.260  1.00 32.92    -0.647 OA
ENDBRANCH  16  17
ENDBRANCH  15  16
ENDBRANCH  14  15
END_RES GLU D 570
ENDMDL
MODEL 5
REMARK VINA RESULT:      -7.3      4.572      9.117
REMARK  13 active torsions:
REMARK  status: ('A' for Active; 'I' for Inactive)
REMARK    1  A    between atoms: C_2  and  C_3 
REMARK    2  A    between atoms: C_3  and  C_4 
REMARK    3  A    between atoms: C_4  and  C_5 
REMARK    4  A    between atoms: C_5  and  C_6 
REMARK    5  A    between atoms: C_6  and  C_7 
REMARK    6  A    between atoms: C_7  and  C_8 
REMARK    7  A    between atoms: C_8  and  C_9 
REMARK    8  A    between atoms: C_9  and  C_10 
REMARK    9  A    between atoms: C_10  and  C_11 
REMARK   10  A    between atoms: C_11  and  C_12 
REMARK   11  A    between atoms: C_12  and  C_13 
REMARK   12  A    between atoms: C_18  and  S_19 
REMARK   13  A    between atoms: S_19  and  O_22 
ROOT
HETATM    1  C   UNL     1     -22.363  -4.259 -12.631  1.00  0.00     0.040 C 
ENDROOT
BRANCH   1   2
HETATM    2  C   UNL     1     -23.126  -5.528 -12.971  1.00  0.00     0.005 C 
BRANCH   2   3
HETATM    3  C   UNL     1     -23.762  -5.409 -14.352  1.00  0.00     0.000 C 
BRANCH   3   4
HETATM    4  C   UNL     1     -23.848  -6.786 -14.979  1.00  0.00     0.000 C 
BRANCH   4   5
HETATM    5  C   UNL     1     -24.732  -6.737 -16.206  1.00  0.00     0.000 C 
BRANCH   5   6
HETATM    6  C   UNL     1     -26.188  -6.827 -15.793  1.00  0.00     0.000 C 
BRANCH   6   7
HETATM    7  C   UNL     1     -26.946  -5.635 -16.346  1.00  0.00     0.000 C 
BRANCH   7   8
HETATM    8  C   UNL     1     -27.461  -5.948 -17.738  1.00  0.00     0.000 C 
BRANCH   8   9
HETATM    9  C   UNL     1     -28.833  -5.323 -17.936  1.00  0.00     0.000 C 
BRANCH   9  10
HETATM   10  C   UNL     1     -29.659  -5.462 -16.668  1.00  0.00    -0.000 C 
BRANCH  10  11
HETATM   11  C   UNL     1     -31.060  -4.902 -16.878  1.00  0.00    -0.005 C 
HETATM   12  C   UNL     1     -30.998  -3.580 -17.620  1.00  0.00     0.005 C 
ENDBRANCH  10  11
ENDBRANCH   9  10
ENDBRANCH   8   9
ENDBRANCH   7   8
ENDBRANCH   6   7
ENDBRANCH   5   6
ENDBRANCH   4   5
ENDBRANCH   3   4
ENDBRANCH   2   3
ENDBRANCH   1   2
BRANCH   1  13
HETATM   13  C   UNL     1     -21.927  -4.253 -11.189  1.00  0.00    -0.035 A 
HETATM   14  C   UNL     1     -20.556  -4.497 -10.949  1.00  0.00     0.009 A 
HETATM   15  C   UNL     1     -20.026  -4.475  -9.658  1.00  0.00     0.001 A 
HETATM   16  C   UNL     1     -20.830  -4.132  -8.582  1.00  0.00     0.002 A 
HETATM   17  C   UNL     1     -22.180  -3.855  -8.799  1.00  0.00     0.026 A 
HETATM   18  C   UNL     1     -22.746  -3.952 -10.080  1.00  0.00     0.078 A 
BRANCH  18  19
HETATM   19  S   UNL     1     -24.520  -3.776 -10.116  1.00  0.00     0.130 S 
HETATM   20  O   UNL     1     -24.839  -3.063 -11.352  1.00  0.00    -0.598 OA
HETATM   21  O   UNL     1     -25.103  -5.058  -9.819  1.00  0.00    -0.598 OA
BRANCH  19  22
HETATM   22  O   UNL     1     -24.921  -2.740  -8.950  1.00  0.00    -0.292 OA
HETATM   23  H   UNL     1     -25.273  -3.242  -8.189  1.00  0.00     0.232 HD
ENDBRANCH  19  22
ENDBRANCH  18  19
ENDBRANCH   1  13
TORSDOF 13
BEGIN_RES ARG D 557
REMARK  4 active torsions:
REMARK  status: ('A' for Active; 'I' for Inactive)
REMARK    1  A    between atoms: CA   and  CB  
REMARK    2  A    between atoms: CB   and  CG  
REMARK    3  A    between atoms: CG   and  CD  
REMARK    4  A    between atoms: CD   and  NE  
REMARK       I    between atoms: NE   and  CZ  
REMARK       I    between atoms: CZ   and  NH1 
REMARK       I    between atoms: CZ   and  NH2 
ROOT
ATOM      1  CA  ARG D 557     -26.217   2.705 -17.014  1.00 35.49     0.159 C 
ENDROOT
BRANCH   1   2
ATOM      2  CB  ARG D 557     -26.789   1.319 -17.183  1.00 35.49     0.034 C 
BRANCH   2   3
ATOM      3  CG  ARG D 557     -25.909   0.195 -16.840  1.00 35.49     0.027 C 
BRANCH   3   4
ATOM      4  CD  ARG D 557     -26.641  -0.915 -16.188  1.00 35.49     0.116 C 
BRANCH   4   5
ATOM      5  NE  ARG D 557     -25.872  -1.526 -15.135  1.00 35.49    -0.212 N 
ATOM      6  CZ  ARG D 557     -24.674  -1.155 -14.744  1.00 35.49     0.666 C 
ATOM      7  NH1 ARG D 557     -24.022  -0.155 -15.308  1.00 35.49    -0.235 N 
ATOM      8  NH2 ARG D 557     -24.134  -1.811 -13.758  1.00 35.49    -0.235 N 
ATOM      9  HH  ARG D 557     -24.359   0.292 -15.957  1.00 35.49     0.174 HD
ATOM     10  HH  ARG D 557     -23.244   0.044 -15.009  1.00 35.49     0.174 HD
ATOM     11  HH  ARG D 557     -24.582  -2.447 -13.408  1.00 35.49     0.174 HD
ATOM     12  HH  ARG D 557     -23.364  -1.598 -13.476  1.00 35.49     0.174 HD
ATOM     13  HE  ARG D 557     -26.186  -2.225 -14.766  1.00 35.49     0.178 HD
ENDBRANCH   4   5
ENDBRANCH   3   4
ENDBRANCH   2   3
ENDBRANCH   1   2
END_RES ARG D 557
BEGIN_RES GLU D 570
REMARK  3 active torsions:
REMARK  status: ('A' for Active; 'I' for Inactive)
REMARK    5  A    between atoms: CA   and  CB  
REMARK    6  A    between atoms: CB   and  CG  
REMARK    7  A    between atoms: CG   and  CD  
ROOT
ATOM     14  CA  GLU D 570     -18.033  -6.348 -13.375  1.00 32.92     0.160 C 
ENDROOT
BRANCH  14  15
ATOM     15  CB  GLU D 570     -19.500  -6.345 -13.794  1.00 32.92     0.043 C 
BRANCH  15  16
ATOM     16  CG  GLU D 570     -19.860  -5.590 -15.022  1.00 32.92     0.100 C 
BRANCH  16  17
ATOM     17  CD  GLU D 570     -20.485  -6.459 -16.087  1.00 32.92     0.185 C 
ATOM     18  OE1 GLU D 570     -20.607  -7.681 -15.876  1.00 32.92    -0.647 OA
ATOM     19  OE2 GLU D 570     -20.842  -5.916 -17.151  1.00 32.92    -0.647 OA
ENDBRANCH  16  17
ENDBRANCH  15  16
ENDBRANCH  14  15
END_RES GLU D 570
ENDMDL
MODEL 6
REMARK VINA RESULT:      -7.3      3.930      7.985
REMARK  13 active torsions:
REMARK  status: ('A' for Active; 'I' for Inactive)
REMARK    1  A    between atoms: C_2  and  C_3 
REMARK    2  A    between atoms: C_3  and  C_4 
REMARK    3  A    between atoms: C_4  and  C_5 
REMARK    4  A    between atoms: C_5  and  C_6 
REMARK    5  A    between atoms: C_6  and  C_7 
REMARK    6  A    between atoms: C_7  and  C_8 
REMARK    7  A    between atoms: C_8  and  C_9 
REMARK    8  A    between atoms: C_9  and  C_10 
REMARK    9  A    between atoms: C_10  and  C_11 
REMARK   10  A    between atoms: C_11  and  C_12 
REMARK   11  A    between atoms: C_12  and  C_13 
REMARK   12  A    between atoms: C_18  and  S_19 
REMARK   13  A    between atoms: S_19  and  O_22 
ROOT
HETATM    1  C   UNL     1     -21.451  -8.319  -0.956  1.00  0.00     0.040 C 
ENDROOT
BRANCH   1   2
HETATM    2  C   UNL     1     -22.385  -7.129  -0.819  1.00  0.00     0.005 C 
BRANCH   2   3
HETATM    3  C   UNL     1     -22.125  -6.121  -1.934  1.00  0.00     0.000 C 
BRANCH   3   4
HETATM    4  C   UNL     1     -21.269  -6.773  -3.002  1.00  0.00     0.000 C 
BRANCH   4   5
HETATM    5  C   UNL     1     -21.681  -6.270  -4.369  1.00  0.00     0.000 C 
BRANCH   5   6
HETATM    6  C   UNL     1     -20.956  -7.055  -5.444  1.00  0.00     0.000 C 
BRANCH   6   7
HETATM    7  C   UNL     1     -20.250  -6.095  -6.383  1.00  0.00     0.000 C 
BRANCH   7   8
HETATM    8  C   UNL     1     -20.464  -4.666  -5.922  1.00  0.00     0.000 C 
BRANCH   8   9
HETATM    9  C   UNL     1     -20.995  -3.824  -7.071  1.00  0.00     0.000 C 
BRANCH   9  10
HETATM   10  C   UNL     1     -22.413  -4.249  -7.418  1.00  0.00    -0.000 C 
BRANCH  10  11
HETATM   11  C   UNL     1     -22.729  -3.922  -8.873  1.00  0.00    -0.005 C 
HETATM   12  C   UNL     1     -21.529  -4.208  -9.755  1.00  0.00     0.005 C 
ENDBRANCH  10  11
ENDBRANCH   9  10
ENDBRANCH   8   9
ENDBRANCH   7   8
ENDBRANCH   6   7
ENDBRANCH   5   6
ENDBRANCH   4   5
ENDBRANCH   3   4
ENDBRANCH   2   3
ENDBRANCH   1   2
BRANCH   1  13
HETATM   13  C   UNL     1     -22.211  -9.619  -0.910  1.00  0.00    -0.035 A 
HETATM   14  C   UNL     1     -23.353  -9.646  -0.078  1.00  0.00     0.009 A 
HETATM   15  C   UNL     1     -24.162 -10.779   0.014  1.00  0.00     0.001 A 
HETATM   16  C   UNL     1     -23.900 -11.887  -0.778  1.00  0.00     0.002 A 
HETATM   17  C   UNL     1     -22.797 -11.871  -1.631  1.00  0.00     0.026 A 
HETATM   18  C   UNL     1     -21.928 -10.770  -1.676  1.00  0.00     0.078 A 
BRANCH  18  19
HETATM   19  S   UNL     1     -20.463 -11.028  -2.659  1.00  0.00     0.130 S 
HETATM   20  O   UNL     1     -20.385 -12.465  -2.915  1.00  0.00    -0.598 OA
HETATM   21  O   UNL     1     -20.476 -10.075  -3.739  1.00  0.00    -0.598 OA
BRANCH  19  22
HETATM   22  O   UNL     1     -19.194 -10.726  -1.715  1.00  0.00    -0.292 OA
HETATM   23  H   UNL     1     -19.509 -10.566  -0.804  1.00  0.00     0.232 HD
ENDBRANCH  19  22
ENDBRANCH  18  19
ENDBRANCH   1  13
TORSDOF 13
BEGIN_RES ARG D 557
REMARK  4 active torsions:
REMARK  status: ('A' for Active; 'I' for Inactive)
REMARK    1  A    between atoms: CA   and  CB  
REMARK    2  A    between atoms: CB   and  CG  
REMARK    3  A    between atoms: CG   and  CD  
REMARK    4  A    between atoms: CD   and  NE  
REMARK       I    between atoms: NE   and  CZ  
REMARK       I    between atoms: CZ   and  NH1 
REMARK       I    between atoms: CZ   and  NH2 
ROOT
ATOM      1  CA  ARG D 557     -26.217   2.705 -17.014  1.00 35.49     0.159 C 
ENDROOT
BRANCH   1   2
ATOM      2  CB  ARG D 557     -26.789   1.319 -17.183  1.00 35.49     0.034 C 
BRANCH   2   3
ATOM      3  CG  ARG D 557     -25.903   0.194 -16.859  1.00 35.49     0.027 C 
BRANCH   3   4
ATOM      4  CD  ARG D 557     -26.590  -0.858 -16.075  1.00 35.49     0.116 C 
BRANCH   4   5
ATOM      5  NE  ARG D 557     -25.741  -1.416 -15.056  1.00 35.49    -0.212 N 
ATOM      6  CZ  ARG D 557     -25.768  -2.659 -14.630  1.00 35.49     0.666 C 
ATOM      7  NH1 ARG D 557     -26.619  -3.552 -15.101  1.00 35.49    -0.235 N 
ATOM      8  NH2 ARG D 557     -24.910  -2.998 -13.712  1.00 35.49    -0.235 N 
ATOM      9  HH  ARG D 557     -27.192  -3.351 -15.706  1.00 35.49     0.174 HD
ATOM     10  HH  ARG D 557     -26.589  -4.348 -14.786  1.00 35.49     0.174 HD
ATOM     11  HH  ARG D 557     -24.367  -2.402 -13.432  1.00 35.49     0.174 HD
ATOM     12  HH  ARG D 557     -24.895  -3.792 -13.415  1.00 35.49     0.174 HD
ATOM     13  HE  ARG D 557     -25.211  -0.892 -14.647  1.00 35.49     0.178 HD
ENDBRANCH   4   5
ENDBRANCH   3   4
ENDBRANCH   2   3
ENDBRANCH   1   2
END_RES ARG D 557
BEGIN_RES GLU D 570
REMARK  3 active torsions:
REMARK  status: ('A' for Active; 'I' for Inactive)
REMARK    5  A    between atoms: CA   and  CB  
REMARK    6  A    between atoms: CB   and  CG  
REMARK    7  A    between atoms: CG   and  CD  
ROOT
ATOM     14  CA  GLU D 570     -18.033  -6.348 -13.375  1.00 32.92     0.160 C 
ENDROOT
BRANCH  14  15
ATOM     15  CB  GLU D 570     -19.500  -6.345 -13.794  1.00 32.92     0.043 C 
BRANCH  15  16
ATOM     16  CG  GLU D 570     -20.449  -5.564 -12.959  1.00 32.92     0.100 C 
BRANCH  16  17
ATOM     17  CD  GLU D 570     -21.688  -5.142 -13.713  1.00 32.92     0.185 C 
ATOM     18  OE1 GLU D 570     -22.752  -4.978 -13.085  1.00 32.92    -0.647 OA
ATOM     19  OE2 GLU D 570     -21.599  -4.991 -14.947  1.00 32.92    -0.647 OA
ENDBRANCH  16  17
ENDBRANCH  15  16
ENDBRANCH  14  15
END_RES GLU D 570
ENDMDL
MODEL 7
REMARK VINA RESULT:      -7.2      3.496      7.966
REMARK  13 active torsions:
REMARK  status: ('A' for Active; 'I' for Inactive)
REMARK    1  A    between atoms: C_2  and  C_3 
REMARK    2  A    between atoms: C_3  and  C_4 
REMARK    3  A    between atoms: C_4  and  C_5 
REMARK    4  A    between atoms: C_5  and  C_6 
REMARK    5  A    between atoms: C_6  and  C_7 
REMARK    6  A    between atoms: C_7  and  C_8 
REMARK    7  A    between atoms: C_8  and  C_9 
REMARK    8  A    between atoms: C_9  and  C_10 
REMARK    9  A    between atoms: C_10  and  C_11 
REMARK   10  A    between atoms: C_11  and  C_12 
REMARK   11  A    between atoms: C_12  and  C_13 
REMARK   12  A    between atoms: C_18  and  S_19 
REMARK   13  A    between atoms: S_19  and  O_22 
ROOT
HETATM    1  C   UNL     1     -21.206  -6.191  -3.677  1.00  0.00     0.040 C 
ENDROOT
BRANCH   1   2
HETATM    2  C   UNL     1     -22.064  -6.464  -4.901  1.00  0.00     0.005 C 
BRANCH   2   3
HETATM    3  C   UNL     1     -21.229  -6.336  -6.171  1.00  0.00     0.000 C 
BRANCH   3   4
HETATM    4  C   UNL     1     -20.242  -5.198  -6.004  1.00  0.00     0.000 C 
BRANCH   4   5
HETATM    5  C   UNL     1     -20.125  -4.425  -7.300  1.00  0.00     0.000 C 
BRANCH   5   6
HETATM    6  C   UNL     1     -21.438  -3.729  -7.602  1.00  0.00     0.000 C 
BRANCH   6   7
HETATM    7  C   UNL     1     -21.922  -4.137  -8.980  1.00  0.00     0.000 C 
BRANCH   7   8
HETATM    8  C   UNL     1     -20.738  -4.407  -9.888  1.00  0.00     0.000 C 
BRANCH   8   9
HETATM    9  C   UNL     1     -20.724  -3.407 -11.034  1.00  0.00     0.000 C 
BRANCH   9  10
HETATM   10  C   UNL     1     -22.124  -3.244 -11.602  1.00  0.00    -0.000 C 
BRANCH  10  11
HETATM   11  C   UNL     1     -22.409  -4.322 -12.641  1.00  0.00    -0.005 C 
HETATM   12  C   UNL     1     -22.690  -3.696 -13.994  1.00  0.00     0.005 C 
ENDBRANCH  10  11
ENDBRANCH   9  10
ENDBRANCH   8   9
ENDBRANCH   7   8
ENDBRANCH   6   7
ENDBRANCH   5   6
ENDBRANCH   4   5
ENDBRANCH   3   4
ENDBRANCH   2   3
ENDBRANCH   1   2
BRANCH   1  13
HETATM   13  C   UNL     1     -21.552  -7.126  -2.548  1.00  0.00    -0.035 A 
HETATM   14  C   UNL     1     -22.216  -6.551  -1.441  1.00  0.00     0.009 A 
HETATM   15  C   UNL     1     -22.625  -7.325  -0.354  1.00  0.00     0.001 A 
HETATM   16  C   UNL     1     -22.454  -8.700  -0.375  1.00  0.00     0.002 A 
HETATM   17  C   UNL     1     -21.830  -9.294  -1.472  1.00  0.00     0.026 A 
HETATM   18  C   UNL     1     -21.340  -8.521  -2.537  1.00  0.00     0.078 A 
BRANCH  18  19
HETATM   19  S   UNL     1     -20.384  -9.436  -3.732  1.00  0.00     0.130 S 
HETATM   20  O   UNL     1     -21.294  -9.753  -4.832  1.00  0.00    -0.598 OA
HETATM   21  O   UNL     1     -19.153  -8.725  -3.959  1.00  0.00    -0.598 OA
BRANCH  19  22
HETATM   22  O   UNL     1     -20.045 -10.868  -3.078  1.00  0.00    -0.292 OA
HETATM   23  H   UNL     1     -20.672 -11.532  -3.427  1.00  0.00     0.232 HD
ENDBRANCH  19  22
ENDBRANCH  18  19
ENDBRANCH   1  13
TORSDOF 13
BEGIN_RES ARG D 557
REMARK  4 active torsions:
REMARK  status: ('A' for Active; 'I' for Inactive)
REMARK    1  A    between atoms: CA   and  CB  
REMARK    2  A    between atoms: CB   and  CG  
REMARK    3  A    between atoms: CG   and  CD  
REMARK    4  A    between atoms: CD   and  NE  
REMARK       I    between atoms: NE   and  CZ  
REMARK       I    between atoms: CZ   and  NH1 
REMARK       I    between atoms: CZ   and  NH2 
ROOT
ATOM      1  CA  ARG D 557     -26.217   2.705 -17.014  1.00 35.49     0.159 C 
ENDROOT
BRANCH   1   2
ATOM      2  CB  ARG D 557     -26.789   1.319 -17.183  1.00 35.49     0.034 C 
BRANCH   2   3
ATOM      3  CG  ARG D 557     -28.244   1.183 -17.045  1.00 35.49     0.027 C 
BRANCH   3   4
ATOM      4  CD  ARG D 557     -28.642  -0.153 -16.546  1.00 35.49     0.116 C 
BRANCH   4   5
ATOM      5  NE  ARG D 557     -27.564  -0.819 -15.863  1.00 35.49    -0.212 N 
ATOM      6  CZ  ARG D 557     -27.278  -2.099 -15.945  1.00 35.49     0.666 C 
ATOM      7  NH1 ARG D 557     -27.984  -2.939 -16.679  1.00 35.49    -0.235 N 
ATOM      8  NH2 ARG D 557     -26.250  -2.528 -15.272  1.00 35.49    -0.235 N 
ATOM      9  HH  ARG D 557     -28.663  -2.677 -17.132  1.00 35.49     0.174 HD
ATOM     10  HH  ARG D 557     -27.748  -3.762 -16.697  1.00 35.49     0.174 HD
ATOM     11  HH  ARG D 557     -25.808  -1.962 -14.812  1.00 35.49     0.174 HD
ATOM     12  HH  ARG D 557     -26.031  -3.347 -15.303  1.00 35.49     0.174 HD
ATOM     13  HE  ARG D 557     -27.102  -0.367 -15.310  1.00 35.49     0.178 HD
ENDBRANCH   4   5
ENDBRANCH   3   4
ENDBRANCH   2   3
ENDBRANCH   1   2
END_RES ARG D 557
BEGIN_RES GLU D 570
REMARK  3 active torsions:
REMARK  status: ('A' for Active; 'I' for Inactive)
REMARK    5  A    between atoms: CA   and  CB  
REMARK    6  A    between atoms: CB   and  CG  
REMARK    7  A    between atoms: CG   and  CD  
ROOT
ATOM     14  CA  GLU D 570     -18.033  -6.348 -13.375  1.00 32.92     0.160 C 
ENDROOT
BRANCH  14  15
ATOM     15  CB  GLU D 570     -19.500  -6.345 -13.794  1.00 32.92     0.043 C 
BRANCH  15  16
ATOM     16  CG  GLU D 570     -20.105  -7.647 -14.178  1.00 32.92     0.100 C 
BRANCH  16  17
ATOM     17  CD  GLU D 570     -20.808  -7.599 -15.514  1.00 32.92     0.185 C 
ATOM     18  OE1 GLU D 570     -21.173  -6.497 -15.967  1.00 32.92    -0.647 OA
ATOM     19  OE2 GLU D 570     -21.010  -8.677 -16.107  1.00 32.92    -0.647 OA
ENDBRANCH  16  17
ENDBRANCH  15  16
ENDBRANCH  14  15
END_RES GLU D 570
ENDMDL
MODEL 8
REMARK VINA RESULT:      -7.2      4.288      7.783
REMARK  13 active torsions:
REMARK  status: ('A' for Active; 'I' for Inactive)
REMARK    1  A    between atoms: C_2  and  C_3 
REMARK    2  A    between atoms: C_3  and  C_4 
REMARK    3  A    between atoms: C_4  and  C_5 
REMARK    4  A    between atoms: C_5  and  C_6 
REMARK    5  A    between atoms: C_6  and  C_7 
REMARK    6  A    between atoms: C_7  and  C_8 
REMARK    7  A    between atoms: C_8  and  C_9 
REMARK    8  A    between atoms: C_9  and  C_10 
REMARK    9  A    between atoms: C_10  and  C_11 
REMARK   10  A    between atoms: C_11  and  C_12 
REMARK   11  A    between atoms: C_12  and  C_13 
REMARK   12  A    between atoms: C_18  and  S_19 
REMARK   13  A    between atoms: S_19  and  O_22 
ROOT
HETATM    1  C   UNL     1     -25.195  -7.011 -15.767  1.00  0.00     0.040 C 
ENDROOT
BRANCH   1   2
HETATM    2  C   UNL     1     -23.804  -6.413 -15.642  1.00  0.00     0.005 C 
BRANCH   2   3
HETATM    3  C   UNL     1     -23.573  -5.904 -14.223  1.00  0.00     0.000 C 
BRANCH   3   4
HETATM    4  C   UNL     1     -22.717  -4.654 -14.278  1.00  0.00     0.000 C 
BRANCH   4   5
HETATM    5  C   UNL     1     -22.882  -3.862 -12.999  1.00  0.00     0.000 C 
BRANCH   5   6
HETATM    6  C   UNL     1     -22.120  -4.538 -11.875  1.00  0.00     0.000 C 
BRANCH   6   7
HETATM    7  C   UNL     1     -21.149  -3.551 -11.256  1.00  0.00     0.000 C 
BRANCH   7   8
HETATM    8  C   UNL     1     -20.658  -4.075  -9.920  1.00  0.00     0.000 C 
BRANCH   8   9
HETATM    9  C   UNL     1     -21.825  -4.203  -8.953  1.00  0.00     0.000 C 
BRANCH   9  10
HETATM   10  C   UNL     1     -21.408  -3.737  -7.567  1.00  0.00    -0.000 C 
BRANCH  10  11
HETATM   11  C   UNL     1     -20.144  -4.457  -7.118  1.00  0.00    -0.005 C 
HETATM   12  C   UNL     1     -20.183  -4.720  -5.624  1.00  0.00     0.005 C 
ENDBRANCH  10  11
ENDBRANCH   9  10
ENDBRANCH   8   9
ENDBRANCH   7   8
ENDBRANCH   6   7
ENDBRANCH   5   6
ENDBRANCH   4   5
ENDBRANCH   3   4
ENDBRANCH   2   3
ENDBRANCH   1   2
BRANCH   1  13
HETATM   13  C   UNL     1     -25.796  -6.718 -17.117  1.00  0.00    -0.035 A 
HETATM   14  C   UNL     1     -24.934  -6.849 -18.228  1.00  0.00     0.009 A 
HETATM   15  C   UNL     1     -25.387  -6.644 -19.532  1.00  0.00     0.001 A 
HETATM   16  C   UNL     1     -26.727  -6.382 -19.769  1.00  0.00     0.002 A 
HETATM   17  C   UNL     1     -27.605  -6.280 -18.690  1.00  0.00     0.026 A 
HETATM   18  C   UNL     1     -27.149  -6.403 -17.367  1.00  0.00     0.078 A 
BRANCH  18  19
HETATM   19  S   UNL     1     -28.374  -6.025 -16.128  1.00  0.00     0.130 S 
HETATM   20  O   UNL     1     -27.862  -4.880 -15.377  1.00  0.00    -0.598 OA
HETATM   21  O   UNL     1     -29.662  -5.983 -16.771  1.00  0.00    -0.598 OA
BRANCH  19  22
HETATM   22  O   UNL     1     -28.364  -7.232 -15.062  1.00  0.00    -0.292 OA
HETATM   23  H   UNL     1     -29.270  -7.354 -14.715  1.00  0.00     0.232 HD
ENDBRANCH  19  22
ENDBRANCH  18  19
ENDBRANCH   1  13
TORSDOF 13
BEGIN_RES ARG D 557
REMARK  4 active torsions:
REMARK  status: ('A' for Active; 'I' for Inactive)
REMARK    1  A    between atoms: CA   and  CB  
REMARK    2  A    between atoms: CB   and  CG  
REMARK    3  A    between atoms: CG   and  CD  
REMARK    4  A    between atoms: CD   and  NE  
REMARK       I    between atoms: NE   and  CZ  
REMARK       I    between atoms: CZ   and  NH1 
REMARK       I    between atoms: CZ   and  NH2 
ROOT
ATOM      1  CA  ARG D 557     -26.217   2.705 -17.014  1.00 35.49     0.159 C 
ENDROOT
BRANCH   1   2
ATOM      2  CB  ARG D 557     -26.789   1.319 -17.183  1.00 35.49     0.034 C 
BRANCH   2   3
ATOM      3  CG  ARG D 557     -28.228   1.227 -17.456  1.00 35.49     0.027 C 
BRANCH   3   4
ATOM      4  CD  ARG D 557     -28.924   0.318 -16.517  1.00 35.49     0.116 C 
BRANCH   4   5
ATOM      5  NE  ARG D 557     -29.324  -0.912 -17.148  1.00 35.49    -0.212 N 
ATOM      6  CZ  ARG D 557     -28.697  -2.063 -17.055  1.00 35.49     0.666 C 
ATOM      7  NH1 ARG D 557     -27.585  -2.210 -16.358  1.00 35.49    -0.235 N 
ATOM      8  NH2 ARG D 557     -29.215  -3.081 -17.678  1.00 35.49    -0.235 N 
ATOM      9  HH  ARG D 557     -27.228  -1.554 -15.938  1.00 35.49     0.174 HD
ATOM     10  HH  ARG D 557     -27.221  -2.985 -16.331  1.00 35.49     0.174 HD
ATOM     11  HH  ARG D 557     -29.937  -2.958 -18.114  1.00 35.49     0.174 HD
ATOM     12  HH  ARG D 557     -28.840  -3.841 -17.638  1.00 35.49     0.174 HD
ATOM     13  HE  ARG D 557     -29.991  -0.891 -17.676  1.00 35.49     0.178 HD
ENDBRANCH   4   5
ENDBRANCH   3   4
ENDBRANCH   2   3
ENDBRANCH   1   2
END_RES ARG D 557
BEGIN_RES GLU D 570
REMARK  3 active torsions:
REMARK  status: ('A' for Active; 'I' for Inactive)
REMARK    5  A    between atoms: CA   and  CB  
REMARK    6  A    between atoms: CB   and  CG  
REMARK    7  A    between atoms: CG   and  CD  
ROOT
ATOM     14  CA  GLU D 570     -18.033  -6.348 -13.375  1.00 32.92     0.160 C 
ENDROOT
BRANCH  14  15
ATOM     15  CB  GLU D 570     -19.500  -6.345 -13.794  1.00 32.92     0.043 C 
BRANCH  15  16
ATOM     16  CG  GLU D 570     -20.085  -7.633 -14.247  1.00 32.92     0.100 C 
BRANCH  16  17
ATOM     17  CD  GLU D 570     -20.471  -7.624 -15.708  1.00 32.92     0.185 C 
ATOM     18  OE1 GLU D 570     -20.798  -8.695 -16.254  1.00 32.92    -0.647 OA
ATOM     19  OE2 GLU D 570     -20.430  -6.537 -16.316  1.00 32.92    -0.647 OA
ENDBRANCH  16  17
ENDBRANCH  15  16
ENDBRANCH  14  15
END_RES GLU D 570
ENDMDL
MODEL 9
REMARK VINA RESULT:      -7.2      1.491      2.321
REMARK  13 active torsions:
REMARK  status: ('A' for Active; 'I' for Inactive)
REMARK    1  A    between atoms: C_2  and  C_3 
REMARK    2  A    between atoms: C_3  and  C_4 
REMARK    3  A    between atoms: C_4  and  C_5 
REMARK    4  A    between atoms: C_5  and  C_6 
REMARK    5  A    between atoms: C_6  and  C_7 
REMARK    6  A    between atoms: C_7  and  C_8 
REMARK    7  A    between atoms: C_8  and  C_9 
REMARK    8  A    between atoms: C_9  and  C_10 
REMARK    9  A    between atoms: C_10  and  C_11 
REMARK   10  A    between atoms: C_11  and  C_12 
REMARK   11  A    between atoms: C_12  and  C_13 
REMARK   12  A    between atoms: C_18  and  S_19 
REMARK   13  A    between atoms: S_19  and  O_22 
ROOT
HETATM    1  C   UNL     1     -21.024  -3.707  -8.985  1.00  0.00     0.040 C 
ENDROOT
BRANCH   1   2
HETATM    2  C   UNL     1     -19.713  -4.467  -8.879  1.00  0.00     0.005 C 
BRANCH   2   3
HETATM    3  C   UNL     1     -19.379  -4.744  -7.416  1.00  0.00     0.000 C 
BRANCH   3   4
HETATM    4  C   UNL     1     -20.349  -5.773  -6.871  1.00  0.00     0.000 C 
BRANCH   4   5
HETATM    5  C   UNL     1     -20.821  -5.354  -5.495  1.00  0.00     0.000 C 
BRANCH   5   6
HETATM    6  C   UNL     1     -21.939  -6.270  -5.036  1.00  0.00     0.000 C 
BRANCH   6   7
HETATM    7  C   UNL     1     -21.347  -7.545  -4.466  1.00  0.00     0.000 C 
BRANCH   7   8
HETATM    8  C   UNL     1     -21.050  -7.364  -2.989  1.00  0.00     0.000 C 
BRANCH   8   9
HETATM    9  C   UNL     1     -21.971  -6.306  -2.401  1.00  0.00     0.000 C 
BRANCH   9  10
HETATM   10  C   UNL     1     -22.352  -6.677  -0.977  1.00  0.00    -0.000 C 
BRANCH  10  11
HETATM   11  C   UNL     1     -22.247  -8.182  -0.770  1.00  0.00    -0.005 C 
HETATM   12  C   UNL     1     -23.046  -8.609   0.447  1.00  0.00     0.005 C 
ENDBRANCH  10  11
ENDBRANCH   9  10
ENDBRANCH   8   9
ENDBRANCH   7   8
ENDBRANCH   6   7
ENDBRANCH   5   6
ENDBRANCH   4   5
ENDBRANCH   3   4
ENDBRANCH   2   3
ENDBRANCH   1   2
BRANCH   1  13
HETATM   13  C   UNL     1     -21.712  -3.984 -10.296  1.00  0.00    -0.035 A 
HETATM   14  C   UNL     1     -20.876  -4.088 -11.431  1.00  0.00     0.009 A 
HETATM   15  C   UNL     1     -21.393  -4.384 -12.693  1.00  0.00     0.001 A 
HETATM   16  C   UNL     1     -22.743  -4.661 -12.844  1.00  0.00     0.002 A 
HETATM   17  C   UNL     1     -23.582  -4.597 -11.732  1.00  0.00     0.026 A 
HETATM   18  C   UNL     1     -23.092  -4.222 -10.471  1.00  0.00     0.078 A 
BRANCH  18  19
HETATM   19  S   UNL     1     -24.352  -3.985  -9.232  1.00  0.00     0.130 S 
HETATM   20  O   UNL     1     -23.721  -4.267  -7.943  1.00  0.00    -0.598 OA
HETATM   21  O   UNL     1     -25.001  -2.726  -9.488  1.00  0.00    -0.598 OA
BRANCH  19  22
HETATM   22  O   UNL     1     -25.427  -5.171  -9.412  1.00  0.00    -0.292 OA
HETATM   23  H   UNL     1     -25.828  -5.101 -10.300  1.00  0.00     0.232 HD
ENDBRANCH  19  22
ENDBRANCH  18  19
ENDBRANCH   1  13
TORSDOF 13
BEGIN_RES ARG D 557
REMARK  4 active torsions:
REMARK  status: ('A' for Active; 'I' for Inactive)
REMARK    1  A    between atoms: CA   and  CB  
REMARK    2  A    between atoms: CB   and  CG  
REMARK    3  A    between atoms: CG   and  CD  
REMARK    4  A    between atoms: CD   and  NE  
REMARK       I    between atoms: NE   and  CZ  
REMARK       I    between atoms: CZ   and  NH1 
REMARK       I    between atoms: CZ   and  NH2 
ROOT
ATOM      1  CA  ARG D 557     -26.217   2.705 -17.014  1.00 35.49     0.159 C 
ENDROOT
BRANCH   1   2
ATOM      2  CB  ARG D 557     -26.789   1.319 -17.183  1.00 35.49     0.034 C 
BRANCH   2   3
ATOM      3  CG  ARG D 557     -28.226   1.162 -16.930  1.00 35.49     0.027 C 
BRANCH   3   4
ATOM      4  CD  ARG D 557     -28.610  -0.252 -16.715  1.00 35.49     0.116 C 
BRANCH   4   5
ATOM      5  NE  ARG D 557     -27.584  -0.994 -16.031  1.00 35.49    -0.212 N 
ATOM      6  CZ  ARG D 557     -27.408  -2.295 -16.093  1.00 35.49     0.666 C 
ATOM      7  NH1 ARG D 557     -28.192  -3.085 -16.803  1.00 35.49    -0.235 N 
ATOM      8  NH2 ARG D 557     -26.411  -2.798 -15.424  1.00 35.49    -0.235 N 
ATOM      9  HH  ARG D 557     -28.852  -2.775 -17.253  1.00 35.49     0.174 HD
ATOM     10  HH  ARG D 557     -28.026  -3.925 -16.808  1.00 35.49     0.174 HD
ATOM     11  HH  ARG D 557     -25.917  -2.263 -14.979  1.00 35.49     0.174 HD
ATOM     12  HH  ARG D 557     -26.263  -3.633 -15.442  1.00 35.49     0.174 HD
ATOM     13  HE  ARG D 557     -27.078  -0.574 -15.493  1.00 35.49     0.178 HD
ENDBRANCH   4   5
ENDBRANCH   3   4
ENDBRANCH   2   3
ENDBRANCH   1   2
END_RES ARG D 557
BEGIN_RES GLU D 570
REMARK  3 active torsions:
REMARK  status: ('A' for Active; 'I' for Inactive)
REMARK    5  A    between atoms: CA   and  CB  
REMARK    6  A    between atoms: CB   and  CG  
REMARK    7  A    between atoms: CG   and  CD  
ROOT
ATOM     14  CA  GLU D 570     -18.033  -6.348 -13.375  1.00 32.92     0.160 C 
ENDROOT
BRANCH  14  15
ATOM     15  CB  GLU D 570     -19.500  -6.345 -13.794  1.00 32.92     0.043 C 
BRANCH  15  16
ATOM     16  CG  GLU D 570     -20.137  -7.659 -14.066  1.00 32.92     0.100 C 
BRANCH  16  17
ATOM     17  CD  GLU D 570     -20.863  -7.700 -15.390  1.00 32.92     0.185 C 
ATOM     18  OE1 GLU D 570     -20.651  -8.650 -16.168  1.00 32.92    -0.647 OA
ATOM     19  OE2 GLU D 570     -21.640  -6.763 -15.660  1.00 32.92    -0.647 OA
ENDBRANCH  16  17
ENDBRANCH  15  16
ENDBRANCH  14  15
END_RES GLU D 570
ENDMDL
