MODEL 1
REMARK VINA RESULT:      -6.5      0.000      0.000
REMARK  17 active torsions:
REMARK  status: ('A' for Active; 'I' for Inactive)
REMARK    1  A    between atoms: C_2  and  C_4 
REMARK    2  A    between atoms: C_2  and  C_6 
REMARK    3  A    between atoms: C_4  and  O_5 
REMARK    4  A    between atoms: C_6  and  C_7 
REMARK    5  A    between atoms: C_6  and  O_15 
REMARK       I    between atoms: C_7  and  N_9 
REMARK    6  A    between atoms: N_9  and  C_10 
REMARK    7  A    between atoms: C_10  and  C_11 
REMARK    8  A    between atoms: C_11  and  C_12 
REMARK    9  A    between atoms: C_20  and  C_22 
REMARK   10  A    between atoms: C_20  and  C_24 
REMARK   11  A    between atoms: C_22  and  O_23 
REMARK   12  A    between atoms: C_24  and  C_25 
REMARK   13  A    between atoms: C_24  and  O_33 
REMARK       I    between atoms: C_25  and  N_27 
REMARK   14  A    between atoms: N_27  and  C_28 
REMARK   15  A    between atoms: C_28  and  C_29 
REMARK   16  A    between atoms: C_29  and  C_30 
REMARK   17  A    between atoms: C_30  and  O_32 
ROOT
HETATM    1  C   UNL     1     -28.748  -5.663 -16.222  1.00  0.00     0.219 C 
ENDROOT
BRANCH   1   2
HETATM    2  C   UNL     1     -29.747  -5.507 -17.430  1.00  0.00     0.008 C 
HETATM    3  C   UNL     1     -30.519  -6.804 -17.796  1.00  0.00     0.020 C 
HETATM    4  C   UNL     1     -28.914  -5.118 -18.683  1.00  0.00     0.020 C 
BRANCH   2   5
HETATM    5  C   UNL     1     -30.735  -4.349 -17.159  1.00  0.00     0.175 C 
BRANCH   5   6
HETATM    6  O   UNL     1     -30.283  -3.127 -17.737  1.00  0.00    -0.400 OA
HETATM    7  H   UNL     1     -29.430  -2.884 -17.317  1.00  0.00     0.209 HD
ENDBRANCH   5   6
ENDBRANCH   2   5
ENDBRANCH   1   2
BRANCH   1   8
HETATM    8  C   UNL     1     -27.525  -4.688 -16.126  1.00  0.00     0.247 C 
HETATM    9  O   UNL     1     -27.699  -3.465 -16.074  1.00  0.00    -0.271 OA
HETATM   10  N   UNL     1     -26.263  -5.201 -15.905  1.00  0.00    -0.358 N 
HETATM   11  H   UNL     1     -25.508  -4.524 -15.982  1.00  0.00     0.162 HD
BRANCH  10  12
HETATM   12  C   UNL     1     -25.799  -6.590 -15.785  1.00  0.00     0.133 C 
BRANCH  12  13
HETATM   13  C   UNL     1     -24.342  -6.797 -15.443  1.00  0.00     0.133 C 
BRANCH  13  14
HETATM   14  C   UNL     1     -23.730  -5.756 -14.523  1.00  0.00     0.174 C 
HETATM   15  O   UNL     1     -23.237  -4.767 -15.123  1.00  0.00    -0.648 OA
HETATM   16  O   UNL     1     -23.771  -6.017 -13.273  1.00  0.00    -0.648 OA
ENDBRANCH  13  14
ENDBRANCH  12  13
ENDBRANCH  10  12
ENDBRANCH   1   8
BRANCH   1  17
HETATM   17  O   UNL     1     -29.503  -5.512 -15.000  1.00  0.00    -0.385 OA
HETATM   18  H   UNL     1     -30.269  -6.109 -15.064  1.00  0.00     0.210 HD
ENDBRANCH   1  17
TORSDOF 17
BEGIN_RES ARG D 557
REMARK  4 active torsions:
REMARK  status: ('A' for Active; 'I' for Inactive)
REMARK    1  A    between atoms: CA   and  CB  
REMARK    2  A    between atoms: CB   and  CG  
REMARK    3  A    between atoms: CG   and  CD  
REMARK    4  A    between atoms: CD   and  NE  
REMARK       I    between atoms: NE   and  CZ  
REMARK       I    between atoms: CZ   and  NH1 
REMARK       I    between atoms: CZ   and  NH2 
ROOT
ATOM      1  CA  ARG D 557     -26.217   2.705 -17.014  1.00 35.49     0.159 C 
ENDROOT
BRANCH   1   2
ATOM      2  CB  ARG D 557     -26.789   1.319 -17.183  1.00 35.49     0.034 C 
BRANCH   2   3
ATOM      3  CG  ARG D 557     -25.839   0.201 -17.131  1.00 35.49     0.027 C 
BRANCH   3   4
ATOM      4  CD  ARG D 557     -24.777   0.410 -16.120  1.00 35.49     0.116 C 
BRANCH   4   5
ATOM      5  NE  ARG D 557     -24.905  -0.492 -15.006  1.00 35.49    -0.212 N 
ATOM      6  CZ  ARG D 557     -24.067  -1.456 -14.697  1.00 35.49     0.666 C 
ATOM      7  NH1 ARG D 557     -22.989  -1.715 -15.414  1.00 35.49    -0.235 N 
ATOM      8  NH2 ARG D 557     -24.330  -2.163 -13.637  1.00 35.49    -0.235 N 
ATOM      9  HH  ARG D 557     -22.796  -1.261 -16.115  1.00 35.49     0.174 HD
ATOM     10  HH  ARG D 557     -22.478  -2.355 -15.163  1.00 35.49     0.174 HD
ATOM     11  HH  ARG D 557     -25.029  -1.969 -13.189  1.00 35.49     0.174 HD
ATOM     12  HH  ARG D 557     -23.811  -2.792 -13.404  1.00 35.49     0.174 HD
ATOM     13  HE  ARG D 557     -25.610  -0.443 -14.532  1.00 35.49     0.178 HD
ENDBRANCH   4   5
ENDBRANCH   3   4
ENDBRANCH   2   3
ENDBRANCH   1   2
END_RES ARG D 557
BEGIN_RES GLU D 570
REMARK  3 active torsions:
REMARK  status: ('A' for Active; 'I' for Inactive)
REMARK    5  A    between atoms: CA   and  CB  
REMARK    6  A    between atoms: CB   and  CG  
REMARK    7  A    between atoms: CG   and  CD  
ROOT
ATOM     14  CA  GLU D 570     -18.033  -6.348 -13.375  1.00 32.92     0.160 C 
ENDROOT
BRANCH  14  15
ATOM     15  CB  GLU D 570     -19.500  -6.345 -13.794  1.00 32.92     0.043 C 
BRANCH  15  16
ATOM     16  CG  GLU D 570     -20.086  -7.634 -14.246  1.00 32.92     0.100 C 
BRANCH  16  17
ATOM     17  CD  GLU D 570     -20.664  -7.562 -15.640  1.00 32.92     0.185 C 
ATOM     18  OE1 GLU D 570     -20.587  -6.491 -16.272  1.00 32.92    -0.647 OA
ATOM     19  OE2 GLU D 570     -21.216  -8.582 -16.097  1.00 32.92    -0.647 OA
ENDBRANCH  16  17
ENDBRANCH  15  16
ENDBRANCH  14  15
END_RES GLU D 570
ENDMDL
MODEL 2
REMARK VINA RESULT:      -6.5      4.278      6.865
REMARK  17 active torsions:
REMARK  status: ('A' for Active; 'I' for Inactive)
REMARK    1  A    between atoms: C_2  and  C_4 
REMARK    2  A    between atoms: C_2  and  C_6 
REMARK    3  A    between atoms: C_4  and  O_5 
REMARK    4  A    between atoms: C_6  and  C_7 
REMARK    5  A    between atoms: C_6  and  O_15 
REMARK       I    between atoms: C_7  and  N_9 
REMARK    6  A    between atoms: N_9  and  C_10 
REMARK    7  A    between atoms: C_10  and  C_11 
REMARK    8  A    between atoms: C_11  and  C_12 
REMARK    9  A    between atoms: C_20  and  C_22 
REMARK   10  A    between atoms: C_20  and  C_24 
REMARK   11  A    between atoms: C_22  and  O_23 
REMARK   12  A    between atoms: C_24  and  C_25 
REMARK   13  A    between atoms: C_24  and  O_33 
REMARK       I    between atoms: C_25  and  N_27 
REMARK   14  A    between atoms: N_27  and  C_28 
REMARK   15  A    between atoms: C_28  and  C_29 
REMARK   16  A    between atoms: C_29  and  C_30 
REMARK   17  A    between atoms: C_30  and  O_32 
ROOT
HETATM    1  C   UNL     1     -23.217  -4.702 -10.864  1.00  0.00     0.219 C 
ENDROOT
BRANCH   1   2
HETATM    2  C   UNL     1     -21.987  -4.053 -11.603  1.00  0.00     0.008 C 
HETATM    3  C   UNL     1     -20.615  -4.329 -10.931  1.00  0.00     0.020 C 
HETATM    4  C   UNL     1     -22.188  -2.512 -11.586  1.00  0.00     0.020 C 
BRANCH   2   5
HETATM    5  C   UNL     1     -21.962  -4.495 -13.085  1.00  0.00     0.175 C 
BRANCH   5   6
HETATM    6  O   UNL     1     -22.370  -3.442 -13.954  1.00  0.00    -0.400 OA
HETATM    7  H   UNL     1     -21.609  -3.202 -14.525  1.00  0.00     0.209 HD
ENDBRANCH   5   6
ENDBRANCH   2   5
ENDBRANCH   1   2
BRANCH   1   8
HETATM    8  C   UNL     1     -24.134  -3.788  -9.981  1.00  0.00     0.247 C 
HETATM    9  O   UNL     1     -25.143  -3.260 -10.461  1.00  0.00    -0.271 OA
HETATM   10  N   UNL     1     -23.921  -3.726  -8.618  1.00  0.00    -0.358 N 
HETATM   11  H   UNL     1     -24.468  -3.018  -8.133  1.00  0.00     0.162 HD
BRANCH  10  12
HETATM   12  C   UNL     1     -22.894  -4.356  -7.778  1.00  0.00     0.133 C 
BRANCH  12  13
HETATM   13  C   UNL     1     -21.645  -3.551  -7.507  1.00  0.00     0.133 C 
BRANCH  13  14
HETATM   14  C   UNL     1     -20.489  -4.318  -6.891  1.00  0.00     0.174 C 
HETATM   15  O   UNL     1     -20.742  -4.810  -5.763  1.00  0.00    -0.648 OA
HETATM   16  O   UNL     1     -19.410  -4.353  -7.575  1.00  0.00    -0.648 OA
ENDBRANCH  13  14
ENDBRANCH  12  13
ENDBRANCH  10  12
ENDBRANCH   1   8
BRANCH   1  17
HETATM   17  O   UNL     1     -24.066  -5.309 -11.862  1.00  0.00    -0.385 OA
HETATM   18  H   UNL     1     -24.653  -4.609 -12.198  1.00  0.00     0.210 HD
ENDBRANCH   1  17
TORSDOF 17
BEGIN_RES ARG D 557
REMARK  4 active torsions:
REMARK  status: ('A' for Active; 'I' for Inactive)
REMARK    1  A    between atoms: CA   and  CB  
REMARK    2  A    between atoms: CB   and  CG  
REMARK    3  A    between atoms: CG   and  CD  
REMARK    4  A    between atoms: CD   and  NE  
REMARK       I    between atoms: NE   and  CZ  
REMARK       I    between atoms: CZ   and  NH1 
REMARK       I    between atoms: CZ   and  NH2 
ROOT
ATOM      1  CA  ARG D 557     -26.217   2.705 -17.014  1.00 35.49     0.159 C 
ENDROOT
BRANCH   1   2
ATOM      2  CB  ARG D 557     -26.789   1.319 -17.183  1.00 35.49     0.034 C 
BRANCH   2   3
ATOM      3  CG  ARG D 557     -25.934   0.197 -16.776  1.00 35.49     0.027 C 
BRANCH   3   4
ATOM      4  CD  ARG D 557     -26.698  -0.882 -16.110  1.00 35.49     0.116 C 
BRANCH   4   5
ATOM      5  NE  ARG D 557     -26.000  -1.418 -14.971  1.00 35.49    -0.212 N 
ATOM      6  CZ  ARG D 557     -25.968  -2.682 -14.615  1.00 35.49     0.666 C 
ATOM      7  NH1 ARG D 557     -26.610  -3.624 -15.283  1.00 35.49    -0.235 N 
ATOM      8  NH2 ARG D 557     -25.266  -2.992 -13.564  1.00 35.49    -0.235 N 
ATOM      9  HH  ARG D 557     -27.076  -3.443 -15.978  1.00 35.49     0.174 HD
ATOM     10  HH  ARG D 557     -26.550  -4.432 -15.005  1.00 35.49     0.174 HD
ATOM     11  HH  ARG D 557     -24.856  -2.365 -13.157  1.00 35.49     0.174 HD
ATOM     12  HH  ARG D 557     -25.218  -3.799 -13.306  1.00 35.49     0.174 HD
ATOM     13  HE  ARG D 557     -25.619  -0.871 -14.443  1.00 35.49     0.178 HD
ENDBRANCH   4   5
ENDBRANCH   3   4
ENDBRANCH   2   3
ENDBRANCH   1   2
END_RES ARG D 557
BEGIN_RES GLU D 570
REMARK  3 active torsions:
REMARK  status: ('A' for Active; 'I' for Inactive)
REMARK    5  A    between atoms: CA   and  CB  
REMARK    6  A    between atoms: CB   and  CG  
REMARK    7  A    between atoms: CG   and  CD  
ROOT
ATOM     14  CA  GLU D 570     -18.033  -6.348 -13.375  1.00 32.92     0.160 C 
ENDROOT
BRANCH  14  15
ATOM     15  CB  GLU D 570     -19.500  -6.345 -13.794  1.00 32.92     0.043 C 
BRANCH  15  16
ATOM     16  CG  GLU D 570     -20.107  -7.648 -14.170  1.00 32.92     0.100 C 
BRANCH  16  17
ATOM     17  CD  GLU D 570     -20.717  -7.636 -15.553  1.00 32.92     0.185 C 
ATOM     18  OE1 GLU D 570     -21.214  -6.579 -15.986  1.00 32.92    -0.647 OA
ATOM     19  OE2 GLU D 570     -20.713  -8.700 -16.202  1.00 32.92    -0.647 OA
ENDBRANCH  16  17
ENDBRANCH  15  16
ENDBRANCH  14  15
END_RES GLU D 570
ENDMDL
MODEL 3
REMARK VINA RESULT:      -6.4      5.710      8.017
REMARK  17 active torsions:
REMARK  status: ('A' for Active; 'I' for Inactive)
REMARK    1  A    between atoms: C_2  and  C_4 
REMARK    2  A    between atoms: C_2  and  C_6 
REMARK    3  A    between atoms: C_4  and  O_5 
REMARK    4  A    between atoms: C_6  and  C_7 
REMARK    5  A    between atoms: C_6  and  O_15 
REMARK       I    between atoms: C_7  and  N_9 
REMARK    6  A    between atoms: N_9  and  C_10 
REMARK    7  A    between atoms: C_10  and  C_11 
REMARK    8  A    between atoms: C_11  and  C_12 
REMARK    9  A    between atoms: C_20  and  C_22 
REMARK   10  A    between atoms: C_20  and  C_24 
REMARK   11  A    between atoms: C_22  and  O_23 
REMARK   12  A    between atoms: C_24  and  C_25 
REMARK   13  A    between atoms: C_24  and  O_33 
REMARK       I    between atoms: C_25  and  N_27 
REMARK   14  A    between atoms: N_27  and  C_28 
REMARK   15  A    between atoms: C_28  and  C_29 
REMARK   16  A    between atoms: C_29  and  C_30 
REMARK   17  A    between atoms: C_30  and  O_32 
ROOT
HETATM    1  C   UNL     1     -34.082  -2.304 -11.532  1.00  0.00     0.219 C 
ENDROOT
BRANCH   1   2
HETATM    2  C   UNL     1     -33.846  -3.848 -11.731  1.00  0.00     0.008 C 
HETATM    3  C   UNL     1     -34.286  -4.725 -10.527  1.00  0.00     0.020 C 
HETATM    4  C   UNL     1     -32.318  -4.072 -11.908  1.00  0.00     0.020 C 
BRANCH   2   5
HETATM    5  C   UNL     1     -34.533  -4.330 -13.029  1.00  0.00     0.175 C 
BRANCH   5   6
HETATM    6  O   UNL     1     -35.035  -5.657 -12.897  1.00  0.00    -0.400 OA
HETATM    7  H   UNL     1     -34.976  -5.917 -11.953  1.00  0.00     0.209 HD
ENDBRANCH   5   6
ENDBRANCH   2   5
ENDBRANCH   1   2
BRANCH   1   8
HETATM    8  C   UNL     1     -35.540  -1.742 -11.658  1.00  0.00     0.247 C 
HETATM    9  O   UNL     1     -36.466  -2.246 -11.013  1.00  0.00    -0.271 OA
HETATM   10  N   UNL     1     -35.757  -0.562 -12.343  1.00  0.00    -0.358 N 
HETATM   11  H   UNL     1     -36.736  -0.330 -12.492  1.00  0.00     0.162 HD
BRANCH  10  12
HETATM   12  C   UNL     1     -34.826   0.307 -13.075  1.00  0.00     0.133 C 
BRANCH  12  13
HETATM   13  C   UNL     1     -35.239   0.734 -14.464  1.00  0.00     0.133 C 
BRANCH  13  14
HETATM   14  C   UNL     1     -35.700  -0.382 -15.384  1.00  0.00     0.174 C 
HETATM   15  O   UNL     1     -35.198  -1.504 -15.122  1.00  0.00    -0.648 OA
HETATM   16  O   UNL     1     -36.513  -0.047 -16.311  1.00  0.00    -0.648 OA
ENDBRANCH  13  14
ENDBRANCH  12  13
ENDBRANCH  10  12
ENDBRANCH   1   8
BRANCH   1  17
HETATM   17  O   UNL     1     -33.608  -1.948 -10.215  1.00  0.00    -0.385 OA
HETATM   18  H   UNL     1     -34.147  -1.196  -9.913  1.00  0.00     0.210 HD
ENDBRANCH   1  17
TORSDOF 17
BEGIN_RES ARG D 557
REMARK  4 active torsions:
REMARK  status: ('A' for Active; 'I' for Inactive)
REMARK    1  A    between atoms: CA   and  CB  
REMARK    2  A    between atoms: CB   and  CG  
REMARK    3  A    between atoms: CG   and  CD  
REMARK    4  A    between atoms: CD   and  NE  
REMARK       I    between atoms: NE   and  CZ  
REMARK       I    between atoms: CZ   and  NH1 
REMARK       I    between atoms: CZ   and  NH2 
ROOT
ATOM      1  CA  ARG D 557     -26.217   2.705 -17.014  1.00 35.49     0.159 C 
ENDROOT
BRANCH   1   2
ATOM      2  CB  ARG D 557     -26.789   1.319 -17.183  1.00 35.49     0.034 C 
BRANCH   2   3
ATOM      3  CG  ARG D 557     -25.863   0.195 -16.998  1.00 35.49     0.027 C 
BRANCH   3   4
ATOM      4  CD  ARG D 557     -26.340  -0.767 -15.978  1.00 35.49     0.116 C 
BRANCH   4   5
ATOM      5  NE  ARG D 557     -25.378  -0.965 -14.926  1.00 35.49    -0.212 N 
ATOM      6  CZ  ARG D 557     -25.113  -2.107 -14.333  1.00 35.49     0.666 C 
ATOM      7  NH1 ARG D 557     -25.735  -3.229 -14.643  1.00 35.49    -0.235 N 
ATOM      8  NH2 ARG D 557     -24.193  -2.105 -13.412  1.00 35.49    -0.235 N 
ATOM      9  HH  ARG D 557     -26.342  -3.253 -15.247  1.00 35.49     0.174 HD
ATOM     10  HH  ARG D 557     -25.518  -3.944 -14.224  1.00 35.49     0.174 HD
ATOM     11  HH  ARG D 557     -23.802  -1.367 -13.238  1.00 35.49     0.174 HD
ATOM     12  HH  ARG D 557     -23.991  -2.824 -13.010  1.00 35.49     0.174 HD
ATOM     13  HE  ARG D 557     -24.982  -0.280 -14.614  1.00 35.49     0.178 HD
ENDBRANCH   4   5
ENDBRANCH   3   4
ENDBRANCH   2   3
ENDBRANCH   1   2
END_RES ARG D 557
BEGIN_RES GLU D 570
REMARK  3 active torsions:
REMARK  status: ('A' for Active; 'I' for Inactive)
REMARK    5  A    between atoms: CA   and  CB  
REMARK    6  A    between atoms: CB   and  CG  
REMARK    7  A    between atoms: CG   and  CD  
ROOT
ATOM     14  CA  GLU D 570     -18.033  -6.348 -13.375  1.00 32.92     0.160 C 
ENDROOT
BRANCH  14  15
ATOM     15  CB  GLU D 570     -19.500  -6.345 -13.794  1.00 32.92     0.043 C 
BRANCH  15  16
ATOM     16  CG  GLU D 570     -20.448  -5.560 -12.962  1.00 32.92     0.100 C 
BRANCH  16  17
ATOM     17  CD  GLU D 570     -21.741  -5.247 -13.678  1.00 32.92     0.185 C 
ATOM     18  OE1 GLU D 570     -22.244  -4.114 -13.552  1.00 32.92    -0.647 OA
ATOM     19  OE2 GLU D 570     -22.266  -6.151 -14.359  1.00 32.92    -0.647 OA
ENDBRANCH  16  17
ENDBRANCH  15  16
ENDBRANCH  14  15
END_RES GLU D 570
ENDMDL
MODEL 4
REMARK VINA RESULT:      -6.4      5.894      8.324
REMARK  17 active torsions:
REMARK  status: ('A' for Active; 'I' for Inactive)
REMARK    1  A    between atoms: C_2  and  C_4 
REMARK    2  A    between atoms: C_2  and  C_6 
REMARK    3  A    between atoms: C_4  and  O_5 
REMARK    4  A    between atoms: C_6  and  C_7 
REMARK    5  A    between atoms: C_6  and  O_15 
REMARK       I    between atoms: C_7  and  N_9 
REMARK    6  A    between atoms: N_9  and  C_10 
REMARK    7  A    between atoms: C_10  and  C_11 
REMARK    8  A    between atoms: C_11  and  C_12 
REMARK    9  A    between atoms: C_20  and  C_22 
REMARK   10  A    between atoms: C_20  and  C_24 
REMARK   11  A    between atoms: C_22  and  O_23 
REMARK   12  A    between atoms: C_24  and  C_25 
REMARK   13  A    between atoms: C_24  and  O_33 
REMARK       I    between atoms: C_25  and  N_27 
REMARK   14  A    between atoms: N_27  and  C_28 
REMARK   15  A    between atoms: C_28  and  C_29 
REMARK   16  A    between atoms: C_29  and  C_30 
REMARK   17  A    between atoms: C_30  and  O_32 
ROOT
HETATM    1  C   UNL     1     -34.075  -2.295 -11.528  1.00  0.00     0.219 C 
ENDROOT
BRANCH   1   2
HETATM    2  C   UNL     1     -33.838  -3.839 -11.724  1.00  0.00     0.008 C 
HETATM    3  C   UNL     1     -34.281  -4.714 -10.520  1.00  0.00     0.020 C 
HETATM    4  C   UNL     1     -32.309  -4.063 -11.895  1.00  0.00     0.020 C 
BRANCH   2   5
HETATM    5  C   UNL     1     -34.520  -4.324 -13.024  1.00  0.00     0.175 C 
BRANCH   5   6
HETATM    6  O   UNL     1     -35.030  -5.647 -12.888  1.00  0.00    -0.400 OA
HETATM    7  H   UNL     1     -34.793  -6.153 -13.694  1.00  0.00     0.209 HD
ENDBRANCH   5   6
ENDBRANCH   2   5
ENDBRANCH   1   2
BRANCH   1   8
HETATM    8  C   UNL     1     -35.531  -1.732 -11.672  1.00  0.00     0.247 C 
HETATM    9  O   UNL     1     -36.465  -2.236 -11.039  1.00  0.00    -0.271 OA
HETATM   10  N   UNL     1     -35.738  -0.552 -12.358  1.00  0.00    -0.358 N 
HETATM   11  H   UNL     1     -36.716  -0.319 -12.519  1.00  0.00     0.162 HD
BRANCH  10  12
HETATM   12  C   UNL     1     -34.798   0.318 -13.078  1.00  0.00     0.133 C 
BRANCH  12  13
HETATM   13  C   UNL     1     -35.205   0.766 -14.462  1.00  0.00     0.133 C 
BRANCH  13  14
HETATM   14  C   UNL     1     -35.681  -0.333 -15.395  1.00  0.00     0.174 C 
HETATM   15  O   UNL     1     -36.486   0.056 -16.278  1.00  0.00    -0.648 OA
HETATM   16  O   UNL     1     -35.228  -1.505 -15.161  1.00  0.00    -0.648 OA
ENDBRANCH  13  14
ENDBRANCH  12  13
ENDBRANCH  10  12
ENDBRANCH   1   8
BRANCH   1  17
HETATM   17  O   UNL     1     -33.616  -1.939 -10.206  1.00  0.00    -0.385 OA
HETATM   18  H   UNL     1     -34.221  -2.363  -9.572  1.00  0.00     0.210 HD
ENDBRANCH   1  17
TORSDOF 17
BEGIN_RES ARG D 557
REMARK  4 active torsions:
REMARK  status: ('A' for Active; 'I' for Inactive)
REMARK    1  A    between atoms: CA   and  CB  
REMARK    2  A    between atoms: CB   and  CG  
REMARK    3  A    between atoms: CG   and  CD  
REMARK    4  A    between atoms: CD   and  NE  
REMARK       I    between atoms: NE   and  CZ  
REMARK       I    between atoms: CZ   and  NH1 
REMARK       I    between atoms: CZ   and  NH2 
ROOT
ATOM      1  CA  ARG D 557     -26.217   2.705 -17.014  1.00 35.49     0.159 C 
ENDROOT
BRANCH   1   2
ATOM      2  CB  ARG D 557     -26.789   1.319 -17.183  1.00 35.49     0.034 C 
BRANCH   2   3
ATOM      3  CG  ARG D 557     -28.156   1.104 -16.694  1.00 35.49     0.027 C 
BRANCH   3   4
ATOM      4  CD  ARG D 557     -28.790  -0.091 -17.296  1.00 35.49     0.116 C 
BRANCH   4   5
ATOM      5  NE  ARG D 557     -28.173  -1.313 -16.853  1.00 35.49    -0.212 N 
ATOM      6  CZ  ARG D 557     -28.653  -2.524 -17.029  1.00 35.49     0.666 C 
ATOM      7  NH1 ARG D 557     -29.801  -2.749 -17.641  1.00 35.49    -0.235 N 
ATOM      8  NH2 ARG D 557     -27.948  -3.521 -16.579  1.00 35.49    -0.235 N 
ATOM      9  HH  ARG D 557     -30.280  -2.108 -17.947  1.00 35.49     0.174 HD
ATOM     10  HH  ARG D 557     -30.063  -3.560 -17.729  1.00 35.49     0.174 HD
ATOM     11  HH  ARG D 557     -27.207  -3.345 -16.194  1.00 35.49     0.174 HD
ATOM     12  HH  ARG D 557     -28.223  -4.317 -16.677  1.00 35.49     0.174 HD
ATOM     13  HE  ARG D 557     -27.465  -1.256 -16.385  1.00 35.49     0.178 HD
ENDBRANCH   4   5
ENDBRANCH   3   4
ENDBRANCH   2   3
ENDBRANCH   1   2
END_RES ARG D 557
BEGIN_RES GLU D 570
REMARK  3 active torsions:
REMARK  status: ('A' for Active; 'I' for Inactive)
REMARK    5  A    between atoms: CA   and  CB  
REMARK    6  A    between atoms: CB   and  CG  
REMARK    7  A    between atoms: CG   and  CD  
ROOT
ATOM     14  CA  GLU D 570     -18.033  -6.348 -13.375  1.00 32.92     0.160 C 
ENDROOT
BRANCH  14  15
ATOM     15  CB  GLU D 570     -19.500  -6.345 -13.794  1.00 32.92     0.043 C 
BRANCH  15  16
ATOM     16  CG  GLU D 570     -20.450  -5.571 -12.954  1.00 32.92     0.100 C 
BRANCH  16  17
ATOM     17  CD  GLU D 570     -21.695  -5.156 -13.703  1.00 32.92     0.185 C 
ATOM     18  OE1 GLU D 570     -22.757  -4.998 -13.070  1.00 32.92    -0.647 OA
ATOM     19  OE2 GLU D 570     -21.612  -5.004 -14.937  1.00 32.92    -0.647 OA
ENDBRANCH  16  17
ENDBRANCH  15  16
ENDBRANCH  14  15
END_RES GLU D 570
ENDMDL
MODEL 5
REMARK VINA RESULT:      -6.3      1.466      2.073
REMARK  17 active torsions:
REMARK  status: ('A' for Active; 'I' for Inactive)
REMARK    1  A    between atoms: C_2  and  C_4 
REMARK    2  A    between atoms: C_2  and  C_6 
REMARK    3  A    between atoms: C_4  and  O_5 
REMARK    4  A    between atoms: C_6  and  C_7 
REMARK    5  A    between atoms: C_6  and  O_15 
REMARK       I    between atoms: C_7  and  N_9 
REMARK    6  A    between atoms: N_9  and  C_10 
REMARK    7  A    between atoms: C_10  and  C_11 
REMARK    8  A    between atoms: C_11  and  C_12 
REMARK    9  A    between atoms: C_20  and  C_22 
REMARK   10  A    between atoms: C_20  and  C_24 
REMARK   11  A    between atoms: C_22  and  O_23 
REMARK   12  A    between atoms: C_24  and  C_25 
REMARK   13  A    between atoms: C_24  and  O_33 
REMARK       I    between atoms: C_25  and  N_27 
REMARK   14  A    between atoms: N_27  and  C_28 
REMARK   15  A    between atoms: C_28  and  C_29 
REMARK   16  A    between atoms: C_29  and  C_30 
REMARK   17  A    between atoms: C_30  and  O_32 
ROOT
HETATM    1  C   UNL     1     -28.676  -5.815 -16.146  1.00  0.00     0.219 C 
ENDROOT
BRANCH   1   2
HETATM    2  C   UNL     1     -29.563  -5.645 -17.436  1.00  0.00     0.008 C 
HETATM    3  C   UNL     1     -30.424  -6.888 -17.792  1.00  0.00     0.020 C 
HETATM    4  C   UNL     1     -28.606  -5.409 -18.638  1.00  0.00     0.020 C 
BRANCH   2   5
HETATM    5  C   UNL     1     -30.455  -4.388 -17.309  1.00  0.00     0.175 C 
BRANCH   5   6
HETATM    6  O   UNL     1     -29.794  -3.223 -17.793  1.00  0.00    -0.400 OA
HETATM    7  H   UNL     1     -29.883  -3.201 -18.770  1.00  0.00     0.209 HD
ENDBRANCH   5   6
ENDBRANCH   2   5
ENDBRANCH   1   2
BRANCH   1   8
HETATM    8  C   UNL     1     -27.368  -4.961 -16.013  1.00  0.00     0.247 C 
HETATM    9  O   UNL     1     -27.430  -3.735 -15.868  1.00  0.00    -0.271 OA
HETATM   10  N   UNL     1     -26.153  -5.600 -15.865  1.00  0.00    -0.358 N 
HETATM   11  H   UNL     1     -25.342  -4.988 -15.915  1.00  0.00     0.162 HD
BRANCH  10  12
HETATM   12  C   UNL     1     -25.815  -7.030 -15.860  1.00  0.00     0.133 C 
BRANCH  12  13
HETATM   13  C   UNL     1     -24.447  -7.409 -16.376  1.00  0.00     0.133 C 
BRANCH  13  14
HETATM   14  C   UNL     1     -24.105  -6.905 -17.766  1.00  0.00     0.174 C 
HETATM   15  O   UNL     1     -22.872  -6.802 -17.987  1.00  0.00    -0.648 OA
HETATM   16  O   UNL     1     -25.097  -6.631 -18.524  1.00  0.00    -0.648 OA
ENDBRANCH  13  14
ENDBRANCH  12  13
ENDBRANCH  10  12
ENDBRANCH   1   8
BRANCH   1  17
HETATM   17  O   UNL     1     -29.498  -5.505 -14.999  1.00  0.00    -0.385 OA
HETATM   18  H   UNL     1     -30.006  -4.705 -15.222  1.00  0.00     0.210 HD
ENDBRANCH   1  17
TORSDOF 17
BEGIN_RES ARG D 557
REMARK  4 active torsions:
REMARK  status: ('A' for Active; 'I' for Inactive)
REMARK    1  A    between atoms: CA   and  CB  
REMARK    2  A    between atoms: CB   and  CG  
REMARK    3  A    between atoms: CG   and  CD  
REMARK    4  A    between atoms: CD   and  NE  
REMARK       I    between atoms: NE   and  CZ  
REMARK       I    between atoms: CZ   and  NH1 
REMARK       I    between atoms: CZ   and  NH2 
ROOT
ATOM      1  CA  ARG D 557     -26.217   2.705 -17.014  1.00 35.49     0.159 C 
ENDROOT
BRANCH   1   2
ATOM      2  CB  ARG D 557     -26.789   1.319 -17.183  1.00 35.49     0.034 C 
BRANCH   2   3
ATOM      3  CG  ARG D 557     -25.836   0.203 -17.157  1.00 35.49     0.027 C 
BRANCH   3   4
ATOM      4  CD  ARG D 557     -24.774   0.391 -16.141  1.00 35.49     0.116 C 
BRANCH   4   5
ATOM      5  NE  ARG D 557     -24.955  -0.469 -15.002  1.00 35.49    -0.212 N 
ATOM      6  CZ  ARG D 557     -24.158  -1.454 -14.649  1.00 35.49     0.666 C 
ATOM      7  NH1 ARG D 557     -23.079  -1.774 -15.338  1.00 35.49    -0.235 N 
ATOM      8  NH2 ARG D 557     -24.465  -2.118 -13.573  1.00 35.49    -0.235 N 
ATOM      9  HH  ARG D 557     -22.857  -1.349 -16.049  1.00 35.49     0.174 HD
ATOM     10  HH  ARG D 557     -22.595  -2.424 -15.059  1.00 35.49     0.174 HD
ATOM     11  HH  ARG D 557     -25.164  -1.884 -13.144  1.00 35.49     0.174 HD
ATOM     12  HH  ARG D 557     -23.973  -2.757 -13.312  1.00 35.49     0.174 HD
ATOM     13  HE  ARG D 557     -25.665  -0.381 -14.543  1.00 35.49     0.178 HD
ENDBRANCH   4   5
ENDBRANCH   3   4
ENDBRANCH   2   3
ENDBRANCH   1   2
END_RES ARG D 557
BEGIN_RES GLU D 570
REMARK  3 active torsions:
REMARK  status: ('A' for Active; 'I' for Inactive)
REMARK    5  A    between atoms: CA   and  CB  
REMARK    6  A    between atoms: CB   and  CG  
REMARK    7  A    between atoms: CG   and  CD  
ROOT
ATOM     14  CA  GLU D 570     -18.033  -6.348 -13.375  1.00 32.92     0.160 C 
ENDROOT
BRANCH  14  15
ATOM     15  CB  GLU D 570     -19.500  -6.345 -13.794  1.00 32.92     0.043 C 
BRANCH  15  16
ATOM     16  CG  GLU D 570     -20.446  -5.552 -12.967  1.00 32.92     0.100 C 
BRANCH  16  17
ATOM     17  CD  GLU D 570     -21.634  -5.046 -13.753  1.00 32.92     0.185 C 
ATOM     18  OE1 GLU D 570     -21.892  -5.560 -14.858  1.00 32.92    -0.647 OA
ATOM     19  OE2 GLU D 570     -22.302  -4.113 -13.266  1.00 32.92    -0.647 OA
ENDBRANCH  16  17
ENDBRANCH  15  16
ENDBRANCH  14  15
END_RES GLU D 570
ENDMDL
MODEL 6
REMARK VINA RESULT:      -6.1      2.734      5.951
REMARK  17 active torsions:
REMARK  status: ('A' for Active; 'I' for Inactive)
REMARK    1  A    between atoms: C_2  and  C_4 
REMARK    2  A    between atoms: C_2  and  C_6 
REMARK    3  A    between atoms: C_4  and  O_5 
REMARK    4  A    between atoms: C_6  and  C_7 
REMARK    5  A    between atoms: C_6  and  O_15 
REMARK       I    between atoms: C_7  and  N_9 
REMARK    6  A    between atoms: N_9  and  C_10 
REMARK    7  A    between atoms: C_10  and  C_11 
REMARK    8  A    between atoms: C_11  and  C_12 
REMARK    9  A    between atoms: C_20  and  C_22 
REMARK   10  A    between atoms: C_20  and  C_24 
REMARK   11  A    between atoms: C_22  and  O_23 
REMARK   12  A    between atoms: C_24  and  C_25 
REMARK   13  A    between atoms: C_24  and  O_33 
REMARK       I    between atoms: C_25  and  N_27 
REMARK   14  A    between atoms: N_27  and  C_28 
REMARK   15  A    between atoms: C_28  and  C_29 
REMARK   16  A    between atoms: C_29  and  C_30 
REMARK   17  A    between atoms: C_30  and  O_32 
ROOT
HETATM    1  C   UNL     1     -22.858  -4.408 -13.385  1.00  0.00     0.219 C 
ENDROOT
BRANCH   1   2
HETATM    2  C   UNL     1     -22.569  -4.039 -11.882  1.00  0.00     0.008 C 
HETATM    3  C   UNL     1     -23.648  -4.533 -10.880  1.00  0.00     0.020 C 
HETATM    4  C   UNL     1     -22.540  -2.489 -11.774  1.00  0.00     0.020 C 
BRANCH   2   5
HETATM    5  C   UNL     1     -21.171  -4.553 -11.467  1.00  0.00     0.175 C 
BRANCH   5   6
HETATM    6  O   UNL     1     -20.145  -3.627 -11.816  1.00  0.00    -0.400 OA
HETATM    7  H   UNL     1     -19.277  -4.065 -11.686  1.00  0.00     0.209 HD
ENDBRANCH   5   6
ENDBRANCH   2   5
ENDBRANCH   1   2
BRANCH   1   8
HETATM    8  C   UNL     1     -24.246  -4.020 -14.002  1.00  0.00     0.247 C 
HETATM    9  O   UNL     1     -24.668  -2.861 -13.921  1.00  0.00    -0.271 OA
HETATM   10  N   UNL     1     -24.910  -4.927 -14.804  1.00  0.00    -0.358 N 
HETATM   11  H   UNL     1     -25.857  -4.655 -15.061  1.00  0.00     0.162 HD
BRANCH  10  12
HETATM   12  C   UNL     1     -24.570  -6.306 -15.178  1.00  0.00     0.133 C 
BRANCH  12  13
HETATM   13  C   UNL     1     -25.576  -7.052 -16.022  1.00  0.00     0.133 C 
BRANCH  13  14
HETATM   14  C   UNL     1     -27.026  -6.650 -15.826  1.00  0.00     0.174 C 
HETATM   15  O   UNL     1     -27.690  -7.451 -15.120  1.00  0.00    -0.648 OA
HETATM   16  O   UNL     1     -27.396  -5.574 -16.407  1.00  0.00    -0.648 OA
ENDBRANCH  13  14
ENDBRANCH  12  13
ENDBRANCH  10  12
ENDBRANCH   1   8
BRANCH   1  17
HETATM   17  O   UNL     1     -21.846  -3.777 -14.200  1.00  0.00    -0.385 OA
HETATM   18  H   UNL     1     -21.012  -4.252 -14.034  1.00  0.00     0.210 HD
ENDBRANCH   1  17
TORSDOF 17
BEGIN_RES ARG D 557
REMARK  4 active torsions:
REMARK  status: ('A' for Active; 'I' for Inactive)
REMARK    1  A    between atoms: CA   and  CB  
REMARK    2  A    between atoms: CB   and  CG  
REMARK    3  A    between atoms: CG   and  CD  
REMARK    4  A    between atoms: CD   and  NE  
REMARK       I    between atoms: NE   and  CZ  
REMARK       I    between atoms: CZ   and  NH1 
REMARK       I    between atoms: CZ   and  NH2 
ROOT
ATOM      1  CA  ARG D 557     -26.217   2.705 -17.014  1.00 35.49     0.159 C 
ENDROOT
BRANCH   1   2
ATOM      2  CB  ARG D 557     -26.789   1.319 -17.183  1.00 35.49     0.034 C 
BRANCH   2   3
ATOM      3  CG  ARG D 557     -28.247   1.219 -17.326  1.00 35.49     0.027 C 
BRANCH   3   4
ATOM      4  CD  ARG D 557     -28.835   0.213 -16.413  1.00 35.49     0.116 C 
BRANCH   4   5
ATOM      5  NE  ARG D 557     -29.207  -0.994 -17.103  1.00 35.49    -0.212 N 
ATOM      6  CZ  ARG D 557     -28.589  -2.151 -17.015  1.00 35.49     0.666 C 
ATOM      7  NH1 ARG D 557     -27.515  -2.326 -16.268  1.00 35.49    -0.235 N 
ATOM      8  NH2 ARG D 557     -29.079  -3.146 -17.695  1.00 35.49    -0.235 N 
ATOM      9  HH  ARG D 557     -27.177  -1.685 -15.810  1.00 35.49     0.174 HD
ATOM     10  HH  ARG D 557     -27.155  -3.103 -16.247  1.00 35.49     0.174 HD
ATOM     11  HH  ARG D 557     -29.778  -3.006 -18.163  1.00 35.49     0.174 HD
ATOM     12  HH  ARG D 557     -28.709  -3.909 -17.661  1.00 35.49     0.174 HD
ATOM     13  HE  ARG D 557     -29.846  -0.954 -17.663  1.00 35.49     0.178 HD
ENDBRANCH   4   5
ENDBRANCH   3   4
ENDBRANCH   2   3
ENDBRANCH   1   2
END_RES ARG D 557
BEGIN_RES GLU D 570
REMARK  3 active torsions:
REMARK  status: ('A' for Active; 'I' for Inactive)
REMARK    5  A    between atoms: CA   and  CB  
REMARK    6  A    between atoms: CB   and  CG  
REMARK    7  A    between atoms: CG   and  CD  
ROOT
ATOM     14  CA  GLU D 570     -18.033  -6.348 -13.375  1.00 32.92     0.160 C 
ENDROOT
BRANCH  14  15
ATOM     15  CB  GLU D 570     -19.500  -6.345 -13.794  1.00 32.92     0.043 C 
BRANCH  15  16
ATOM     16  CG  GLU D 570     -19.962  -7.448 -14.676  1.00 32.92     0.100 C 
BRANCH  16  17
ATOM     17  CD  GLU D 570     -20.805  -6.963 -15.833  1.00 32.92     0.185 C 
ATOM     18  OE1 GLU D 570     -20.739  -5.765 -16.170  1.00 32.92    -0.647 OA
ATOM     19  OE2 GLU D 570     -21.553  -7.786 -16.396  1.00 32.92    -0.647 OA
ENDBRANCH  16  17
ENDBRANCH  15  16
ENDBRANCH  14  15
END_RES GLU D 570
ENDMDL
MODEL 7
REMARK VINA RESULT:      -6.1      4.608      7.067
REMARK  17 active torsions:
REMARK  status: ('A' for Active; 'I' for Inactive)
REMARK    1  A    between atoms: C_2  and  C_4 
REMARK    2  A    between atoms: C_2  and  C_6 
REMARK    3  A    between atoms: C_4  and  O_5 
REMARK    4  A    between atoms: C_6  and  C_7 
REMARK    5  A    between atoms: C_6  and  O_15 
REMARK       I    between atoms: C_7  and  N_9 
REMARK    6  A    between atoms: N_9  and  C_10 
REMARK    7  A    between atoms: C_10  and  C_11 
REMARK    8  A    between atoms: C_11  and  C_12 
REMARK    9  A    between atoms: C_20  and  C_22 
REMARK   10  A    between atoms: C_20  and  C_24 
REMARK   11  A    between atoms: C_22  and  O_23 
REMARK   12  A    between atoms: C_24  and  C_25 
REMARK   13  A    between atoms: C_24  and  O_33 
REMARK       I    between atoms: C_25  and  N_27 
REMARK   14  A    between atoms: N_27  and  C_28 
REMARK   15  A    between atoms: C_28  and  C_29 
REMARK   16  A    between atoms: C_29  and  C_30 
REMARK   17  A    between atoms: C_30  and  O_32 
ROOT
HETATM    1  C   UNL     1     -23.172  -4.668 -10.579  1.00  0.00     0.219 C 
ENDROOT
BRANCH   1   2
HETATM    2  C   UNL     1     -22.301  -3.965 -11.687  1.00  0.00     0.008 C 
HETATM    3  C   UNL     1     -22.405  -4.616 -13.093  1.00  0.00     0.020 C 
HETATM    4  C   UNL     1     -20.812  -4.076 -11.256  1.00  0.00     0.020 C 
BRANCH   2   5
HETATM    5  C   UNL     1     -22.645  -2.460 -11.762  1.00  0.00     0.175 C 
BRANCH   5   6
HETATM    6  O   UNL     1     -23.690  -2.205 -12.697  1.00  0.00    -0.400 OA
HETATM    7  H   UNL     1     -23.683  -1.248 -12.913  1.00  0.00     0.209 HD
ENDBRANCH   5   6
ENDBRANCH   2   5
ENDBRANCH   1   2
BRANCH   1   8
HETATM    8  C   UNL     1     -24.123  -3.787  -9.698  1.00  0.00     0.247 C 
HETATM    9  O   UNL     1     -25.127  -3.259 -10.190  1.00  0.00    -0.271 OA
HETATM   10  N   UNL     1     -23.947  -3.757  -8.329  1.00  0.00    -0.358 N 
HETATM   11  H   UNL     1     -24.515  -3.068  -7.841  1.00  0.00     0.162 HD
BRANCH  10  12
HETATM   12  C   UNL     1     -22.933  -4.396  -7.478  1.00  0.00     0.133 C 
BRANCH  12  13
HETATM   13  C   UNL     1     -21.590  -3.711  -7.386  1.00  0.00     0.133 C 
BRANCH  13  14
HETATM   14  C   UNL     1     -20.414  -4.613  -7.056  1.00  0.00     0.174 C 
HETATM   15  O   UNL     1     -20.044  -5.344  -8.009  1.00  0.00    -0.648 OA
HETATM   16  O   UNL     1     -19.963  -4.535  -5.863  1.00  0.00    -0.648 OA
ENDBRANCH  13  14
ENDBRANCH  12  13
ENDBRANCH  10  12
ENDBRANCH   1   8
BRANCH   1  17
HETATM   17  O   UNL     1     -23.999  -5.659 -11.227  1.00  0.00    -0.385 OA
HETATM   18  H   UNL     1     -24.925  -5.391 -11.089  1.00  0.00     0.210 HD
ENDBRANCH   1  17
TORSDOF 17
BEGIN_RES ARG D 557
REMARK  4 active torsions:
REMARK  status: ('A' for Active; 'I' for Inactive)
REMARK    1  A    between atoms: CA   and  CB  
REMARK    2  A    between atoms: CB   and  CG  
REMARK    3  A    between atoms: CG   and  CD  
REMARK    4  A    between atoms: CD   and  NE  
REMARK       I    between atoms: NE   and  CZ  
REMARK       I    between atoms: CZ   and  NH1 
REMARK       I    between atoms: CZ   and  NH2 
ROOT
ATOM      1  CA  ARG D 557     -26.217   2.705 -17.014  1.00 35.49     0.159 C 
ENDROOT
BRANCH   1   2
ATOM      2  CB  ARG D 557     -26.789   1.319 -17.183  1.00 35.49     0.034 C 
BRANCH   2   3
ATOM      3  CG  ARG D 557     -28.232   1.226 -17.435  1.00 35.49     0.027 C 
BRANCH   3   4
ATOM      4  CD  ARG D 557     -28.910   0.302 -16.497  1.00 35.49     0.116 C 
BRANCH   4   5
ATOM      5  NE  ARG D 557     -29.284  -0.935 -17.130  1.00 35.49    -0.212 N 
ATOM      6  CZ  ARG D 557     -28.642  -2.077 -17.023  1.00 35.49     0.666 C 
ATOM      7  NH1 ARG D 557     -27.540  -2.206 -16.309  1.00 35.49    -0.235 N 
ATOM      8  NH2 ARG D 557     -29.137  -3.104 -17.650  1.00 35.49    -0.235 N 
ATOM      9  HH  ARG D 557     -27.198  -1.544 -15.886  1.00 35.49     0.174 HD
ATOM     10  HH  ARG D 557     -27.166  -2.976 -16.274  1.00 35.49     0.174 HD
ATOM     11  HH  ARG D 557     -29.855  -2.993 -18.097  1.00 35.49     0.174 HD
ATOM     12  HH  ARG D 557     -28.753  -3.859 -17.601  1.00 35.49     0.174 HD
ATOM     13  HE  ARG D 557     -29.943  -0.925 -17.668  1.00 35.49     0.178 HD
ENDBRANCH   4   5
ENDBRANCH   3   4
ENDBRANCH   2   3
ENDBRANCH   1   2
END_RES ARG D 557
BEGIN_RES GLU D 570
REMARK  3 active torsions:
REMARK  status: ('A' for Active; 'I' for Inactive)
REMARK    5  A    between atoms: CA   and  CB  
REMARK    6  A    between atoms: CB   and  CG  
REMARK    7  A    between atoms: CG   and  CD  
ROOT
ATOM     14  CA  GLU D 570     -18.033  -6.348 -13.375  1.00 32.92     0.160 C 
ENDROOT
BRANCH  14  15
ATOM     15  CB  GLU D 570     -19.500  -6.345 -13.794  1.00 32.92     0.043 C 
BRANCH  15  16
ATOM     16  CG  GLU D 570     -19.796  -6.321 -15.250  1.00 32.92     0.100 C 
BRANCH  16  17
ATOM     17  CD  GLU D 570     -20.884  -7.292 -15.646  1.00 32.92     0.185 C 
ATOM     18  OE1 GLU D 570     -21.992  -6.847 -16.003  1.00 32.92    -0.647 OA
ATOM     19  OE2 GLU D 570     -20.631  -8.511 -15.582  1.00 32.92    -0.647 OA
ENDBRANCH  16  17
ENDBRANCH  15  16
ENDBRANCH  14  15
END_RES GLU D 570
ENDMDL
MODEL 8
REMARK VINA RESULT:      -6.0      2.703      3.646
REMARK  17 active torsions:
REMARK  status: ('A' for Active; 'I' for Inactive)
REMARK    1  A    between atoms: C_2  and  C_4 
REMARK    2  A    between atoms: C_2  and  C_6 
REMARK    3  A    between atoms: C_4  and  O_5 
REMARK    4  A    between atoms: C_6  and  C_7 
REMARK    5  A    between atoms: C_6  and  O_15 
REMARK       I    between atoms: C_7  and  N_9 
REMARK    6  A    between atoms: N_9  and  C_10 
REMARK    7  A    between atoms: C_10  and  C_11 
REMARK    8  A    between atoms: C_11  and  C_12 
REMARK    9  A    between atoms: C_20  and  C_22 
REMARK   10  A    between atoms: C_20  and  C_24 
REMARK   11  A    between atoms: C_22  and  O_23 
REMARK   12  A    between atoms: C_24  and  C_25 
REMARK   13  A    between atoms: C_24  and  O_33 
REMARK       I    between atoms: C_25  and  N_27 
REMARK   14  A    between atoms: N_27  and  C_28 
REMARK   15  A    between atoms: C_28  and  C_29 
REMARK   16  A    between atoms: C_29  and  C_30 
REMARK   17  A    between atoms: C_30  and  O_32 
ROOT
HETATM    1  C   UNL     1     -27.467  -6.837 -16.214  1.00  0.00     0.219 C 
ENDROOT
BRANCH   1   2
HETATM    2  C   UNL     1     -28.118  -5.403 -16.219  1.00  0.00     0.008 C 
HETATM    3  C   UNL     1     -28.548  -4.898 -17.622  1.00  0.00     0.020 C 
HETATM    4  C   UNL     1     -27.051  -4.401 -15.694  1.00  0.00     0.020 C 
BRANCH   2   5
HETATM    5  C   UNL     1     -29.312  -5.356 -15.238  1.00  0.00     0.175 C 
BRANCH   5   6
HETATM    6  O   UNL     1     -30.520  -5.787 -15.858  1.00  0.00    -0.400 OA
HETATM    7  H   UNL     1     -30.566  -5.388 -16.753  1.00  0.00     0.209 HD
ENDBRANCH   5   6
ENDBRANCH   2   5
ENDBRANCH   1   2
BRANCH   1   8
HETATM    8  C   UNL     1     -25.906  -6.957 -16.272  1.00  0.00     0.247 C 
HETATM    9  O   UNL     1     -25.258  -7.229 -15.255  1.00  0.00    -0.271 OA
HETATM   10  N   UNL     1     -25.268  -6.947 -17.497  1.00  0.00    -0.358 N 
HETATM   11  H   UNL     1     -24.253  -6.898 -17.449  1.00  0.00     0.162 HD
BRANCH  10  12
HETATM   12  C   UNL     1     -25.803  -6.782 -18.855  1.00  0.00     0.133 C 
BRANCH  12  13
HETATM   13  C   UNL     1     -24.797  -6.695 -19.979  1.00  0.00     0.133 C 
BRANCH  13  14
HETATM   14  C   UNL     1     -24.704  -7.918 -20.873  1.00  0.00     0.174 C 
HETATM   15  O   UNL     1     -25.813  -8.329 -21.299  1.00  0.00    -0.648 OA
HETATM   16  O   UNL     1     -23.530  -8.387 -21.064  1.00  0.00    -0.648 OA
ENDBRANCH  13  14
ENDBRANCH  12  13
ENDBRANCH  10  12
ENDBRANCH   1   8
BRANCH   1  17
HETATM   17  O   UNL     1     -27.896  -7.515 -15.013  1.00  0.00    -0.385 OA
HETATM   18  H   UNL     1     -28.095  -6.827 -14.354  1.00  0.00     0.210 HD
ENDBRANCH   1  17
TORSDOF 17
BEGIN_RES ARG D 557
REMARK  4 active torsions:
REMARK  status: ('A' for Active; 'I' for Inactive)
REMARK    1  A    between atoms: CA   and  CB  
REMARK    2  A    between atoms: CB   and  CG  
REMARK    3  A    between atoms: CG   and  CD  
REMARK    4  A    between atoms: CD   and  NE  
REMARK       I    between atoms: NE   and  CZ  
REMARK       I    between atoms: CZ   and  NH1 
REMARK       I    between atoms: CZ   and  NH2 
ROOT
ATOM      1  CA  ARG D 557     -26.217   2.705 -17.014  1.00 35.49     0.159 C 
ENDROOT
BRANCH   1   2
ATOM      2  CB  ARG D 557     -26.789   1.319 -17.183  1.00 35.49     0.034 C 
BRANCH   2   3
ATOM      3  CG  ARG D 557     -25.839   0.201 -17.130  1.00 35.49     0.027 C 
BRANCH   3   4
ATOM      4  CD  ARG D 557     -24.770   0.416 -16.128  1.00 35.49     0.116 C 
BRANCH   4   5
ATOM      5  NE  ARG D 557     -24.904  -0.461 -14.995  1.00 35.49    -0.212 N 
ATOM      6  CZ  ARG D 557     -24.085  -1.438 -14.679  1.00 35.49     0.666 C 
ATOM      7  NH1 ARG D 557     -23.022  -1.735 -15.404  1.00 35.49    -0.235 N 
ATOM      8  NH2 ARG D 557     -24.350  -2.119 -13.602  1.00 35.49    -0.235 N 
ATOM      9  HH  ARG D 557     -22.828  -1.299 -16.115  1.00 35.49     0.174 HD
ATOM     10  HH  ARG D 557     -22.522  -2.382 -15.147  1.00 35.49     0.174 HD
ATOM     11  HH  ARG D 557     -25.038  -1.900 -13.149  1.00 35.49     0.174 HD
ATOM     12  HH  ARG D 557     -23.842  -2.755 -13.364  1.00 35.49     0.174 HD
ATOM     13  HE  ARG D 557     -25.601  -0.387 -14.513  1.00 35.49     0.178 HD
ENDBRANCH   4   5
ENDBRANCH   3   4
ENDBRANCH   2   3
ENDBRANCH   1   2
END_RES ARG D 557
BEGIN_RES GLU D 570
REMARK  3 active torsions:
REMARK  status: ('A' for Active; 'I' for Inactive)
REMARK    5  A    between atoms: CA   and  CB  
REMARK    6  A    between atoms: CB   and  CG  
REMARK    7  A    between atoms: CG   and  CD  
ROOT
ATOM     14  CA  GLU D 570     -18.033  -6.348 -13.375  1.00 32.92     0.160 C 
ENDROOT
BRANCH  14  15
ATOM     15  CB  GLU D 570     -19.500  -6.345 -13.794  1.00 32.92     0.043 C 
BRANCH  15  16
ATOM     16  CG  GLU D 570     -20.445  -5.548 -12.971  1.00 32.92     0.100 C 
BRANCH  16  17
ATOM     17  CD  GLU D 570     -21.697  -5.157 -13.722  1.00 32.92     0.185 C 
ATOM     18  OE1 GLU D 570     -22.568  -4.484 -13.139  1.00 32.92    -0.647 OA
ATOM     19  OE2 GLU D 570     -21.814  -5.543 -14.902  1.00 32.92    -0.647 OA
ENDBRANCH  16  17
ENDBRANCH  15  16
ENDBRANCH  14  15
END_RES GLU D 570
ENDMDL
MODEL 9
REMARK VINA RESULT:      -6.0      5.731      8.259
REMARK  17 active torsions:
REMARK  status: ('A' for Active; 'I' for Inactive)
REMARK    1  A    between atoms: C_2  and  C_4 
REMARK    2  A    between atoms: C_2  and  C_6 
REMARK    3  A    between atoms: C_4  and  O_5 
REMARK    4  A    between atoms: C_6  and  C_7 
REMARK    5  A    between atoms: C_6  and  O_15 
REMARK       I    between atoms: C_7  and  N_9 
REMARK    6  A    between atoms: N_9  and  C_10 
REMARK    7  A    between atoms: C_10  and  C_11 
REMARK    8  A    between atoms: C_11  and  C_12 
REMARK    9  A    between atoms: C_20  and  C_22 
REMARK   10  A    between atoms: C_20  and  C_24 
REMARK   11  A    between atoms: C_22  and  O_23 
REMARK   12  A    between atoms: C_24  and  C_25 
REMARK   13  A    between atoms: C_24  and  O_33 
REMARK       I    between atoms: C_25  and  N_27 
REMARK   14  A    between atoms: N_27  and  C_28 
REMARK   15  A    between atoms: C_28  and  C_29 
REMARK   16  A    between atoms: C_29  and  C_30 
REMARK   17  A    between atoms: C_30  and  O_32 
ROOT
HETATM    1  C   UNL     1     -22.787  -4.601  -8.125  1.00  0.00     0.219 C 
ENDROOT
BRANCH   1   2
HETATM    2  C   UNL     1     -23.105  -4.078  -9.576  1.00  0.00     0.008 C 
HETATM    3  C   UNL     1     -24.200  -2.979  -9.637  1.00  0.00     0.020 C 
HETATM    4  C   UNL     1     -23.637  -5.281 -10.404  1.00  0.00     0.020 C 
BRANCH   2   5
HETATM    5  C   UNL     1     -21.809  -3.588 -10.262  1.00  0.00     0.175 C 
BRANCH   5   6
HETATM    6  O   UNL     1     -22.088  -2.697 -11.338  1.00  0.00    -0.400 OA
HETATM    7  H   UNL     1     -23.061  -2.628 -11.437  1.00  0.00     0.209 HD
ENDBRANCH   5   6
ENDBRANCH   2   5
ENDBRANCH   1   2
BRANCH   1   8
HETATM    8  C   UNL     1     -21.539  -4.024  -7.372  1.00  0.00     0.247 C 
HETATM    9  O   UNL     1     -21.408  -2.805  -7.216  1.00  0.00    -0.271 OA
HETATM   10  N   UNL     1     -20.683  -4.887  -6.716  1.00  0.00    -0.358 N 
HETATM   11  H   UNL     1     -19.833  -4.455  -6.363  1.00  0.00     0.162 HD
BRANCH  10  12
HETATM   12  C   UNL     1     -20.685  -6.353  -6.622  1.00  0.00     0.133 C 
BRANCH  12  13
HETATM   13  C   UNL     1     -20.895  -6.948  -5.250  1.00  0.00     0.133 C 
BRANCH  13  14
HETATM   14  C   UNL     1     -22.003  -6.320  -4.424  1.00  0.00     0.174 C 
HETATM   15  O   UNL     1     -23.086  -6.172  -5.045  1.00  0.00    -0.648 OA
HETATM   16  O   UNL     1     -21.700  -6.005  -3.223  1.00  0.00    -0.648 OA
ENDBRANCH  13  14
ENDBRANCH  12  13
ENDBRANCH  10  12
ENDBRANCH   1   8
BRANCH   1  17
HETATM   17  O   UNL     1     -23.939  -4.334  -7.295  1.00  0.00    -0.385 OA
HETATM   18  H   UNL     1     -23.650  -3.717  -6.600  1.00  0.00     0.210 HD
ENDBRANCH   1  17
TORSDOF 17
BEGIN_RES ARG D 557
REMARK  4 active torsions:
REMARK  status: ('A' for Active; 'I' for Inactive)
REMARK    1  A    between atoms: CA   and  CB  
REMARK    2  A    between atoms: CB   and  CG  
REMARK    3  A    between atoms: CG   and  CD  
REMARK    4  A    between atoms: CD   and  NE  
REMARK       I    between atoms: NE   and  CZ  
REMARK       I    between atoms: CZ   and  NH1 
REMARK       I    between atoms: CZ   and  NH2 
ROOT
ATOM      1  CA  ARG D 557     -26.217   2.705 -17.014  1.00 35.49     0.159 C 
ENDROOT
BRANCH   1   2
ATOM      2  CB  ARG D 557     -26.789   1.319 -17.183  1.00 35.49     0.034 C 
BRANCH   2   3
ATOM      3  CG  ARG D 557     -25.857   0.196 -17.026  1.00 35.49     0.027 C 
BRANCH   3   4
ATOM      4  CD  ARG D 557     -26.256  -0.720 -15.933  1.00 35.49     0.116 C 
BRANCH   4   5
ATOM      5  NE  ARG D 557     -25.239  -0.832 -14.921  1.00 35.49    -0.212 N 
ATOM      6  CZ  ARG D 557     -24.846  -1.947 -14.347  1.00 35.49     0.666 C 
ATOM      7  NH1 ARG D 557     -25.373  -3.121 -14.642  1.00 35.49    -0.235 N 
ATOM      8  NH2 ARG D 557     -23.894  -1.864 -13.463  1.00 35.49    -0.235 N 
ATOM      9  HH  ARG D 557     -25.999  -3.199 -15.222  1.00 35.49     0.174 HD
ATOM     10  HH  ARG D 557     -25.075  -3.814 -14.237  1.00 35.49     0.174 HD
ATOM     11  HH  ARG D 557     -23.567  -1.094 -13.298  1.00 35.49     0.174 HD
ATOM     12  HH  ARG D 557     -23.611  -2.562 -13.074  1.00 35.49     0.174 HD
ATOM     13  HE  ARG D 557     -24.896  -0.115 -14.618  1.00 35.49     0.178 HD
ENDBRANCH   4   5
ENDBRANCH   3   4
ENDBRANCH   2   3
ENDBRANCH   1   2
END_RES ARG D 557
BEGIN_RES GLU D 570
REMARK  3 active torsions:
REMARK  status: ('A' for Active; 'I' for Inactive)
REMARK    5  A    between atoms: CA   and  CB  
REMARK    6  A    between atoms: CB   and  CG  
REMARK    7  A    between atoms: CG   and  CD  
ROOT
ATOM     14  CA  GLU D 570     -18.033  -6.348 -13.375  1.00 32.92     0.160 C 
ENDROOT
BRANCH  14  15
ATOM     15  CB  GLU D 570     -19.500  -6.345 -13.794  1.00 32.92     0.043 C 
BRANCH  15  16
ATOM     16  CG  GLU D 570     -20.423  -5.450 -13.049  1.00 32.92     0.100 C 
BRANCH  16  17
ATOM     17  CD  GLU D 570     -21.762  -5.285 -13.730  1.00 32.92     0.185 C 
ATOM     18  OE1 GLU D 570     -22.259  -6.257 -14.330  1.00 32.92    -0.647 OA
ATOM     19  OE2 GLU D 570     -22.311  -4.167 -13.677  1.00 32.92    -0.647 OA
ENDBRANCH  16  17
ENDBRANCH  15  16
ENDBRANCH  14  15
END_RES GLU D 570
ENDMDL
