MODEL 1
REMARK VINA RESULT:      -5.7      0.000      0.000
REMARK  6 active torsions:
REMARK  status: ('A' for Active; 'I' for Inactive)
REMARK    1  A    between atoms: C_1  and  C_2 
REMARK    2  A    between atoms: C_1  and  C_7 
REMARK    3  A    between atoms: C_2  and  C_3 
REMARK    4  A    between atoms: C_2  and  O_6 
REMARK    5  A    between atoms: C_3  and  O_5 
REMARK    6  A    between atoms: C_7  and  O_9 
ROOT
HETATM    1  C   UNL     1     -23.439  -4.660 -10.757  1.00  0.00     0.225 C 
ENDROOT
BRANCH   1   2
HETATM    2  C   UNL     1     -22.024  -4.327 -10.302  1.00  0.00     0.152 C 
BRANCH   2   3
HETATM    3  C   UNL     1     -21.323  -3.461 -11.306  1.00  0.00     0.142 C 
HETATM    4  O   UNL     1     -21.717  -2.351 -11.637  1.00  0.00    -0.650 OA
BRANCH   3   5
HETATM    5  O   UNL     1     -20.231  -4.041 -11.842  1.00  0.00    -0.776 OA
HETATM    6  H   UNL     1     -19.427  -3.486 -11.829  1.00  0.00     0.167 HD
ENDBRANCH   3   5
ENDBRANCH   2   3
ENDBRANCH   1   2
BRANCH   1   7
HETATM    7  C   UNL     1     -24.477  -3.676 -10.207  1.00  0.00     0.170 C 
HETATM    8  O   UNL     1     -25.269  -3.098 -10.946  1.00  0.00    -0.648 OA
BRANCH   7   9
HETATM    9  O   UNL     1     -24.473  -3.494  -8.872  1.00  0.00    -0.775 OA
HETATM   10  H   UNL     1     -24.273  -2.571  -8.572  1.00  0.00     0.167 HD
ENDBRANCH   7   9
ENDBRANCH   1   7
BRANCH   1  11
HETATM   11  O   UNL     1     -23.430  -4.592 -12.192  1.00  0.00    -0.384 OA
HETATM   12  H   UNL     1     -22.839  -5.311 -12.503  1.00  0.00     0.210 HD
ENDBRANCH   1  11
TORSDOF 6
BEGIN_RES ARG D 557
REMARK  4 active torsions:
REMARK  status: ('A' for Active; 'I' for Inactive)
REMARK    1  A    between atoms: CA   and  CB  
REMARK    2  A    between atoms: CB   and  CG  
REMARK    3  A    between atoms: CG   and  CD  
REMARK    4  A    between atoms: CD   and  NE  
REMARK       I    between atoms: NE   and  CZ  
REMARK       I    between atoms: CZ   and  NH1 
REMARK       I    between atoms: CZ   and  NH2 
ROOT
ATOM      1  CA  ARG D 557     -26.217   2.705 -17.014  1.00 35.49     0.159 C 
ENDROOT
BRANCH   1   2
ATOM      2  CB  ARG D 557     -26.789   1.319 -17.183  1.00 35.49     0.034 C 
BRANCH   2   3
ATOM      3  CG  ARG D 557     -25.858   0.196 -17.023  1.00 35.49     0.027 C 
BRANCH   3   4
ATOM      4  CD  ARG D 557     -26.207  -0.667 -15.871  1.00 35.49     0.116 C 
BRANCH   4   5
ATOM      5  NE  ARG D 557     -25.091  -0.869 -14.986  1.00 35.49    -0.212 N 
ATOM      6  CZ  ARG D 557     -24.892  -1.925 -14.229  1.00 35.49     0.666 C 
ATOM      7  NH1 ARG D 557     -25.735  -2.940 -14.192  1.00 35.49    -0.235 N 
ATOM      8  NH2 ARG D 557     -23.812  -1.948 -13.503  1.00 35.49    -0.235 N 
ATOM      9  HH  ARG D 557     -26.451  -2.947 -14.663  1.00 35.49     0.174 HD
ATOM     10  HH  ARG D 557     -25.552  -3.603 -13.682  1.00 35.49     0.174 HD
ATOM     11  HH  ARG D 557     -23.282  -1.282 -13.552  1.00 35.49     0.174 HD
ATOM     12  HH  ARG D 557     -23.648  -2.614 -13.005  1.00 35.49     0.174 HD
ATOM     13  HE  ARG D 557     -24.536  -0.232 -14.892  1.00 35.49     0.178 HD
ENDBRANCH   4   5
ENDBRANCH   3   4
ENDBRANCH   2   3
ENDBRANCH   1   2
END_RES ARG D 557
BEGIN_RES GLU D 570
REMARK  3 active torsions:
REMARK  status: ('A' for Active; 'I' for Inactive)
REMARK    5  A    between atoms: CA   and  CB  
REMARK    6  A    between atoms: CB   and  CG  
REMARK    7  A    between atoms: CG   and  CD  
ROOT
ATOM     14  CA  GLU D 570     -18.033  -6.348 -13.375  1.00 32.92     0.160 C 
ENDROOT
BRANCH  14  15
ATOM     15  CB  GLU D 570     -19.500  -6.345 -13.794  1.00 32.92     0.043 C 
BRANCH  15  16
ATOM     16  CG  GLU D 570     -19.803  -6.075 -15.223  1.00 32.92     0.100 C 
BRANCH  16  17
ATOM     17  CD  GLU D 570     -21.099  -5.323 -15.419  1.00 32.92     0.185 C 
ATOM     18  OE1 GLU D 570     -21.730  -4.933 -14.417  1.00 32.92    -0.647 OA
ATOM     19  OE2 GLU D 570     -21.496  -5.136 -16.586  1.00 32.92    -0.647 OA
ENDBRANCH  16  17
ENDBRANCH  15  16
ENDBRANCH  14  15
END_RES GLU D 570
ENDMDL
MODEL 2
REMARK VINA RESULT:      -5.5      2.673      3.738
REMARK  6 active torsions:
REMARK  status: ('A' for Active; 'I' for Inactive)
REMARK    1  A    between atoms: C_1  and  C_2 
REMARK    2  A    between atoms: C_1  and  C_7 
REMARK    3  A    between atoms: C_2  and  C_3 
REMARK    4  A    between atoms: C_2  and  O_6 
REMARK    5  A    between atoms: C_3  and  O_5 
REMARK    6  A    between atoms: C_7  and  O_9 
ROOT
HETATM    1  C   UNL     1     -24.784  -2.958 -14.044  1.00  0.00     0.225 C 
ENDROOT
BRANCH   1   2
HETATM    2  C   UNL     1     -24.265  -2.935 -12.612  1.00  0.00     0.152 C 
BRANCH   2   3
HETATM    3  C   UNL     1     -23.091  -3.854 -12.448  1.00  0.00     0.142 C 
HETATM    4  O   UNL     1     -23.162  -4.960 -11.932  1.00  0.00    -0.650 OA
BRANCH   3   5
HETATM    5  O   UNL     1     -21.933  -3.326 -12.893  1.00  0.00    -0.776 OA
HETATM    6  H   UNL     1     -21.509  -3.827 -13.617  1.00  0.00     0.167 HD
ENDBRANCH   3   5
ENDBRANCH   2   3
ENDBRANCH   1   2
BRANCH   1   7
HETATM    7  C   UNL     1     -24.280  -1.769 -14.868  1.00  0.00     0.170 C 
HETATM    8  O   UNL     1     -24.961  -0.759 -15.023  1.00  0.00    -0.648 OA
BRANCH   7   9
HETATM    9  O   UNL     1     -23.048  -1.894 -15.399  1.00  0.00    -0.775 OA
HETATM   10  H   UNL     1     -22.988  -2.484 -16.193  1.00  0.00     0.167 HD
ENDBRANCH   7   9
ENDBRANCH   1   7
BRANCH   1  11
HETATM   11  O   UNL     1     -24.307  -4.181 -14.630  1.00  0.00    -0.384 OA
HETATM   12  H   UNL     1     -23.427  -3.980 -15.016  1.00  0.00     0.210 HD
ENDBRANCH   1  11
TORSDOF 6
BEGIN_RES ARG D 557
REMARK  4 active torsions:
REMARK  status: ('A' for Active; 'I' for Inactive)
REMARK    1  A    between atoms: CA   and  CB  
REMARK    2  A    between atoms: CB   and  CG  
REMARK    3  A    between atoms: CG   and  CD  
REMARK    4  A    between atoms: CD   and  NE  
REMARK       I    between atoms: NE   and  CZ  
REMARK       I    between atoms: CZ   and  NH1 
REMARK       I    between atoms: CZ   and  NH2 
ROOT
ATOM      1  CA  ARG D 557     -26.217   2.705 -17.014  1.00 35.49     0.159 C 
ENDROOT
BRANCH   1   2
ATOM      2  CB  ARG D 557     -26.789   1.319 -17.183  1.00 35.49     0.034 C 
BRANCH   2   3
ATOM      3  CG  ARG D 557     -28.229   1.227 -17.454  1.00 35.49     0.027 C 
BRANCH   3   4
ATOM      4  CD  ARG D 557     -28.918   0.295 -16.532  1.00 35.49     0.116 C 
BRANCH   4   5
ATOM      5  NE  ARG D 557     -29.253  -0.951 -17.171  1.00 35.49    -0.212 N 
ATOM      6  CZ  ARG D 557     -28.624  -2.093 -17.005  1.00 35.49     0.666 C 
ATOM      7  NH1 ARG D 557     -27.572  -2.215 -16.215  1.00 35.49    -0.235 N 
ATOM      8  NH2 ARG D 557     -29.079  -3.128 -17.649  1.00 35.49    -0.235 N 
ATOM      9  HH  ARG D 557     -27.257  -1.547 -15.780  1.00 35.49     0.174 HD
ATOM     10  HH  ARG D 557     -27.205  -2.985 -16.144  1.00 35.49     0.174 HD
ATOM     11  HH  ARG D 557     -29.764  -3.021 -18.146  1.00 35.49     0.174 HD
ATOM     12  HH  ARG D 557     -28.702  -3.883 -17.564  1.00 35.49     0.174 HD
ATOM     13  HE  ARG D 557     -29.873  -0.947 -17.753  1.00 35.49     0.178 HD
ENDBRANCH   4   5
ENDBRANCH   3   4
ENDBRANCH   2   3
ENDBRANCH   1   2
END_RES ARG D 557
BEGIN_RES GLU D 570
REMARK  3 active torsions:
REMARK  status: ('A' for Active; 'I' for Inactive)
REMARK    5  A    between atoms: CA   and  CB  
REMARK    6  A    between atoms: CB   and  CG  
REMARK    7  A    between atoms: CG   and  CD  
ROOT
ATOM     14  CA  GLU D 570     -18.033  -6.348 -13.375  1.00 32.92     0.160 C 
ENDROOT
BRANCH  14  15
ATOM     15  CB  GLU D 570     -19.500  -6.345 -13.794  1.00 32.92     0.043 C 
BRANCH  15  16
ATOM     16  CG  GLU D 570     -19.816  -5.904 -15.177  1.00 32.92     0.100 C 
BRANCH  16  17
ATOM     17  CD  GLU D 570     -21.278  -5.578 -15.372  1.00 32.92     0.185 C 
ATOM     18  OE1 GLU D 570     -22.130  -6.458 -15.143  1.00 32.92    -0.647 OA
ATOM     19  OE2 GLU D 570     -21.574  -4.435 -15.774  1.00 32.92    -0.647 OA
ENDBRANCH  16  17
ENDBRANCH  15  16
ENDBRANCH  14  15
END_RES GLU D 570
ENDMDL
MODEL 3
REMARK VINA RESULT:      -5.5      3.209      4.450
REMARK  6 active torsions:
REMARK  status: ('A' for Active; 'I' for Inactive)
REMARK    1  A    between atoms: C_1  and  C_2 
REMARK    2  A    between atoms: C_1  and  C_7 
REMARK    3  A    between atoms: C_2  and  C_3 
REMARK    4  A    between atoms: C_2  and  O_6 
REMARK    5  A    between atoms: C_3  and  O_5 
REMARK    6  A    between atoms: C_7  and  O_9 
ROOT
HETATM    1  C   UNL     1     -22.847  -2.867 -14.160  1.00  0.00     0.225 C 
ENDROOT
BRANCH   1   2
HETATM    2  C   UNL     1     -24.143  -2.357 -13.545  1.00  0.00     0.152 C 
BRANCH   2   3
HETATM    3  C   UNL     1     -25.046  -1.775 -14.592  1.00  0.00     0.142 C 
HETATM    4  O   UNL     1     -25.794  -2.446 -15.291  1.00  0.00    -0.650 OA
BRANCH   3   5
HETATM    5  O   UNL     1     -24.928  -0.439 -14.719  1.00  0.00    -0.776 OA
HETATM    6  H   UNL     1     -24.083  -0.140 -15.110  1.00  0.00     0.167 HD
ENDBRANCH   3   5
ENDBRANCH   2   3
ENDBRANCH   1   2
BRANCH   1   7
HETATM    7  C   UNL     1     -22.800  -4.396 -14.242  1.00  0.00     0.170 C 
HETATM    8  O   UNL     1     -22.760  -5.093 -13.231  1.00  0.00    -0.648 OA
BRANCH   7   9
HETATM    9  O   UNL     1     -22.815  -4.925 -15.481  1.00  0.00    -0.775 OA
HETATM   10  H   UNL     1     -23.169  -4.330 -16.189  1.00  0.00     0.167 HD
ENDBRANCH   7   9
ENDBRANCH   1   7
BRANCH   1  11
HETATM   11  O   UNL     1     -22.782  -2.316 -15.486  1.00  0.00    -0.384 OA
HETATM   12  H   UNL     1     -22.933  -1.350 -15.395  1.00  0.00     0.210 HD
ENDBRANCH   1  11
TORSDOF 6
BEGIN_RES ARG D 557
REMARK  4 active torsions:
REMARK  status: ('A' for Active; 'I' for Inactive)
REMARK    1  A    between atoms: CA   and  CB  
REMARK    2  A    between atoms: CB   and  CG  
REMARK    3  A    between atoms: CG   and  CD  
REMARK    4  A    between atoms: CD   and  NE  
REMARK       I    between atoms: NE   and  CZ  
REMARK       I    between atoms: CZ   and  NH1 
REMARK       I    between atoms: CZ   and  NH2 
ROOT
ATOM      1  CA  ARG D 557     -26.217   2.705 -17.014  1.00 35.49     0.159 C 
ENDROOT
BRANCH   1   2
ATOM      2  CB  ARG D 557     -26.789   1.319 -17.183  1.00 35.49     0.034 C 
BRANCH   2   3
ATOM      3  CG  ARG D 557     -28.132   1.087 -16.637  1.00 35.49     0.027 C 
BRANCH   3   4
ATOM      4  CD  ARG D 557     -28.810  -0.063 -17.276  1.00 35.49     0.116 C 
BRANCH   4   5
ATOM      5  NE  ARG D 557     -28.229  -1.321 -16.886  1.00 35.49    -0.212 N 
ATOM      6  CZ  ARG D 557     -28.763  -2.506 -17.079  1.00 35.49     0.666 C 
ATOM      7  NH1 ARG D 557     -29.938  -2.669 -17.659  1.00 35.49    -0.235 N 
ATOM      8  NH2 ARG D 557     -28.085  -3.542 -16.679  1.00 35.49    -0.235 N 
ATOM      9  HH  ARG D 557     -30.401  -2.001 -17.932  1.00 35.49     0.174 HD
ATOM     10  HH  ARG D 557     -30.235  -3.466 -17.760  1.00 35.49     0.174 HD
ATOM     11  HH  ARG D 557     -27.326  -3.407 -16.315  1.00 35.49     0.174 HD
ATOM     12  HH  ARG D 557     -28.395  -4.324 -16.790  1.00 35.49     0.174 HD
ATOM     13  HE  ARG D 557     -27.505  -1.305 -16.441  1.00 35.49     0.178 HD
ENDBRANCH   4   5
ENDBRANCH   3   4
ENDBRANCH   2   3
ENDBRANCH   1   2
END_RES ARG D 557
BEGIN_RES GLU D 570
REMARK  3 active torsions:
REMARK  status: ('A' for Active; 'I' for Inactive)
REMARK    5  A    between atoms: CA   and  CB  
REMARK    6  A    between atoms: CB   and  CG  
REMARK    7  A    between atoms: CG   and  CD  
ROOT
ATOM     14  CA  GLU D 570     -18.033  -6.348 -13.375  1.00 32.92     0.160 C 
ENDROOT
BRANCH  14  15
ATOM     15  CB  GLU D 570     -19.500  -6.345 -13.794  1.00 32.92     0.043 C 
BRANCH  15  16
ATOM     16  CG  GLU D 570     -20.092  -7.638 -14.224  1.00 32.92     0.100 C 
BRANCH  16  17
ATOM     17  CD  GLU D 570     -20.669  -7.587 -15.620  1.00 32.92     0.185 C 
ATOM     18  OE1 GLU D 570     -21.220  -8.603 -16.085  1.00 32.92    -0.647 OA
ATOM     19  OE2 GLU D 570     -20.554  -6.524 -16.261  1.00 32.92    -0.647 OA
ENDBRANCH  16  17
ENDBRANCH  15  16
ENDBRANCH  14  15
END_RES GLU D 570
ENDMDL
MODEL 4
REMARK VINA RESULT:      -5.4      1.177      2.643
REMARK  6 active torsions:
REMARK  status: ('A' for Active; 'I' for Inactive)
REMARK    1  A    between atoms: C_1  and  C_2 
REMARK    2  A    between atoms: C_1  and  C_7 
REMARK    3  A    between atoms: C_2  and  C_3 
REMARK    4  A    between atoms: C_2  and  O_6 
REMARK    5  A    between atoms: C_3  and  O_5 
REMARK    6  A    between atoms: C_7  and  O_9 
ROOT
HETATM    1  C   UNL     1     -22.513  -4.560 -10.968  1.00  0.00     0.225 C 
ENDROOT
BRANCH   1   2
HETATM    2  C   UNL     1     -23.795  -5.031 -10.293  1.00  0.00     0.152 C 
BRANCH   2   3
HETATM    3  C   UNL     1     -24.526  -3.884  -9.661  1.00  0.00     0.142 C 
HETATM    4  O   UNL     1     -25.284  -3.143 -10.273  1.00  0.00    -0.650 OA
BRANCH   3   5
HETATM    5  O   UNL     1     -24.237  -3.720  -8.356  1.00  0.00    -0.776 OA
HETATM    6  H   UNL     1     -24.857  -3.142  -7.870  1.00  0.00     0.167 HD
ENDBRANCH   3   5
ENDBRANCH   2   3
ENDBRANCH   1   2
BRANCH   1   7
HETATM    7  C   UNL     1     -22.683  -4.374 -12.480  1.00  0.00     0.170 C 
HETATM    8  O   UNL     1     -23.572  -4.948 -13.102  1.00  0.00    -0.648 OA
BRANCH   7   9
HETATM    9  O   UNL     1     -21.808  -3.541 -13.078  1.00  0.00    -0.775 OA
HETATM   10  H   UNL     1     -21.613  -3.746 -14.027  1.00  0.00     0.167 HD
ENDBRANCH   7   9
ENDBRANCH   1   7
BRANCH   1  11
HETATM   11  O   UNL     1     -22.177  -3.298 -10.367  1.00  0.00    -0.384 OA
HETATM   12  H   UNL     1     -22.640  -3.269  -9.502  1.00  0.00     0.210 HD
ENDBRANCH   1  11
TORSDOF 6
BEGIN_RES ARG D 557
REMARK  4 active torsions:
REMARK  status: ('A' for Active; 'I' for Inactive)
REMARK    1  A    between atoms: CA   and  CB  
REMARK    2  A    between atoms: CB   and  CG  
REMARK    3  A    between atoms: CG   and  CD  
REMARK    4  A    between atoms: CD   and  NE  
REMARK       I    between atoms: NE   and  CZ  
REMARK       I    between atoms: CZ   and  NH1 
REMARK       I    between atoms: CZ   and  NH2 
ROOT
ATOM      1  CA  ARG D 557     -26.217   2.705 -17.014  1.00 35.49     0.159 C 
ENDROOT
BRANCH   1   2
ATOM      2  CB  ARG D 557     -26.789   1.319 -17.183  1.00 35.49     0.034 C 
BRANCH   2   3
ATOM      3  CG  ARG D 557     -25.831   0.207 -17.210  1.00 35.49     0.027 C 
BRANCH   3   4
ATOM      4  CD  ARG D 557     -24.747   0.372 -16.214  1.00 35.49     0.116 C 
BRANCH   4   5
ATOM      5  NE  ARG D 557     -24.952  -0.447 -15.049  1.00 35.49    -0.212 N 
ATOM      6  CZ  ARG D 557     -24.178  -1.435 -14.658  1.00 35.49     0.666 C 
ATOM      7  NH1 ARG D 557     -23.099  -1.797 -15.328  1.00 35.49    -0.235 N 
ATOM      8  NH2 ARG D 557     -24.505  -2.057 -13.563  1.00 35.49    -0.235 N 
ATOM      9  HH  ARG D 557     -22.864  -1.400 -16.050  1.00 35.49     0.174 HD
ATOM     10  HH  ARG D 557     -22.630  -2.447 -15.024  1.00 35.49     0.174 HD
ATOM     11  HH  ARG D 557     -25.202  -1.796 -13.148  1.00 35.49     0.174 HD
ATOM     12  HH  ARG D 557     -24.027  -2.697 -13.277  1.00 35.49     0.174 HD
ATOM     13  HE  ARG D 557     -25.664  -0.330 -14.598  1.00 35.49     0.178 HD
ENDBRANCH   4   5
ENDBRANCH   3   4
ENDBRANCH   2   3
ENDBRANCH   1   2
END_RES ARG D 557
BEGIN_RES GLU D 570
REMARK  3 active torsions:
REMARK  status: ('A' for Active; 'I' for Inactive)
REMARK    5  A    between atoms: CA   and  CB  
REMARK    6  A    between atoms: CB   and  CG  
REMARK    7  A    between atoms: CG   and  CD  
ROOT
ATOM     14  CA  GLU D 570     -18.033  -6.348 -13.375  1.00 32.92     0.160 C 
ENDROOT
BRANCH  14  15
ATOM     15  CB  GLU D 570     -19.500  -6.345 -13.794  1.00 32.92     0.043 C 
BRANCH  15  16
ATOM     16  CG  GLU D 570     -19.800  -6.151 -15.236  1.00 32.92     0.100 C 
BRANCH  16  17
ATOM     17  CD  GLU D 570     -21.262  -5.883 -15.504  1.00 32.92     0.185 C 
ATOM     18  OE1 GLU D 570     -22.076  -6.823 -15.416  1.00 32.92    -0.647 OA
ATOM     19  OE2 GLU D 570     -21.596  -4.724 -15.820  1.00 32.92    -0.647 OA
ENDBRANCH  16  17
ENDBRANCH  15  16
ENDBRANCH  14  15
END_RES GLU D 570
ENDMDL
MODEL 5
REMARK VINA RESULT:      -5.4      2.550      3.536
REMARK  6 active torsions:
REMARK  status: ('A' for Active; 'I' for Inactive)
REMARK    1  A    between atoms: C_1  and  C_2 
REMARK    2  A    between atoms: C_1  and  C_7 
REMARK    3  A    between atoms: C_2  and  C_3 
REMARK    4  A    between atoms: C_2  and  O_6 
REMARK    5  A    between atoms: C_3  and  O_5 
REMARK    6  A    between atoms: C_7  and  O_9 
ROOT
HETATM    1  C   UNL     1     -23.436  -2.636 -12.287  1.00  0.00     0.225 C 
ENDROOT
BRANCH   1   2
HETATM    2  C   UNL     1     -24.390  -2.689 -13.474  1.00  0.00     0.152 C 
BRANCH   2   3
HETATM    3  C   UNL     1     -23.937  -1.774 -14.572  1.00  0.00     0.142 C 
HETATM    4  O   UNL     1     -22.998  -2.020 -15.316  1.00  0.00    -0.650 OA
BRANCH   3   5
HETATM    5  O   UNL     1     -24.644  -0.628 -14.639  1.00  0.00    -0.776 OA
HETATM    6  H   UNL     1     -24.299   0.096 -14.081  1.00  0.00     0.167 HD
ENDBRANCH   3   5
ENDBRANCH   2   3
ENDBRANCH   1   2
BRANCH   1   7
HETATM    7  C   UNL     1     -23.904  -3.513 -11.121  1.00  0.00     0.170 C 
HETATM    8  O   UNL     1     -23.196  -4.408 -10.666  1.00  0.00    -0.648 OA
BRANCH   7   9
HETATM    9  O   UNL     1     -25.125  -3.238 -10.624  1.00  0.00    -0.775 OA
HETATM   10  H   UNL     1     -25.598  -2.484 -11.059  1.00  0.00     0.167 HD
ENDBRANCH   7   9
ENDBRANCH   1   7
BRANCH   1  11
HETATM   11  O   UNL     1     -22.167  -3.113 -12.764  1.00  0.00    -0.384 OA
HETATM   12  H   UNL     1     -21.619  -2.319 -12.942  1.00  0.00     0.210 HD
ENDBRANCH   1  11
TORSDOF 6
BEGIN_RES ARG D 557
REMARK  4 active torsions:
REMARK  status: ('A' for Active; 'I' for Inactive)
REMARK    1  A    between atoms: CA   and  CB  
REMARK    2  A    between atoms: CB   and  CG  
REMARK    3  A    between atoms: CG   and  CD  
REMARK    4  A    between atoms: CD   and  NE  
REMARK       I    between atoms: NE   and  CZ  
REMARK       I    between atoms: CZ   and  NH1 
REMARK       I    between atoms: CZ   and  NH2 
ROOT
ATOM      1  CA  ARG D 557     -26.217   2.705 -17.014  1.00 35.49     0.159 C 
ENDROOT
BRANCH   1   2
ATOM      2  CB  ARG D 557     -26.789   1.319 -17.183  1.00 35.49     0.034 C 
BRANCH   2   3
ATOM      3  CG  ARG D 557     -28.233   1.226 -17.432  1.00 35.49     0.027 C 
BRANCH   3   4
ATOM      4  CD  ARG D 557     -28.909   0.302 -16.493  1.00 35.49     0.116 C 
BRANCH   4   5
ATOM      5  NE  ARG D 557     -29.270  -0.942 -17.122  1.00 35.49    -0.212 N 
ATOM      6  CZ  ARG D 557     -28.618  -2.077 -17.009  1.00 35.49     0.666 C 
ATOM      7  NH1 ARG D 557     -27.516  -2.194 -16.292  1.00 35.49    -0.235 N 
ATOM      8  NH2 ARG D 557     -29.103  -3.112 -17.633  1.00 35.49    -0.235 N 
ATOM      9  HH  ARG D 557     -27.181  -1.527 -15.871  1.00 35.49     0.174 HD
ATOM     10  HH  ARG D 557     -27.135  -2.961 -16.253  1.00 35.49     0.174 HD
ATOM     11  HH  ARG D 557     -29.820  -3.008 -18.083  1.00 35.49     0.174 HD
ATOM     12  HH  ARG D 557     -28.712  -3.862 -17.581  1.00 35.49     0.174 HD
ATOM     13  HE  ARG D 557     -29.927  -0.940 -17.661  1.00 35.49     0.178 HD
ENDBRANCH   4   5
ENDBRANCH   3   4
ENDBRANCH   2   3
ENDBRANCH   1   2
END_RES ARG D 557
BEGIN_RES GLU D 570
REMARK  3 active torsions:
REMARK  status: ('A' for Active; 'I' for Inactive)
REMARK    5  A    between atoms: CA   and  CB  
REMARK    6  A    between atoms: CB   and  CG  
REMARK    7  A    between atoms: CG   and  CD  
ROOT
ATOM     14  CA  GLU D 570     -18.033  -6.348 -13.375  1.00 32.92     0.160 C 
ENDROOT
BRANCH  14  15
ATOM     15  CB  GLU D 570     -19.500  -6.345 -13.794  1.00 32.92     0.043 C 
BRANCH  15  16
ATOM     16  CG  GLU D 570     -19.800  -6.146 -15.236  1.00 32.92     0.100 C 
BRANCH  16  17
ATOM     17  CD  GLU D 570     -21.118  -5.446 -15.473  1.00 32.92     0.185 C 
ATOM     18  OE1 GLU D 570     -21.412  -5.085 -16.628  1.00 32.92    -0.647 OA
ATOM     19  OE2 GLU D 570     -21.856  -5.242 -14.489  1.00 32.92    -0.647 OA
ENDBRANCH  16  17
ENDBRANCH  15  16
ENDBRANCH  14  15
END_RES GLU D 570
ENDMDL
MODEL 6
REMARK VINA RESULT:      -5.2      4.996      6.892
REMARK  6 active torsions:
REMARK  status: ('A' for Active; 'I' for Inactive)
REMARK    1  A    between atoms: C_1  and  C_2 
REMARK    2  A    between atoms: C_1  and  C_7 
REMARK    3  A    between atoms: C_2  and  C_3 
REMARK    4  A    between atoms: C_2  and  O_6 
REMARK    5  A    between atoms: C_3  and  O_5 
REMARK    6  A    between atoms: C_7  and  O_9 
ROOT
HETATM    1  C   UNL     1     -28.149  -5.944 -18.390  1.00  0.00     0.225 C 
ENDROOT
BRANCH   1   2
HETATM    2  C   UNL     1     -29.585  -6.323 -18.053  1.00  0.00     0.152 C 
BRANCH   2   3
HETATM    3  C   UNL     1     -29.797  -7.802 -18.179  1.00  0.00     0.142 C 
HETATM    4  O   UNL     1     -30.388  -8.326 -19.113  1.00  0.00    -0.650 OA
BRANCH   3   5
HETATM    5  O   UNL     1     -29.305  -8.503 -17.139  1.00  0.00    -0.776 OA
HETATM    6  H   UNL     1     -28.524  -8.102 -16.710  1.00  0.00     0.167 HD
ENDBRANCH   3   5
ENDBRANCH   2   3
ENDBRANCH   1   2
BRANCH   1   7
HETATM    7  C   UNL     1     -27.269  -5.816 -17.142  1.00  0.00     0.170 C 
HETATM    8  O   UNL     1     -27.025  -4.724 -16.637  1.00  0.00    -0.648 OA
BRANCH   7   9
HETATM    9  O   UNL     1     -26.793  -6.969 -16.631  1.00  0.00    -0.775 OA
HETATM   10  H   UNL     1     -25.961  -6.882 -16.101  1.00  0.00     0.167 HD
ENDBRANCH   7   9
ENDBRANCH   1   7
BRANCH   1  11
HETATM   11  O   UNL     1     -27.638  -6.994 -19.229  1.00  0.00    -0.384 OA
HETATM   12  H   UNL     1     -26.888  -7.400 -18.742  1.00  0.00     0.210 HD
ENDBRANCH   1  11
TORSDOF 6
BEGIN_RES ARG D 557
REMARK  4 active torsions:
REMARK  status: ('A' for Active; 'I' for Inactive)
REMARK    1  A    between atoms: CA   and  CB  
REMARK    2  A    between atoms: CB   and  CG  
REMARK    3  A    between atoms: CG   and  CD  
REMARK    4  A    between atoms: CD   and  NE  
REMARK       I    between atoms: NE   and  CZ  
REMARK       I    between atoms: CZ   and  NH1 
REMARK       I    between atoms: CZ   and  NH2 
ROOT
ATOM      1  CA  ARG D 557     -26.217   2.705 -17.014  1.00 35.49     0.159 C 
ENDROOT
BRANCH   1   2
ATOM      2  CB  ARG D 557     -26.789   1.319 -17.183  1.00 35.49     0.034 C 
BRANCH   2   3
ATOM      3  CG  ARG D 557     -25.863   0.195 -16.996  1.00 35.49     0.027 C 
BRANCH   3   4
ATOM      4  CD  ARG D 557     -26.283  -0.706 -15.898  1.00 35.49     0.116 C 
BRANCH   4   5
ATOM      5  NE  ARG D 557     -25.233  -0.916 -14.938  1.00 35.49    -0.212 N 
ATOM      6  CZ  ARG D 557     -24.944  -2.057 -14.354  1.00 35.49     0.666 C 
ATOM      7  NH1 ARG D 557     -25.623  -3.165 -14.587  1.00 35.49    -0.235 N 
ATOM      8  NH2 ARG D 557     -23.942  -2.070 -13.523  1.00 35.49    -0.235 N 
ATOM      9  HH  ARG D 557     -26.284  -3.181 -15.131  1.00 35.49     0.174 HD
ATOM     10  HH  ARG D 557     -25.387  -3.881 -14.178  1.00 35.49     0.174 HD
ATOM     11  HH  ARG D 557     -23.517  -1.341 -13.398  1.00 35.49     0.174 HD
ATOM     12  HH  ARG D 557     -23.723  -2.788 -13.130  1.00 35.49     0.174 HD
ATOM     13  HE  ARG D 557     -24.791  -0.239 -14.674  1.00 35.49     0.178 HD
ENDBRANCH   4   5
ENDBRANCH   3   4
ENDBRANCH   2   3
ENDBRANCH   1   2
END_RES ARG D 557
BEGIN_RES GLU D 570
REMARK  3 active torsions:
REMARK  status: ('A' for Active; 'I' for Inactive)
REMARK    5  A    between atoms: CA   and  CB  
REMARK    6  A    between atoms: CB   and  CG  
REMARK    7  A    between atoms: CG   and  CD  
ROOT
ATOM     14  CA  GLU D 570     -18.033  -6.348 -13.375  1.00 32.92     0.160 C 
ENDROOT
BRANCH  14  15
ATOM     15  CB  GLU D 570     -19.500  -6.345 -13.794  1.00 32.92     0.043 C 
BRANCH  15  16
ATOM     16  CG  GLU D 570     -20.449  -5.567 -12.957  1.00 32.92     0.100 C 
BRANCH  16  17
ATOM     17  CD  GLU D 570     -21.677  -5.121 -13.717  1.00 32.92     0.185 C 
ATOM     18  OE1 GLU D 570     -22.717  -4.856 -13.085  1.00 32.92    -0.647 OA
ATOM     19  OE2 GLU D 570     -21.602  -5.052 -14.960  1.00 32.92    -0.647 OA
ENDBRANCH  16  17
ENDBRANCH  15  16
ENDBRANCH  14  15
END_RES GLU D 570
ENDMDL
MODEL 7
REMARK VINA RESULT:      -5.2      7.434      9.706
REMARK  6 active torsions:
REMARK  status: ('A' for Active; 'I' for Inactive)
REMARK    1  A    between atoms: C_1  and  C_2 
REMARK    2  A    between atoms: C_1  and  C_7 
REMARK    3  A    between atoms: C_2  and  C_3 
REMARK    4  A    between atoms: C_2  and  O_6 
REMARK    5  A    between atoms: C_3  and  O_5 
REMARK    6  A    between atoms: C_7  and  O_9 
ROOT
HETATM    1  C   UNL     1     -36.328   0.014 -14.980  1.00  0.00     0.225 C 
ENDROOT
BRANCH   1   2
HETATM    2  C   UNL     1     -35.164   0.486 -14.118  1.00  0.00     0.152 C 
BRANCH   2   3
HETATM    3  C   UNL     1     -35.073  -0.311 -12.851  1.00  0.00     0.142 C 
HETATM    4  O   UNL     1     -35.334   0.142 -11.745  1.00  0.00    -0.650 OA
BRANCH   3   5
HETATM    5  O   UNL     1     -34.636  -1.571 -13.042  1.00  0.00    -0.776 OA
HETATM    6  H   UNL     1     -35.309  -2.187 -13.392  1.00  0.00     0.167 HD
ENDBRANCH   3   5
ENDBRANCH   2   3
ENDBRANCH   1   2
BRANCH   1   7
HETATM    7  C   UNL     1     -35.863  -0.790 -16.200  1.00  0.00     0.170 C 
HETATM    8  O   UNL     1     -34.844  -1.474 -16.169  1.00  0.00    -0.648 OA
BRANCH   7   9
HETATM    9  O   UNL     1     -36.642  -0.708 -17.297  1.00  0.00    -0.775 OA
HETATM   10  H   UNL     1     -36.501  -1.423 -17.968  1.00  0.00     0.167 HD
ENDBRANCH   7   9
ENDBRANCH   1   7
BRANCH   1  11
HETATM   11  O   UNL     1     -37.142  -0.822 -14.141  1.00  0.00    -0.384 OA
HETATM   12  H   UNL     1     -37.160  -1.708 -14.562  1.00  0.00     0.210 HD
ENDBRANCH   1  11
TORSDOF 6
BEGIN_RES ARG D 557
REMARK  4 active torsions:
REMARK  status: ('A' for Active; 'I' for Inactive)
REMARK    1  A    between atoms: CA   and  CB  
REMARK    2  A    between atoms: CB   and  CG  
REMARK    3  A    between atoms: CG   and  CD  
REMARK    4  A    between atoms: CD   and  NE  
REMARK       I    between atoms: NE   and  CZ  
REMARK       I    between atoms: CZ   and  NH1 
REMARK       I    between atoms: CZ   and  NH2 
ROOT
ATOM      1  CA  ARG D 557     -26.217   2.705 -17.014  1.00 35.49     0.159 C 
ENDROOT
BRANCH   1   2
ATOM      2  CB  ARG D 557     -26.789   1.319 -17.183  1.00 35.49     0.034 C 
BRANCH   2   3
ATOM      3  CG  ARG D 557     -25.836   0.203 -17.152  1.00 35.49     0.027 C 
BRANCH   3   4
ATOM      4  CD  ARG D 557     -24.754   0.412 -16.162  1.00 35.49     0.116 C 
BRANCH   4   5
ATOM      5  NE  ARG D 557     -24.899  -0.442 -15.013  1.00 35.49    -0.212 N 
ATOM      6  CZ  ARG D 557     -24.078  -1.409 -14.666  1.00 35.49     0.666 C 
ATOM      7  NH1 ARG D 557     -23.005  -1.715 -15.372  1.00 35.49    -0.235 N 
ATOM      8  NH2 ARG D 557     -24.353  -2.069 -13.579  1.00 35.49    -0.235 N 
ATOM      9  HH  ARG D 557     -22.804  -1.293 -16.090  1.00 35.49     0.174 HD
ATOM     10  HH  ARG D 557     -22.505  -2.354 -15.096  1.00 35.49     0.174 HD
ATOM     11  HH  ARG D 557     -25.049  -1.844 -13.139  1.00 35.49     0.174 HD
ATOM     12  HH  ARG D 557     -23.845  -2.697 -13.321  1.00 35.49     0.174 HD
ATOM     13  HE  ARG D 557     -25.602  -0.362 -14.541  1.00 35.49     0.178 HD
ENDBRANCH   4   5
ENDBRANCH   3   4
ENDBRANCH   2   3
ENDBRANCH   1   2
END_RES ARG D 557
BEGIN_RES GLU D 570
REMARK  3 active torsions:
REMARK  status: ('A' for Active; 'I' for Inactive)
REMARK    5  A    between atoms: CA   and  CB  
REMARK    6  A    between atoms: CB   and  CG  
REMARK    7  A    between atoms: CG   and  CD  
ROOT
ATOM     14  CA  GLU D 570     -18.033  -6.348 -13.375  1.00 32.92     0.160 C 
ENDROOT
BRANCH  14  15
ATOM     15  CB  GLU D 570     -19.500  -6.345 -13.794  1.00 32.92     0.043 C 
BRANCH  15  16
ATOM     16  CG  GLU D 570     -20.439  -5.518 -12.993  1.00 32.92     0.100 C 
BRANCH  16  17
ATOM     17  CD  GLU D 570     -21.742  -5.247 -13.708  1.00 32.92     0.185 C 
ATOM     18  OE1 GLU D 570     -22.205  -6.114 -14.473  1.00 32.92    -0.647 OA
ATOM     19  OE2 GLU D 570     -22.298  -4.148 -13.513  1.00 32.92    -0.647 OA
ENDBRANCH  16  17
ENDBRANCH  15  16
ENDBRANCH  14  15
END_RES GLU D 570
ENDMDL
MODEL 8
REMARK VINA RESULT:      -5.2      1.299      2.823
REMARK  6 active torsions:
REMARK  status: ('A' for Active; 'I' for Inactive)
REMARK    1  A    between atoms: C_1  and  C_2 
REMARK    2  A    between atoms: C_1  and  C_7 
REMARK    3  A    between atoms: C_2  and  C_3 
REMARK    4  A    between atoms: C_2  and  O_6 
REMARK    5  A    between atoms: C_3  and  O_5 
REMARK    6  A    between atoms: C_7  and  O_9 
ROOT
HETATM    1  C   UNL     1     -22.707  -4.442  -9.041  1.00  0.00     0.225 C 
ENDROOT
BRANCH   1   2
HETATM    2  C   UNL     1     -23.780  -4.742 -10.079  1.00  0.00     0.152 C 
BRANCH   2   3
HETATM    3  C   UNL     1     -24.595  -3.520 -10.382  1.00  0.00     0.142 C 
HETATM    4  O   UNL     1     -25.675  -3.279  -9.861  1.00  0.00    -0.650 OA
BRANCH   3   5
HETATM    5  O   UNL     1     -24.040  -2.726 -11.318  1.00  0.00    -0.776 OA
HETATM    6  H   UNL     1     -23.342  -3.153 -11.853  1.00  0.00     0.167 HD
ENDBRANCH   3   5
ENDBRANCH   2   3
ENDBRANCH   1   2
BRANCH   1   7
HETATM    7  C   UNL     1     -21.330  -4.209  -9.673  1.00  0.00     0.170 C 
HETATM    8  O   UNL     1     -20.336  -4.821  -9.290  1.00  0.00    -0.648 OA
BRANCH   7   9
HETATM    9  O   UNL     1     -21.281  -3.308 -10.673  1.00  0.00    -0.775 OA
HETATM   10  H   UNL     1     -21.154  -3.689 -11.578  1.00  0.00     0.167 HD
ENDBRANCH   7   9
ENDBRANCH   1   7
BRANCH   1  11
HETATM   11  O   UNL     1     -23.126  -3.249  -8.357  1.00  0.00    -0.384 OA
HETATM   12  H   UNL     1     -23.793  -3.527  -7.693  1.00  0.00     0.210 HD
ENDBRANCH   1  11
TORSDOF 6
BEGIN_RES ARG D 557
REMARK  4 active torsions:
REMARK  status: ('A' for Active; 'I' for Inactive)
REMARK    1  A    between atoms: CA   and  CB  
REMARK    2  A    between atoms: CB   and  CG  
REMARK    3  A    between atoms: CG   and  CD  
REMARK    4  A    between atoms: CD   and  NE  
REMARK       I    between atoms: NE   and  CZ  
REMARK       I    between atoms: CZ   and  NH1 
REMARK       I    between atoms: CZ   and  NH2 
ROOT
ATOM      1  CA  ARG D 557     -26.217   2.705 -17.014  1.00 35.49     0.159 C 
ENDROOT
BRANCH   1   2
ATOM      2  CB  ARG D 557     -26.789   1.319 -17.183  1.00 35.49     0.034 C 
BRANCH   2   3
ATOM      3  CG  ARG D 557     -25.840   0.201 -17.126  1.00 35.49     0.027 C 
BRANCH   3   4
ATOM      4  CD  ARG D 557     -25.311  -0.021 -15.761  1.00 35.49     0.116 C 
BRANCH   4   5
ATOM      5  NE  ARG D 557     -25.661  -1.319 -15.247  1.00 35.49    -0.212 N 
ATOM      6  CZ  ARG D 557     -24.915  -2.062 -14.461  1.00 35.49     0.666 C 
ATOM      7  NH1 ARG D 557     -23.715  -1.684 -14.058  1.00 35.49    -0.235 N 
ATOM      8  NH2 ARG D 557     -25.402  -3.205 -14.074  1.00 35.49    -0.235 N 
ATOM      9  HH  ARG D 557     -23.376  -0.935 -14.299  1.00 35.49     0.174 HD
ATOM     10  HH  ARG D 557     -23.275  -2.209 -13.544  1.00 35.49     0.174 HD
ATOM     11  HH  ARG D 557     -26.182  -3.419 -14.344  1.00 35.49     0.174 HD
ATOM     12  HH  ARG D 557     -24.952  -3.709 -13.564  1.00 35.49     0.174 HD
ATOM     13  HE  ARG D 557     -26.387  -1.671 -15.515  1.00 35.49     0.178 HD
ENDBRANCH   4   5
ENDBRANCH   3   4
ENDBRANCH   2   3
ENDBRANCH   1   2
END_RES ARG D 557
BEGIN_RES GLU D 570
REMARK  3 active torsions:
REMARK  status: ('A' for Active; 'I' for Inactive)
REMARK    5  A    between atoms: CA   and  CB  
REMARK    6  A    between atoms: CB   and  CG  
REMARK    7  A    between atoms: CG   and  CD  
ROOT
ATOM     14  CA  GLU D 570     -18.033  -6.348 -13.375  1.00 32.92     0.160 C 
ENDROOT
BRANCH  14  15
ATOM     15  CB  GLU D 570     -19.500  -6.345 -13.794  1.00 32.92     0.043 C 
BRANCH  15  16
ATOM     16  CG  GLU D 570     -20.441  -5.527 -12.986  1.00 32.92     0.100 C 
BRANCH  16  17
ATOM     17  CD  GLU D 570     -21.657  -5.085 -13.766  1.00 32.92     0.185 C 
ATOM     18  OE1 GLU D 570     -22.473  -4.313 -13.228  1.00 32.92    -0.647 OA
ATOM     19  OE2 GLU D 570     -21.803  -5.529 -14.922  1.00 32.92    -0.647 OA
ENDBRANCH  16  17
ENDBRANCH  15  16
ENDBRANCH  14  15
END_RES GLU D 570
ENDMDL
MODEL 9
REMARK VINA RESULT:      -5.2      2.205      3.394
REMARK  6 active torsions:
REMARK  status: ('A' for Active; 'I' for Inactive)
REMARK    1  A    between atoms: C_1  and  C_2 
REMARK    2  A    between atoms: C_1  and  C_7 
REMARK    3  A    between atoms: C_2  and  C_3 
REMARK    4  A    between atoms: C_2  and  O_6 
REMARK    5  A    between atoms: C_3  and  O_5 
REMARK    6  A    between atoms: C_7  and  O_9 
ROOT
HETATM    1  C   UNL     1     -23.040  -2.474 -13.265  1.00  0.00     0.225 C 
ENDROOT
BRANCH   1   2
HETATM    2  C   UNL     1     -22.367  -3.638 -12.551  1.00  0.00     0.152 C 
BRANCH   2   3
HETATM    3  C   UNL     1     -23.351  -4.728 -12.246  1.00  0.00     0.142 C 
HETATM    4  O   UNL     1     -23.827  -4.921 -11.136  1.00  0.00    -0.650 OA
BRANCH   3   5
HETATM    5  O   UNL     1     -23.636  -5.503 -13.311  1.00  0.00    -0.776 OA
HETATM    6  H   UNL     1     -24.576  -5.501 -13.577  1.00  0.00     0.167 HD
ENDBRANCH   3   5
ENDBRANCH   2   3
ENDBRANCH   1   2
BRANCH   1   7
HETATM    7  C   UNL     1     -22.873  -2.545 -14.787  1.00  0.00     0.170 C 
HETATM    8  O   UNL     1     -22.367  -3.522 -15.332  1.00  0.00    -0.648 OA
BRANCH   7   9
HETATM    9  O   UNL     1     -23.320  -1.483 -15.484  1.00  0.00    -0.775 OA
HETATM   10  H   UNL     1     -24.289  -1.296 -15.392  1.00  0.00     0.167 HD
ENDBRANCH   7   9
ENDBRANCH   1   7
BRANCH   1  11
HETATM   11  O   UNL     1     -24.437  -2.548 -12.935  1.00  0.00    -0.384 OA
HETATM   12  H   UNL     1     -24.487  -2.731 -11.972  1.00  0.00     0.210 HD
ENDBRANCH   1  11
TORSDOF 6
BEGIN_RES ARG D 557
REMARK  4 active torsions:
REMARK  status: ('A' for Active; 'I' for Inactive)
REMARK    1  A    between atoms: CA   and  CB  
REMARK    2  A    between atoms: CB   and  CG  
REMARK    3  A    between atoms: CG   and  CD  
REMARK    4  A    between atoms: CD   and  NE  
REMARK       I    between atoms: NE   and  CZ  
REMARK       I    between atoms: CZ   and  NH1 
REMARK       I    between atoms: CZ   and  NH2 
ROOT
ATOM      1  CA  ARG D 557     -26.217   2.705 -17.014  1.00 35.49     0.159 C 
ENDROOT
BRANCH   1   2
ATOM      2  CB  ARG D 557     -26.789   1.319 -17.183  1.00 35.49     0.034 C 
BRANCH   2   3
ATOM      3  CG  ARG D 557     -26.125   0.236 -16.447  1.00 35.49     0.027 C 
BRANCH   3   4
ATOM      4  CD  ARG D 557     -27.022  -0.919 -16.212  1.00 35.49     0.116 C 
BRANCH   4   5
ATOM      5  NE  ARG D 557     -26.361  -1.983 -15.503  1.00 35.49    -0.212 N 
ATOM      6  CZ  ARG D 557     -26.682  -3.256 -15.556  1.00 35.49     0.666 C 
ATOM      7  NH1 ARG D 557     -27.690  -3.704 -16.281  1.00 35.49    -0.235 N 
ATOM      8  NH2 ARG D 557     -25.959  -4.087 -14.862  1.00 35.49    -0.235 N 
ATOM      9  HH  ARG D 557     -28.178  -3.176 -16.746  1.00 35.49     0.174 HD
ATOM     10  HH  ARG D 557     -27.851  -4.546 -16.278  1.00 35.49     0.174 HD
ATOM     11  HH  ARG D 557     -25.309  -3.770 -14.409  1.00 35.49     0.174 HD
ATOM     12  HH  ARG D 557     -26.133  -4.916 -14.874  1.00 35.49     0.174 HD
ATOM     13  HE  ARG D 557     -25.745  -1.775 -14.955  1.00 35.49     0.178 HD
ENDBRANCH   4   5
ENDBRANCH   3   4
ENDBRANCH   2   3
ENDBRANCH   1   2
END_RES ARG D 557
BEGIN_RES GLU D 570
REMARK  3 active torsions:
REMARK  status: ('A' for Active; 'I' for Inactive)
REMARK    5  A    between atoms: CA   and  CB  
REMARK    6  A    between atoms: CB   and  CG  
REMARK    7  A    between atoms: CG   and  CD  
ROOT
ATOM     14  CA  GLU D 570     -18.033  -6.348 -13.375  1.00 32.92     0.160 C 
ENDROOT
BRANCH  14  15
ATOM     15  CB  GLU D 570     -19.500  -6.345 -13.794  1.00 32.92     0.043 C 
BRANCH  15  16
ATOM     16  CG  GLU D 570     -20.125  -7.656 -14.109  1.00 32.92     0.100 C 
BRANCH  16  17
ATOM     17  CD  GLU D 570     -21.005  -7.609 -15.336  1.00 32.92     0.185 C 
ATOM     18  OE1 GLU D 570     -20.762  -8.380 -16.285  1.00 32.92    -0.647 OA
ATOM     19  OE2 GLU D 570     -21.937  -6.782 -15.356  1.00 32.92    -0.647 OA
ENDBRANCH  16  17
ENDBRANCH  15  16
ENDBRANCH  14  15
END_RES GLU D 570
ENDMDL
