MODEL 1
REMARK VINA RESULT:      -7.4      0.000      0.000
REMARK  25 active torsions:
REMARK  status: ('A' for Active; 'I' for Inactive)
REMARK    1  A    between atoms: C_2  and  C_3 
REMARK    2  A    between atoms: C_3  and  C_4 
REMARK    3  A    between atoms: C_4  and  C_5 
REMARK    4  A    between atoms: C_5  and  C_6 
REMARK    5  A    between atoms: C_6  and  C_7 
REMARK    6  A    between atoms: C_7  and  C_8 
REMARK    7  A    between atoms: C_8  and  C_9 
REMARK    8  A    between atoms: C_9  and  C_10 
REMARK    9  A    between atoms: C_10  and  O_11 
REMARK   10  A    between atoms: O_11  and  C_12 
REMARK   11  A    between atoms: C_12  and  C_14 
REMARK   12  A    between atoms: C_14  and  C_15 
REMARK   13  A    between atoms: C_15  and  C_16 
REMARK   14  A    between atoms: C_16  and  C_17 
REMARK   15  A    between atoms: C_17  and  C_18 
REMARK   16  A    between atoms: C_18  and  C_19 
REMARK   17  A    between atoms: C_19  and  C_20 
REMARK   18  A    between atoms: C_20  and  C_21 
REMARK   19  A    between atoms: C_22  and  C_23 
REMARK   20  A    between atoms: C_23  and  C_24 
REMARK   21  A    between atoms: C_24  and  C_25 
REMARK   22  A    between atoms: C_25  and  C_26 
REMARK   23  A    between atoms: C_26  and  C_27 
REMARK   24  A    between atoms: C_27  and  C_28 
REMARK   25  A    between atoms: C_28  and  C_29 
ROOT
HETATM    1  C   UNL     1     -23.287  -5.114 -12.404  1.00  0.00     0.010 C 
ENDROOT
BRANCH   1   2
HETATM    2  C   UNL     1     -23.018  -5.349 -13.888  1.00  0.00     0.111 C 
BRANCH   2   3
HETATM    3  C   UNL     1     -24.275  -5.732 -14.626  1.00  0.00     0.258 C 
HETATM    4  O   UNL     1     -24.642  -6.869 -14.881  1.00  0.00    -0.265 OA
BRANCH   3   5
HETATM    5  O   UNL     1     -24.876  -4.598 -15.080  1.00  0.00    -0.321 OA
BRANCH   5   6
HETATM    6  C   UNL     1     -26.296  -4.714 -15.139  1.00  0.00     0.178 C 
BRANCH   6   7
HETATM    7  C   UNL     1     -26.948  -3.430 -15.627  1.00  0.00     0.027 C 
BRANCH   7   8
HETATM    8  C   UNL     1     -27.955  -3.743 -16.732  1.00  0.00     0.002 C 
BRANCH   8   9
HETATM    9  C   UNL     1     -28.827  -4.936 -16.361  1.00  0.00     0.000 C 
BRANCH   9  10
HETATM   10  C   UNL     1     -28.497  -6.142 -17.233  1.00  0.00     0.000 C 
BRANCH  10  11
HETATM   11  C   UNL     1     -28.600  -5.780 -18.710  1.00  0.00     0.000 C 
BRANCH  11  12
HETATM   12  C   UNL     1     -27.371  -6.264 -19.472  1.00  0.00     0.000 C 
BRANCH  12  13
HETATM   13  C   UNL     1     -26.187  -6.424 -18.528  1.00  0.00    -0.000 C 
BRANCH  13  14
HETATM   14  C   UNL     1     -24.959  -6.933 -19.275  1.00  0.00    -0.005 C 
HETATM   15  C   UNL     1     -25.225  -6.995 -20.769  1.00  0.00     0.005 C 
ENDBRANCH  13  14
ENDBRANCH  12  13
ENDBRANCH  11  12
ENDBRANCH  10  11
ENDBRANCH   9  10
ENDBRANCH   8   9
ENDBRANCH   7   8
ENDBRANCH   6   7
ENDBRANCH   5   6
ENDBRANCH   3   5
ENDBRANCH   2   3
ENDBRANCH   1   2
BRANCH   1  16
HETATM   16  C   UNL     1     -22.128  -4.415 -11.697  1.00  0.00     0.000 C 
BRANCH  16  17
HETATM   17  C   UNL     1     -22.552  -3.860 -10.340  1.00  0.00     0.000 C 
BRANCH  17  18
HETATM   18  C   UNL     1     -21.936  -4.652  -9.199  1.00  0.00     0.000 C 
BRANCH  18  19
HETATM   19  C   UNL     1     -20.480  -4.250  -9.005  1.00  0.00     0.004 C 
BRANCH  19  20
HETATM   20  C   UNL     1     -20.107  -4.330  -7.535  1.00  0.00     0.027 C 
BRANCH  20  21
HETATM   21  C   UNL     1     -20.139  -5.745  -7.064  1.00  0.00    -0.031 C 
HETATM   22  C   UNL     1     -20.412  -6.082  -5.796  1.00  0.00    -0.031 C 
BRANCH  22  23
HETATM   23  C   UNL     1     -20.440  -7.494  -5.326  1.00  0.00     0.027 C 
BRANCH  23  24
HETATM   24  C   UNL     1     -21.318  -7.619  -4.083  1.00  0.00     0.004 C 
BRANCH  24  25
HETATM   25  C   UNL     1     -21.892  -6.262  -3.710  1.00  0.00     0.000 C 
BRANCH  25  26
HETATM   26  C   UNL     1     -21.968  -6.118  -2.194  1.00  0.00     0.000 C 
BRANCH  26  27
HETATM   27  C   UNL     1     -21.653  -7.445  -1.519  1.00  0.00     0.000 C 
BRANCH  27  28
HETATM   28  C   UNL     1     -22.569  -7.660  -0.320  1.00  0.00    -0.000 C 
BRANCH  28  29
HETATM   29  C   UNL     1     -22.819  -9.146  -0.090  1.00  0.00    -0.005 C 
HETATM   30  C   UNL     1     -22.446  -9.950  -1.321  1.00  0.00     0.005 C 
ENDBRANCH  28  29
ENDBRANCH  27  28
ENDBRANCH  26  27
ENDBRANCH  25  26
ENDBRANCH  24  25
ENDBRANCH  23  24
ENDBRANCH  22  23
ENDBRANCH  20  21
ENDBRANCH  19  20
ENDBRANCH  18  19
ENDBRANCH  17  18
ENDBRANCH  16  17
ENDBRANCH   1  16
TORSDOF 25
BEGIN_RES ARG D 557
REMARK  4 active torsions:
REMARK  status: ('A' for Active; 'I' for Inactive)
REMARK    1  A    between atoms: CA   and  CB  
REMARK    2  A    between atoms: CB   and  CG  
REMARK    3  A    between atoms: CG   and  CD  
REMARK    4  A    between atoms: CD   and  NE  
REMARK       I    between atoms: NE   and  CZ  
REMARK       I    between atoms: CZ   and  NH1 
REMARK       I    between atoms: CZ   and  NH2 
ROOT
ATOM      1  CA  ARG D 557     -26.217   2.705 -17.014  1.00 35.49     0.159 C 
ENDROOT
BRANCH   1   2
ATOM      2  CB  ARG D 557     -26.789   1.319 -17.183  1.00 35.49     0.034 C 
BRANCH   2   3
ATOM      3  CG  ARG D 557     -25.837   0.202 -17.143  1.00 35.49     0.027 C 
BRANCH   3   4
ATOM      4  CD  ARG D 557     -24.725   0.443 -16.196  1.00 35.49     0.116 C 
BRANCH   4   5
ATOM      5  NE  ARG D 557     -24.843  -0.358 -15.005  1.00 35.49    -0.212 N 
ATOM      6  CZ  ARG D 557     -24.057  -1.356 -14.670  1.00 35.49     0.666 C 
ATOM      7  NH1 ARG D 557     -23.050  -1.751 -15.427  1.00 35.49    -0.235 N 
ATOM      8  NH2 ARG D 557     -24.299  -1.958 -13.542  1.00 35.49    -0.235 N 
ATOM      9  HH  ARG D 557     -22.871  -1.368 -16.173  1.00 35.49     0.174 HD
ATOM     10  HH  ARG D 557     -22.570  -2.407 -15.156  1.00 35.49     0.174 HD
ATOM     11  HH  ARG D 557     -24.952  -1.677 -13.070  1.00 35.49     0.174 HD
ATOM     12  HH  ARG D 557     -23.811  -2.604 -13.290  1.00 35.49     0.174 HD
ATOM     13  HE  ARG D 557     -25.509  -0.219 -14.496  1.00 35.49     0.178 HD
ENDBRANCH   4   5
ENDBRANCH   3   4
ENDBRANCH   2   3
ENDBRANCH   1   2
END_RES ARG D 557
BEGIN_RES GLU D 570
REMARK  3 active torsions:
REMARK  status: ('A' for Active; 'I' for Inactive)
REMARK    5  A    between atoms: CA   and  CB  
REMARK    6  A    between atoms: CB   and  CG  
REMARK    7  A    between atoms: CG   and  CD  
ROOT
ATOM     14  CA  GLU D 570     -18.033  -6.348 -13.375  1.00 32.92     0.160 C 
ENDROOT
BRANCH  14  15
ATOM     15  CB  GLU D 570     -19.500  -6.345 -13.794  1.00 32.92     0.043 C 
BRANCH  15  16
ATOM     16  CG  GLU D 570     -19.796  -6.285 -15.249  1.00 32.92     0.100 C 
BRANCH  16  17
ATOM     17  CD  GLU D 570     -20.684  -7.415 -15.716  1.00 32.92     0.185 C 
ATOM     18  OE1 GLU D 570     -21.506  -7.201 -16.628  1.00 32.92    -0.647 OA
ATOM     19  OE2 GLU D 570     -20.568  -8.521 -15.153  1.00 32.92    -0.647 OA
ENDBRANCH  16  17
ENDBRANCH  15  16
ENDBRANCH  14  15
END_RES GLU D 570
ENDMDL
MODEL 2
REMARK VINA RESULT:      -7.3      2.199     11.687
REMARK  25 active torsions:
REMARK  status: ('A' for Active; 'I' for Inactive)
REMARK    1  A    between atoms: C_2  and  C_3 
REMARK    2  A    between atoms: C_3  and  C_4 
REMARK    3  A    between atoms: C_4  and  C_5 
REMARK    4  A    between atoms: C_5  and  C_6 
REMARK    5  A    between atoms: C_6  and  C_7 
REMARK    6  A    between atoms: C_7  and  C_8 
REMARK    7  A    between atoms: C_8  and  C_9 
REMARK    8  A    between atoms: C_9  and  C_10 
REMARK    9  A    between atoms: C_10  and  O_11 
REMARK   10  A    between atoms: O_11  and  C_12 
REMARK   11  A    between atoms: C_12  and  C_14 
REMARK   12  A    between atoms: C_14  and  C_15 
REMARK   13  A    between atoms: C_15  and  C_16 
REMARK   14  A    between atoms: C_16  and  C_17 
REMARK   15  A    between atoms: C_17  and  C_18 
REMARK   16  A    between atoms: C_18  and  C_19 
REMARK   17  A    between atoms: C_19  and  C_20 
REMARK   18  A    between atoms: C_20  and  C_21 
REMARK   19  A    between atoms: C_22  and  C_23 
REMARK   20  A    between atoms: C_23  and  C_24 
REMARK   21  A    between atoms: C_24  and  C_25 
REMARK   22  A    between atoms: C_25  and  C_26 
REMARK   23  A    between atoms: C_26  and  C_27 
REMARK   24  A    between atoms: C_27  and  C_28 
REMARK   25  A    between atoms: C_28  and  C_29 
ROOT
HETATM    1  C   UNL     1     -20.940  -4.063  -6.707  1.00  0.00     0.010 C 
ENDROOT
BRANCH   1   2
HETATM    2  C   UNL     1     -20.749  -5.219  -5.728  1.00  0.00     0.111 C 
BRANCH   2   3
HETATM    3  C   UNL     1     -20.310  -6.477  -6.432  1.00  0.00     0.258 C 
HETATM    4  O   UNL     1     -19.366  -6.579  -7.201  1.00  0.00    -0.265 OA
BRANCH   3   5
HETATM    5  O   UNL     1     -21.218  -7.458  -6.176  1.00  0.00    -0.321 OA
BRANCH   5   6
HETATM    6  C   UNL     1     -21.965  -7.219  -4.985  1.00  0.00     0.178 C 
BRANCH   6   7
HETATM    7  C   UNL     1     -21.854  -8.377  -4.007  1.00  0.00     0.027 C 
BRANCH   7   8
HETATM    8  C   UNL     1     -20.858  -8.034  -2.901  1.00  0.00     0.002 C 
BRANCH   8   9
HETATM    9  C   UNL     1     -21.145  -6.660  -2.308  1.00  0.00     0.000 C 
BRANCH   9  10
HETATM   10  C   UNL     1     -22.315  -6.722  -1.332  1.00  0.00     0.000 C 
BRANCH  10  11
HETATM   11  C   UNL     1     -21.979  -7.625  -0.150  1.00  0.00     0.000 C 
BRANCH  11  12
HETATM   12  C   UNL     1     -23.044  -8.701   0.026  1.00  0.00     0.000 C 
BRANCH  12  13
HETATM   13  C   UNL     1     -22.431 -10.088  -0.120  1.00  0.00    -0.000 C 
BRANCH  13  14
HETATM   14  C   UNL     1     -23.425 -11.059  -0.749  1.00  0.00    -0.005 C 
HETATM   15  C   UNL     1     -23.725 -12.209   0.195  1.00  0.00     0.005 C 
ENDBRANCH  13  14
ENDBRANCH  12  13
ENDBRANCH  11  12
ENDBRANCH  10  11
ENDBRANCH   9  10
ENDBRANCH   8   9
ENDBRANCH   7   8
ENDBRANCH   6   7
ENDBRANCH   5   6
ENDBRANCH   3   5
ENDBRANCH   2   3
ENDBRANCH   1   2
BRANCH   1  16
HETATM   16  C   UNL     1     -22.216  -4.195  -7.535  1.00  0.00     0.000 C 
BRANCH  16  17
HETATM   17  C   UNL     1     -22.014  -3.690  -8.960  1.00  0.00     0.000 C 
BRANCH  17  18
HETATM   18  C   UNL     1     -20.681  -4.149  -9.528  1.00  0.00     0.000 C 
BRANCH  18  19
HETATM   19  C   UNL     1     -20.721  -4.128 -11.050  1.00  0.00     0.004 C 
BRANCH  19  20
HETATM   20  C   UNL     1     -22.076  -3.639 -11.530  1.00  0.00     0.027 C 
BRANCH  20  21
HETATM   21  C   UNL     1     -22.874  -4.771 -12.085  1.00  0.00    -0.031 C 
HETATM   22  C   UNL     1     -22.883  -5.081 -13.389  1.00  0.00    -0.031 C 
BRANCH  22  23
HETATM   23  C   UNL     1     -23.681  -6.209 -13.942  1.00  0.00     0.027 C 
BRANCH  23  24
HETATM   24  C   UNL     1     -24.227  -5.842 -15.320  1.00  0.00     0.004 C 
BRANCH  24  25
HETATM   25  C   UNL     1     -25.174  -6.924 -15.811  1.00  0.00     0.000 C 
BRANCH  25  26
HETATM   26  C   UNL     1     -26.043  -6.392 -16.946  1.00  0.00     0.000 C 
BRANCH  26  27
HETATM   27  C   UNL     1     -27.399  -5.951 -16.412  1.00  0.00     0.000 C 
BRANCH  27  28
HETATM   28  C   UNL     1     -28.056  -4.973 -17.380  1.00  0.00    -0.000 C 
BRANCH  28  29
HETATM   29  C   UNL     1     -28.300  -3.628 -16.707  1.00  0.00    -0.005 C 
HETATM   30  C   UNL     1     -27.099  -3.220 -15.873  1.00  0.00     0.005 C 
ENDBRANCH  28  29
ENDBRANCH  27  28
ENDBRANCH  26  27
ENDBRANCH  25  26
ENDBRANCH  24  25
ENDBRANCH  23  24
ENDBRANCH  22  23
ENDBRANCH  20  21
ENDBRANCH  19  20
ENDBRANCH  18  19
ENDBRANCH  17  18
ENDBRANCH  16  17
ENDBRANCH   1  16
TORSDOF 25
BEGIN_RES ARG D 557
REMARK  4 active torsions:
REMARK  status: ('A' for Active; 'I' for Inactive)
REMARK    1  A    between atoms: CA   and  CB  
REMARK    2  A    between atoms: CB   and  CG  
REMARK    3  A    between atoms: CG   and  CD  
REMARK    4  A    between atoms: CD   and  NE  
REMARK       I    between atoms: NE   and  CZ  
REMARK       I    between atoms: CZ   and  NH1 
REMARK       I    between atoms: CZ   and  NH2 
ROOT
ATOM      1  CA  ARG D 557     -26.217   2.705 -17.014  1.00 35.49     0.159 C 
ENDROOT
BRANCH   1   2
ATOM      2  CB  ARG D 557     -26.789   1.319 -17.183  1.00 35.49     0.034 C 
BRANCH   2   3
ATOM      3  CG  ARG D 557     -25.832   0.206 -17.194  1.00 35.49     0.027 C 
BRANCH   3   4
ATOM      4  CD  ARG D 557     -24.721   0.408 -16.237  1.00 35.49     0.116 C 
BRANCH   4   5
ATOM      5  NE  ARG D 557     -24.879  -0.387 -15.047  1.00 35.49    -0.212 N 
ATOM      6  CZ  ARG D 557     -24.083  -1.360 -14.662  1.00 35.49     0.666 C 
ATOM      7  NH1 ARG D 557     -23.026  -1.730 -15.361  1.00 35.49    -0.235 N 
ATOM      8  NH2 ARG D 557     -24.367  -1.960 -13.543  1.00 35.49    -0.235 N 
ATOM      9  HH  ARG D 557     -22.819  -1.347 -16.099  1.00 35.49     0.174 HD
ATOM     10  HH  ARG D 557     -22.541  -2.369 -15.059  1.00 35.49     0.174 HD
ATOM     11  HH  ARG D 557     -25.052  -1.695 -13.109  1.00 35.49     0.174 HD
ATOM     12  HH  ARG D 557     -23.875  -2.590 -13.260  1.00 35.49     0.174 HD
ATOM     13  HE  ARG D 557     -25.575  -0.265 -14.575  1.00 35.49     0.178 HD
ENDBRANCH   4   5
ENDBRANCH   3   4
ENDBRANCH   2   3
ENDBRANCH   1   2
END_RES ARG D 557
BEGIN_RES GLU D 570
REMARK  3 active torsions:
REMARK  status: ('A' for Active; 'I' for Inactive)
REMARK    5  A    between atoms: CA   and  CB  
REMARK    6  A    between atoms: CB   and  CG  
REMARK    7  A    between atoms: CG   and  CD  
ROOT
ATOM     14  CA  GLU D 570     -18.033  -6.348 -13.375  1.00 32.92     0.160 C 
ENDROOT
BRANCH  14  15
ATOM     15  CB  GLU D 570     -19.500  -6.345 -13.794  1.00 32.92     0.043 C 
BRANCH  15  16
ATOM     16  CG  GLU D 570     -19.809  -5.992 -15.204  1.00 32.92     0.100 C 
BRANCH  16  17
ATOM     17  CD  GLU D 570     -20.659  -7.029 -15.899  1.00 32.92     0.185 C 
ATOM     18  OE1 GLU D 570     -21.198  -6.741 -16.985  1.00 32.92    -0.647 OA
ATOM     19  OE2 GLU D 570     -20.802  -8.136 -15.343  1.00 32.92    -0.647 OA
ENDBRANCH  16  17
ENDBRANCH  15  16
ENDBRANCH  14  15
END_RES GLU D 570
ENDMDL
MODEL 3
REMARK VINA RESULT:      -7.2      2.142      3.812
REMARK  25 active torsions:
REMARK  status: ('A' for Active; 'I' for Inactive)
REMARK    1  A    between atoms: C_2  and  C_3 
REMARK    2  A    between atoms: C_3  and  C_4 
REMARK    3  A    between atoms: C_4  and  C_5 
REMARK    4  A    between atoms: C_5  and  C_6 
REMARK    5  A    between atoms: C_6  and  C_7 
REMARK    6  A    between atoms: C_7  and  C_8 
REMARK    7  A    between atoms: C_8  and  C_9 
REMARK    8  A    between atoms: C_9  and  C_10 
REMARK    9  A    between atoms: C_10  and  O_11 
REMARK   10  A    between atoms: O_11  and  C_12 
REMARK   11  A    between atoms: C_12  and  C_14 
REMARK   12  A    between atoms: C_14  and  C_15 
REMARK   13  A    between atoms: C_15  and  C_16 
REMARK   14  A    between atoms: C_16  and  C_17 
REMARK   15  A    between atoms: C_17  and  C_18 
REMARK   16  A    between atoms: C_18  and  C_19 
REMARK   17  A    between atoms: C_19  and  C_20 
REMARK   18  A    between atoms: C_20  and  C_21 
REMARK   19  A    between atoms: C_22  and  C_23 
REMARK   20  A    between atoms: C_23  and  C_24 
REMARK   21  A    between atoms: C_24  and  C_25 
REMARK   22  A    between atoms: C_25  and  C_26 
REMARK   23  A    between atoms: C_26  and  C_27 
REMARK   24  A    between atoms: C_27  and  C_28 
REMARK   25  A    between atoms: C_28  and  C_29 
ROOT
HETATM    1  C   UNL     1     -23.162  -4.165  -8.624  1.00  0.00     0.010 C 
ENDROOT
BRANCH   1   2
HETATM    2  C   UNL     1     -23.179  -4.255 -10.148  1.00  0.00     0.111 C 
BRANCH   2   3
HETATM    3  C   UNL     1     -24.268  -3.400 -10.743  1.00  0.00     0.258 C 
HETATM    4  O   UNL     1     -25.439  -3.381 -10.395  1.00  0.00    -0.265 OA
BRANCH   3   5
HETATM    5  O   UNL     1     -23.764  -2.742 -11.823  1.00  0.00    -0.321 OA
BRANCH   5   6
HETATM    6  C   UNL     1     -23.971  -3.451 -13.044  1.00  0.00     0.178 C 
BRANCH   6   7
HETATM    7  C   UNL     1     -22.681  -3.599 -13.835  1.00  0.00     0.027 C 
BRANCH   7   8
HETATM    8  C   UNL     1     -22.767  -4.819 -14.750  1.00  0.00     0.002 C 
BRANCH   8   9
HETATM    9  C   UNL     1     -23.945  -5.708 -14.374  1.00  0.00     0.000 C 
BRANCH   9  10
HETATM   10  C   UNL     1     -24.420  -6.520 -15.574  1.00  0.00     0.000 C 
BRANCH  10  11
HETATM   11  C   UNL     1     -25.922  -6.771 -15.491  1.00  0.00     0.000 C 
BRANCH  11  12
HETATM   12  C   UNL     1     -26.665  -5.947 -16.536  1.00  0.00     0.000 C 
BRANCH  12  13
HETATM   13  C   UNL     1     -28.154  -6.265 -16.507  1.00  0.00    -0.000 C 
BRANCH  13  14
HETATM   14  C   UNL     1     -28.671  -6.581 -17.907  1.00  0.00    -0.005 C 
HETATM   15  C   UNL     1     -27.660  -6.168 -18.961  1.00  0.00     0.005 C 
ENDBRANCH  13  14
ENDBRANCH  12  13
ENDBRANCH  11  12
ENDBRANCH  10  11
ENDBRANCH   9  10
ENDBRANCH   8   9
ENDBRANCH   7   8
ENDBRANCH   6   7
ENDBRANCH   5   6
ENDBRANCH   3   5
ENDBRANCH   2   3
ENDBRANCH   1   2
BRANCH   1  16
HETATM   16  C   UNL     1     -21.793  -3.777  -8.070  1.00  0.00     0.000 C 
BRANCH  16  17
HETATM   17  C   UNL     1     -20.876  -4.989  -7.944  1.00  0.00     0.000 C 
BRANCH  17  18
HETATM   18  C   UNL     1     -19.792  -4.759  -6.904  1.00  0.00     0.000 C 
BRANCH  18  19
HETATM   19  C   UNL     1     -20.056  -5.613  -5.670  1.00  0.00     0.004 C 
BRANCH  19  20
HETATM   20  C   UNL     1     -21.304  -6.453  -5.874  1.00  0.00     0.027 C 
BRANCH  20  21
HETATM   21  C   UNL     1     -22.020  -6.649  -4.579  1.00  0.00    -0.031 C 
HETATM   22  C   UNL     1     -21.543  -6.196  -3.411  1.00  0.00    -0.031 C 
BRANCH  22  23
HETATM   23  C   UNL     1     -22.257  -6.394  -2.121  1.00  0.00     0.027 C 
BRANCH  23  24
HETATM   24  C   UNL     1     -21.556  -7.467  -1.290  1.00  0.00     0.004 C 
BRANCH  24  25
HETATM   25  C   UNL     1     -22.099  -7.466   0.129  1.00  0.00     0.000 C 
BRANCH  25  26
HETATM   26  C   UNL     1     -21.645  -8.719   0.871  1.00  0.00     0.000 C 
BRANCH  26  27
HETATM   27  C   UNL     1     -21.024  -9.713  -0.100  1.00  0.00     0.000 C 
BRANCH  27  28
HETATM   28  C   UNL     1     -21.846 -10.997  -0.140  1.00  0.00    -0.000 C 
BRANCH  28  29
HETATM   29  C   UNL     1     -22.810 -10.985  -1.321  1.00  0.00    -0.005 C 
HETATM   30  C   UNL     1     -24.168 -11.521  -0.909  1.00  0.00     0.005 C 
ENDBRANCH  28  29
ENDBRANCH  27  28
ENDBRANCH  26  27
ENDBRANCH  25  26
ENDBRANCH  24  25
ENDBRANCH  23  24
ENDBRANCH  22  23
ENDBRANCH  20  21
ENDBRANCH  19  20
ENDBRANCH  18  19
ENDBRANCH  17  18
ENDBRANCH  16  17
ENDBRANCH   1  16
TORSDOF 25
BEGIN_RES ARG D 557
REMARK  4 active torsions:
REMARK  status: ('A' for Active; 'I' for Inactive)
REMARK    1  A    between atoms: CA   and  CB  
REMARK    2  A    between atoms: CB   and  CG  
REMARK    3  A    between atoms: CG   and  CD  
REMARK    4  A    between atoms: CD   and  NE  
REMARK       I    between atoms: NE   and  CZ  
REMARK       I    between atoms: CZ   and  NH1 
REMARK       I    between atoms: CZ   and  NH2 
ROOT
ATOM      1  CA  ARG D 557     -26.217   2.705 -17.014  1.00 35.49     0.159 C 
ENDROOT
BRANCH   1   2
ATOM      2  CB  ARG D 557     -26.789   1.319 -17.183  1.00 35.49     0.034 C 
BRANCH   2   3
ATOM      3  CG  ARG D 557     -28.229   1.227 -17.455  1.00 35.49     0.027 C 
BRANCH   3   4
ATOM      4  CD  ARG D 557     -28.927   0.335 -16.501  1.00 35.49     0.116 C 
BRANCH   4   5
ATOM      5  NE  ARG D 557     -29.322  -0.908 -17.111  1.00 35.49    -0.212 N 
ATOM      6  CZ  ARG D 557     -28.682  -2.051 -17.008  1.00 35.49     0.666 C 
ATOM      7  NH1 ARG D 557     -27.562  -2.178 -16.320  1.00 35.49    -0.235 N 
ATOM      8  NH2 ARG D 557     -29.197  -3.083 -17.611  1.00 35.49    -0.235 N 
ATOM      9  HH  ARG D 557     -27.207  -1.512 -15.914  1.00 35.49     0.174 HD
ATOM     10  HH  ARG D 557     -27.191  -2.949 -16.286  1.00 35.49     0.174 HD
ATOM     11  HH  ARG D 557     -29.925  -2.974 -18.041  1.00 35.49     0.174 HD
ATOM     12  HH  ARG D 557     -28.815  -3.839 -17.564  1.00 35.49     0.174 HD
ATOM     13  HE  ARG D 557     -29.994  -0.901 -17.632  1.00 35.49     0.178 HD
ENDBRANCH   4   5
ENDBRANCH   3   4
ENDBRANCH   2   3
ENDBRANCH   1   2
END_RES ARG D 557
BEGIN_RES GLU D 570
REMARK  3 active torsions:
REMARK  status: ('A' for Active; 'I' for Inactive)
REMARK    5  A    between atoms: CA   and  CB  
REMARK    6  A    between atoms: CB   and  CG  
REMARK    7  A    between atoms: CG   and  CD  
ROOT
ATOM     14  CA  GLU D 570     -18.033  -6.348 -13.375  1.00 32.92     0.160 C 
ENDROOT
BRANCH  14  15
ATOM     15  CB  GLU D 570     -19.500  -6.345 -13.794  1.00 32.92     0.043 C 
BRANCH  15  16
ATOM     16  CG  GLU D 570     -20.085  -7.633 -14.248  1.00 32.92     0.100 C 
BRANCH  16  17
ATOM     17  CD  GLU D 570     -20.630  -7.569 -15.656  1.00 32.92     0.185 C 
ATOM     18  OE1 GLU D 570     -21.253  -8.548 -16.109  1.00 32.92    -0.647 OA
ATOM     19  OE2 GLU D 570     -20.416  -6.535 -16.319  1.00 32.92    -0.647 OA
ENDBRANCH  16  17
ENDBRANCH  15  16
ENDBRANCH  14  15
END_RES GLU D 570
ENDMDL
MODEL 4
REMARK VINA RESULT:      -7.2      1.567      3.449
REMARK  25 active torsions:
REMARK  status: ('A' for Active; 'I' for Inactive)
REMARK    1  A    between atoms: C_2  and  C_3 
REMARK    2  A    between atoms: C_3  and  C_4 
REMARK    3  A    between atoms: C_4  and  C_5 
REMARK    4  A    between atoms: C_5  and  C_6 
REMARK    5  A    between atoms: C_6  and  C_7 
REMARK    6  A    between atoms: C_7  and  C_8 
REMARK    7  A    between atoms: C_8  and  C_9 
REMARK    8  A    between atoms: C_9  and  C_10 
REMARK    9  A    between atoms: C_10  and  O_11 
REMARK   10  A    between atoms: O_11  and  C_12 
REMARK   11  A    between atoms: C_12  and  C_14 
REMARK   12  A    between atoms: C_14  and  C_15 
REMARK   13  A    between atoms: C_15  and  C_16 
REMARK   14  A    between atoms: C_16  and  C_17 
REMARK   15  A    between atoms: C_17  and  C_18 
REMARK   16  A    between atoms: C_18  and  C_19 
REMARK   17  A    between atoms: C_19  and  C_20 
REMARK   18  A    between atoms: C_20  and  C_21 
REMARK   19  A    between atoms: C_22  and  C_23 
REMARK   20  A    between atoms: C_23  and  C_24 
REMARK   21  A    between atoms: C_24  and  C_25 
REMARK   22  A    between atoms: C_25  and  C_26 
REMARK   23  A    between atoms: C_26  and  C_27 
REMARK   24  A    between atoms: C_27  and  C_28 
REMARK   25  A    between atoms: C_28  and  C_29 
ROOT
HETATM    1  C   UNL     1     -20.744  -3.886 -10.053  1.00  0.00     0.010 C 
ENDROOT
BRANCH   1   2
HETATM    2  C   UNL     1     -21.800  -4.645 -10.852  1.00  0.00     0.111 C 
BRANCH   2   3
HETATM    3  C   UNL     1     -23.161  -4.012 -10.716  1.00  0.00     0.258 C 
HETATM    4  O   UNL     1     -23.647  -3.562  -9.689  1.00  0.00    -0.265 OA
BRANCH   3   5
HETATM    5  O   UNL     1     -23.820  -4.138 -11.901  1.00  0.00    -0.321 OA
BRANCH   5   6
HETATM    6  C   UNL     1     -23.206  -5.085 -12.773  1.00  0.00     0.178 C 
BRANCH   6   7
HETATM    7  C   UNL     1     -23.987  -5.250 -14.066  1.00  0.00     0.027 C 
BRANCH   7   8
HETATM    8  C   UNL     1     -23.669  -6.603 -14.700  1.00  0.00     0.002 C 
BRANCH   8   9
HETATM    9  C   UNL     1     -24.626  -6.915 -15.843  1.00  0.00     0.000 C 
BRANCH   9  10
HETATM   10  C   UNL     1     -25.855  -6.014 -15.785  1.00  0.00     0.000 C 
BRANCH  10  11
HETATM   11  C   UNL     1     -26.714  -6.199 -17.031  1.00  0.00     0.000 C 
BRANCH  11  12
HETATM   12  C   UNL     1     -28.176  -5.889 -16.729  1.00  0.00     0.000 C 
BRANCH  12  13
HETATM   13  C   UNL     1     -29.015  -5.983 -17.996  1.00  0.00    -0.000 C 
BRANCH  13  14
HETATM   14  C   UNL     1     -29.388  -4.595 -18.506  1.00  0.00    -0.005 C 
HETATM   15  C   UNL     1     -29.306  -3.570 -17.388  1.00  0.00     0.005 C 
ENDBRANCH  13  14
ENDBRANCH  12  13
ENDBRANCH  11  12
ENDBRANCH  10  11
ENDBRANCH   9  10
ENDBRANCH   8   9
ENDBRANCH   7   8
ENDBRANCH   6   7
ENDBRANCH   5   6
ENDBRANCH   3   5
ENDBRANCH   2   3
ENDBRANCH   1   2
BRANCH   1  16
HETATM   16  C   UNL     1     -20.070  -4.752  -8.991  1.00  0.00     0.000 C 
BRANCH  16  17
HETATM   17  C   UNL     1     -20.970  -4.949  -7.775  1.00  0.00     0.000 C 
BRANCH  17  18
HETATM   18  C   UNL     1     -20.164  -4.976  -6.487  1.00  0.00     0.000 C 
BRANCH  18  19
HETATM   19  C   UNL     1     -20.998  -5.564  -5.356  1.00  0.00     0.004 C 
BRANCH  19  20
HETATM   20  C   UNL     1     -21.093  -7.072  -5.506  1.00  0.00     0.027 C 
BRANCH  20  21
HETATM   21  C   UNL     1     -21.096  -7.731  -4.167  1.00  0.00    -0.031 C 
HETATM   22  C   UNL     1     -21.353  -7.067  -3.032  1.00  0.00    -0.031 C 
BRANCH  22  23
HETATM   23  C   UNL     1     -21.353  -7.725  -1.698  1.00  0.00     0.027 C 
BRANCH  23  24
HETATM   24  C   UNL     1     -22.405  -7.085  -0.794  1.00  0.00     0.004 C 
BRANCH  24  25
HETATM   25  C   UNL     1     -22.794  -8.046   0.316  1.00  0.00     0.000 C 
BRANCH  25  26
HETATM   26  C   UNL     1     -22.498  -9.484  -0.100  1.00  0.00     0.000 C 
BRANCH  26  27
HETATM   27  C   UNL     1     -23.772 -10.315  -0.076  1.00  0.00     0.000 C 
BRANCH  27  28
HETATM   28  C   UNL     1     -23.834 -11.226  -1.297  1.00  0.00    -0.000 C 
BRANCH  28  29
HETATM   29  C   UNL     1     -22.498 -11.238  -2.030  1.00  0.00    -0.005 C 
HETATM   30  C   UNL     1     -22.703 -11.049  -3.522  1.00  0.00     0.005 C 
ENDBRANCH  28  29
ENDBRANCH  27  28
ENDBRANCH  26  27
ENDBRANCH  25  26
ENDBRANCH  24  25
ENDBRANCH  23  24
ENDBRANCH  22  23
ENDBRANCH  20  21
ENDBRANCH  19  20
ENDBRANCH  18  19
ENDBRANCH  17  18
ENDBRANCH  16  17
ENDBRANCH   1  16
TORSDOF 25
BEGIN_RES ARG D 557
REMARK  4 active torsions:
REMARK  status: ('A' for Active; 'I' for Inactive)
REMARK    1  A    between atoms: CA   and  CB  
REMARK    2  A    between atoms: CB   and  CG  
REMARK    3  A    between atoms: CG   and  CD  
REMARK    4  A    between atoms: CD   and  NE  
REMARK       I    between atoms: NE   and  CZ  
REMARK       I    between atoms: CZ   and  NH1 
REMARK       I    between atoms: CZ   and  NH2 
ROOT
ATOM      1  CA  ARG D 557     -26.217   2.705 -17.014  1.00 35.49     0.159 C 
ENDROOT
BRANCH   1   2
ATOM      2  CB  ARG D 557     -26.789   1.319 -17.183  1.00 35.49     0.034 C 
BRANCH   2   3
ATOM      3  CG  ARG D 557     -25.834   0.204 -17.169  1.00 35.49     0.027 C 
BRANCH   3   4
ATOM      4  CD  ARG D 557     -24.686   0.456 -16.268  1.00 35.49     0.116 C 
BRANCH   4   5
ATOM      5  NE  ARG D 557     -24.779  -0.301 -15.047  1.00 35.49    -0.212 N 
ATOM      6  CZ  ARG D 557     -23.992  -1.294 -14.697  1.00 35.49     0.666 C 
ATOM      7  NH1 ARG D 557     -23.008  -1.723 -15.465  1.00 35.49    -0.235 N 
ATOM      8  NH2 ARG D 557     -24.208  -1.853 -13.542  1.00 35.49    -0.235 N 
ATOM      9  HH  ARG D 557     -22.846  -1.368 -16.229  1.00 35.49     0.174 HD
ATOM     10  HH  ARG D 557     -22.525  -2.373 -15.184  1.00 35.49     0.174 HD
ATOM     11  HH  ARG D 557     -24.846  -1.550 -13.064  1.00 35.49     0.174 HD
ATOM     12  HH  ARG D 557     -23.718  -2.494 -13.280  1.00 35.49     0.174 HD
ATOM     13  HE  ARG D 557     -25.430  -0.139 -14.525  1.00 35.49     0.178 HD
ENDBRANCH   4   5
ENDBRANCH   3   4
ENDBRANCH   2   3
ENDBRANCH   1   2
END_RES ARG D 557
BEGIN_RES GLU D 570
REMARK  3 active torsions:
REMARK  status: ('A' for Active; 'I' for Inactive)
REMARK    5  A    between atoms: CA   and  CB  
REMARK    6  A    between atoms: CB   and  CG  
REMARK    7  A    between atoms: CG   and  CD  
ROOT
ATOM     14  CA  GLU D 570     -18.033  -6.348 -13.375  1.00 32.92     0.160 C 
ENDROOT
BRANCH  14  15
ATOM     15  CB  GLU D 570     -19.500  -6.345 -13.794  1.00 32.92     0.043 C 
BRANCH  15  16
ATOM     16  CG  GLU D 570     -20.078  -7.628 -14.272  1.00 32.92     0.100 C 
BRANCH  16  17
ATOM     17  CD  GLU D 570     -20.501  -7.580 -15.721  1.00 32.92     0.185 C 
ATOM     18  OE1 GLU D 570     -20.854  -8.634 -16.284  1.00 32.92    -0.647 OA
ATOM     19  OE2 GLU D 570     -20.462  -6.479 -16.306  1.00 32.92    -0.647 OA
ENDBRANCH  16  17
ENDBRANCH  15  16
ENDBRANCH  14  15
END_RES GLU D 570
ENDMDL
MODEL 5
REMARK VINA RESULT:      -7.2      3.163      8.295
REMARK  25 active torsions:
REMARK  status: ('A' for Active; 'I' for Inactive)
REMARK    1  A    between atoms: C_2  and  C_3 
REMARK    2  A    between atoms: C_3  and  C_4 
REMARK    3  A    between atoms: C_4  and  C_5 
REMARK    4  A    between atoms: C_5  and  C_6 
REMARK    5  A    between atoms: C_6  and  C_7 
REMARK    6  A    between atoms: C_7  and  C_8 
REMARK    7  A    between atoms: C_8  and  C_9 
REMARK    8  A    between atoms: C_9  and  C_10 
REMARK    9  A    between atoms: C_10  and  O_11 
REMARK   10  A    between atoms: O_11  and  C_12 
REMARK   11  A    between atoms: C_12  and  C_14 
REMARK   12  A    between atoms: C_14  and  C_15 
REMARK   13  A    between atoms: C_15  and  C_16 
REMARK   14  A    between atoms: C_16  and  C_17 
REMARK   15  A    between atoms: C_17  and  C_18 
REMARK   16  A    between atoms: C_18  and  C_19 
REMARK   17  A    between atoms: C_19  and  C_20 
REMARK   18  A    between atoms: C_20  and  C_21 
REMARK   19  A    between atoms: C_22  and  C_23 
REMARK   20  A    between atoms: C_23  and  C_24 
REMARK   21  A    between atoms: C_24  and  C_25 
REMARK   22  A    between atoms: C_25  and  C_26 
REMARK   23  A    between atoms: C_26  and  C_27 
REMARK   24  A    between atoms: C_27  and  C_28 
REMARK   25  A    between atoms: C_28  and  C_29 
ROOT
HETATM    1  C   UNL     1     -21.917  -6.139  -2.409  1.00  0.00     0.010 C 
ENDROOT
BRANCH   1   2
HETATM    2  C   UNL     1     -21.632  -7.117  -3.546  1.00  0.00     0.111 C 
BRANCH   2   3
HETATM    3  C   UNL     1     -22.258  -6.662  -4.839  1.00  0.00     0.258 C 
HETATM    4  O   UNL     1     -23.348  -6.123  -4.961  1.00  0.00    -0.265 OA
BRANCH   3   5
HETATM    5  O   UNL     1     -21.469  -7.069  -5.872  1.00  0.00    -0.321 OA
BRANCH   5   6
HETATM    6  C   UNL     1     -20.113  -6.651  -5.724  1.00  0.00     0.178 C 
BRANCH   6   7
HETATM    7  C   UNL     1     -19.781  -5.480  -6.634  1.00  0.00     0.027 C 
BRANCH   7   8
HETATM    8  C   UNL     1     -20.725  -5.467  -7.835  1.00  0.00     0.002 C 
BRANCH   8   9
HETATM    9  C   UNL     1     -20.457  -4.266  -8.733  1.00  0.00     0.000 C 
BRANCH   9  10
HETATM   10  C   UNL     1     -20.147  -4.711 -10.158  1.00  0.00     0.000 C 
BRANCH  10  11
HETATM   11  C   UNL     1     -20.551  -3.631 -11.156  1.00  0.00     0.000 C 
BRANCH  11  12
HETATM   12  C   UNL     1     -22.041  -3.326 -11.047  1.00  0.00     0.000 C 
BRANCH  12  13
HETATM   13  C   UNL     1     -22.866  -4.549 -11.426  1.00  0.00    -0.000 C 
BRANCH  13  14
HETATM   14  C   UNL     1     -23.903  -4.860 -10.353  1.00  0.00    -0.005 C 
HETATM   15  C   UNL     1     -24.174  -3.638  -9.495  1.00  0.00     0.005 C 
ENDBRANCH  13  14
ENDBRANCH  12  13
ENDBRANCH  11  12
ENDBRANCH  10  11
ENDBRANCH   9  10
ENDBRANCH   8   9
ENDBRANCH   7   8
ENDBRANCH   6   7
ENDBRANCH   5   6
ENDBRANCH   3   5
ENDBRANCH   2   3
ENDBRANCH   1   2
BRANCH   1  16
HETATM   16  C   UNL     1     -22.273  -6.841  -1.101  1.00  0.00     0.000 C 
BRANCH  16  17
HETATM   17  C   UNL     1     -21.251  -7.916  -0.746  1.00  0.00     0.000 C 
BRANCH  17  18
HETATM   18  C   UNL     1     -21.832  -8.937   0.218  1.00  0.00     0.000 C 
BRANCH  18  19
HETATM   19  C   UNL     1     -23.306  -8.646   0.468  1.00  0.00     0.004 C 
BRANCH  19  20
HETATM   20  C   UNL     1     -24.138  -9.884   0.185  1.00  0.00     0.027 C 
BRANCH  20  21
HETATM   21  C   UNL     1     -23.262 -11.022  -0.219  1.00  0.00    -0.031 C 
HETATM   22  C   UNL     1     -23.339 -12.234   0.348  1.00  0.00    -0.031 C 
BRANCH  22  23
HETATM   23  C   UNL     1     -22.462 -13.368  -0.054  1.00  0.00     0.027 C 
BRANCH  23  24
HETATM   24  C   UNL     1     -21.199 -13.388   0.805  1.00  0.00     0.004 C 
BRANCH  24  25
HETATM   25  C   UNL     1     -19.966 -13.390  -0.082  1.00  0.00     0.000 C 
BRANCH  25  26
HETATM   26  C   UNL     1     -19.435 -11.970  -0.254  1.00  0.00     0.000 C 
BRANCH  26  27
HETATM   27  C   UNL     1     -19.046 -11.722  -1.704  1.00  0.00     0.000 C 
BRANCH  27  28
HETATM   28  C   UNL     1     -20.065 -10.809  -2.377  1.00  0.00    -0.000 C 
BRANCH  28  29
HETATM   29  C   UNL     1     -21.081 -11.623  -3.169  1.00  0.00    -0.005 C 
HETATM   30  C   UNL     1     -22.220 -10.741  -3.647  1.00  0.00     0.005 C 
ENDBRANCH  28  29
ENDBRANCH  27  28
ENDBRANCH  26  27
ENDBRANCH  25  26
ENDBRANCH  24  25
ENDBRANCH  23  24
ENDBRANCH  22  23
ENDBRANCH  20  21
ENDBRANCH  19  20
ENDBRANCH  18  19
ENDBRANCH  17  18
ENDBRANCH  16  17
ENDBRANCH   1  16
TORSDOF 25
BEGIN_RES ARG D 557
REMARK  4 active torsions:
REMARK  status: ('A' for Active; 'I' for Inactive)
REMARK    1  A    between atoms: CA   and  CB  
REMARK    2  A    between atoms: CB   and  CG  
REMARK    3  A    between atoms: CG   and  CD  
REMARK    4  A    between atoms: CD   and  NE  
REMARK       I    between atoms: NE   and  CZ  
REMARK       I    between atoms: CZ   and  NH1 
REMARK       I    between atoms: CZ   and  NH2 
ROOT
ATOM      1  CA  ARG D 557     -26.217   2.705 -17.014  1.00 35.49     0.159 C 
ENDROOT
BRANCH   1   2
ATOM      2  CB  ARG D 557     -26.789   1.319 -17.183  1.00 35.49     0.034 C 
BRANCH   2   3
ATOM      3  CG  ARG D 557     -25.834   0.204 -17.167  1.00 35.49     0.027 C 
BRANCH   3   4
ATOM      4  CD  ARG D 557     -24.749   0.404 -16.180  1.00 35.49     0.116 C 
BRANCH   4   5
ATOM      5  NE  ARG D 557     -24.897  -0.449 -15.030  1.00 35.49    -0.212 N 
ATOM      6  CZ  ARG D 557     -24.083  -1.421 -14.686  1.00 35.49     0.666 C 
ATOM      7  NH1 ARG D 557     -23.014  -1.735 -15.393  1.00 35.49    -0.235 N 
ATOM      8  NH2 ARG D 557     -24.361  -2.080 -13.598  1.00 35.49    -0.235 N 
ATOM      9  HH  ARG D 557     -22.811  -1.314 -16.111  1.00 35.49     0.174 HD
ATOM     10  HH  ARG D 557     -22.518  -2.378 -15.118  1.00 35.49     0.174 HD
ATOM     11  HH  ARG D 557     -25.054  -1.850 -13.157  1.00 35.49     0.174 HD
ATOM     12  HH  ARG D 557     -23.857  -2.711 -13.341  1.00 35.49     0.174 HD
ATOM     13  HE  ARG D 557     -25.599  -0.364 -14.557  1.00 35.49     0.178 HD
ENDBRANCH   4   5
ENDBRANCH   3   4
ENDBRANCH   2   3
ENDBRANCH   1   2
END_RES ARG D 557
BEGIN_RES GLU D 570
REMARK  3 active torsions:
REMARK  status: ('A' for Active; 'I' for Inactive)
REMARK    5  A    between atoms: CA   and  CB  
REMARK    6  A    between atoms: CB   and  CG  
REMARK    7  A    between atoms: CG   and  CD  
ROOT
ATOM     14  CA  GLU D 570     -18.033  -6.348 -13.375  1.00 32.92     0.160 C 
ENDROOT
BRANCH  14  15
ATOM     15  CB  GLU D 570     -19.500  -6.345 -13.794  1.00 32.92     0.043 C 
BRANCH  15  16
ATOM     16  CG  GLU D 570     -19.822  -5.844 -15.155  1.00 32.92     0.100 C 
BRANCH  16  17
ATOM     17  CD  GLU D 570     -21.303  -5.641 -15.373  1.00 32.92     0.185 C 
ATOM     18  OE1 GLU D 570     -22.075  -6.607 -15.220  1.00 32.92    -0.647 OA
ATOM     19  OE2 GLU D 570     -21.694  -4.508 -15.717  1.00 32.92    -0.647 OA
ENDBRANCH  16  17
ENDBRANCH  15  16
ENDBRANCH  14  15
END_RES GLU D 570
ENDMDL
MODEL 6
REMARK VINA RESULT:      -7.0      4.759      9.131
REMARK  25 active torsions:
REMARK  status: ('A' for Active; 'I' for Inactive)
REMARK    1  A    between atoms: C_2  and  C_3 
REMARK    2  A    between atoms: C_3  and  C_4 
REMARK    3  A    between atoms: C_4  and  C_5 
REMARK    4  A    between atoms: C_5  and  C_6 
REMARK    5  A    between atoms: C_6  and  C_7 
REMARK    6  A    between atoms: C_7  and  C_8 
REMARK    7  A    between atoms: C_8  and  C_9 
REMARK    8  A    between atoms: C_9  and  C_10 
REMARK    9  A    between atoms: C_10  and  O_11 
REMARK   10  A    between atoms: O_11  and  C_12 
REMARK   11  A    between atoms: C_12  and  C_14 
REMARK   12  A    between atoms: C_14  and  C_15 
REMARK   13  A    between atoms: C_15  and  C_16 
REMARK   14  A    between atoms: C_16  and  C_17 
REMARK   15  A    between atoms: C_17  and  C_18 
REMARK   16  A    between atoms: C_18  and  C_19 
REMARK   17  A    between atoms: C_19  and  C_20 
REMARK   18  A    between atoms: C_20  and  C_21 
REMARK   19  A    between atoms: C_22  and  C_23 
REMARK   20  A    between atoms: C_23  and  C_24 
REMARK   21  A    between atoms: C_24  and  C_25 
REMARK   22  A    between atoms: C_25  and  C_26 
REMARK   23  A    between atoms: C_26  and  C_27 
REMARK   24  A    between atoms: C_27  and  C_28 
REMARK   25  A    between atoms: C_28  and  C_29 
ROOT
HETATM    1  C   UNL     1     -31.083  -5.330 -16.984  1.00  0.00     0.010 C 
ENDROOT
BRANCH   1   2
HETATM    2  C   UNL     1     -32.540  -5.037 -16.632  1.00  0.00     0.111 C 
BRANCH   2   3
HETATM    3  C   UNL     1     -32.945  -3.650 -17.059  1.00  0.00     0.258 C 
HETATM    4  O   UNL     1     -32.307  -2.905 -17.787  1.00  0.00    -0.265 OA
BRANCH   3   5
HETATM    5  O   UNL     1     -34.083  -3.306 -16.394  1.00  0.00    -0.321 OA
BRANCH   5   6
HETATM    6  C   UNL     1     -34.705  -2.142 -16.936  1.00  0.00     0.178 C 
BRANCH   6   7
HETATM    7  C   UNL     1     -35.630  -1.476 -15.930  1.00  0.00     0.027 C 
BRANCH   7   8
HETATM    8  C   UNL     1     -35.541   0.043 -16.063  1.00  0.00     0.002 C 
BRANCH   8   9
HETATM    9  C   UNL     1     -35.012   0.677 -14.783  1.00  0.00     0.000 C 
BRANCH   9  10
HETATM   10  C   UNL     1     -35.776   0.167 -13.566  1.00  0.00     0.000 C 
BRANCH  10  11
HETATM   11  C   UNL     1     -34.810  -0.263 -12.468  1.00  0.00     0.000 C 
BRANCH  11  12
HETATM   12  C   UNL     1     -34.934  -1.758 -12.195  1.00  0.00     0.000 C 
BRANCH  12  13
HETATM   13  C   UNL     1     -34.096  -2.152 -10.986  1.00  0.00    -0.000 C 
BRANCH  13  14
HETATM   14  C   UNL     1     -33.108  -3.257 -11.344  1.00  0.00    -0.005 C 
HETATM   15  C   UNL     1     -33.624  -4.610 -10.888  1.00  0.00     0.005 C 
ENDBRANCH  13  14
ENDBRANCH  12  13
ENDBRANCH  11  12
ENDBRANCH  10  11
ENDBRANCH   9  10
ENDBRANCH   8   9
ENDBRANCH   7   8
ENDBRANCH   6   7
ENDBRANCH   5   6
ENDBRANCH   3   5
ENDBRANCH   2   3
ENDBRANCH   1   2
BRANCH   1  16
HETATM   16  C   UNL     1     -30.863  -6.772 -17.435  1.00  0.00     0.000 C 
BRANCH  16  17
HETATM   17  C   UNL     1     -29.387  -7.155 -17.386  1.00  0.00     0.000 C 
BRANCH  17  18
HETATM   18  C   UNL     1     -28.585  -6.411 -18.441  1.00  0.00     0.000 C 
BRANCH  18  19
HETATM   19  C   UNL     1     -27.197  -6.078 -17.910  1.00  0.00     0.004 C 
BRANCH  19  20
HETATM   20  C   UNL     1     -27.108  -6.418 -16.432  1.00  0.00     0.027 C 
BRANCH  20  21
HETATM   21  C   UNL     1     -25.696  -6.703 -16.046  1.00  0.00    -0.031 C 
HETATM   22  C   UNL     1     -25.056  -6.024 -15.083  1.00  0.00    -0.031 C 
BRANCH  22  23
HETATM   23  C   UNL     1     -23.646  -6.308 -14.700  1.00  0.00     0.027 C 
BRANCH  23  24
HETATM   24  C   UNL     1     -22.946  -5.019 -14.273  1.00  0.00     0.004 C 
BRANCH  24  25
HETATM   25  C   UNL     1     -23.813  -4.258 -13.284  1.00  0.00     0.000 C 
BRANCH  25  26
HETATM   26  C   UNL     1     -23.369  -4.554 -11.855  1.00  0.00     0.000 C 
BRANCH  26  27
HETATM   27  C   UNL     1     -22.290  -3.572 -11.422  1.00  0.00     0.000 C 
BRANCH  27  28
HETATM   28  C   UNL     1     -20.974  -4.304 -11.182  1.00  0.00    -0.000 C 
BRANCH  28  29
HETATM   29  C   UNL     1     -20.488  -4.089  -9.753  1.00  0.00    -0.005 C 
HETATM   30  C   UNL     1     -21.518  -4.588  -8.756  1.00  0.00     0.005 C 
ENDBRANCH  28  29
ENDBRANCH  27  28
ENDBRANCH  26  27
ENDBRANCH  25  26
ENDBRANCH  24  25
ENDBRANCH  23  24
ENDBRANCH  22  23
ENDBRANCH  20  21
ENDBRANCH  19  20
ENDBRANCH  18  19
ENDBRANCH  17  18
ENDBRANCH  16  17
ENDBRANCH   1  16
TORSDOF 25
BEGIN_RES ARG D 557
REMARK  4 active torsions:
REMARK  status: ('A' for Active; 'I' for Inactive)
REMARK    1  A    between atoms: CA   and  CB  
REMARK    2  A    between atoms: CB   and  CG  
REMARK    3  A    between atoms: CG   and  CD  
REMARK    4  A    between atoms: CD   and  NE  
REMARK       I    between atoms: NE   and  CZ  
REMARK       I    between atoms: CZ   and  NH1 
REMARK       I    between atoms: CZ   and  NH2 
ROOT
ATOM      1  CA  ARG D 557     -26.217   2.705 -17.014  1.00 35.49     0.159 C 
ENDROOT
BRANCH   1   2
ATOM      2  CB  ARG D 557     -26.789   1.319 -17.183  1.00 35.49     0.034 C 
BRANCH   2   3
ATOM      3  CG  ARG D 557     -28.240   1.178 -17.014  1.00 35.49     0.027 C 
BRANCH   3   4
ATOM      4  CD  ARG D 557     -28.641  -0.217 -16.719  1.00 35.49     0.116 C 
BRANCH   4   5
ATOM      5  NE  ARG D 557     -27.603  -0.948 -16.043  1.00 35.49    -0.212 N 
ATOM      6  CZ  ARG D 557     -27.425  -2.250 -16.090  1.00 35.49     0.666 C 
ATOM      7  NH1 ARG D 557     -28.220  -3.050 -16.776  1.00 35.49    -0.235 N 
ATOM      8  NH2 ARG D 557     -26.416  -2.742 -15.431  1.00 35.49    -0.235 N 
ATOM      9  HH  ARG D 557     -28.888  -2.748 -17.219  1.00 35.49     0.174 HD
ATOM     10  HH  ARG D 557     -28.053  -3.890 -16.772  1.00 35.49     0.174 HD
ATOM     11  HH  ARG D 557     -25.915  -2.200 -15.003  1.00 35.49     0.174 HD
ATOM     12  HH  ARG D 557     -26.267  -3.576 -15.441  1.00 35.49     0.174 HD
ATOM     13  HE  ARG D 557     -27.088  -0.520 -15.519  1.00 35.49     0.178 HD
ENDBRANCH   4   5
ENDBRANCH   3   4
ENDBRANCH   2   3
ENDBRANCH   1   2
END_RES ARG D 557
BEGIN_RES GLU D 570
REMARK  3 active torsions:
REMARK  status: ('A' for Active; 'I' for Inactive)
REMARK    5  A    between atoms: CA   and  CB  
REMARK    6  A    between atoms: CB   and  CG  
REMARK    7  A    between atoms: CG   and  CD  
ROOT
ATOM     14  CA  GLU D 570     -18.033  -6.348 -13.375  1.00 32.92     0.160 C 
ENDROOT
BRANCH  14  15
ATOM     15  CB  GLU D 570     -19.500  -6.345 -13.794  1.00 32.92     0.043 C 
BRANCH  15  16
ATOM     16  CG  GLU D 570     -20.082  -7.631 -14.259  1.00 32.92     0.100 C 
BRANCH  16  17
ATOM     17  CD  GLU D 570     -20.602  -7.564 -15.676  1.00 32.92     0.185 C 
ATOM     18  OE1 GLU D 570     -21.175  -8.560 -16.158  1.00 32.92    -0.647 OA
ATOM     19  OE2 GLU D 570     -20.419  -6.510 -16.317  1.00 32.92    -0.647 OA
ENDBRANCH  16  17
ENDBRANCH  15  16
ENDBRANCH  14  15
END_RES GLU D 570
ENDMDL
MODEL 7
REMARK VINA RESULT:      -7.0      2.863      7.896
REMARK  25 active torsions:
REMARK  status: ('A' for Active; 'I' for Inactive)
REMARK    1  A    between atoms: C_2  and  C_3 
REMARK    2  A    between atoms: C_3  and  C_4 
REMARK    3  A    between atoms: C_4  and  C_5 
REMARK    4  A    between atoms: C_5  and  C_6 
REMARK    5  A    between atoms: C_6  and  C_7 
REMARK    6  A    between atoms: C_7  and  C_8 
REMARK    7  A    between atoms: C_8  and  C_9 
REMARK    8  A    between atoms: C_9  and  C_10 
REMARK    9  A    between atoms: C_10  and  O_11 
REMARK   10  A    between atoms: O_11  and  C_12 
REMARK   11  A    between atoms: C_12  and  C_14 
REMARK   12  A    between atoms: C_14  and  C_15 
REMARK   13  A    between atoms: C_15  and  C_16 
REMARK   14  A    between atoms: C_16  and  C_17 
REMARK   15  A    between atoms: C_17  and  C_18 
REMARK   16  A    between atoms: C_18  and  C_19 
REMARK   17  A    between atoms: C_19  and  C_20 
REMARK   18  A    between atoms: C_20  and  C_21 
REMARK   19  A    between atoms: C_22  and  C_23 
REMARK   20  A    between atoms: C_23  and  C_24 
REMARK   21  A    between atoms: C_24  and  C_25 
REMARK   22  A    between atoms: C_25  and  C_26 
REMARK   23  A    between atoms: C_26  and  C_27 
REMARK   24  A    between atoms: C_27  and  C_28 
REMARK   25  A    between atoms: C_28  and  C_29 
ROOT
HETATM    1  C   UNL     1     -20.598  -8.088  -3.342  1.00  0.00     0.010 C 
ENDROOT
BRANCH   1   2
HETATM    2  C   UNL     1     -21.941  -8.037  -4.067  1.00  0.00     0.111 C 
BRANCH   2   3
HETATM    3  C   UNL     1     -21.965  -6.953  -5.114  1.00  0.00     0.258 C 
HETATM    4  O   UNL     1     -22.794  -6.060  -5.207  1.00  0.00    -0.265 OA
BRANCH   3   5
HETATM    5  O   UNL     1     -20.984  -7.205  -6.024  1.00  0.00    -0.321 OA
BRANCH   5   6
HETATM    6  C   UNL     1     -20.140  -6.077  -6.249  1.00  0.00     0.178 C 
BRANCH   6   7
HETATM    7  C   UNL     1     -20.195  -5.610  -7.695  1.00  0.00     0.027 C 
BRANCH   7   8
HETATM    8  C   UNL     1     -20.359  -4.093  -7.748  1.00  0.00     0.002 C 
BRANCH   8   9
HETATM    9  C   UNL     1     -21.821  -3.691  -7.602  1.00  0.00     0.000 C 
BRANCH   9  10
HETATM   10  C   UNL     1     -22.713  -4.551  -8.489  1.00  0.00     0.000 C 
BRANCH  10  11
HETATM   11  C   UNL     1     -23.860  -3.723  -9.059  1.00  0.00     0.000 C 
BRANCH  11  12
HETATM   12  C   UNL     1     -23.623  -3.417 -10.534  1.00  0.00     0.000 C 
BRANCH  12  13
HETATM   13  C   UNL     1     -22.886  -4.568 -11.206  1.00  0.00    -0.000 C 
BRANCH  13  14
HETATM   14  C   UNL     1     -21.763  -4.048 -12.098  1.00  0.00    -0.005 C 
HETATM   15  C   UNL     1     -20.751  -3.260 -11.286  1.00  0.00     0.005 C 
ENDBRANCH  13  14
ENDBRANCH  12  13
ENDBRANCH  11  12
ENDBRANCH  10  11
ENDBRANCH   9  10
ENDBRANCH   8   9
ENDBRANCH   7   8
ENDBRANCH   6   7
ENDBRANCH   5   6
ENDBRANCH   3   5
ENDBRANCH   2   3
ENDBRANCH   1   2
BRANCH   1  16
HETATM   16  C   UNL     1     -20.650  -7.447  -1.957  1.00  0.00     0.000 C 
BRANCH  16  17
HETATM   17  C   UNL     1     -22.087  -7.252  -1.483  1.00  0.00     0.000 C 
BRANCH  17  18
HETATM   18  C   UNL     1     -22.459  -8.261  -0.410  1.00  0.00     0.000 C 
BRANCH  18  19
HETATM   19  C   UNL     1     -21.783  -7.903   0.907  1.00  0.00     0.004 C 
BRANCH  19  20
HETATM   20  C   UNL     1     -20.962  -9.078   1.410  1.00  0.00     0.027 C 
BRANCH  20  21
HETATM   21  C   UNL     1     -20.630 -10.002   0.287  1.00  0.00    -0.031 C 
HETATM   22  C   UNL     1     -20.138 -11.233   0.482  1.00  0.00    -0.031 C 
BRANCH  22  23
HETATM   23  C   UNL     1     -19.805 -12.153  -0.639  1.00  0.00     0.027 C 
BRANCH  23  24
HETATM   24  C   UNL     1     -20.176 -11.514  -1.975  1.00  0.00     0.004 C 
BRANCH  24  25
HETATM   25  C   UNL     1     -20.770 -12.556  -2.906  1.00  0.00     0.000 C 
BRANCH  25  26
HETATM   26  C   UNL     1     -22.236 -12.801  -2.561  1.00  0.00     0.000 C 
BRANCH  26  27
HETATM   27  C   UNL     1     -22.918 -11.491  -2.192  1.00  0.00     0.000 C 
BRANCH  27  28
HETATM   28  C   UNL     1     -24.154 -11.760  -1.341  1.00  0.00    -0.000 C 
BRANCH  28  29
HETATM   29  C   UNL     1     -23.849 -11.548   0.138  1.00  0.00    -0.005 C 
HETATM   30  C   UNL     1     -23.449 -12.855   0.795  1.00  0.00     0.005 C 
ENDBRANCH  28  29
ENDBRANCH  27  28
ENDBRANCH  26  27
ENDBRANCH  25  26
ENDBRANCH  24  25
ENDBRANCH  23  24
ENDBRANCH  22  23
ENDBRANCH  20  21
ENDBRANCH  19  20
ENDBRANCH  18  19
ENDBRANCH  17  18
ENDBRANCH  16  17
ENDBRANCH   1  16
TORSDOF 25
BEGIN_RES ARG D 557
REMARK  4 active torsions:
REMARK  status: ('A' for Active; 'I' for Inactive)
REMARK    1  A    between atoms: CA   and  CB  
REMARK    2  A    between atoms: CB   and  CG  
REMARK    3  A    between atoms: CG   and  CD  
REMARK    4  A    between atoms: CD   and  NE  
REMARK       I    between atoms: NE   and  CZ  
REMARK       I    between atoms: CZ   and  NH1 
REMARK       I    between atoms: CZ   and  NH2 
ROOT
ATOM      1  CA  ARG D 557     -26.217   2.705 -17.014  1.00 35.49     0.159 C 
ENDROOT
BRANCH   1   2
ATOM      2  CB  ARG D 557     -26.789   1.319 -17.183  1.00 35.49     0.034 C 
BRANCH   2   3
ATOM      3  CG  ARG D 557     -25.951   0.199 -16.737  1.00 35.49     0.027 C 
BRANCH   3   4
ATOM      4  CD  ARG D 557     -26.697  -0.765 -15.897  1.00 35.49     0.116 C 
BRANCH   4   5
ATOM      5  NE  ARG D 557     -25.824  -1.545 -15.060  1.00 35.49    -0.212 N 
ATOM      6  CZ  ARG D 557     -25.872  -2.849 -14.905  1.00 35.49     0.666 C 
ATOM      7  NH1 ARG D 557     -26.769  -3.603 -15.512  1.00 35.49    -0.235 N 
ATOM      8  NH2 ARG D 557     -24.986  -3.393 -14.122  1.00 35.49    -0.235 N 
ATOM      9  HH  ARG D 557     -27.360  -3.266 -16.033  1.00 35.49     0.174 HD
ATOM     10  HH  ARG D 557     -26.751  -4.448 -15.374  1.00 35.49     0.174 HD
ATOM     11  HH  ARG D 557     -24.414  -2.882 -13.749  1.00 35.49     0.174 HD
ATOM     12  HH  ARG D 557     -24.983  -4.232 -14.000  1.00 35.49     0.174 HD
ATOM     13  HE  ARG D 557     -25.261  -1.131 -14.575  1.00 35.49     0.178 HD
ENDBRANCH   4   5
ENDBRANCH   3   4
ENDBRANCH   2   3
ENDBRANCH   1   2
END_RES ARG D 557
BEGIN_RES GLU D 570
REMARK  3 active torsions:
REMARK  status: ('A' for Active; 'I' for Inactive)
REMARK    5  A    between atoms: CA   and  CB  
REMARK    6  A    between atoms: CB   and  CG  
REMARK    7  A    between atoms: CG   and  CD  
ROOT
ATOM     14  CA  GLU D 570     -18.033  -6.348 -13.375  1.00 32.92     0.160 C 
ENDROOT
BRANCH  14  15
ATOM     15  CB  GLU D 570     -19.500  -6.345 -13.794  1.00 32.92     0.043 C 
BRANCH  15  16
ATOM     16  CG  GLU D 570     -20.109  -7.649 -14.162  1.00 32.92     0.100 C 
BRANCH  16  17
ATOM     17  CD  GLU D 570     -20.810  -7.615 -15.500  1.00 32.92     0.185 C 
ATOM     18  OE1 GLU D 570     -20.820  -8.643 -16.204  1.00 32.92    -0.647 OA
ATOM     19  OE2 GLU D 570     -21.341  -6.544 -15.856  1.00 32.92    -0.647 OA
ENDBRANCH  16  17
ENDBRANCH  15  16
ENDBRANCH  14  15
END_RES GLU D 570
ENDMDL
MODEL 8
REMARK VINA RESULT:      -6.9      4.776      8.530
REMARK  25 active torsions:
REMARK  status: ('A' for Active; 'I' for Inactive)
REMARK    1  A    between atoms: C_2  and  C_3 
REMARK    2  A    between atoms: C_3  and  C_4 
REMARK    3  A    between atoms: C_4  and  C_5 
REMARK    4  A    between atoms: C_5  and  C_6 
REMARK    5  A    between atoms: C_6  and  C_7 
REMARK    6  A    between atoms: C_7  and  C_8 
REMARK    7  A    between atoms: C_8  and  C_9 
REMARK    8  A    between atoms: C_9  and  C_10 
REMARK    9  A    between atoms: C_10  and  O_11 
REMARK   10  A    between atoms: O_11  and  C_12 
REMARK   11  A    between atoms: C_12  and  C_14 
REMARK   12  A    between atoms: C_14  and  C_15 
REMARK   13  A    between atoms: C_15  and  C_16 
REMARK   14  A    between atoms: C_16  and  C_17 
REMARK   15  A    between atoms: C_17  and  C_18 
REMARK   16  A    between atoms: C_18  and  C_19 
REMARK   17  A    between atoms: C_19  and  C_20 
REMARK   18  A    between atoms: C_20  and  C_21 
REMARK   19  A    between atoms: C_22  and  C_23 
REMARK   20  A    between atoms: C_23  and  C_24 
REMARK   21  A    between atoms: C_24  and  C_25 
REMARK   22  A    between atoms: C_25  and  C_26 
REMARK   23  A    between atoms: C_26  and  C_27 
REMARK   24  A    between atoms: C_27  and  C_28 
REMARK   25  A    between atoms: C_28  and  C_29 
ROOT
HETATM    1  C   UNL     1     -30.947  -4.569 -17.252  1.00  0.00     0.010 C 
ENDROOT
BRANCH   1   2
HETATM    2  C   UNL     1     -31.908  -3.463 -17.679  1.00  0.00     0.111 C 
BRANCH   2   3
HETATM    3  C   UNL     1     -33.165  -3.468 -16.849  1.00  0.00     0.258 C 
HETATM    4  O   UNL     1     -33.469  -4.300 -16.007  1.00  0.00    -0.265 OA
BRANCH   3   5
HETATM    5  O   UNL     1     -33.977  -2.464 -17.280  1.00  0.00    -0.321 OA
BRANCH   5   6
HETATM    6  C   UNL     1     -34.996  -2.137 -16.338  1.00  0.00     0.178 C 
BRANCH   6   7
HETATM    7  C   UNL     1     -35.807  -0.929 -16.779  1.00  0.00     0.027 C 
BRANCH   7   8
HETATM    8  C   UNL     1     -36.424  -0.241 -15.562  1.00  0.00     0.002 C 
BRANCH   8   9
HETATM    9  C   UNL     1     -35.675   1.039 -15.214  1.00  0.00     0.000 C 
BRANCH   9  10
HETATM   10  C   UNL     1     -34.727   0.813 -14.042  1.00  0.00     0.000 C 
BRANCH  10  11
HETATM   11  C   UNL     1     -35.436   0.070 -12.914  1.00  0.00     0.000 C 
BRANCH  11  12
HETATM   12  C   UNL     1     -34.695  -1.216 -12.566  1.00  0.00     0.000 C 
BRANCH  12  13
HETATM   13  C   UNL     1     -35.030  -1.659 -11.148  1.00  0.00    -0.000 C 
BRANCH  13  14
HETATM   14  C   UNL     1     -33.814  -2.279 -10.469  1.00  0.00    -0.005 C 
HETATM   15  C   UNL     1     -33.308  -3.474 -11.257  1.00  0.00     0.005 C 
ENDBRANCH  13  14
ENDBRANCH  12  13
ENDBRANCH  11  12
ENDBRANCH  10  11
ENDBRANCH   9  10
ENDBRANCH   8   9
ENDBRANCH   7   8
ENDBRANCH   6   7
ENDBRANCH   5   6
ENDBRANCH   3   5
ENDBRANCH   2   3
ENDBRANCH   1   2
BRANCH   1  16
HETATM   16  C   UNL     1     -29.572  -4.441 -17.903  1.00  0.00     0.000 C 
BRANCH  16  17
HETATM   17  C   UNL     1     -28.480  -4.205 -16.865  1.00  0.00     0.000 C 
BRANCH  17  18
HETATM   18  C   UNL     1     -27.947  -5.516 -16.311  1.00  0.00     0.000 C 
BRANCH  18  19
HETATM   19  C   UNL     1     -26.499  -5.351 -15.868  1.00  0.00     0.004 C 
BRANCH  19  20
HETATM   20  C   UNL     1     -25.776  -6.684 -15.938  1.00  0.00     0.027 C 
BRANCH  20  21
HETATM   21  C   UNL     1     -24.468  -6.608 -15.224  1.00  0.00    -0.031 C 
HETATM   22  C   UNL     1     -24.165  -5.622 -14.368  1.00  0.00    -0.031 C 
BRANCH  22  23
HETATM   23  C   UNL     1     -22.859  -5.546 -13.659  1.00  0.00     0.027 C 
BRANCH  23  24
HETATM   24  C   UNL     1     -23.019  -4.796 -12.338  1.00  0.00     0.004 C 
BRANCH  24  25
HETATM   25  C   UNL     1     -21.940  -3.735 -12.206  1.00  0.00     0.000 C 
BRANCH  25  26
HETATM   26  C   UNL     1     -21.593  -3.513 -10.737  1.00  0.00     0.000 C 
BRANCH  26  27
HETATM   27  C   UNL     1     -20.375  -4.340 -10.350  1.00  0.00     0.000 C 
BRANCH  27  28
HETATM   28  C   UNL     1     -20.543  -4.905  -8.944  1.00  0.00    -0.000 C 
BRANCH  28  29
HETATM   29  C   UNL     1     -21.209  -3.885  -8.028  1.00  0.00    -0.005 C 
HETATM   30  C   UNL     1     -22.310  -4.537  -7.212  1.00  0.00     0.005 C 
ENDBRANCH  28  29
ENDBRANCH  27  28
ENDBRANCH  26  27
ENDBRANCH  25  26
ENDBRANCH  24  25
ENDBRANCH  23  24
ENDBRANCH  22  23
ENDBRANCH  20  21
ENDBRANCH  19  20
ENDBRANCH  18  19
ENDBRANCH  17  18
ENDBRANCH  16  17
ENDBRANCH   1  16
TORSDOF 25
BEGIN_RES ARG D 557
REMARK  4 active torsions:
REMARK  status: ('A' for Active; 'I' for Inactive)
REMARK    1  A    between atoms: CA   and  CB  
REMARK    2  A    between atoms: CB   and  CG  
REMARK    3  A    between atoms: CG   and  CD  
REMARK    4  A    between atoms: CD   and  NE  
REMARK       I    between atoms: NE   and  CZ  
REMARK       I    between atoms: CZ   and  NH1 
REMARK       I    between atoms: CZ   and  NH2 
ROOT
ATOM      1  CA  ARG D 557     -26.217   2.705 -17.014  1.00 35.49     0.159 C 
ENDROOT
BRANCH   1   2
ATOM      2  CB  ARG D 557     -26.789   1.319 -17.183  1.00 35.49     0.034 C 
BRANCH   2   3
ATOM      3  CG  ARG D 557     -25.836   0.203 -17.152  1.00 35.49     0.027 C 
BRANCH   3   4
ATOM      4  CD  ARG D 557     -24.794   0.379 -16.115  1.00 35.49     0.116 C 
BRANCH   4   5
ATOM      5  NE  ARG D 557     -25.012  -0.474 -14.977  1.00 35.49    -0.212 N 
ATOM      6  CZ  ARG D 557     -24.229  -1.458 -14.593  1.00 35.49     0.666 C 
ATOM      7  NH1 ARG D 557     -23.129  -1.785 -15.245  1.00 35.49    -0.235 N 
ATOM      8  NH2 ARG D 557     -24.571  -2.114 -13.523  1.00 35.49    -0.235 N 
ATOM      9  HH  ARG D 557     -22.884  -1.365 -15.951  1.00 35.49     0.174 HD
ATOM     10  HH  ARG D 557     -22.656  -2.434 -14.947  1.00 35.49     0.174 HD
ATOM     11  HH  ARG D 557     -25.283  -1.876 -13.118  1.00 35.49     0.174 HD
ATOM     12  HH  ARG D 557     -24.089  -2.753 -13.242  1.00 35.49     0.174 HD
ATOM     13  HE  ARG D 557     -25.736  -0.381 -14.541  1.00 35.49     0.178 HD
ENDBRANCH   4   5
ENDBRANCH   3   4
ENDBRANCH   2   3
ENDBRANCH   1   2
END_RES ARG D 557
BEGIN_RES GLU D 570
REMARK  3 active torsions:
REMARK  status: ('A' for Active; 'I' for Inactive)
REMARK    5  A    between atoms: CA   and  CB  
REMARK    6  A    between atoms: CB   and  CG  
REMARK    7  A    between atoms: CG   and  CD  
ROOT
ATOM     14  CA  GLU D 570     -18.033  -6.348 -13.375  1.00 32.92     0.160 C 
ENDROOT
BRANCH  14  15
ATOM     15  CB  GLU D 570     -19.500  -6.345 -13.794  1.00 32.92     0.043 C 
BRANCH  15  16
ATOM     16  CG  GLU D 570     -19.797  -6.244 -15.246  1.00 32.92     0.100 C 
BRANCH  16  17
ATOM     17  CD  GLU D 570     -20.671  -7.369 -15.749  1.00 32.92     0.185 C 
ATOM     18  OE1 GLU D 570     -20.653  -8.462 -15.151  1.00 32.92    -0.647 OA
ATOM     19  OE2 GLU D 570     -21.367  -7.161 -16.762  1.00 32.92    -0.647 OA
ENDBRANCH  16  17
ENDBRANCH  15  16
ENDBRANCH  14  15
END_RES GLU D 570
ENDMDL
MODEL 9
REMARK VINA RESULT:      -6.8      3.375     11.007
REMARK  25 active torsions:
REMARK  status: ('A' for Active; 'I' for Inactive)
REMARK    1  A    between atoms: C_2  and  C_3 
REMARK    2  A    between atoms: C_3  and  C_4 
REMARK    3  A    between atoms: C_4  and  C_5 
REMARK    4  A    between atoms: C_5  and  C_6 
REMARK    5  A    between atoms: C_6  and  C_7 
REMARK    6  A    between atoms: C_7  and  C_8 
REMARK    7  A    between atoms: C_8  and  C_9 
REMARK    8  A    between atoms: C_9  and  C_10 
REMARK    9  A    between atoms: C_10  and  O_11 
REMARK   10  A    between atoms: O_11  and  C_12 
REMARK   11  A    between atoms: C_12  and  C_14 
REMARK   12  A    between atoms: C_14  and  C_15 
REMARK   13  A    between atoms: C_15  and  C_16 
REMARK   14  A    between atoms: C_16  and  C_17 
REMARK   15  A    between atoms: C_17  and  C_18 
REMARK   16  A    between atoms: C_18  and  C_19 
REMARK   17  A    between atoms: C_19  and  C_20 
REMARK   18  A    between atoms: C_20  and  C_21 
REMARK   19  A    between atoms: C_22  and  C_23 
REMARK   20  A    between atoms: C_23  and  C_24 
REMARK   21  A    between atoms: C_24  and  C_25 
REMARK   22  A    between atoms: C_25  and  C_26 
REMARK   23  A    between atoms: C_26  and  C_27 
REMARK   24  A    between atoms: C_27  and  C_28 
REMARK   25  A    between atoms: C_28  and  C_29 
ROOT
HETATM    1  C   UNL     1     -18.210 -11.416  -3.871  1.00  0.00     0.010 C 
ENDROOT
BRANCH   1   2
HETATM    2  C   UNL     1     -17.830 -10.679  -5.152  1.00  0.00     0.111 C 
BRANCH   2   3
HETATM    3  C   UNL     1     -18.212 -11.467  -6.379  1.00  0.00     0.258 C 
HETATM    4  O   UNL     1     -17.457 -12.134  -7.070  1.00  0.00    -0.265 OA
BRANCH   3   5
HETATM    5  O   UNL     1     -19.516 -11.209  -6.674  1.00  0.00    -0.321 OA
BRANCH   5   6
HETATM    6  C   UNL     1     -20.213 -12.363  -7.140  1.00  0.00     0.178 C 
BRANCH   6   7
HETATM    7  C   UNL     1     -21.558 -12.527  -6.451  1.00  0.00     0.027 C 
BRANCH   7   8
HETATM    8  C   UNL     1     -21.709 -11.485  -5.344  1.00  0.00     0.002 C 
BRANCH   8   9
HETATM    9  C   UNL     1     -22.162 -12.128  -4.040  1.00  0.00     0.000 C 
BRANCH   9  10
HETATM   10  C   UNL     1     -22.790 -11.094  -3.112  1.00  0.00     0.000 C 
BRANCH  10  11
HETATM   11  C   UNL     1     -22.417 -11.378  -1.662  1.00  0.00     0.000 C 
BRANCH  11  12
HETATM   12  C   UNL     1     -22.749 -10.183  -0.776  1.00  0.00     0.000 C 
BRANCH  12  13
HETATM   13  C   UNL     1     -21.652  -9.963   0.258  1.00  0.00    -0.000 C 
BRANCH  13  14
HETATM   14  C   UNL     1     -21.716  -8.550   0.828  1.00  0.00    -0.005 C 
HETATM   15  C   UNL     1     -22.872  -7.776   0.221  1.00  0.00     0.005 C 
ENDBRANCH  13  14
ENDBRANCH  12  13
ENDBRANCH  11  12
ENDBRANCH  10  11
ENDBRANCH   9  10
ENDBRANCH   8   9
ENDBRANCH   7   8
ENDBRANCH   6   7
ENDBRANCH   5   6
ENDBRANCH   3   5
ENDBRANCH   2   3
ENDBRANCH   1   2
BRANCH   1  16
HETATM   16  C   UNL     1     -18.938 -10.524  -2.869  1.00  0.00     0.000 C 
BRANCH  16  17
HETATM   17  C   UNL     1     -19.379  -9.210  -3.506  1.00  0.00     0.000 C 
BRANCH  17  18
HETATM   18  C   UNL     1     -20.040  -8.294  -2.489  1.00  0.00     0.000 C 
BRANCH  18  19
HETATM   19  C   UNL     1     -21.197  -7.540  -3.133  1.00  0.00     0.004 C 
BRANCH  19  20
HETATM   20  C   UNL     1     -21.375  -7.988  -4.573  1.00  0.00     0.027 C 
BRANCH  20  21
HETATM   21  C   UNL     1     -20.949  -6.910  -5.512  1.00  0.00    -0.031 C 
HETATM   22  C   UNL     1     -20.744  -5.645  -5.120  1.00  0.00    -0.031 C 
BRANCH  22  23
HETATM   23  C   UNL     1     -20.321  -4.571  -6.059  1.00  0.00     0.027 C 
BRANCH  23  24
HETATM   24  C   UNL     1     -19.841  -5.178  -7.375  1.00  0.00     0.004 C 
BRANCH  24  25
HETATM   25  C   UNL     1     -20.660  -4.632  -8.532  1.00  0.00     0.000 C 
BRANCH  25  26
HETATM   26  C   UNL     1     -21.813  -3.782  -8.009  1.00  0.00     0.000 C 
BRANCH  26  27
HETATM   27  C   UNL     1     -22.917  -3.688  -9.053  1.00  0.00     0.000 C 
BRANCH  27  28
HETATM   28  C   UNL     1     -22.415  -4.194 -10.401  1.00  0.00    -0.000 C 
BRANCH  28  29
HETATM   29  C   UNL     1     -23.512  -4.954 -11.136  1.00  0.00    -0.005 C 
HETATM   30  C   UNL     1     -23.310  -4.868 -12.638  1.00  0.00     0.005 C 
ENDBRANCH  28  29
ENDBRANCH  27  28
ENDBRANCH  26  27
ENDBRANCH  25  26
ENDBRANCH  24  25
ENDBRANCH  23  24
ENDBRANCH  22  23
ENDBRANCH  20  21
ENDBRANCH  19  20
ENDBRANCH  18  19
ENDBRANCH  17  18
ENDBRANCH  16  17
ENDBRANCH   1  16
TORSDOF 25
BEGIN_RES ARG D 557
REMARK  4 active torsions:
REMARK  status: ('A' for Active; 'I' for Inactive)
REMARK    1  A    between atoms: CA   and  CB  
REMARK    2  A    between atoms: CB   and  CG  
REMARK    3  A    between atoms: CG   and  CD  
REMARK    4  A    between atoms: CD   and  NE  
REMARK       I    between atoms: NE   and  CZ  
REMARK       I    between atoms: CZ   and  NH1 
REMARK       I    between atoms: CZ   and  NH2 
ROOT
ATOM      1  CA  ARG D 557     -26.217   2.705 -17.014  1.00 35.49     0.159 C 
ENDROOT
BRANCH   1   2
ATOM      2  CB  ARG D 557     -26.789   1.319 -17.183  1.00 35.49     0.034 C 
BRANCH   2   3
ATOM      3  CG  ARG D 557     -28.234   1.226 -17.427  1.00 35.49     0.027 C 
BRANCH   3   4
ATOM      4  CD  ARG D 557     -28.906   0.299 -16.488  1.00 35.49     0.116 C 
BRANCH   4   5
ATOM      5  NE  ARG D 557     -29.280  -0.938 -17.121  1.00 35.49    -0.212 N 
ATOM      6  CZ  ARG D 557     -28.637  -2.079 -17.017  1.00 35.49     0.666 C 
ATOM      7  NH1 ARG D 557     -27.532  -2.208 -16.307  1.00 35.49    -0.235 N 
ATOM      8  NH2 ARG D 557     -29.133  -3.106 -17.644  1.00 35.49    -0.235 N 
ATOM      9  HH  ARG D 557     -27.189  -1.546 -15.885  1.00 35.49     0.174 HD
ATOM     10  HH  ARG D 557     -27.157  -2.978 -16.274  1.00 35.49     0.174 HD
ATOM     11  HH  ARG D 557     -29.852  -2.995 -18.089  1.00 35.49     0.174 HD
ATOM     12  HH  ARG D 557     -28.748  -3.861 -17.598  1.00 35.49     0.174 HD
ATOM     13  HE  ARG D 557     -29.941  -0.928 -17.657  1.00 35.49     0.178 HD
ENDBRANCH   4   5
ENDBRANCH   3   4
ENDBRANCH   2   3
ENDBRANCH   1   2
END_RES ARG D 557
BEGIN_RES GLU D 570
REMARK  3 active torsions:
REMARK  status: ('A' for Active; 'I' for Inactive)
REMARK    5  A    between atoms: CA   and  CB  
REMARK    6  A    between atoms: CB   and  CG  
REMARK    7  A    between atoms: CG   and  CD  
ROOT
ATOM     14  CA  GLU D 570     -18.033  -6.348 -13.375  1.00 32.92     0.160 C 
ENDROOT
BRANCH  14  15
ATOM     15  CB  GLU D 570     -19.500  -6.345 -13.794  1.00 32.92     0.043 C 
BRANCH  15  16
ATOM     16  CG  GLU D 570     -19.798  -6.457 -15.245  1.00 32.92     0.100 C 
BRANCH  16  17
ATOM     17  CD  GLU D 570     -20.975  -7.358 -15.538  1.00 32.92     0.185 C 
ATOM     18  OE1 GLU D 570     -20.767  -8.556 -15.810  1.00 32.92    -0.647 OA
ATOM     19  OE2 GLU D 570     -22.116  -6.857 -15.510  1.00 32.92    -0.647 OA
ENDBRANCH  16  17
ENDBRANCH  15  16
ENDBRANCH  14  15
END_RES GLU D 570
ENDMDL
