MODEL 1
REMARK VINA RESULT:      -5.1      0.000      0.000
REMARK  0 active torsions:
REMARK  status: ('A' for Active; 'I' for Inactive)
ROOT
HETATM    1  C   UNL     1     -22.678  -4.049  -9.344  1.00  0.00     0.168 C 
HETATM    2  N   UNL     1     -23.069  -3.634 -10.667  1.00  0.00    -0.288 N 
HETATM    3  C   UNL     1     -24.356  -3.306 -11.040  1.00  0.00     0.255 A 
HETATM    4  O   UNL     1     -25.358  -3.304 -10.343  1.00  0.00    -0.267 OA
HETATM    5  C   UNL     1     -24.388  -2.934 -12.468  1.00  0.00     0.108 A 
HETATM    6  C   UNL     1     -23.171  -3.017 -13.006  1.00  0.00     0.096 A 
HETATM    7  S   UNL     1     -21.927  -3.521 -11.920  1.00  0.00     0.003 SA
HETATM    8 CL   UNL     1     -22.837  -2.660 -14.642  1.00  0.00    -0.075 Cl
ENDROOT
TORSDOF 0
BEGIN_RES ARG D 557
REMARK  4 active torsions:
REMARK  status: ('A' for Active; 'I' for Inactive)
REMARK    1  A    between atoms: CA   and  CB  
REMARK    2  A    between atoms: CB   and  CG  
REMARK    3  A    between atoms: CG   and  CD  
REMARK    4  A    between atoms: CD   and  NE  
REMARK       I    between atoms: NE   and  CZ  
REMARK       I    between atoms: CZ   and  NH1 
REMARK       I    between atoms: CZ   and  NH2 
ROOT
ATOM      1  CA  ARG D 557     -26.217   2.705 -17.014  1.00 35.49     0.159 C 
ENDROOT
BRANCH   1   2
ATOM      2  CB  ARG D 557     -26.789   1.319 -17.183  1.00 35.49     0.034 C 
BRANCH   2   3
ATOM      3  CG  ARG D 557     -28.233   1.226 -17.432  1.00 35.49     0.027 C 
BRANCH   3   4
ATOM      4  CD  ARG D 557     -28.909   0.304 -16.491  1.00 35.49     0.116 C 
BRANCH   4   5
ATOM      5  NE  ARG D 557     -29.293  -0.931 -17.124  1.00 35.49    -0.212 N 
ATOM      6  CZ  ARG D 557     -28.653  -2.075 -17.026  1.00 35.49     0.666 C 
ATOM      7  NH1 ARG D 557     -27.544  -2.209 -16.324  1.00 35.49    -0.235 N 
ATOM      8  NH2 ARG D 557     -29.157  -3.099 -17.651  1.00 35.49    -0.235 N 
ATOM      9  HH  ARG D 557     -27.196  -1.549 -15.903  1.00 35.49     0.174 HD
ATOM     10  HH  ARG D 557     -27.172  -2.981 -16.294  1.00 35.49     0.174 HD
ATOM     11  HH  ARG D 557     -29.879  -2.984 -18.091  1.00 35.49     0.174 HD
ATOM     12  HH  ARG D 557     -28.775  -3.855 -17.609  1.00 35.49     0.174 HD
ATOM     13  HE  ARG D 557     -29.957  -0.918 -17.655  1.00 35.49     0.178 HD
ENDBRANCH   4   5
ENDBRANCH   3   4
ENDBRANCH   2   3
ENDBRANCH   1   2
END_RES ARG D 557
BEGIN_RES GLU D 570
REMARK  3 active torsions:
REMARK  status: ('A' for Active; 'I' for Inactive)
REMARK    5  A    between atoms: CA   and  CB  
REMARK    6  A    between atoms: CB   and  CG  
REMARK    7  A    between atoms: CG   and  CD  
ROOT
ATOM     14  CA  GLU D 570     -18.033  -6.348 -13.375  1.00 32.92     0.160 C 
ENDROOT
BRANCH  14  15
ATOM     15  CB  GLU D 570     -19.500  -6.345 -13.794  1.00 32.92     0.043 C 
BRANCH  15  16
ATOM     16  CG  GLU D 570     -19.798  -6.193 -15.242  1.00 32.92     0.100 C 
BRANCH  16  17
ATOM     17  CD  GLU D 570     -21.227  -5.780 -15.509  1.00 32.92     0.185 C 
ATOM     18  OE1 GLU D 570     -22.107  -6.073 -14.677  1.00 32.92    -0.647 OA
ATOM     19  OE2 GLU D 570     -21.471  -5.173 -16.570  1.00 32.92    -0.647 OA
ENDBRANCH  16  17
ENDBRANCH  15  16
ENDBRANCH  14  15
END_RES GLU D 570
ENDMDL
MODEL 2
REMARK VINA RESULT:      -5.0      1.818      2.472
REMARK  0 active torsions:
REMARK  status: ('A' for Active; 'I' for Inactive)
ROOT
HETATM    1  C   UNL     1     -24.335  -2.890 -12.581  1.00  0.00     0.168 C 
HETATM    2  N   UNL     1     -23.759  -3.288 -11.322  1.00  0.00    -0.288 N 
HETATM    3  C   UNL     1     -24.460  -3.403 -10.139  1.00  0.00     0.255 A 
HETATM    4  O   UNL     1     -25.649  -3.199  -9.952  1.00  0.00    -0.267 OA
HETATM    5  C   UNL     1     -23.552  -3.826  -9.054  1.00  0.00     0.108 A 
HETATM    6  C   UNL     1     -22.309  -3.981  -9.511  1.00  0.00     0.096 A 
HETATM    7  S   UNL     1     -22.105  -3.655 -11.194  1.00  0.00     0.003 SA
HETATM    8 CL   UNL     1     -20.998  -4.463  -8.530  1.00  0.00    -0.075 Cl
ENDROOT
TORSDOF 0
BEGIN_RES ARG D 557
REMARK  4 active torsions:
REMARK  status: ('A' for Active; 'I' for Inactive)
REMARK    1  A    between atoms: CA   and  CB  
REMARK    2  A    between atoms: CB   and  CG  
REMARK    3  A    between atoms: CG   and  CD  
REMARK    4  A    between atoms: CD   and  NE  
REMARK       I    between atoms: NE   and  CZ  
REMARK       I    between atoms: CZ   and  NH1 
REMARK       I    between atoms: CZ   and  NH2 
ROOT
ATOM      1  CA  ARG D 557     -26.217   2.705 -17.014  1.00 35.49     0.159 C 
ENDROOT
BRANCH   1   2
ATOM      2  CB  ARG D 557     -26.789   1.319 -17.183  1.00 35.49     0.034 C 
BRANCH   2   3
ATOM      3  CG  ARG D 557     -28.230   1.166 -16.949  1.00 35.49     0.027 C 
BRANCH   3   4
ATOM      4  CD  ARG D 557     -28.626  -0.250 -16.774  1.00 35.49     0.116 C 
BRANCH   4   5
ATOM      5  NE  ARG D 557     -27.632  -1.007 -16.060  1.00 35.49    -0.212 N 
ATOM      6  CZ  ARG D 557     -27.458  -2.308 -16.132  1.00 35.49     0.666 C 
ATOM      7  NH1 ARG D 557     -28.217  -3.084 -16.885  1.00 35.49    -0.235 N 
ATOM      8  NH2 ARG D 557     -26.492  -2.824 -15.430  1.00 35.49    -0.235 N 
ATOM      9  HH  ARG D 557     -28.857  -2.765 -17.356  1.00 35.49     0.174 HD
ATOM     10  HH  ARG D 557     -28.055  -3.925 -16.894  1.00 35.49     0.174 HD
ATOM     11  HH  ARG D 557     -26.014  -2.298 -14.959  1.00 35.49     0.174 HD
ATOM     12  HH  ARG D 557     -26.347  -3.660 -15.454  1.00 35.49     0.174 HD
ATOM     13  HE  ARG D 557     -27.146  -0.596 -15.496  1.00 35.49     0.178 HD
ENDBRANCH   4   5
ENDBRANCH   3   4
ENDBRANCH   2   3
ENDBRANCH   1   2
END_RES ARG D 557
BEGIN_RES GLU D 570
REMARK  3 active torsions:
REMARK  status: ('A' for Active; 'I' for Inactive)
REMARK    5  A    between atoms: CA   and  CB  
REMARK    6  A    between atoms: CB   and  CG  
REMARK    7  A    between atoms: CG   and  CD  
ROOT
ATOM     14  CA  GLU D 570     -18.033  -6.348 -13.375  1.00 32.92     0.160 C 
ENDROOT
BRANCH  14  15
ATOM     15  CB  GLU D 570     -19.500  -6.345 -13.794  1.00 32.92     0.043 C 
BRANCH  15  16
ATOM     16  CG  GLU D 570     -19.798  -6.202 -15.243  1.00 32.92     0.100 C 
BRANCH  16  17
ATOM     17  CD  GLU D 570     -21.065  -5.423 -15.510  1.00 32.92     0.185 C 
ATOM     18  OE1 GLU D 570     -21.796  -5.110 -14.551  1.00 32.92    -0.647 OA
ATOM     19  OE2 GLU D 570     -21.338  -5.139 -16.692  1.00 32.92    -0.647 OA
ENDBRANCH  16  17
ENDBRANCH  15  16
ENDBRANCH  14  15
END_RES GLU D 570
ENDMDL
MODEL 3
REMARK VINA RESULT:      -4.9      3.334      3.968
REMARK  0 active torsions:
REMARK  status: ('A' for Active; 'I' for Inactive)
ROOT
HETATM    1  C   UNL     1     -24.357  -3.683 -10.375  1.00  0.00     0.168 C 
HETATM    2  N   UNL     1     -22.949  -3.851 -10.125  1.00  0.00    -0.288 N 
HETATM    3  C   UNL     1     -21.980  -3.925 -11.105  1.00  0.00     0.255 A 
HETATM    4  O   UNL     1     -22.134  -3.862 -12.314  1.00  0.00    -0.267 OA
HETATM    5  C   UNL     1     -20.651  -4.103 -10.487  1.00  0.00     0.108 A 
HETATM    6  C   UNL     1     -20.749  -4.144  -9.158  1.00  0.00     0.096 A 
HETATM    7  S   UNL     1     -22.352  -3.983  -8.539  1.00  0.00     0.003 SA
HETATM    8 CL   UNL     1     -19.407  -4.341  -8.120  1.00  0.00    -0.075 Cl
ENDROOT
TORSDOF 0
BEGIN_RES ARG D 557
REMARK  4 active torsions:
REMARK  status: ('A' for Active; 'I' for Inactive)
REMARK    1  A    between atoms: CA   and  CB  
REMARK    2  A    between atoms: CB   and  CG  
REMARK    3  A    between atoms: CG   and  CD  
REMARK    4  A    between atoms: CD   and  NE  
REMARK       I    between atoms: NE   and  CZ  
REMARK       I    between atoms: CZ   and  NH1 
REMARK       I    between atoms: CZ   and  NH2 
ROOT
ATOM      1  CA  ARG D 557     -26.217   2.705 -17.014  1.00 35.49     0.159 C 
ENDROOT
BRANCH   1   2
ATOM      2  CB  ARG D 557     -26.789   1.319 -17.183  1.00 35.49     0.034 C 
BRANCH   2   3
ATOM      3  CG  ARG D 557     -25.839   0.201 -17.129  1.00 35.49     0.027 C 
BRANCH   3   4
ATOM      4  CD  ARG D 557     -24.746   0.436 -16.159  1.00 35.49     0.116 C 
BRANCH   4   5
ATOM      5  NE  ARG D 557     -24.844  -0.428 -15.012  1.00 35.49    -0.212 N 
ATOM      6  CZ  ARG D 557     -24.004  -1.391 -14.702  1.00 35.49     0.666 C 
ATOM      7  NH1 ARG D 557     -22.954  -1.683 -15.446  1.00 35.49    -0.235 N 
ATOM      8  NH2 ARG D 557     -24.237  -2.062 -13.611  1.00 35.49    -0.235 N 
ATOM      9  HH  ARG D 557     -22.780  -1.253 -16.167  1.00 35.49     0.174 HD
ATOM     10  HH  ARG D 557     -22.440  -2.320 -15.192  1.00 35.49     0.174 HD
ATOM     11  HH  ARG D 557     -24.918  -1.846 -13.146  1.00 35.49     0.174 HD
ATOM     12  HH  ARG D 557     -23.715  -2.687 -13.376  1.00 35.49     0.174 HD
ATOM     13  HE  ARG D 557     -25.531  -0.358 -14.516  1.00 35.49     0.178 HD
ENDBRANCH   4   5
ENDBRANCH   3   4
ENDBRANCH   2   3
ENDBRANCH   1   2
END_RES ARG D 557
BEGIN_RES GLU D 570
REMARK  3 active torsions:
REMARK  status: ('A' for Active; 'I' for Inactive)
REMARK    5  A    between atoms: CA   and  CB  
REMARK    6  A    between atoms: CB   and  CG  
REMARK    7  A    between atoms: CG   and  CD  
ROOT
ATOM     14  CA  GLU D 570     -18.033  -6.348 -13.375  1.00 32.92     0.160 C 
ENDROOT
BRANCH  14  15
ATOM     15  CB  GLU D 570     -19.500  -6.345 -13.794  1.00 32.92     0.043 C 
BRANCH  15  16
ATOM     16  CG  GLU D 570     -19.824  -5.828 -15.149  1.00 32.92     0.100 C 
BRANCH  16  17
ATOM     17  CD  GLU D 570     -21.304  -5.604 -15.356  1.00 32.92     0.185 C 
ATOM     18  OE1 GLU D 570     -21.703  -4.474 -15.698  1.00 32.92    -0.647 OA
ATOM     19  OE2 GLU D 570     -22.074  -6.564 -15.157  1.00 32.92    -0.647 OA
ENDBRANCH  16  17
ENDBRANCH  15  16
ENDBRANCH  14  15
END_RES GLU D 570
ENDMDL
MODEL 4
REMARK VINA RESULT:      -4.9      4.357      6.105
REMARK  0 active torsions:
REMARK  status: ('A' for Active; 'I' for Inactive)
ROOT
HETATM    1  C   UNL     1     -26.906  -3.787 -15.535  1.00  0.00     0.168 C 
HETATM    2  N   UNL     1     -27.881  -4.385 -16.411  1.00  0.00    -0.288 N 
HETATM    3  C   UNL     1     -28.764  -3.679 -17.203  1.00  0.00     0.255 A 
HETATM    4  O   UNL     1     -28.875  -2.468 -17.302  1.00  0.00    -0.267 OA
HETATM    5  C   UNL     1     -29.618  -4.614 -17.963  1.00  0.00     0.108 A 
HETATM    6  C   UNL     1     -29.304  -5.878 -17.678  1.00  0.00     0.096 A 
HETATM    7  S   UNL     1     -28.025  -6.073 -16.535  1.00  0.00     0.003 SA
HETATM    8 CL   UNL     1     -30.090  -7.224 -18.376  1.00  0.00    -0.075 Cl
ENDROOT
TORSDOF 0
BEGIN_RES ARG D 557
REMARK  4 active torsions:
REMARK  status: ('A' for Active; 'I' for Inactive)
REMARK    1  A    between atoms: CA   and  CB  
REMARK    2  A    between atoms: CB   and  CG  
REMARK    3  A    between atoms: CG   and  CD  
REMARK    4  A    between atoms: CD   and  NE  
REMARK       I    between atoms: NE   and  CZ  
REMARK       I    between atoms: CZ   and  NH1 
REMARK       I    between atoms: CZ   and  NH2 
ROOT
ATOM      1  CA  ARG D 557     -26.217   2.705 -17.014  1.00 35.49     0.159 C 
ENDROOT
BRANCH   1   2
ATOM      2  CB  ARG D 557     -26.789   1.319 -17.183  1.00 35.49     0.034 C 
BRANCH   2   3
ATOM      3  CG  ARG D 557     -25.835   0.204 -17.165  1.00 35.49     0.027 C 
BRANCH   3   4
ATOM      4  CD  ARG D 557     -24.741   0.412 -16.188  1.00 35.49     0.116 C 
BRANCH   4   5
ATOM      5  NE  ARG D 557     -24.885  -0.424 -15.026  1.00 35.49    -0.212 N 
ATOM      6  CZ  ARG D 557     -24.075  -1.397 -14.675  1.00 35.49     0.666 C 
ATOM      7  NH1 ARG D 557     -23.013  -1.728 -15.387  1.00 35.49    -0.235 N 
ATOM      8  NH2 ARG D 557     -24.348  -2.039 -13.576  1.00 35.49    -0.235 N 
ATOM      9  HH  ARG D 557     -22.814  -1.318 -16.113  1.00 35.49     0.174 HD
ATOM     10  HH  ARG D 557     -22.519  -2.370 -15.108  1.00 35.49     0.174 HD
ATOM     11  HH  ARG D 557     -25.035  -1.798 -13.133  1.00 35.49     0.174 HD
ATOM     12  HH  ARG D 557     -23.846  -2.670 -13.315  1.00 35.49     0.174 HD
ATOM     13  HE  ARG D 557     -25.583  -0.328 -14.549  1.00 35.49     0.178 HD
ENDBRANCH   4   5
ENDBRANCH   3   4
ENDBRANCH   2   3
ENDBRANCH   1   2
END_RES ARG D 557
BEGIN_RES GLU D 570
REMARK  3 active torsions:
REMARK  status: ('A' for Active; 'I' for Inactive)
REMARK    5  A    between atoms: CA   and  CB  
REMARK    6  A    between atoms: CB   and  CG  
REMARK    7  A    between atoms: CG   and  CD  
ROOT
ATOM     14  CA  GLU D 570     -18.033  -6.348 -13.375  1.00 32.92     0.160 C 
ENDROOT
BRANCH  14  15
ATOM     15  CB  GLU D 570     -19.500  -6.345 -13.794  1.00 32.92     0.043 C 
BRANCH  15  16
ATOM     16  CG  GLU D 570     -20.440  -5.522 -12.990  1.00 32.92     0.100 C 
BRANCH  16  17
ATOM     17  CD  GLU D 570     -21.739  -5.240 -13.708  1.00 32.92     0.185 C 
ATOM     18  OE1 GLU D 570     -22.315  -4.152 -13.512  1.00 32.92    -0.647 OA
ATOM     19  OE2 GLU D 570     -22.194  -6.123 -14.461  1.00 32.92    -0.647 OA
ENDBRANCH  16  17
ENDBRANCH  15  16
ENDBRANCH  14  15
END_RES GLU D 570
ENDMDL
MODEL 5
REMARK VINA RESULT:      -4.7      4.024      5.870
REMARK  0 active torsions:
REMARK  status: ('A' for Active; 'I' for Inactive)
ROOT
HETATM    1  C   UNL     1     -26.748  -6.696 -15.975  1.00  0.00     0.168 C 
HETATM    2  N   UNL     1     -27.495  -5.587 -16.512  1.00  0.00    -0.288 N 
HETATM    3  C   UNL     1     -28.398  -5.678 -17.551  1.00  0.00     0.255 A 
HETATM    4  O   UNL     1     -28.719  -6.676 -18.178  1.00  0.00    -0.267 OA
HETATM    5  C   UNL     1     -28.970  -4.348 -17.842  1.00  0.00     0.108 A 
HETATM    6  C   UNL     1     -28.459  -3.426 -17.024  1.00  0.00     0.096 A 
HETATM    7  S   UNL     1     -27.305  -4.019 -15.886  1.00  0.00     0.003 SA
HETATM    8 CL   UNL     1     -28.894  -1.776 -17.077  1.00  0.00    -0.075 Cl
ENDROOT
TORSDOF 0
BEGIN_RES ARG D 557
REMARK  4 active torsions:
REMARK  status: ('A' for Active; 'I' for Inactive)
REMARK    1  A    between atoms: CA   and  CB  
REMARK    2  A    between atoms: CB   and  CG  
REMARK    3  A    between atoms: CG   and  CD  
REMARK    4  A    between atoms: CD   and  NE  
REMARK       I    between atoms: NE   and  CZ  
REMARK       I    between atoms: CZ   and  NH1 
REMARK       I    between atoms: CZ   and  NH2 
ROOT
ATOM      1  CA  ARG D 557     -26.217   2.705 -17.014  1.00 35.49     0.159 C 
ENDROOT
BRANCH   1   2
ATOM      2  CB  ARG D 557     -26.789   1.319 -17.183  1.00 35.49     0.034 C 
BRANCH   2   3
ATOM      3  CG  ARG D 557     -25.839   0.201 -17.133  1.00 35.49     0.027 C 
BRANCH   3   4
ATOM      4  CD  ARG D 557     -24.771   0.413 -16.129  1.00 35.49     0.116 C 
BRANCH   4   5
ATOM      5  NE  ARG D 557     -24.901  -0.473 -15.003  1.00 35.49    -0.212 N 
ATOM      6  CZ  ARG D 557     -24.068  -1.438 -14.684  1.00 35.49     0.666 C 
ATOM      7  NH1 ARG D 557     -22.992  -1.711 -15.400  1.00 35.49    -0.235 N 
ATOM      8  NH2 ARG D 557     -24.332  -2.131 -13.615  1.00 35.49    -0.235 N 
ATOM      9  HH  ARG D 557     -22.798  -1.267 -16.106  1.00 35.49     0.174 HD
ATOM     10  HH  ARG D 557     -22.483  -2.350 -15.142  1.00 35.49     0.174 HD
ATOM     11  HH  ARG D 557     -25.029  -1.927 -13.168  1.00 35.49     0.174 HD
ATOM     12  HH  ARG D 557     -23.815  -2.759 -13.375  1.00 35.49     0.174 HD
ATOM     13  HE  ARG D 557     -25.605  -0.416 -14.528  1.00 35.49     0.178 HD
ENDBRANCH   4   5
ENDBRANCH   3   4
ENDBRANCH   2   3
ENDBRANCH   1   2
END_RES ARG D 557
BEGIN_RES GLU D 570
REMARK  3 active torsions:
REMARK  status: ('A' for Active; 'I' for Inactive)
REMARK    5  A    between atoms: CA   and  CB  
REMARK    6  A    between atoms: CB   and  CG  
REMARK    7  A    between atoms: CG   and  CD  
ROOT
ATOM     14  CA  GLU D 570     -18.033  -6.348 -13.375  1.00 32.92     0.160 C 
ENDROOT
BRANCH  14  15
ATOM     15  CB  GLU D 570     -19.500  -6.345 -13.794  1.00 32.92     0.043 C 
BRANCH  15  16
ATOM     16  CG  GLU D 570     -20.449  -5.563 -12.960  1.00 32.92     0.100 C 
BRANCH  16  17
ATOM     17  CD  GLU D 570     -21.646  -5.066 -13.737  1.00 32.92     0.185 C 
ATOM     18  OE1 GLU D 570     -21.619  -5.110 -14.982  1.00 32.92    -0.647 OA
ATOM     19  OE2 GLU D 570     -22.613  -4.614 -13.094  1.00 32.92    -0.647 OA
ENDBRANCH  16  17
ENDBRANCH  15  16
ENDBRANCH  14  15
END_RES GLU D 570
ENDMDL
MODEL 6
REMARK VINA RESULT:      -4.6      3.871      5.914
REMARK  0 active torsions:
REMARK  status: ('A' for Active; 'I' for Inactive)
ROOT
HETATM    1  C   UNL     1     -28.732  -2.248 -16.997  1.00  0.00     0.168 C 
HETATM    2  N   UNL     1     -28.264  -3.609 -16.937  1.00  0.00    -0.288 N 
HETATM    3  C   UNL     1     -28.680  -4.620 -17.778  1.00  0.00     0.255 A 
HETATM    4  O   UNL     1     -29.488  -4.549 -18.690  1.00  0.00    -0.267 OA
HETATM    5  C   UNL     1     -27.998  -5.882 -17.426  1.00  0.00     0.108 A 
HETATM    6  C   UNL     1     -27.169  -5.700 -16.397  1.00  0.00     0.096 A 
HETATM    7  S   UNL     1     -27.121  -4.090 -15.775  1.00  0.00     0.003 SA
HETATM    8 CL   UNL     1     -26.216  -6.945 -15.723  1.00  0.00    -0.075 Cl
ENDROOT
TORSDOF 0
BEGIN_RES ARG D 557
REMARK  4 active torsions:
REMARK  status: ('A' for Active; 'I' for Inactive)
REMARK    1  A    between atoms: CA   and  CB  
REMARK    2  A    between atoms: CB   and  CG  
REMARK    3  A    between atoms: CG   and  CD  
REMARK    4  A    between atoms: CD   and  NE  
REMARK       I    between atoms: NE   and  CZ  
REMARK       I    between atoms: CZ   and  NH1 
REMARK       I    between atoms: CZ   and  NH2 
ROOT
ATOM      1  CA  ARG D 557     -26.217   2.705 -17.014  1.00 35.49     0.159 C 
ENDROOT
BRANCH   1   2
ATOM      2  CB  ARG D 557     -26.789   1.319 -17.183  1.00 35.49     0.034 C 
BRANCH   2   3
ATOM      3  CG  ARG D 557     -25.836   0.203 -17.158  1.00 35.49     0.027 C 
BRANCH   3   4
ATOM      4  CD  ARG D 557     -24.765   0.398 -16.154  1.00 35.49     0.116 C 
BRANCH   4   5
ATOM      5  NE  ARG D 557     -24.930  -0.460 -15.010  1.00 35.49    -0.212 N 
ATOM      6  CZ  ARG D 557     -24.122  -1.435 -14.658  1.00 35.49     0.666 C 
ATOM      7  NH1 ARG D 557     -23.042  -1.746 -15.352  1.00 35.49    -0.235 N 
ATOM      8  NH2 ARG D 557     -24.416  -2.098 -13.578  1.00 35.49    -0.235 N 
ATOM      9  HH  ARG D 557     -22.828  -1.321 -16.065  1.00 35.49     0.174 HD
ATOM     10  HH  ARG D 557     -22.551  -2.390 -15.072  1.00 35.49     0.174 HD
ATOM     11  HH  ARG D 557     -25.115  -1.870 -13.146  1.00 35.49     0.174 HD
ATOM     12  HH  ARG D 557     -23.916  -2.731 -13.317  1.00 35.49     0.174 HD
ATOM     13  HE  ARG D 557     -25.639  -0.377 -14.548  1.00 35.49     0.178 HD
ENDBRANCH   4   5
ENDBRANCH   3   4
ENDBRANCH   2   3
ENDBRANCH   1   2
END_RES ARG D 557
BEGIN_RES GLU D 570
REMARK  3 active torsions:
REMARK  status: ('A' for Active; 'I' for Inactive)
REMARK    5  A    between atoms: CA   and  CB  
REMARK    6  A    between atoms: CB   and  CG  
REMARK    7  A    between atoms: CG   and  CD  
ROOT
ATOM     14  CA  GLU D 570     -18.033  -6.348 -13.375  1.00 32.92     0.160 C 
ENDROOT
BRANCH  14  15
ATOM     15  CB  GLU D 570     -19.500  -6.345 -13.794  1.00 32.92     0.043 C 
BRANCH  15  16
ATOM     16  CG  GLU D 570     -20.443  -5.536 -12.979  1.00 32.92     0.100 C 
BRANCH  16  17
ATOM     17  CD  GLU D 570     -21.735  -5.232 -13.702  1.00 32.92     0.185 C 
ATOM     18  OE1 GLU D 570     -22.306  -4.146 -13.489  1.00 32.92    -0.647 OA
ATOM     19  OE2 GLU D 570     -22.189  -6.097 -14.476  1.00 32.92    -0.647 OA
ENDBRANCH  16  17
ENDBRANCH  15  16
ENDBRANCH  14  15
END_RES GLU D 570
ENDMDL
MODEL 7
REMARK VINA RESULT:      -4.6      3.640      4.539
REMARK  0 active torsions:
REMARK  status: ('A' for Active; 'I' for Inactive)
ROOT
HETATM    1  C   UNL     1     -23.388  -4.418  -9.659  1.00  0.00     0.168 C 
HETATM    2  N   UNL     1     -22.269  -4.414  -8.753  1.00  0.00    -0.288 N 
HETATM    3  C   UNL     1     -22.369  -4.495  -7.379  1.00  0.00     0.255 A 
HETATM    4  O   UNL     1     -23.385  -4.585  -6.708  1.00  0.00    -0.267 OA
HETATM    5  C   UNL     1     -21.024  -4.458  -6.771  1.00  0.00     0.108 A 
HETATM    6  C   UNL     1     -20.084  -4.356  -7.711  1.00  0.00     0.096 A 
HETATM    7  S   UNL     1     -20.676  -4.297  -9.332  1.00  0.00     0.003 SA
HETATM    8 CL   UNL     1     -18.413  -4.285  -7.368  1.00  0.00    -0.075 Cl
ENDROOT
TORSDOF 0
BEGIN_RES ARG D 557
REMARK  4 active torsions:
REMARK  status: ('A' for Active; 'I' for Inactive)
REMARK    1  A    between atoms: CA   and  CB  
REMARK    2  A    between atoms: CB   and  CG  
REMARK    3  A    between atoms: CG   and  CD  
REMARK    4  A    between atoms: CD   and  NE  
REMARK       I    between atoms: NE   and  CZ  
REMARK       I    between atoms: CZ   and  NH1 
REMARK       I    between atoms: CZ   and  NH2 
ROOT
ATOM      1  CA  ARG D 557     -26.217   2.705 -17.014  1.00 35.49     0.159 C 
ENDROOT
BRANCH   1   2
ATOM      2  CB  ARG D 557     -26.789   1.319 -17.183  1.00 35.49     0.034 C 
BRANCH   2   3
ATOM      3  CG  ARG D 557     -25.836   0.203 -17.151  1.00 35.49     0.027 C 
BRANCH   3   4
ATOM      4  CD  ARG D 557     -24.760   0.408 -16.155  1.00 35.49     0.116 C 
BRANCH   4   5
ATOM      5  NE  ARG D 557     -24.912  -0.449 -15.008  1.00 35.49    -0.212 N 
ATOM      6  CZ  ARG D 557     -24.097  -1.419 -14.661  1.00 35.49     0.666 C 
ATOM      7  NH1 ARG D 557     -23.022  -1.728 -15.363  1.00 35.49    -0.235 N 
ATOM      8  NH2 ARG D 557     -24.378  -2.081 -13.576  1.00 35.49    -0.235 N 
ATOM      9  HH  ARG D 557     -22.816  -1.305 -16.079  1.00 35.49     0.174 HD
ATOM     10  HH  ARG D 557     -22.526  -2.369 -15.087  1.00 35.49     0.174 HD
ATOM     11  HH  ARG D 557     -25.075  -1.854 -13.139  1.00 35.49     0.174 HD
ATOM     12  HH  ARG D 557     -23.874  -2.712 -13.318  1.00 35.49     0.174 HD
ATOM     13  HE  ARG D 557     -25.617  -0.367 -14.539  1.00 35.49     0.178 HD
ENDBRANCH   4   5
ENDBRANCH   3   4
ENDBRANCH   2   3
ENDBRANCH   1   2
END_RES ARG D 557
BEGIN_RES GLU D 570
REMARK  3 active torsions:
REMARK  status: ('A' for Active; 'I' for Inactive)
REMARK    5  A    between atoms: CA   and  CB  
REMARK    6  A    between atoms: CB   and  CG  
REMARK    7  A    between atoms: CG   and  CD  
ROOT
ATOM     14  CA  GLU D 570     -18.033  -6.348 -13.375  1.00 32.92     0.160 C 
ENDROOT
BRANCH  14  15
ATOM     15  CB  GLU D 570     -19.500  -6.345 -13.794  1.00 32.92     0.043 C 
BRANCH  15  16
ATOM     16  CG  GLU D 570     -20.443  -5.536 -12.980  1.00 32.92     0.100 C 
BRANCH  16  17
ATOM     17  CD  GLU D 570     -21.729  -5.220 -13.707  1.00 32.92     0.185 C 
ATOM     18  OE1 GLU D 570     -22.160  -6.027 -14.553  1.00 32.92    -0.647 OA
ATOM     19  OE2 GLU D 570     -22.303  -4.146 -13.440  1.00 32.92    -0.647 OA
ENDBRANCH  16  17
ENDBRANCH  15  16
ENDBRANCH  14  15
END_RES GLU D 570
ENDMDL
MODEL 8
REMARK VINA RESULT:      -4.4      3.462      4.269
REMARK  0 active torsions:
REMARK  status: ('A' for Active; 'I' for Inactive)
ROOT
HETATM    1  C   UNL     1     -20.561  -5.113  -5.424  1.00  0.00     0.168 C 
HETATM    2  N   UNL     1     -20.904  -4.675  -6.753  1.00  0.00    -0.288 N 
HETATM    3  C   UNL     1     -22.193  -4.508  -7.216  1.00  0.00     0.255 A 
HETATM    4  O   UNL     1     -23.236  -4.691  -6.608  1.00  0.00    -0.267 OA
HETATM    5  C   UNL     1     -22.170  -4.056  -8.622  1.00  0.00     0.108 A 
HETATM    6  C   UNL     1     -20.916  -3.934  -9.057  1.00  0.00     0.096 A 
HETATM    7  S   UNL     1     -19.699  -4.324  -7.898  1.00  0.00     0.003 SA
HETATM    8 CL   UNL     1     -20.512  -3.432 -10.639  1.00  0.00    -0.075 Cl
ENDROOT
TORSDOF 0
BEGIN_RES ARG D 557
REMARK  4 active torsions:
REMARK  status: ('A' for Active; 'I' for Inactive)
REMARK    1  A    between atoms: CA   and  CB  
REMARK    2  A    between atoms: CB   and  CG  
REMARK    3  A    between atoms: CG   and  CD  
REMARK    4  A    between atoms: CD   and  NE  
REMARK       I    between atoms: NE   and  CZ  
REMARK       I    between atoms: CZ   and  NH1 
REMARK       I    between atoms: CZ   and  NH2 
ROOT
ATOM      1  CA  ARG D 557     -26.217   2.705 -17.014  1.00 35.49     0.159 C 
ENDROOT
BRANCH   1   2
ATOM      2  CB  ARG D 557     -26.789   1.319 -17.183  1.00 35.49     0.034 C 
BRANCH   2   3
ATOM      3  CG  ARG D 557     -25.834   0.205 -17.176  1.00 35.49     0.027 C 
BRANCH   3   4
ATOM      4  CD  ARG D 557     -24.742   0.403 -16.195  1.00 35.49     0.116 C 
BRANCH   4   5
ATOM      5  NE  ARG D 557     -24.893  -0.440 -15.038  1.00 35.49    -0.212 N 
ATOM      6  CZ  ARG D 557     -24.075  -1.404 -14.679  1.00 35.49     0.666 C 
ATOM      7  NH1 ARG D 557     -23.000  -1.719 -15.377  1.00 35.49    -0.235 N 
ATOM      8  NH2 ARG D 557     -24.356  -2.054 -13.587  1.00 35.49    -0.235 N 
ATOM      9  HH  ARG D 557     -22.795  -1.304 -16.098  1.00 35.49     0.174 HD
ATOM     10  HH  ARG D 557     -22.502  -2.356 -15.093  1.00 35.49     0.174 HD
ATOM     11  HH  ARG D 557     -25.053  -1.824 -13.152  1.00 35.49     0.174 HD
ATOM     12  HH  ARG D 557     -23.850  -2.680 -13.321  1.00 35.49     0.174 HD
ATOM     13  HE  ARG D 557     -25.598  -0.354 -14.571  1.00 35.49     0.178 HD
ENDBRANCH   4   5
ENDBRANCH   3   4
ENDBRANCH   2   3
ENDBRANCH   1   2
END_RES ARG D 557
BEGIN_RES GLU D 570
REMARK  3 active torsions:
REMARK  status: ('A' for Active; 'I' for Inactive)
REMARK    5  A    between atoms: CA   and  CB  
REMARK    6  A    between atoms: CB   and  CG  
REMARK    7  A    between atoms: CG   and  CD  
ROOT
ATOM     14  CA  GLU D 570     -18.033  -6.348 -13.375  1.00 32.92     0.160 C 
ENDROOT
BRANCH  14  15
ATOM     15  CB  GLU D 570     -19.500  -6.345 -13.794  1.00 32.92     0.043 C 
BRANCH  15  16
ATOM     16  CG  GLU D 570     -20.444  -5.542 -12.975  1.00 32.92     0.100 C 
BRANCH  16  17
ATOM     17  CD  GLU D 570     -21.741  -5.246 -13.691  1.00 32.92     0.185 C 
ATOM     18  OE1 GLU D 570     -22.305  -4.152 -13.496  1.00 32.92    -0.647 OA
ATOM     19  OE2 GLU D 570     -22.208  -6.125 -14.442  1.00 32.92    -0.647 OA
ENDBRANCH  16  17
ENDBRANCH  15  16
ENDBRANCH  14  15
END_RES GLU D 570
ENDMDL
MODEL 9
REMARK VINA RESULT:      -4.4      2.250      2.782
REMARK  0 active torsions:
REMARK  status: ('A' for Active; 'I' for Inactive)
ROOT
HETATM    1  C   UNL     1     -24.604  -5.936 -15.051  1.00  0.00     0.168 C 
HETATM    2  N   UNL     1     -24.127  -4.828 -14.264  1.00  0.00    -0.288 N 
HETATM    3  C   UNL     1     -24.637  -3.547 -14.319  1.00  0.00     0.255 A 
HETATM    4  O   UNL     1     -25.552  -3.137 -15.015  1.00  0.00    -0.267 OA
HETATM    5  C   UNL     1     -23.905  -2.671 -13.384  1.00  0.00     0.108 A 
HETATM    6  C   UNL     1     -22.954  -3.353 -12.744  1.00  0.00     0.096 A 
HETATM    7  S   UNL     1     -22.841  -5.022 -13.170  1.00  0.00     0.003 SA
HETATM    8 CL   UNL     1     -21.910  -2.655 -11.587  1.00  0.00    -0.075 Cl
ENDROOT
TORSDOF 0
BEGIN_RES ARG D 557
REMARK  4 active torsions:
REMARK  status: ('A' for Active; 'I' for Inactive)
REMARK    1  A    between atoms: CA   and  CB  
REMARK    2  A    between atoms: CB   and  CG  
REMARK    3  A    between atoms: CG   and  CD  
REMARK    4  A    between atoms: CD   and  NE  
REMARK       I    between atoms: NE   and  CZ  
REMARK       I    between atoms: CZ   and  NH1 
REMARK       I    between atoms: CZ   and  NH2 
ROOT
ATOM      1  CA  ARG D 557     -26.217   2.705 -17.014  1.00 35.49     0.159 C 
ENDROOT
BRANCH   1   2
ATOM      2  CB  ARG D 557     -26.789   1.319 -17.183  1.00 35.49     0.034 C 
BRANCH   2   3
ATOM      3  CG  ARG D 557     -28.147   1.098 -16.672  1.00 35.49     0.027 C 
BRANCH   3   4
ATOM      4  CD  ARG D 557     -28.794  -0.086 -17.283  1.00 35.49     0.116 C 
BRANCH   4   5
ATOM      5  NE  ARG D 557     -28.185  -1.318 -16.854  1.00 35.49    -0.212 N 
ATOM      6  CZ  ARG D 557     -28.676  -2.523 -17.040  1.00 35.49     0.666 C 
ATOM      7  NH1 ARG D 557     -29.828  -2.733 -17.650  1.00 35.49    -0.235 N 
ATOM      8  NH2 ARG D 557     -27.977  -3.529 -16.603  1.00 35.49    -0.235 N 
ATOM      9  HH  ARG D 557     -30.303  -2.085 -17.948  1.00 35.49     0.174 HD
ATOM     10  HH  ARG D 557     -30.097  -3.541 -17.745  1.00 35.49     0.174 HD
ATOM     11  HH  ARG D 557     -27.234  -3.364 -16.219  1.00 35.49     0.174 HD
ATOM     12  HH  ARG D 557     -28.260  -4.322 -16.708  1.00 35.49     0.174 HD
ATOM     13  HE  ARG D 557     -27.475  -1.271 -16.388  1.00 35.49     0.178 HD
ENDBRANCH   4   5
ENDBRANCH   3   4
ENDBRANCH   2   3
ENDBRANCH   1   2
END_RES ARG D 557
BEGIN_RES GLU D 570
REMARK  3 active torsions:
REMARK  status: ('A' for Active; 'I' for Inactive)
REMARK    5  A    between atoms: CA   and  CB  
REMARK    6  A    between atoms: CB   and  CG  
REMARK    7  A    between atoms: CG   and  CD  
ROOT
ATOM     14  CA  GLU D 570     -18.033  -6.348 -13.375  1.00 32.92     0.160 C 
ENDROOT
BRANCH  14  15
ATOM     15  CB  GLU D 570     -19.500  -6.345 -13.794  1.00 32.92     0.043 C 
BRANCH  15  16
ATOM     16  CG  GLU D 570     -20.092  -7.638 -14.225  1.00 32.92     0.100 C 
BRANCH  16  17
ATOM     17  CD  GLU D 570     -20.769  -7.556 -15.573  1.00 32.92     0.185 C 
ATOM     18  OE1 GLU D 570     -21.042  -6.437 -16.046  1.00 32.92    -0.647 OA
ATOM     19  OE2 GLU D 570     -21.045  -8.624 -16.154  1.00 32.92    -0.647 OA
ENDBRANCH  16  17
ENDBRANCH  15  16
ENDBRANCH  14  15
END_RES GLU D 570
ENDMDL
