MODEL 1
REMARK VINA RESULT:      -8.1      0.000      0.000
REMARK  14 active torsions:
REMARK  status: ('A' for Active; 'I' for Inactive)
REMARK    1  A    between atoms: C_4  and  O_30 
REMARK    2  A    between atoms: C_9  and  C_13 
REMARK    3  A    between atoms: C_13  and  C_14 
REMARK    4  A    between atoms: C_14  and  C_15 
REMARK    5  A    between atoms: C_15  and  C_16 
REMARK    6  A    between atoms: C_16  and  C_18 
REMARK    7  A    between atoms: C_18  and  C_19 
REMARK    8  A    between atoms: C_19  and  C_20 
REMARK    9  A    between atoms: C_20  and  C_21 
REMARK   10  A    between atoms: C_21  and  C_23 
REMARK   11  A    between atoms: C_23  and  C_24 
REMARK   12  A    between atoms: C_24  and  C_25 
REMARK   13  A    between atoms: C_25  and  C_26 
REMARK   14  A    between atoms: O_30  and  C_31 
ROOT
HETATM    1  C   UNL     1     -24.306  -4.507  -7.170  1.00  0.00     0.052 C 
HETATM    2  C   UNL     1     -23.240  -4.253  -8.208  1.00  0.00    -0.019 C 
HETATM    3  C   UNL     1     -23.512  -3.865  -9.539  1.00  0.00    -0.019 C 
HETATM    4  C   UNL     1     -22.429  -3.714 -10.448  1.00  0.00     0.092 C 
HETATM    5  C   UNL     1     -21.096  -3.948 -10.071  1.00  0.00    -0.018 C 
HETATM    6  C   UNL     1     -20.830  -4.228  -8.716  1.00  0.00    -0.015 C 
HETATM    7  C   UNL     1     -21.887  -4.444  -7.826  1.00  0.00     0.083 C 
HETATM    8  O   UNL     1     -21.689  -4.888  -6.528  1.00  0.00    -0.339 OA
HETATM    9  C   UNL     1     -20.378  -5.416  -6.237  1.00  0.00     0.064 C 
HETATM   10  C   UNL     1     -19.320  -4.436  -6.753  1.00  0.00     0.043 C 
HETATM   11  C   UNL     1     -19.399  -4.336  -8.254  1.00  0.00     0.045 C 
HETATM   12  C   UNL     1     -20.257  -6.831  -6.838  1.00  0.00     0.046 C 
HETATM   13  C   UNL     1     -19.949  -3.927 -11.049  1.00  0.00     0.052 C 
HETATM   14  C   UNL     1     -24.907  -3.631 -10.069  1.00  0.00     0.052 C 
ENDROOT
BRANCH   9  15
HETATM   15  C   UNL     1     -20.243  -5.547  -4.700  1.00  0.00     0.038 C 
BRANCH  15  16
HETATM   16  C   UNL     1     -21.288  -6.493  -4.113  1.00  0.00     0.003 C 
BRANCH  16  17
HETATM   17  C   UNL     1     -21.622  -6.177  -2.666  1.00  0.00     0.004 C 
BRANCH  17  18
HETATM   18  C   UNL     1     -21.738  -7.475  -1.840  1.00  0.00    -0.019 C 
HETATM   19  C   UNL     1     -20.365  -8.089  -1.551  1.00  0.00     0.010 C 
BRANCH  18  20
HETATM   20  C   UNL     1     -22.487  -7.231  -0.525  1.00  0.00     0.004 C 
BRANCH  20  21
HETATM   21  C   UNL     1     -22.365  -8.432   0.411  1.00  0.00     0.001 C 
BRANCH  21  22
HETATM   22  C   UNL     1     -23.507  -9.412   0.199  1.00  0.00     0.004 C 
BRANCH  22  23
HETATM   23  C   UNL     1     -23.026 -10.755  -0.383  1.00  0.00    -0.019 C 
HETATM   24  C   UNL     1     -23.599 -11.945   0.391  1.00  0.00     0.010 C 
BRANCH  23  25
HETATM   25  C   UNL     1     -23.390 -10.865  -1.876  1.00  0.00     0.004 C 
BRANCH  25  26
HETATM   26  C   UNL     1     -22.182 -11.283  -2.717  1.00  0.00     0.001 C 
BRANCH  26  27
HETATM   27  C   UNL     1     -21.996 -10.421  -3.962  1.00  0.00     0.004 C 
BRANCH  27  28
HETATM   28  C   UNL     1     -20.789 -10.885  -4.799  1.00  0.00    -0.023 C 
HETATM   29  C   UNL     1     -21.169 -11.212  -6.245  1.00  0.00     0.009 C 
HETATM   30  C   UNL     1     -19.698  -9.818  -4.773  1.00  0.00     0.009 C 
ENDBRANCH  27  28
ENDBRANCH  26  27
ENDBRANCH  25  26
ENDBRANCH  23  25
ENDBRANCH  22  23
ENDBRANCH  21  22
ENDBRANCH  20  21
ENDBRANCH  18  20
ENDBRANCH  17  18
ENDBRANCH  16  17
ENDBRANCH  15  16
ENDBRANCH   9  15
BRANCH   4  31
HETATM   31  O   UNL     1     -22.785  -3.456 -11.804  1.00  0.00    -0.278 OA
BRANCH  31  32
HETATM   32  C   UNL     1     -22.974  -4.454 -12.765  1.00  0.00     0.260 C 
HETATM   33  O   UNL     1     -23.453  -5.566 -12.595  1.00  0.00    -0.265 OA
HETATM   34  C   UNL     1     -22.531  -3.923 -14.099  1.00  0.00     0.126 C 
ENDBRANCH  31  32
ENDBRANCH   4  31
TORSDOF 14
BEGIN_RES ARG D 557
REMARK  4 active torsions:
REMARK  status: ('A' for Active; 'I' for Inactive)
REMARK    1  A    between atoms: CA   and  CB  
REMARK    2  A    between atoms: CB   and  CG  
REMARK    3  A    between atoms: CG   and  CD  
REMARK    4  A    between atoms: CD   and  NE  
REMARK       I    between atoms: NE   and  CZ  
REMARK       I    between atoms: CZ   and  NH1 
REMARK       I    between atoms: CZ   and  NH2 
ROOT
ATOM      1  CA  ARG D 557     -26.217   2.705 -17.014  1.00 35.49     0.159 C 
ENDROOT
BRANCH   1   2
ATOM      2  CB  ARG D 557     -26.789   1.319 -17.183  1.00 35.49     0.034 C 
BRANCH   2   3
ATOM      3  CG  ARG D 557     -28.231   1.226 -17.439  1.00 35.49     0.027 C 
BRANCH   3   4
ATOM      4  CD  ARG D 557     -28.912   0.298 -16.507  1.00 35.49     0.116 C 
BRANCH   4   5
ATOM      5  NE  ARG D 557     -29.297  -0.930 -17.150  1.00 35.49    -0.212 N 
ATOM      6  CZ  ARG D 557     -28.666  -2.079 -17.052  1.00 35.49     0.666 C 
ATOM      7  NH1 ARG D 557     -27.565  -2.225 -16.338  1.00 35.49    -0.235 N 
ATOM      8  NH2 ARG D 557     -29.170  -3.097 -17.687  1.00 35.49    -0.235 N 
ATOM      9  HH  ARG D 557     -27.217  -1.569 -15.910  1.00 35.49     0.174 HD
ATOM     10  HH  ARG D 557     -27.198  -2.999 -16.309  1.00 35.49     0.174 HD
ATOM     11  HH  ARG D 557     -29.886  -2.975 -18.134  1.00 35.49     0.174 HD
ATOM     12  HH  ARG D 557     -28.793  -3.855 -17.644  1.00 35.49     0.174 HD
ATOM     13  HE  ARG D 557     -29.955  -0.910 -17.688  1.00 35.49     0.178 HD
ENDBRANCH   4   5
ENDBRANCH   3   4
ENDBRANCH   2   3
ENDBRANCH   1   2
END_RES ARG D 557
BEGIN_RES GLU D 570
REMARK  3 active torsions:
REMARK  status: ('A' for Active; 'I' for Inactive)
REMARK    5  A    between atoms: CA   and  CB  
REMARK    6  A    between atoms: CB   and  CG  
REMARK    7  A    between atoms: CG   and  CD  
ROOT
ATOM     14  CA  GLU D 570     -18.033  -6.348 -13.375  1.00 32.92     0.160 C 
ENDROOT
BRANCH  14  15
ATOM     15  CB  GLU D 570     -19.500  -6.345 -13.794  1.00 32.92     0.043 C 
BRANCH  15  16
ATOM     16  CG  GLU D 570     -19.796  -6.280 -15.248  1.00 32.92     0.100 C 
BRANCH  16  17
ATOM     17  CD  GLU D 570     -20.829  -7.294 -15.685  1.00 32.92     0.185 C 
ATOM     18  OE1 GLU D 570     -21.852  -6.899 -16.276  1.00 32.92    -0.647 OA
ATOM     19  OE2 GLU D 570     -20.619  -8.494 -15.419  1.00 32.92    -0.647 OA
ENDBRANCH  16  17
ENDBRANCH  15  16
ENDBRANCH  14  15
END_RES GLU D 570
ENDMDL
MODEL 2
REMARK VINA RESULT:      -8.0      1.294      2.852
REMARK  14 active torsions:
REMARK  status: ('A' for Active; 'I' for Inactive)
REMARK    1  A    between atoms: C_4  and  O_30 
REMARK    2  A    between atoms: C_9  and  C_13 
REMARK    3  A    between atoms: C_13  and  C_14 
REMARK    4  A    between atoms: C_14  and  C_15 
REMARK    5  A    between atoms: C_15  and  C_16 
REMARK    6  A    between atoms: C_16  and  C_18 
REMARK    7  A    between atoms: C_18  and  C_19 
REMARK    8  A    between atoms: C_19  and  C_20 
REMARK    9  A    between atoms: C_20  and  C_21 
REMARK   10  A    between atoms: C_21  and  C_23 
REMARK   11  A    between atoms: C_23  and  C_24 
REMARK   12  A    between atoms: C_24  and  C_25 
REMARK   13  A    between atoms: C_25  and  C_26 
REMARK   14  A    between atoms: O_30  and  C_31 
ROOT
HETATM    1  C   UNL     1     -24.347  -4.429  -7.221  1.00  0.00     0.052 C 
HETATM    2  C   UNL     1     -23.251  -4.233  -8.240  1.00  0.00    -0.019 C 
HETATM    3  C   UNL     1     -23.481  -3.872  -9.586  1.00  0.00    -0.019 C 
HETATM    4  C   UNL     1     -22.374  -3.775 -10.473  1.00  0.00     0.092 C 
HETATM    5  C   UNL     1     -21.058  -4.040 -10.060  1.00  0.00    -0.018 C 
HETATM    6  C   UNL     1     -20.831  -4.293  -8.693  1.00  0.00    -0.015 C 
HETATM    7  C   UNL     1     -21.913  -4.455  -7.822  1.00  0.00     0.083 C 
HETATM    8  O   UNL     1     -21.758  -4.871  -6.510  1.00  0.00    -0.339 OA
HETATM    9  C   UNL     1     -20.471  -5.430  -6.175  1.00  0.00     0.064 C 
HETATM   10  C   UNL     1     -19.372  -4.496  -6.691  1.00  0.00     0.043 C 
HETATM   11  C   UNL     1     -19.415  -4.431  -8.195  1.00  0.00     0.045 C 
HETATM   12  C   UNL     1     -20.380  -6.863  -6.738  1.00  0.00     0.046 C 
HETATM   13  C   UNL     1     -19.889  -4.077 -11.011  1.00  0.00     0.052 C 
HETATM   14  C   UNL     1     -24.857  -3.610 -10.154  1.00  0.00     0.052 C 
ENDROOT
BRANCH   9  15
HETATM   15  C   UNL     1     -20.374  -5.525  -4.633  1.00  0.00     0.038 C 
BRANCH  15  16
HETATM   16  C   UNL     1     -21.445  -6.445  -4.049  1.00  0.00     0.003 C 
BRANCH  16  17
HETATM   17  C   UNL     1     -21.710  -6.180  -2.577  1.00  0.00     0.004 C 
BRANCH  17  18
HETATM   18  C   UNL     1     -21.747  -7.504  -1.786  1.00  0.00    -0.019 C 
HETATM   19  C   UNL     1     -20.388  -8.210  -1.796  1.00  0.00     0.010 C 
BRANCH  18  20
HETATM   20  C   UNL     1     -22.205  -7.275  -0.341  1.00  0.00     0.004 C 
BRANCH  20  21
HETATM   21  C   UNL     1     -22.244  -8.587   0.441  1.00  0.00     0.001 C 
BRANCH  21  22
HETATM   22  C   UNL     1     -23.513  -9.368   0.142  1.00  0.00     0.004 C 
BRANCH  22  23
HETATM   23  C   UNL     1     -23.226 -10.840  -0.207  1.00  0.00    -0.019 C 
HETATM   24  C   UNL     1     -23.253 -11.080  -1.719  1.00  0.00     0.010 C 
BRANCH  23  25
HETATM   25  C   UNL     1     -21.873 -11.286   0.379  1.00  0.00     0.004 C 
BRANCH  25  26
HETATM   26  C   UNL     1     -21.896 -12.763   0.778  1.00  0.00     0.001 C 
BRANCH  26  27
HETATM   27  C   UNL     1     -23.248 -13.212   1.324  1.00  0.00     0.004 C 
BRANCH  27  28
HETATM   28  C   UNL     1     -23.171 -14.619   1.945  1.00  0.00    -0.023 C 
HETATM   29  C   UNL     1     -21.764 -14.965   2.441  1.00  0.00     0.009 C 
HETATM   30  C   UNL     1     -24.173 -14.736   3.091  1.00  0.00     0.009 C 
ENDBRANCH  27  28
ENDBRANCH  26  27
ENDBRANCH  25  26
ENDBRANCH  23  25
ENDBRANCH  22  23
ENDBRANCH  21  22
ENDBRANCH  20  21
ENDBRANCH  18  20
ENDBRANCH  17  18
ENDBRANCH  16  17
ENDBRANCH  15  16
ENDBRANCH   9  15
BRANCH   4  31
HETATM   31  O   UNL     1     -22.691  -3.542 -11.843  1.00  0.00    -0.278 OA
BRANCH  31  32
HETATM   32  C   UNL     1     -22.912  -4.558 -12.779  1.00  0.00     0.260 C 
HETATM   33  O   UNL     1     -23.437  -5.644 -12.583  1.00  0.00    -0.265 OA
HETATM   34  C   UNL     1     -22.435  -4.083 -14.122  1.00  0.00     0.126 C 
ENDBRANCH  31  32
ENDBRANCH   4  31
TORSDOF 14
BEGIN_RES ARG D 557
REMARK  4 active torsions:
REMARK  status: ('A' for Active; 'I' for Inactive)
REMARK    1  A    between atoms: CA   and  CB  
REMARK    2  A    between atoms: CB   and  CG  
REMARK    3  A    between atoms: CG   and  CD  
REMARK    4  A    between atoms: CD   and  NE  
REMARK       I    between atoms: NE   and  CZ  
REMARK       I    between atoms: CZ   and  NH1 
REMARK       I    between atoms: CZ   and  NH2 
ROOT
ATOM      1  CA  ARG D 557     -26.217   2.705 -17.014  1.00 35.49     0.159 C 
ENDROOT
BRANCH   1   2
ATOM      2  CB  ARG D 557     -26.789   1.319 -17.183  1.00 35.49     0.034 C 
BRANCH   2   3
ATOM      3  CG  ARG D 557     -28.251   1.197 -17.132  1.00 35.49     0.027 C 
BRANCH   3   4
ATOM      4  CD  ARG D 557     -28.690  -0.158 -16.726  1.00 35.49     0.116 C 
BRANCH   4   5
ATOM      5  NE  ARG D 557     -27.648  -0.887 -16.052  1.00 35.49    -0.212 N 
ATOM      6  CZ  ARG D 557     -27.451  -2.184 -16.118  1.00 35.49     0.666 C 
ATOM      7  NH1 ARG D 557     -28.227  -2.984 -16.827  1.00 35.49    -0.235 N 
ATOM      8  NH2 ARG D 557     -26.443  -2.673 -15.457  1.00 35.49    -0.235 N 
ATOM      9  HH  ARG D 557     -28.895  -2.683 -17.271  1.00 35.49     0.174 HD
ATOM     10  HH  ARG D 557     -28.049  -3.822 -16.835  1.00 35.49     0.174 HD
ATOM     11  HH  ARG D 557     -25.955  -2.132 -15.014  1.00 35.49     0.174 HD
ATOM     12  HH  ARG D 557     -26.282  -3.505 -15.479  1.00 35.49     0.174 HD
ATOM     13  HE  ARG D 557     -27.146  -0.460 -15.515  1.00 35.49     0.178 HD
ENDBRANCH   4   5
ENDBRANCH   3   4
ENDBRANCH   2   3
ENDBRANCH   1   2
END_RES ARG D 557
BEGIN_RES GLU D 570
REMARK  3 active torsions:
REMARK  status: ('A' for Active; 'I' for Inactive)
REMARK    5  A    between atoms: CA   and  CB  
REMARK    6  A    between atoms: CB   and  CG  
REMARK    7  A    between atoms: CG   and  CD  
ROOT
ATOM     14  CA  GLU D 570     -18.033  -6.348 -13.375  1.00 32.92     0.160 C 
ENDROOT
BRANCH  14  15
ATOM     15  CB  GLU D 570     -19.500  -6.345 -13.794  1.00 32.92     0.043 C 
BRANCH  15  16
ATOM     16  CG  GLU D 570     -20.089  -7.636 -14.233  1.00 32.92     0.100 C 
BRANCH  16  17
ATOM     17  CD  GLU D 570     -20.700  -7.566 -15.613  1.00 32.92     0.185 C 
ATOM     18  OE1 GLU D 570     -21.211  -8.592 -16.102  1.00 32.92    -0.647 OA
ATOM     19  OE2 GLU D 570     -20.652  -6.478 -16.219  1.00 32.92    -0.647 OA
ENDBRANCH  16  17
ENDBRANCH  15  16
ENDBRANCH  14  15
END_RES GLU D 570
ENDMDL
MODEL 3
REMARK VINA RESULT:      -7.9      4.073      8.493
REMARK  14 active torsions:
REMARK  status: ('A' for Active; 'I' for Inactive)
REMARK    1  A    between atoms: C_4  and  O_30 
REMARK    2  A    between atoms: C_9  and  C_13 
REMARK    3  A    between atoms: C_13  and  C_14 
REMARK    4  A    between atoms: C_14  and  C_15 
REMARK    5  A    between atoms: C_15  and  C_16 
REMARK    6  A    between atoms: C_16  and  C_18 
REMARK    7  A    between atoms: C_18  and  C_19 
REMARK    8  A    between atoms: C_19  and  C_20 
REMARK    9  A    between atoms: C_20  and  C_21 
REMARK   10  A    between atoms: C_21  and  C_23 
REMARK   11  A    between atoms: C_23  and  C_24 
REMARK   12  A    between atoms: C_24  and  C_25 
REMARK   13  A    between atoms: C_25  and  C_26 
REMARK   14  A    between atoms: O_30  and  C_31 
ROOT
HETATM    1  C   UNL     1     -18.410  -9.273  -3.900  1.00  0.00     0.052 C 
HETATM    2  C   UNL     1     -17.468 -10.290  -3.303  1.00  0.00    -0.019 C 
HETATM    3  C   UNL     1     -16.214 -10.626  -3.861  1.00  0.00    -0.019 C 
HETATM    4  C   UNL     1     -15.437 -11.645  -3.245  1.00  0.00     0.092 C 
HETATM    5  C   UNL     1     -15.878 -12.340  -2.107  1.00  0.00    -0.018 C 
HETATM    6  C   UNL     1     -17.078 -11.920  -1.499  1.00  0.00    -0.015 C 
HETATM    7  C   UNL     1     -17.885 -10.966  -2.128  1.00  0.00     0.083 C 
HETATM    8  O   UNL     1     -19.151 -10.641  -1.667  1.00  0.00    -0.339 OA
HETATM    9  C   UNL     1     -19.723 -11.549  -0.704  1.00  0.00     0.064 C 
HETATM   10  C   UNL     1     -18.689 -11.830   0.391  1.00  0.00     0.043 C 
HETATM   11  C   UNL     1     -17.500 -12.545  -0.194  1.00  0.00     0.045 C 
HETATM   12  C   UNL     1     -20.212 -12.817  -1.433  1.00  0.00     0.046 C 
HETATM   13  C   UNL     1     -15.136 -13.512  -1.520  1.00  0.00     0.052 C 
HETATM   14  C   UNL     1     -15.658  -9.981  -5.109  1.00  0.00     0.052 C 
ENDROOT
BRANCH   9  15
HETATM   15  C   UNL     1     -20.959 -10.864  -0.073  1.00  0.00     0.038 C 
BRANCH  15  16
HETATM   16  C   UNL     1     -20.588 -10.029   1.151  1.00  0.00     0.003 C 
BRANCH  16  17
HETATM   17  C   UNL     1     -21.212  -8.645   1.131  1.00  0.00     0.004 C 
BRANCH  17  18
HETATM   18  C   UNL     1     -22.204  -8.514  -0.043  1.00  0.00    -0.019 C 
HETATM   19  C   UNL     1     -23.656  -8.652   0.423  1.00  0.00     0.010 C 
BRANCH  18  20
HETATM   20  C   UNL     1     -22.017  -7.184  -0.783  1.00  0.00     0.004 C 
BRANCH  20  21
HETATM   21  C   UNL     1     -21.103  -7.352  -1.996  1.00  0.00     0.001 C 
BRANCH  21  22
HETATM   22  C   UNL     1     -21.371  -6.278  -3.038  1.00  0.00     0.004 C 
BRANCH  22  23
HETATM   23  C   UNL     1     -21.134  -6.785  -4.473  1.00  0.00    -0.019 C 
HETATM   24  C   UNL     1     -21.731  -8.178  -4.688  1.00  0.00     0.010 C 
BRANCH  23  25
HETATM   25  C   UNL     1     -21.710  -5.794  -5.503  1.00  0.00     0.004 C 
BRANCH  25  26
HETATM   26  C   UNL     1     -20.600  -5.011  -6.208  1.00  0.00     0.001 C 
BRANCH  26  27
HETATM   27  C   UNL     1     -21.134  -3.909  -7.117  1.00  0.00     0.004 C 
BRANCH  27  28
HETATM   28  C   UNL     1     -21.460  -4.443  -8.525  1.00  0.00    -0.023 C 
HETATM   29  C   UNL     1     -22.695  -3.774  -9.134  1.00  0.00     0.009 C 
HETATM   30  C   UNL     1     -20.255  -4.254  -9.443  1.00  0.00     0.009 C 
ENDBRANCH  27  28
ENDBRANCH  26  27
ENDBRANCH  25  26
ENDBRANCH  23  25
ENDBRANCH  22  23
ENDBRANCH  21  22
ENDBRANCH  20  21
ENDBRANCH  18  20
ENDBRANCH  17  18
ENDBRANCH  16  17
ENDBRANCH  15  16
ENDBRANCH   9  15
BRANCH   4  31
HETATM   31  O   UNL     1     -14.250 -12.028  -3.937  1.00  0.00    -0.278 OA
BRANCH  31  32
HETATM   32  C   UNL     1     -14.201 -13.033  -4.907  1.00  0.00     0.260 C 
HETATM   33  O   UNL     1     -14.794 -14.103  -4.897  1.00  0.00    -0.265 OA
HETATM   34  C   UNL     1     -13.318 -12.571  -6.031  1.00  0.00     0.126 C 
ENDBRANCH  31  32
ENDBRANCH   4  31
TORSDOF 14
BEGIN_RES ARG D 557
REMARK  4 active torsions:
REMARK  status: ('A' for Active; 'I' for Inactive)
REMARK    1  A    between atoms: CA   and  CB  
REMARK    2  A    between atoms: CB   and  CG  
REMARK    3  A    between atoms: CG   and  CD  
REMARK    4  A    between atoms: CD   and  NE  
REMARK       I    between atoms: NE   and  CZ  
REMARK       I    between atoms: CZ   and  NH1 
REMARK       I    between atoms: CZ   and  NH2 
ROOT
ATOM      1  CA  ARG D 557     -26.217   2.705 -17.014  1.00 35.49     0.159 C 
ENDROOT
BRANCH   1   2
ATOM      2  CB  ARG D 557     -26.789   1.319 -17.183  1.00 35.49     0.034 C 
BRANCH   2   3
ATOM      3  CG  ARG D 557     -25.934   0.197 -16.776  1.00 35.49     0.027 C 
BRANCH   3   4
ATOM      4  CD  ARG D 557     -26.694  -0.873 -16.091  1.00 35.49     0.116 C 
BRANCH   4   5
ATOM      5  NE  ARG D 557     -25.968  -1.428 -14.980  1.00 35.49    -0.212 N 
ATOM      6  CZ  ARG D 557     -25.939  -2.697 -14.638  1.00 35.49     0.666 C 
ATOM      7  NH1 ARG D 557     -26.610  -3.624 -15.296  1.00 35.49    -0.235 N 
ATOM      8  NH2 ARG D 557     -25.208  -3.026 -13.613  1.00 35.49    -0.235 N 
ATOM      9  HH  ARG D 557     -27.095  -3.430 -15.975  1.00 35.49     0.174 HD
ATOM     10  HH  ARG D 557     -26.550  -4.436 -15.029  1.00 35.49     0.174 HD
ATOM     11  HH  ARG D 557     -24.780  -2.407 -13.212  1.00 35.49     0.174 HD
ATOM     12  HH  ARG D 557     -25.161  -3.835 -13.365  1.00 35.49     0.174 HD
ATOM     13  HE  ARG D 557     -25.565  -0.891 -14.457  1.00 35.49     0.178 HD
ENDBRANCH   4   5
ENDBRANCH   3   4
ENDBRANCH   2   3
ENDBRANCH   1   2
END_RES ARG D 557
BEGIN_RES GLU D 570
REMARK  3 active torsions:
REMARK  status: ('A' for Active; 'I' for Inactive)
REMARK    5  A    between atoms: CA   and  CB  
REMARK    6  A    between atoms: CB   and  CG  
REMARK    7  A    between atoms: CG   and  CD  
ROOT
ATOM     14  CA  GLU D 570     -18.033  -6.348 -13.375  1.00 32.92     0.160 C 
ENDROOT
BRANCH  14  15
ATOM     15  CB  GLU D 570     -19.500  -6.345 -13.794  1.00 32.92     0.043 C 
BRANCH  15  16
ATOM     16  CG  GLU D 570     -20.444  -5.539 -12.977  1.00 32.92     0.100 C 
BRANCH  16  17
ATOM     17  CD  GLU D 570     -21.732  -5.227 -13.702  1.00 32.92     0.185 C 
ATOM     18  OE1 GLU D 570     -22.151  -6.024 -14.562  1.00 32.92    -0.647 OA
ATOM     19  OE2 GLU D 570     -22.320  -4.165 -13.417  1.00 32.92    -0.647 OA
ENDBRANCH  16  17
ENDBRANCH  15  16
ENDBRANCH  14  15
END_RES GLU D 570
ENDMDL
MODEL 4
REMARK VINA RESULT:      -7.9      3.459      8.030
REMARK  14 active torsions:
REMARK  status: ('A' for Active; 'I' for Inactive)
REMARK    1  A    between atoms: C_4  and  O_30 
REMARK    2  A    between atoms: C_9  and  C_13 
REMARK    3  A    between atoms: C_13  and  C_14 
REMARK    4  A    between atoms: C_14  and  C_15 
REMARK    5  A    between atoms: C_15  and  C_16 
REMARK    6  A    between atoms: C_16  and  C_18 
REMARK    7  A    between atoms: C_18  and  C_19 
REMARK    8  A    between atoms: C_19  and  C_20 
REMARK    9  A    between atoms: C_20  and  C_21 
REMARK   10  A    between atoms: C_21  and  C_23 
REMARK   11  A    between atoms: C_23  and  C_24 
REMARK   12  A    between atoms: C_24  and  C_25 
REMARK   13  A    between atoms: C_25  and  C_26 
REMARK   14  A    between atoms: O_30  and  C_31 
ROOT
HETATM    1  C   UNL     1     -20.644 -10.101  -4.433  1.00  0.00     0.052 C 
HETATM    2  C   UNL     1     -19.411 -10.506  -3.663  1.00  0.00    -0.019 C 
HETATM    3  C   UNL     1     -18.106 -10.496  -4.203  1.00  0.00    -0.019 C 
HETATM    4  C   UNL     1     -17.025 -10.957  -3.402  1.00  0.00     0.092 C 
HETATM    5  C   UNL     1     -17.211 -11.437  -2.095  1.00  0.00    -0.018 C 
HETATM    6  C   UNL     1     -18.500 -11.339  -1.533  1.00  0.00    -0.015 C 
HETATM    7  C   UNL     1     -19.583 -10.950  -2.326  1.00  0.00     0.083 C 
HETATM    8  O   UNL     1     -20.893 -11.000  -1.876  1.00  0.00    -0.339 OA
HETATM    9  C   UNL     1     -21.116 -11.764  -0.674  1.00  0.00     0.064 C 
HETATM   10  C   UNL     1     -20.086 -11.346   0.381  1.00  0.00     0.043 C 
HETATM   11  C   UNL     1     -18.699 -11.705  -0.083  1.00  0.00     0.045 C 
HETATM   12  C   UNL     1     -21.077 -13.267  -1.015  1.00  0.00     0.046 C 
HETATM   13  C   UNL     1     -16.106 -12.056  -1.280  1.00  0.00     0.052 C 
HETATM   14  C   UNL     1     -17.791 -10.048  -5.611  1.00  0.00     0.052 C 
ENDROOT
BRANCH   9  15
HETATM   15  C   UNL     1     -22.537 -11.437  -0.153  1.00  0.00     0.038 C 
BRANCH  15  16
HETATM   16  C   UNL     1     -23.106 -10.175  -0.798  1.00  0.00     0.003 C 
BRANCH  16  17
HETATM   17  C   UNL     1     -23.464  -9.105   0.217  1.00  0.00     0.004 C 
BRANCH  17  18
HETATM   18  C   UNL     1     -22.475  -7.924   0.133  1.00  0.00    -0.019 C 
HETATM   19  C   UNL     1     -21.334  -8.065   1.144  1.00  0.00     0.010 C 
BRANCH  18  20
HETATM   20  C   UNL     1     -21.903  -7.780  -1.282  1.00  0.00     0.004 C 
BRANCH  20  21
HETATM   21  C   UNL     1     -22.218  -6.404  -1.868  1.00  0.00     0.001 C 
BRANCH  21  22
HETATM   22  C   UNL     1     -21.221  -6.026  -2.951  1.00  0.00     0.004 C 
BRANCH  22  23
HETATM   23  C   UNL     1     -21.422  -6.842  -4.241  1.00  0.00    -0.019 C 
HETATM   24  C   UNL     1     -22.860  -6.738  -4.759  1.00  0.00     0.010 C 
BRANCH  23  25
HETATM   25  C   UNL     1     -20.431  -6.393  -5.331  1.00  0.00     0.004 C 
BRANCH  25  26
HETATM   26  C   UNL     1     -20.313  -4.868  -5.386  1.00  0.00     0.001 C 
BRANCH  26  27
HETATM   27  C   UNL     1     -21.113  -4.249  -6.528  1.00  0.00     0.004 C 
BRANCH  27  28
HETATM   28  C   UNL     1     -20.630  -4.757  -7.900  1.00  0.00    -0.023 C 
HETATM   29  C   UNL     1     -21.627  -4.453  -9.021  1.00  0.00     0.009 C 
HETATM   30  C   UNL     1     -19.270  -4.148  -8.229  1.00  0.00     0.009 C 
ENDBRANCH  27  28
ENDBRANCH  26  27
ENDBRANCH  25  26
ENDBRANCH  23  25
ENDBRANCH  22  23
ENDBRANCH  21  22
ENDBRANCH  20  21
ENDBRANCH  18  20
ENDBRANCH  17  18
ENDBRANCH  16  17
ENDBRANCH  15  16
ENDBRANCH   9  15
BRANCH   4  31
HETATM   31  O   UNL     1     -15.760 -11.049  -4.054  1.00  0.00    -0.278 OA
BRANCH  31  32
HETATM   32  C   UNL     1     -15.263 -12.220  -4.636  1.00  0.00     0.260 C 
HETATM   33  O   UNL     1     -15.872 -13.015  -5.338  1.00  0.00    -0.265 OA
HETATM   34  C   UNL     1     -13.804 -12.338  -4.299  1.00  0.00     0.126 C 
ENDBRANCH  31  32
ENDBRANCH   4  31
TORSDOF 14
BEGIN_RES ARG D 557
REMARK  4 active torsions:
REMARK  status: ('A' for Active; 'I' for Inactive)
REMARK    1  A    between atoms: CA   and  CB  
REMARK    2  A    between atoms: CB   and  CG  
REMARK    3  A    between atoms: CG   and  CD  
REMARK    4  A    between atoms: CD   and  NE  
REMARK       I    between atoms: NE   and  CZ  
REMARK       I    between atoms: CZ   and  NH1 
REMARK       I    between atoms: CZ   and  NH2 
ROOT
ATOM      1  CA  ARG D 557     -26.217   2.705 -17.014  1.00 35.49     0.159 C 
ENDROOT
BRANCH   1   2
ATOM      2  CB  ARG D 557     -26.789   1.319 -17.183  1.00 35.49     0.034 C 
BRANCH   2   3
ATOM      3  CG  ARG D 557     -25.874   0.194 -16.954  1.00 35.49     0.027 C 
BRANCH   3   4
ATOM      4  CD  ARG D 557     -26.375  -0.739 -15.919  1.00 35.49     0.116 C 
BRANCH   4   5
ATOM      5  NE  ARG D 557     -25.403  -0.973 -14.884  1.00 35.49    -0.212 N 
ATOM      6  CZ  ARG D 557     -25.155  -2.129 -14.310  1.00 35.49     0.666 C 
ATOM      7  NH1 ARG D 557     -25.806  -3.233 -14.628  1.00 35.49    -0.235 N 
ATOM      8  NH2 ARG D 557     -24.223  -2.161 -13.403  1.00 35.49    -0.235 N 
ATOM      9  HH  ARG D 557     -26.422  -3.235 -15.224  1.00 35.49     0.174 HD
ATOM     10  HH  ARG D 557     -25.600  -3.959 -14.222  1.00 35.49     0.174 HD
ATOM     11  HH  ARG D 557     -23.814  -1.435 -13.223  1.00 35.49     0.174 HD
ATOM     12  HH  ARG D 557     -24.031  -2.890 -13.014  1.00 35.49     0.174 HD
ATOM     13  HE  ARG D 557     -24.988  -0.302 -14.566  1.00 35.49     0.178 HD
ENDBRANCH   4   5
ENDBRANCH   3   4
ENDBRANCH   2   3
ENDBRANCH   1   2
END_RES ARG D 557
BEGIN_RES GLU D 570
REMARK  3 active torsions:
REMARK  status: ('A' for Active; 'I' for Inactive)
REMARK    5  A    between atoms: CA   and  CB  
REMARK    6  A    between atoms: CB   and  CG  
REMARK    7  A    between atoms: CG   and  CD  
ROOT
ATOM     14  CA  GLU D 570     -18.033  -6.348 -13.375  1.00 32.92     0.160 C 
ENDROOT
BRANCH  14  15
ATOM     15  CB  GLU D 570     -19.500  -6.345 -13.794  1.00 32.92     0.043 C 
BRANCH  15  16
ATOM     16  CG  GLU D 570     -20.451  -5.573 -12.952  1.00 32.92     0.100 C 
BRANCH  16  17
ATOM     17  CD  GLU D 570     -21.723  -5.210 -13.682  1.00 32.92     0.185 C 
ATOM     18  OE1 GLU D 570     -22.331  -6.094 -14.315  1.00 32.92    -0.647 OA
ATOM     19  OE2 GLU D 570     -22.105  -4.024 -13.634  1.00 32.92    -0.647 OA
ENDBRANCH  16  17
ENDBRANCH  15  16
ENDBRANCH  14  15
END_RES GLU D 570
ENDMDL
MODEL 5
REMARK VINA RESULT:      -7.7      4.045      8.916
REMARK  14 active torsions:
REMARK  status: ('A' for Active; 'I' for Inactive)
REMARK    1  A    between atoms: C_4  and  O_30 
REMARK    2  A    between atoms: C_9  and  C_13 
REMARK    3  A    between atoms: C_13  and  C_14 
REMARK    4  A    between atoms: C_14  and  C_15 
REMARK    5  A    between atoms: C_15  and  C_16 
REMARK    6  A    between atoms: C_16  and  C_18 
REMARK    7  A    between atoms: C_18  and  C_19 
REMARK    8  A    between atoms: C_19  and  C_20 
REMARK    9  A    between atoms: C_20  and  C_21 
REMARK   10  A    between atoms: C_21  and  C_23 
REMARK   11  A    between atoms: C_23  and  C_24 
REMARK   12  A    between atoms: C_24  and  C_25 
REMARK   13  A    between atoms: C_25  and  C_26 
REMARK   14  A    between atoms: O_30  and  C_31 
ROOT
HETATM    1  C   UNL     1     -18.653  -9.315  -3.093  1.00  0.00     0.052 C 
HETATM    2  C   UNL     1     -18.266 -10.509  -2.255  1.00  0.00    -0.019 C 
HETATM    3  C   UNL     1     -16.951 -11.020  -2.172  1.00  0.00    -0.019 C 
HETATM    4  C   UNL     1     -16.714 -12.188  -1.397  1.00  0.00     0.092 C 
HETATM    5  C   UNL     1     -17.745 -12.862  -0.721  1.00  0.00    -0.018 C 
HETATM    6  C   UNL     1     -19.028 -12.281  -0.725  1.00  0.00    -0.015 C 
HETATM    7  C   UNL     1     -19.292 -11.170  -1.533  1.00  0.00     0.083 C 
HETATM    8  O   UNL     1     -20.569 -10.662  -1.708  1.00  0.00    -0.339 OA
HETATM    9  C   UNL     1     -21.650 -11.514  -1.275  1.00  0.00     0.064 C 
HETATM   10  C   UNL     1     -21.346 -12.027   0.136  1.00  0.00     0.043 C 
HETATM   11  C   UNL     1     -20.118 -12.899   0.114  1.00  0.00     0.045 C 
HETATM   12  C   UNL     1     -21.854 -12.638  -2.311  1.00  0.00     0.046 C 
HETATM   13  C   UNL     1     -17.542 -14.175  -0.009  1.00  0.00     0.052 C 
HETATM   14  C   UNL     1     -15.773 -10.408  -2.893  1.00  0.00     0.052 C 
ENDROOT
BRANCH   9  15
HETATM   15  C   UNL     1     -22.946 -10.667  -1.240  1.00  0.00     0.038 C 
BRANCH  15  16
HETATM   16  C   UNL     1     -23.187 -10.048   0.135  1.00  0.00     0.003 C 
BRANCH  16  17
HETATM   17  C   UNL     1     -23.419  -8.548   0.073  1.00  0.00     0.004 C 
BRANCH  17  18
HETATM   18  C   UNL     1     -22.091  -7.785   0.258  1.00  0.00    -0.019 C 
HETATM   19  C   UNL     1     -21.136  -8.526   1.197  1.00  0.00     0.010 C 
BRANCH  18  20
HETATM   20  C   UNL     1     -21.405  -7.531  -1.090  1.00  0.00     0.004 C 
BRANCH  20  21
HETATM   21  C   UNL     1     -21.964  -6.280  -1.766  1.00  0.00     0.001 C 
BRANCH  21  22
HETATM   22  C   UNL     1     -22.388  -6.571  -3.196  1.00  0.00     0.004 C 
BRANCH  22  23
HETATM   23  C   UNL     1     -21.184  -6.810  -4.126  1.00  0.00    -0.019 C 
HETATM   24  C   UNL     1     -21.433  -7.977  -5.087  1.00  0.00     0.010 C 
BRANCH  23  25
HETATM   25  C   UNL     1     -20.843  -5.533  -4.917  1.00  0.00     0.004 C 
BRANCH  25  26
HETATM   26  C   UNL     1     -21.002  -5.749  -6.424  1.00  0.00     0.001 C 
BRANCH  26  27
HETATM   27  C   UNL     1     -21.985  -4.775  -7.065  1.00  0.00     0.004 C 
BRANCH  27  28
HETATM   28  C   UNL     1     -21.367  -4.064  -8.284  1.00  0.00    -0.023 C 
HETATM   29  C   UNL     1     -20.058  -4.714  -8.739  1.00  0.00     0.009 C 
HETATM   30  C   UNL     1     -22.369  -4.042  -9.435  1.00  0.00     0.009 C 
ENDBRANCH  27  28
ENDBRANCH  26  27
ENDBRANCH  25  26
ENDBRANCH  23  25
ENDBRANCH  22  23
ENDBRANCH  21  22
ENDBRANCH  20  21
ENDBRANCH  18  20
ENDBRANCH  17  18
ENDBRANCH  16  17
ENDBRANCH  15  16
ENDBRANCH   9  15
BRANCH   4  31
HETATM   31  O   UNL     1     -15.396 -12.726  -1.468  1.00  0.00    -0.278 OA
BRANCH  31  32
HETATM   32  C   UNL     1     -14.983 -13.661  -2.423  1.00  0.00     0.260 C 
HETATM   33  O   UNL     1     -15.674 -14.491  -2.995  1.00  0.00    -0.265 OA
HETATM   34  C   UNL     1     -13.519 -13.456  -2.691  1.00  0.00     0.126 C 
ENDBRANCH  31  32
ENDBRANCH   4  31
TORSDOF 14
BEGIN_RES ARG D 557
REMARK  4 active torsions:
REMARK  status: ('A' for Active; 'I' for Inactive)
REMARK    1  A    between atoms: CA   and  CB  
REMARK    2  A    between atoms: CB   and  CG  
REMARK    3  A    between atoms: CG   and  CD  
REMARK    4  A    between atoms: CD   and  NE  
REMARK       I    between atoms: NE   and  CZ  
REMARK       I    between atoms: CZ   and  NH1 
REMARK       I    between atoms: CZ   and  NH2 
ROOT
ATOM      1  CA  ARG D 557     -26.217   2.705 -17.014  1.00 35.49     0.159 C 
ENDROOT
BRANCH   1   2
ATOM      2  CB  ARG D 557     -26.789   1.319 -17.183  1.00 35.49     0.034 C 
BRANCH   2   3
ATOM      3  CG  ARG D 557     -25.837   0.202 -17.149  1.00 35.49     0.027 C 
BRANCH   3   4
ATOM      4  CD  ARG D 557     -24.751   0.417 -16.165  1.00 35.49     0.116 C 
BRANCH   4   5
ATOM      5  NE  ARG D 557     -24.880  -0.443 -15.019  1.00 35.49    -0.212 N 
ATOM      6  CZ  ARG D 557     -24.050  -1.406 -14.683  1.00 35.49     0.666 C 
ATOM      7  NH1 ARG D 557     -22.981  -1.702 -15.399  1.00 35.49    -0.235 N 
ATOM      8  NH2 ARG D 557     -24.312  -2.072 -13.597  1.00 35.49    -0.235 N 
ATOM      9  HH  ARG D 557     -22.788  -1.275 -16.116  1.00 35.49     0.174 HD
ATOM     10  HH  ARG D 557     -22.475  -2.339 -15.130  1.00 35.49     0.174 HD
ATOM     11  HH  ARG D 557     -25.005  -1.854 -13.150  1.00 35.49     0.174 HD
ATOM     12  HH  ARG D 557     -23.798  -2.698 -13.346  1.00 35.49     0.174 HD
ATOM     13  HE  ARG D 557     -25.580  -0.370 -14.541  1.00 35.49     0.178 HD
ENDBRANCH   4   5
ENDBRANCH   3   4
ENDBRANCH   2   3
ENDBRANCH   1   2
END_RES ARG D 557
BEGIN_RES GLU D 570
REMARK  3 active torsions:
REMARK  status: ('A' for Active; 'I' for Inactive)
REMARK    5  A    between atoms: CA   and  CB  
REMARK    6  A    between atoms: CB   and  CG  
REMARK    7  A    between atoms: CG   and  CD  
ROOT
ATOM     14  CA  GLU D 570     -18.033  -6.348 -13.375  1.00 32.92     0.160 C 
ENDROOT
BRANCH  14  15
ATOM     15  CB  GLU D 570     -19.500  -6.345 -13.794  1.00 32.92     0.043 C 
BRANCH  15  16
ATOM     16  CG  GLU D 570     -20.447  -5.557 -12.964  1.00 32.92     0.100 C 
BRANCH  16  17
ATOM     17  CD  GLU D 570     -21.700  -5.164 -13.712  1.00 32.92     0.185 C 
ATOM     18  OE1 GLU D 570     -22.564  -4.481 -13.129  1.00 32.92    -0.647 OA
ATOM     19  OE2 GLU D 570     -21.827  -5.560 -14.888  1.00 32.92    -0.647 OA
ENDBRANCH  16  17
ENDBRANCH  15  16
ENDBRANCH  14  15
END_RES GLU D 570
ENDMDL
MODEL 6
REMARK VINA RESULT:      -7.7      3.239      7.146
REMARK  14 active torsions:
REMARK  status: ('A' for Active; 'I' for Inactive)
REMARK    1  A    between atoms: C_4  and  O_30 
REMARK    2  A    between atoms: C_9  and  C_13 
REMARK    3  A    between atoms: C_13  and  C_14 
REMARK    4  A    between atoms: C_14  and  C_15 
REMARK    5  A    between atoms: C_15  and  C_16 
REMARK    6  A    between atoms: C_16  and  C_18 
REMARK    7  A    between atoms: C_18  and  C_19 
REMARK    8  A    between atoms: C_19  and  C_20 
REMARK    9  A    between atoms: C_20  and  C_21 
REMARK   10  A    between atoms: C_21  and  C_23 
REMARK   11  A    between atoms: C_23  and  C_24 
REMARK   12  A    between atoms: C_24  and  C_25 
REMARK   13  A    between atoms: C_25  and  C_26 
REMARK   14  A    between atoms: O_30  and  C_31 
ROOT
HETATM    1  C   UNL     1     -20.294 -11.278  -3.694  1.00  0.00     0.052 C 
HETATM    2  C   UNL     1     -20.784  -9.918  -3.258  1.00  0.00    -0.019 C 
HETATM    3  C   UNL     1     -20.566  -8.730  -3.992  1.00  0.00    -0.019 C 
HETATM    4  C   UNL     1     -21.021  -7.495  -3.454  1.00  0.00     0.092 C 
HETATM    5  C   UNL     1     -21.668  -7.412  -2.210  1.00  0.00    -0.018 C 
HETATM    6  C   UNL     1     -21.974  -8.614  -1.542  1.00  0.00    -0.015 C 
HETATM    7  C   UNL     1     -21.478  -9.829  -2.024  1.00  0.00     0.083 C 
HETATM    8  O   UNL     1     -21.601 -11.016  -1.320  1.00  0.00    -0.339 OA
HETATM    9  C   UNL     1     -21.980 -10.890   0.065  1.00  0.00     0.064 C 
HETATM   10  C   UNL     1     -23.185  -9.950   0.168  1.00  0.00     0.043 C 
HETATM   11  C   UNL     1     -22.799  -8.565  -0.281  1.00  0.00     0.045 C 
HETATM   12  C   UNL     1     -20.760 -10.422   0.884  1.00  0.00     0.046 C 
HETATM   13  C   UNL     1     -22.035  -6.103  -1.560  1.00  0.00     0.052 C 
HETATM   14  C   UNL     1     -19.841  -8.691  -5.317  1.00  0.00     0.052 C 
ENDROOT
BRANCH   9  15
HETATM   15  C   UNL     1     -22.384 -12.292   0.583  1.00  0.00     0.038 C 
BRANCH  15  16
HETATM   16  C   UNL     1     -21.182 -13.228   0.694  1.00  0.00     0.003 C 
BRANCH  16  17
HETATM   17  C   UNL     1     -21.054 -14.165  -0.493  1.00  0.00     0.004 C 
BRANCH  17  18
HETATM   18  C   UNL     1     -19.570 -14.388  -0.852  1.00  0.00    -0.019 C 
HETATM   19  C   UNL     1     -19.380 -14.647  -2.349  1.00  0.00     0.010 C 
BRANCH  18  20
HETATM   20  C   UNL     1     -18.709 -13.197  -0.414  1.00  0.00     0.004 C 
BRANCH  20  21
HETATM   21  C   UNL     1     -17.640 -12.876  -1.458  1.00  0.00     0.001 C 
BRANCH  21  22
HETATM   22  C   UNL     1     -17.446 -11.375  -1.602  1.00  0.00     0.004 C 
BRANCH  22  23
HETATM   23  C   UNL     1     -15.974 -10.997  -1.854  1.00  0.00    -0.019 C 
HETATM   24  C   UNL     1     -15.187 -12.161  -2.463  1.00  0.00     0.010 C 
BRANCH  23  25
HETATM   25  C   UNL     1     -15.877  -9.757  -2.763  1.00  0.00     0.004 C 
BRANCH  25  26
HETATM   26  C   UNL     1     -16.748  -9.909  -4.012  1.00  0.00     0.001 C 
BRANCH  26  27
HETATM   27  C   UNL     1     -15.950  -9.825  -5.309  1.00  0.00     0.004 C 
BRANCH  27  28
HETATM   28  C   UNL     1     -16.068 -11.121  -6.134  1.00  0.00    -0.023 C 
HETATM   29  C   UNL     1     -14.766 -11.924  -6.153  1.00  0.00     0.009 C 
HETATM   30  C   UNL     1     -17.206 -11.980  -5.588  1.00  0.00     0.009 C 
ENDBRANCH  27  28
ENDBRANCH  26  27
ENDBRANCH  25  26
ENDBRANCH  23  25
ENDBRANCH  22  23
ENDBRANCH  21  22
ENDBRANCH  20  21
ENDBRANCH  18  20
ENDBRANCH  17  18
ENDBRANCH  16  17
ENDBRANCH  15  16
ENDBRANCH   9  15
BRANCH   4  31
HETATM   31  O   UNL     1     -20.648  -6.325  -4.179  1.00  0.00    -0.278 OA
BRANCH  31  32
HETATM   32  C   UNL     1     -21.431  -5.744  -5.182  1.00  0.00     0.260 C 
HETATM   33  O   UNL     1     -22.631  -5.894  -5.366  1.00  0.00    -0.265 OA
HETATM   34  C   UNL     1     -20.560  -4.837  -6.003  1.00  0.00     0.126 C 
ENDBRANCH  31  32
ENDBRANCH   4  31
TORSDOF 14
BEGIN_RES ARG D 557
REMARK  4 active torsions:
REMARK  status: ('A' for Active; 'I' for Inactive)
REMARK    1  A    between atoms: CA   and  CB  
REMARK    2  A    between atoms: CB   and  CG  
REMARK    3  A    between atoms: CG   and  CD  
REMARK    4  A    between atoms: CD   and  NE  
REMARK       I    between atoms: NE   and  CZ  
REMARK       I    between atoms: CZ   and  NH1 
REMARK       I    between atoms: CZ   and  NH2 
ROOT
ATOM      1  CA  ARG D 557     -26.217   2.705 -17.014  1.00 35.49     0.159 C 
ENDROOT
BRANCH   1   2
ATOM      2  CB  ARG D 557     -26.789   1.319 -17.183  1.00 35.49     0.034 C 
BRANCH   2   3
ATOM      3  CG  ARG D 557     -25.860   0.195 -17.013  1.00 35.49     0.027 C 
BRANCH   3   4
ATOM      4  CD  ARG D 557     -26.252  -0.697 -15.898  1.00 35.49     0.116 C 
BRANCH   4   5
ATOM      5  NE  ARG D 557     -25.194  -0.863 -14.937  1.00 35.49    -0.212 N 
ATOM      6  CZ  ARG D 557     -24.859  -1.989 -14.349  1.00 35.49     0.666 C 
ATOM      7  NH1 ARG D 557     -25.494  -3.124 -14.578  1.00 35.49    -0.235 N 
ATOM      8  NH2 ARG D 557     -23.857  -1.959 -13.519  1.00 35.49    -0.235 N 
ATOM      9  HH  ARG D 557     -26.154  -3.168 -15.122  1.00 35.49     0.174 HD
ATOM     10  HH  ARG D 557     -25.229  -3.828 -14.167  1.00 35.49     0.174 HD
ATOM     11  HH  ARG D 557     -23.462  -1.213 -13.396  1.00 35.49     0.174 HD
ATOM     12  HH  ARG D 557     -23.610  -2.667 -13.123  1.00 35.49     0.174 HD
ATOM     13  HE  ARG D 557     -24.779  -0.168 -14.676  1.00 35.49     0.178 HD
ENDBRANCH   4   5
ENDBRANCH   3   4
ENDBRANCH   2   3
ENDBRANCH   1   2
END_RES ARG D 557
BEGIN_RES GLU D 570
REMARK  3 active torsions:
REMARK  status: ('A' for Active; 'I' for Inactive)
REMARK    5  A    between atoms: CA   and  CB  
REMARK    6  A    between atoms: CB   and  CG  
REMARK    7  A    between atoms: CG   and  CD  
ROOT
ATOM     14  CA  GLU D 570     -18.033  -6.348 -13.375  1.00 32.92     0.160 C 
ENDROOT
BRANCH  14  15
ATOM     15  CB  GLU D 570     -19.500  -6.345 -13.794  1.00 32.92     0.043 C 
BRANCH  15  16
ATOM     16  CG  GLU D 570     -20.446  -5.552 -12.968  1.00 32.92     0.100 C 
BRANCH  16  17
ATOM     17  CD  GLU D 570     -21.744  -5.253 -13.681  1.00 32.92     0.185 C 
ATOM     18  OE1 GLU D 570     -21.916  -5.693 -14.834  1.00 32.92    -0.647 OA
ATOM     19  OE2 GLU D 570     -22.591  -4.557 -13.087  1.00 32.92    -0.647 OA
ENDBRANCH  16  17
ENDBRANCH  15  16
ENDBRANCH  14  15
END_RES GLU D 570
ENDMDL
MODEL 7
REMARK VINA RESULT:      -7.5      1.340      3.316
REMARK  14 active torsions:
REMARK  status: ('A' for Active; 'I' for Inactive)
REMARK    1  A    between atoms: C_4  and  O_30 
REMARK    2  A    between atoms: C_9  and  C_13 
REMARK    3  A    between atoms: C_13  and  C_14 
REMARK    4  A    between atoms: C_14  and  C_15 
REMARK    5  A    between atoms: C_15  and  C_16 
REMARK    6  A    between atoms: C_16  and  C_18 
REMARK    7  A    between atoms: C_18  and  C_19 
REMARK    8  A    between atoms: C_19  and  C_20 
REMARK    9  A    between atoms: C_20  and  C_21 
REMARK   10  A    between atoms: C_21  and  C_23 
REMARK   11  A    between atoms: C_23  and  C_24 
REMARK   12  A    between atoms: C_24  and  C_25 
REMARK   13  A    between atoms: C_25  and  C_26 
REMARK   14  A    between atoms: O_30  and  C_31 
ROOT
HETATM    1  C   UNL     1     -19.816  -4.749 -10.861  1.00  0.00     0.052 C 
HETATM    2  C   UNL     1     -21.257  -4.336 -10.682  1.00  0.00    -0.019 C 
HETATM    3  C   UNL     1     -22.057  -3.800 -11.715  1.00  0.00    -0.019 C 
HETATM    4  C   UNL     1     -23.385  -3.389 -11.416  1.00  0.00     0.092 C 
HETATM    5  C   UNL     1     -23.925  -3.484 -10.123  1.00  0.00    -0.018 C 
HETATM    6  C   UNL     1     -23.155  -4.118  -9.129  1.00  0.00    -0.015 C 
HETATM    7  C   UNL     1     -21.827  -4.469  -9.390  1.00  0.00     0.083 C 
HETATM    8  O   UNL     1     -20.972  -4.937  -8.404  1.00  0.00    -0.339 OA
HETATM    9  C   UNL     1     -21.416  -4.750  -7.045  1.00  0.00     0.064 C 
HETATM   10  C   UNL     1     -22.867  -5.229  -6.924  1.00  0.00     0.043 C 
HETATM   11  C   UNL     1     -23.766  -4.369  -7.773  1.00  0.00     0.045 C 
HETATM   12  C   UNL     1     -21.217  -3.273  -6.646  1.00  0.00     0.046 C 
HETATM   13  C   UNL     1     -25.277  -2.929  -9.754  1.00  0.00     0.052 C 
HETATM   14  C   UNL     1     -21.568  -3.607 -13.132  1.00  0.00     0.052 C 
ENDROOT
BRANCH   9  15
HETATM   15  C   UNL     1     -20.519  -5.610  -6.122  1.00  0.00     0.038 C 
BRANCH  15  16
HETATM   16  C   UNL     1     -21.340  -6.449  -5.146  1.00  0.00     0.003 C 
BRANCH  16  17
HETATM   17  C   UNL     1     -21.075  -7.938  -5.282  1.00  0.00     0.004 C 
BRANCH  17  18
HETATM   18  C   UNL     1     -21.383  -8.667  -3.957  1.00  0.00    -0.019 C 
HETATM   19  C   UNL     1     -21.675 -10.153  -4.181  1.00  0.00     0.010 C 
BRANCH  18  20
HETATM   20  C   UNL     1     -20.235  -8.506  -2.954  1.00  0.00     0.004 C 
BRANCH  20  21
HETATM   21  C   UNL     1     -20.522  -7.378  -1.964  1.00  0.00     0.001 C 
BRANCH  21  22
HETATM   22  C   UNL     1     -21.548  -7.806  -0.927  1.00  0.00     0.004 C 
BRANCH  22  23
HETATM   23  C   UNL     1     -21.099  -9.051  -0.139  1.00  0.00    -0.019 C 
HETATM   24  C   UNL     1     -21.117  -8.802   1.372  1.00  0.00     0.010 C 
BRANCH  23  25
HETATM   25  C   UNL     1     -21.980 -10.265  -0.489  1.00  0.00     0.004 C 
BRANCH  25  26
HETATM   26  C   UNL     1     -23.442 -10.023  -0.108  1.00  0.00     0.001 C 
BRANCH  26  27
HETATM   27  C   UNL     1     -24.267 -11.306  -0.065  1.00  0.00     0.004 C 
BRANCH  27  28
HETATM   28  C   UNL     1     -23.369 -12.558  -0.048  1.00  0.00    -0.023 C 
HETATM   29  C   UNL     1     -23.324 -13.229   1.327  1.00  0.00     0.009 C 
HETATM   30  C   UNL     1     -23.849 -13.554  -1.101  1.00  0.00     0.009 C 
ENDBRANCH  27  28
ENDBRANCH  26  27
ENDBRANCH  25  26
ENDBRANCH  23  25
ENDBRANCH  22  23
ENDBRANCH  21  22
ENDBRANCH  20  21
ENDBRANCH  18  20
ENDBRANCH  17  18
ENDBRANCH  16  17
ENDBRANCH  15  16
ENDBRANCH   9  15
BRANCH   4  31
HETATM   31  O   UNL     1     -24.087  -2.733 -12.469  1.00  0.00    -0.278 OA
BRANCH  31  32
HETATM   32  C   UNL     1     -24.746  -3.403 -13.505  1.00  0.00     0.260 C 
HETATM   33  O   UNL     1     -24.554  -4.549 -13.887  1.00  0.00    -0.265 OA
HETATM   34  C   UNL     1     -25.798  -2.492 -14.070  1.00  0.00     0.126 C 
ENDBRANCH  31  32
ENDBRANCH   4  31
TORSDOF 14
BEGIN_RES ARG D 557
REMARK  4 active torsions:
REMARK  status: ('A' for Active; 'I' for Inactive)
REMARK    1  A    between atoms: CA   and  CB  
REMARK    2  A    between atoms: CB   and  CG  
REMARK    3  A    between atoms: CG   and  CD  
REMARK    4  A    between atoms: CD   and  NE  
REMARK       I    between atoms: NE   and  CZ  
REMARK       I    between atoms: CZ   and  NH1 
REMARK       I    between atoms: CZ   and  NH2 
ROOT
ATOM      1  CA  ARG D 557     -26.217   2.705 -17.014  1.00 35.49     0.159 C 
ENDROOT
BRANCH   1   2
ATOM      2  CB  ARG D 557     -26.789   1.319 -17.183  1.00 35.49     0.034 C 
BRANCH   2   3
ATOM      3  CG  ARG D 557     -28.160   1.107 -16.702  1.00 35.49     0.027 C 
BRANCH   3   4
ATOM      4  CD  ARG D 557     -28.798  -0.077 -17.322  1.00 35.49     0.116 C 
BRANCH   4   5
ATOM      5  NE  ARG D 557     -28.197  -1.309 -16.883  1.00 35.49    -0.212 N 
ATOM      6  CZ  ARG D 557     -28.708  -2.510 -17.036  1.00 35.49     0.666 C 
ATOM      7  NH1 ARG D 557     -29.876  -2.715 -17.617  1.00 35.49    -0.235 N 
ATOM      8  NH2 ARG D 557     -28.014  -3.519 -16.594  1.00 35.49    -0.235 N 
ATOM      9  HH  ARG D 557     -30.348  -2.067 -17.917  1.00 35.49     0.174 HD
ATOM     10  HH  ARG D 557     -30.157  -3.521 -17.691  1.00 35.49     0.174 HD
ATOM     11  HH  ARG D 557     -27.260  -3.357 -16.230  1.00 35.49     0.174 HD
ATOM     12  HH  ARG D 557     -28.309  -4.309 -16.679  1.00 35.49     0.174 HD
ATOM     13  HE  ARG D 557     -27.477  -1.264 -16.433  1.00 35.49     0.178 HD
ENDBRANCH   4   5
ENDBRANCH   3   4
ENDBRANCH   2   3
ENDBRANCH   1   2
END_RES ARG D 557
BEGIN_RES GLU D 570
REMARK  3 active torsions:
REMARK  status: ('A' for Active; 'I' for Inactive)
REMARK    5  A    between atoms: CA   and  CB  
REMARK    6  A    between atoms: CB   and  CG  
REMARK    7  A    between atoms: CG   and  CD  
ROOT
ATOM     14  CA  GLU D 570     -18.033  -6.348 -13.375  1.00 32.92     0.160 C 
ENDROOT
BRANCH  14  15
ATOM     15  CB  GLU D 570     -19.500  -6.345 -13.794  1.00 32.92     0.043 C 
BRANCH  15  16
ATOM     16  CG  GLU D 570     -19.796  -6.348 -15.250  1.00 32.92     0.100 C 
BRANCH  16  17
ATOM     17  CD  GLU D 570     -20.900  -7.309 -15.625  1.00 32.92     0.185 C 
ATOM     18  OE1 GLU D 570     -20.648  -8.527 -15.684  1.00 32.92    -0.647 OA
ATOM     19  OE2 GLU D 570     -22.026  -6.836 -15.878  1.00 32.92    -0.647 OA
ENDBRANCH  16  17
ENDBRANCH  15  16
ENDBRANCH  14  15
END_RES GLU D 570
ENDMDL
MODEL 8
REMARK VINA RESULT:      -7.4      1.167      2.163
REMARK  14 active torsions:
REMARK  status: ('A' for Active; 'I' for Inactive)
REMARK    1  A    between atoms: C_4  and  O_30 
REMARK    2  A    between atoms: C_9  and  C_13 
REMARK    3  A    between atoms: C_13  and  C_14 
REMARK    4  A    between atoms: C_14  and  C_15 
REMARK    5  A    between atoms: C_15  and  C_16 
REMARK    6  A    between atoms: C_16  and  C_18 
REMARK    7  A    between atoms: C_18  and  C_19 
REMARK    8  A    between atoms: C_19  and  C_20 
REMARK    9  A    between atoms: C_20  and  C_21 
REMARK   10  A    between atoms: C_21  and  C_23 
REMARK   11  A    between atoms: C_23  and  C_24 
REMARK   12  A    between atoms: C_24  and  C_25 
REMARK   13  A    between atoms: C_25  and  C_26 
REMARK   14  A    between atoms: O_30  and  C_31 
ROOT
HETATM    1  C   UNL     1     -24.293  -4.464  -7.192  1.00  0.00     0.052 C 
HETATM    2  C   UNL     1     -23.208  -4.245  -8.218  1.00  0.00    -0.019 C 
HETATM    3  C   UNL     1     -23.455  -3.873  -9.559  1.00  0.00    -0.019 C 
HETATM    4  C   UNL     1     -22.357  -3.755 -10.454  1.00  0.00     0.092 C 
HETATM    5  C   UNL     1     -21.034  -4.008 -10.056  1.00  0.00    -0.018 C 
HETATM    6  C   UNL     1     -20.792  -4.272  -8.693  1.00  0.00    -0.015 C 
HETATM    7  C   UNL     1     -21.865  -4.456  -7.814  1.00  0.00     0.083 C 
HETATM    8  O   UNL     1     -21.693  -4.884  -6.508  1.00  0.00    -0.339 OA
HETATM    9  C   UNL     1     -20.397  -5.431  -6.190  1.00  0.00     0.064 C 
HETATM   10  C   UNL     1     -19.313  -4.479  -6.706  1.00  0.00     0.043 C 
HETATM   11  C   UNL     1     -19.370  -4.400  -8.209  1.00  0.00     0.045 C 
HETATM   12  C   UNL     1     -20.294  -6.857  -6.769  1.00  0.00     0.046 C 
HETATM   13  C   UNL     1     -19.873  -4.023 -11.017  1.00  0.00     0.052 C 
HETATM   14  C   UNL     1     -24.838  -3.621 -10.112  1.00  0.00     0.052 C 
ENDROOT
BRANCH   9  15
HETATM   15  C   UNL     1     -20.286  -5.541  -4.650  1.00  0.00     0.038 C 
BRANCH  15  16
HETATM   16  C   UNL     1     -21.103  -6.709  -4.100  1.00  0.00     0.003 C 
BRANCH  16  17
HETATM   17  C   UNL     1     -21.892  -6.341  -2.856  1.00  0.00     0.004 C 
BRANCH  17  18
HETATM   18  C   UNL     1     -21.289  -7.020  -1.610  1.00  0.00    -0.019 C 
HETATM   19  C   UNL     1     -22.375  -7.513  -0.649  1.00  0.00     0.010 C 
BRANCH  18  20
HETATM   20  C   UNL     1     -20.371  -8.184  -2.001  1.00  0.00     0.004 C 
BRANCH  20  21
HETATM   21  C   UNL     1     -21.015  -9.530  -1.670  1.00  0.00     0.001 C 
BRANCH  21  22
HETATM   22  C   UNL     1     -20.389 -10.653  -2.480  1.00  0.00     0.004 C 
BRANCH  22  23
HETATM   23  C   UNL     1     -21.232 -11.024  -3.715  1.00  0.00    -0.019 C 
HETATM   24  C   UNL     1     -22.730 -10.857  -3.448  1.00  0.00     0.010 C 
BRANCH  23  25
HETATM   25  C   UNL     1     -20.812 -10.182  -4.935  1.00  0.00     0.004 C 
BRANCH  25  26
HETATM   26  C   UNL     1     -19.375 -10.495  -5.362  1.00  0.00     0.001 C 
BRANCH  26  27
HETATM   27  C   UNL     1     -18.373  -9.443  -4.896  1.00  0.00     0.004 C 
BRANCH  27  28
HETATM   28  C   UNL     1     -17.070 -10.087  -4.387  1.00  0.00    -0.023 C 
HETATM   29  C   UNL     1     -15.902  -9.895  -5.358  1.00  0.00     0.009 C 
HETATM   30  C   UNL     1     -16.711  -9.516  -3.017  1.00  0.00     0.009 C 
ENDBRANCH  27  28
ENDBRANCH  26  27
ENDBRANCH  25  26
ENDBRANCH  23  25
ENDBRANCH  22  23
ENDBRANCH  21  22
ENDBRANCH  20  21
ENDBRANCH  18  20
ENDBRANCH  17  18
ENDBRANCH  16  17
ENDBRANCH  15  16
ENDBRANCH   9  15
BRANCH   4  31
HETATM   31  O   UNL     1     -22.688  -3.511 -11.819  1.00  0.00    -0.278 OA
BRANCH  31  32
HETATM   32  C   UNL     1     -22.904  -4.520 -12.763  1.00  0.00     0.260 C 
HETATM   33  O   UNL     1     -23.420  -5.612 -12.576  1.00  0.00    -0.265 OA
HETATM   34  C   UNL     1     -22.435  -4.029 -14.103  1.00  0.00     0.126 C 
ENDBRANCH  31  32
ENDBRANCH   4  31
TORSDOF 14
BEGIN_RES ARG D 557
REMARK  4 active torsions:
REMARK  status: ('A' for Active; 'I' for Inactive)
REMARK    1  A    between atoms: CA   and  CB  
REMARK    2  A    between atoms: CB   and  CG  
REMARK    3  A    between atoms: CG   and  CD  
REMARK    4  A    between atoms: CD   and  NE  
REMARK       I    between atoms: NE   and  CZ  
REMARK       I    between atoms: CZ   and  NH1 
REMARK       I    between atoms: CZ   and  NH2 
ROOT
ATOM      1  CA  ARG D 557     -26.217   2.705 -17.014  1.00 35.49     0.159 C 
ENDROOT
BRANCH   1   2
ATOM      2  CB  ARG D 557     -26.789   1.319 -17.183  1.00 35.49     0.034 C 
BRANCH   2   3
ATOM      3  CG  ARG D 557     -28.201   1.139 -16.824  1.00 35.49     0.027 C 
BRANCH   3   4
ATOM      4  CD  ARG D 557     -28.595  -0.288 -16.785  1.00 35.49     0.116 C 
BRANCH   4   5
ATOM      5  NE  ARG D 557     -27.638  -1.097 -16.078  1.00 35.49    -0.212 N 
ATOM      6  CZ  ARG D 557     -27.522  -2.403 -16.165  1.00 35.49     0.666 C 
ATOM      7  NH1 ARG D 557     -28.311  -3.135 -16.929  1.00 35.49    -0.235 N 
ATOM      8  NH2 ARG D 557     -26.582  -2.970 -15.466  1.00 35.49    -0.235 N 
ATOM      9  HH  ARG D 557     -28.935  -2.783 -17.399  1.00 35.49     0.174 HD
ATOM     10  HH  ARG D 557     -28.187  -3.983 -16.949  1.00 35.49     0.174 HD
ATOM     11  HH  ARG D 557     -26.083  -2.471 -14.987  1.00 35.49     0.174 HD
ATOM     12  HH  ARG D 557     -26.474  -3.811 -15.500  1.00 35.49     0.174 HD
ATOM     13  HE  ARG D 557     -27.137  -0.715 -15.507  1.00 35.49     0.178 HD
ENDBRANCH   4   5
ENDBRANCH   3   4
ENDBRANCH   2   3
ENDBRANCH   1   2
END_RES ARG D 557
BEGIN_RES GLU D 570
REMARK  3 active torsions:
REMARK  status: ('A' for Active; 'I' for Inactive)
REMARK    5  A    between atoms: CA   and  CB  
REMARK    6  A    between atoms: CB   and  CG  
REMARK    7  A    between atoms: CG   and  CD  
ROOT
ATOM     14  CA  GLU D 570     -18.033  -6.348 -13.375  1.00 32.92     0.160 C 
ENDROOT
BRANCH  14  15
ATOM     15  CB  GLU D 570     -19.500  -6.345 -13.794  1.00 32.92     0.043 C 
BRANCH  15  16
ATOM     16  CG  GLU D 570     -20.089  -7.637 -14.232  1.00 32.92     0.100 C 
BRANCH  16  17
ATOM     17  CD  GLU D 570     -20.704  -7.566 -15.610  1.00 32.92     0.185 C 
ATOM     18  OE1 GLU D 570     -21.204  -8.596 -16.103  1.00 32.92    -0.647 OA
ATOM     19  OE2 GLU D 570     -20.671  -6.474 -16.211  1.00 32.92    -0.647 OA
ENDBRANCH  16  17
ENDBRANCH  15  16
ENDBRANCH  14  15
END_RES GLU D 570
ENDMDL
MODEL 9
REMARK VINA RESULT:      -7.4      4.480      9.528
REMARK  14 active torsions:
REMARK  status: ('A' for Active; 'I' for Inactive)
REMARK    1  A    between atoms: C_4  and  O_30 
REMARK    2  A    between atoms: C_9  and  C_13 
REMARK    3  A    between atoms: C_13  and  C_14 
REMARK    4  A    between atoms: C_14  and  C_15 
REMARK    5  A    between atoms: C_15  and  C_16 
REMARK    6  A    between atoms: C_16  and  C_18 
REMARK    7  A    between atoms: C_18  and  C_19 
REMARK    8  A    between atoms: C_19  and  C_20 
REMARK    9  A    between atoms: C_20  and  C_21 
REMARK   10  A    between atoms: C_21  and  C_23 
REMARK   11  A    between atoms: C_23  and  C_24 
REMARK   12  A    between atoms: C_24  and  C_25 
REMARK   13  A    between atoms: C_25  and  C_26 
REMARK   14  A    between atoms: O_30  and  C_31 
ROOT
HETATM    1  C   UNL     1     -19.053 -10.321  -1.881  1.00  0.00     0.052 C 
HETATM    2  C   UNL     1     -18.857 -11.552  -1.029  1.00  0.00    -0.019 C 
HETATM    3  C   UNL     1     -17.603 -12.162  -0.802  1.00  0.00    -0.019 C 
HETATM    4  C   UNL     1     -17.546 -13.355  -0.031  1.00  0.00     0.092 C 
HETATM    5  C   UNL     1     -18.697 -13.956   0.505  1.00  0.00    -0.018 C 
HETATM    6  C   UNL     1     -19.925 -13.279   0.363  1.00  0.00    -0.015 C 
HETATM    7  C   UNL     1     -20.008 -12.142  -0.447  1.00  0.00     0.083 C 
HETATM    8  O   UNL     1     -21.214 -11.537  -0.760  1.00  0.00    -0.339 OA
HETATM    9  C   UNL     1     -22.398 -12.309  -0.476  1.00  0.00     0.064 C 
HETATM   10  C   UNL     1     -22.304 -12.861   0.949  1.00  0.00     0.043 C 
HETATM   11  C   UNL     1     -21.150 -13.824   1.054  1.00  0.00     0.045 C 
HETATM   12  C   UNL     1     -22.560 -13.402  -1.553  1.00  0.00     0.046 C 
HETATM   13  C   UNL     1     -18.678 -15.289   1.207  1.00  0.00     0.052 C 
HETATM   14  C   UNL     1     -16.305 -11.632  -1.366  1.00  0.00     0.052 C 
ENDROOT
BRANCH   9  15
HETATM   15  C   UNL     1     -23.623 -11.367  -0.576  1.00  0.00     0.038 C 
BRANCH  15  16
HETATM   16  C   UNL     1     -23.215  -9.932  -0.900  1.00  0.00     0.003 C 
BRANCH  16  17
HETATM   17  C   UNL     1     -23.409  -8.985   0.272  1.00  0.00     0.004 C 
BRANCH  17  18
HETATM   18  C   UNL     1     -22.171  -8.084   0.453  1.00  0.00    -0.019 C 
HETATM   19  C   UNL     1     -21.145  -8.711   1.400  1.00  0.00     0.010 C 
BRANCH  18  20
HETATM   20  C   UNL     1     -21.512  -7.768  -0.895  1.00  0.00     0.004 C 
BRANCH  20  21
HETATM   21  C   UNL     1     -22.196  -6.585  -1.580  1.00  0.00     0.001 C 
BRANCH  21  22
HETATM   22  C   UNL     1     -21.434  -6.154  -2.823  1.00  0.00     0.004 C 
BRANCH  22  23
HETATM   23  C   UNL     1     -21.868  -6.937  -4.076  1.00  0.00    -0.019 C 
HETATM   24  C   UNL     1     -21.934  -6.036  -5.312  1.00  0.00     0.010 C 
BRANCH  23  25
HETATM   25  C   UNL     1     -20.920  -8.124  -4.333  1.00  0.00     0.004 C 
BRANCH  25  26
HETATM   26  C   UNL     1     -21.653  -9.462  -4.208  1.00  0.00     0.001 C 
BRANCH  26  27
HETATM   27  C   UNL     1     -21.188 -10.494  -5.230  1.00  0.00     0.004 C 
BRANCH  27  28
HETATM   28  C   UNL     1     -21.566 -11.926  -4.805  1.00  0.00    -0.023 C 
HETATM   29  C   UNL     1     -22.346 -12.673  -5.890  1.00  0.00     0.009 C 
HETATM   30  C   UNL     1     -20.308 -12.706  -4.433  1.00  0.00     0.009 C 
ENDBRANCH  27  28
ENDBRANCH  26  27
ENDBRANCH  25  26
ENDBRANCH  23  25
ENDBRANCH  22  23
ENDBRANCH  21  22
ENDBRANCH  20  21
ENDBRANCH  18  20
ENDBRANCH  17  18
ENDBRANCH  16  17
ENDBRANCH  15  16
ENDBRANCH   9  15
BRANCH   4  31
HETATM   31  O   UNL     1     -16.272 -13.990   0.043  1.00  0.00    -0.278 OA
BRANCH  31  32
HETATM   32  C   UNL     1     -15.375 -13.822   1.103  1.00  0.00     0.260 C 
HETATM   33  O   UNL     1     -15.640 -13.517   2.257  1.00  0.00    -0.265 OA
HETATM   34  C   UNL     1     -13.990 -14.131   0.611  1.00  0.00     0.126 C 
ENDBRANCH  31  32
ENDBRANCH   4  31
TORSDOF 14
BEGIN_RES ARG D 557
REMARK  4 active torsions:
REMARK  status: ('A' for Active; 'I' for Inactive)
REMARK    1  A    between atoms: CA   and  CB  
REMARK    2  A    between atoms: CB   and  CG  
REMARK    3  A    between atoms: CG   and  CD  
REMARK    4  A    between atoms: CD   and  NE  
REMARK       I    between atoms: NE   and  CZ  
REMARK       I    between atoms: CZ   and  NH1 
REMARK       I    between atoms: CZ   and  NH2 
ROOT
ATOM      1  CA  ARG D 557     -26.217   2.705 -17.014  1.00 35.49     0.159 C 
ENDROOT
BRANCH   1   2
ATOM      2  CB  ARG D 557     -26.789   1.319 -17.183  1.00 35.49     0.034 C 
BRANCH   2   3
ATOM      3  CG  ARG D 557     -25.863   0.195 -16.997  1.00 35.49     0.027 C 
BRANCH   3   4
ATOM      4  CD  ARG D 557     -26.273  -0.696 -15.888  1.00 35.49     0.116 C 
BRANCH   4   5
ATOM      5  NE  ARG D 557     -25.210  -0.904 -14.939  1.00 35.49    -0.212 N 
ATOM      6  CZ  ARG D 557     -24.910  -2.046 -14.361  1.00 35.49     0.666 C 
ATOM      7  NH1 ARG D 557     -25.587  -3.156 -14.589  1.00 35.49    -0.235 N 
ATOM      8  NH2 ARG D 557     -23.899  -2.056 -13.542  1.00 35.49    -0.235 N 
ATOM      9  HH  ARG D 557     -26.254  -3.173 -15.126  1.00 35.49     0.174 HD
ATOM     10  HH  ARG D 557     -25.343  -3.871 -14.185  1.00 35.49     0.174 HD
ATOM     11  HH  ARG D 557     -23.475  -1.326 -13.420  1.00 35.49     0.174 HD
ATOM     12  HH  ARG D 557     -23.672  -2.774 -13.153  1.00 35.49     0.174 HD
ATOM     13  HE  ARG D 557     -24.768  -0.226 -14.679  1.00 35.49     0.178 HD
ENDBRANCH   4   5
ENDBRANCH   3   4
ENDBRANCH   2   3
ENDBRANCH   1   2
END_RES ARG D 557
BEGIN_RES GLU D 570
REMARK  3 active torsions:
REMARK  status: ('A' for Active; 'I' for Inactive)
REMARK    5  A    between atoms: CA   and  CB  
REMARK    6  A    between atoms: CB   and  CG  
REMARK    7  A    between atoms: CG   and  CD  
ROOT
ATOM     14  CA  GLU D 570     -18.033  -6.348 -13.375  1.00 32.92     0.160 C 
ENDROOT
BRANCH  14  15
ATOM     15  CB  GLU D 570     -19.500  -6.345 -13.794  1.00 32.92     0.043 C 
BRANCH  15  16
ATOM     16  CG  GLU D 570     -20.446  -5.549 -12.970  1.00 32.92     0.100 C 
BRANCH  16  17
ATOM     17  CD  GLU D 570     -21.675  -5.118 -13.735  1.00 32.92     0.185 C 
ATOM     18  OE1 GLU D 570     -22.730  -4.897 -13.110  1.00 32.92    -0.647 OA
ATOM     19  OE2 GLU D 570     -21.587  -5.016 -14.974  1.00 32.92    -0.647 OA
ENDBRANCH  16  17
ENDBRANCH  15  16
ENDBRANCH  14  15
END_RES GLU D 570
ENDMDL
