MODEL 1
REMARK VINA RESULT:      -9.7      0.000      0.000
REMARK  10 active torsions:
REMARK  status: ('A' for Active; 'I' for Inactive)
REMARK    1  A    between atoms: O_2  and  C_3 
REMARK    2  A    between atoms: C_4  and  O_27 
REMARK    3  A    between atoms: C_7  and  C_9 
REMARK    4  A    between atoms: C_10  and  C_11 
REMARK    5  A    between atoms: C_11  and  C_13 
REMARK    6  A    between atoms: C_13  and  C_14 
REMARK    7  A    between atoms: C_14  and  C_16 
REMARK    8  A    between atoms: C_17  and  C_18 
REMARK    9  A    between atoms: C_20  and  O_25 
REMARK   10  A    between atoms: C_21  and  O_24 
ROOT
HETATM    1  C   UNL     1     -21.072  -4.341  -6.689  1.00  0.00     0.165 C 
ENDROOT
BRANCH   1   2
HETATM    2  C   UNL     1     -20.513  -5.736  -6.583  1.00  0.00     0.156 C 
HETATM    3  O   UNL     1     -20.090  -6.321  -7.579  1.00  0.00    -0.293 OA
BRANCH   2   4
HETATM    4  C   UNL     1     -20.454  -6.368  -5.228  1.00  0.00     0.051 C 
HETATM    5  C   UNL     1     -21.504  -6.296  -4.391  1.00  0.00     0.015 C 
BRANCH   5   6
HETATM    6  C   UNL     1     -21.524  -6.871  -3.034  1.00  0.00    -0.033 A 
HETATM    7  C   UNL     1     -22.235  -6.278  -1.991  1.00  0.00     0.014 A 
HETATM    8  C   UNL     1     -22.258  -6.870  -0.728  1.00  0.00     0.040 A 
HETATM    9  C   UNL     1     -21.585  -8.070  -0.476  1.00  0.00     0.099 A 
HETATM   10  C   UNL     1     -20.878  -8.703  -1.501  1.00  0.00     0.102 A 
HETATM   11  C   UNL     1     -20.869  -8.089  -2.776  1.00  0.00     0.051 A 
BRANCH   9  12
HETATM   12  O   UNL     1     -21.735  -8.488   0.814  1.00  0.00    -0.358 OA
HETATM   13  H   UNL     1     -21.626  -9.439   0.889  1.00  0.00     0.217 HD
ENDBRANCH   9  12
BRANCH  10  14
HETATM   14  O   UNL     1     -20.167  -9.869  -1.498  1.00  0.00    -0.353 OA
HETATM   15  C   UNL     1     -19.063 -10.057  -2.359  1.00  0.00     0.210 C 
ENDBRANCH  10  14
ENDBRANCH   5   6
ENDBRANCH   2   4
ENDBRANCH   1   2
BRANCH   1  16
HETATM   16  C   UNL     1     -22.422  -4.272  -7.348  1.00  0.00     0.156 C 
HETATM   17  O   UNL     1     -23.435  -4.635  -6.750  1.00  0.00    -0.293 OA
BRANCH  16  18
HETATM   18  C   UNL     1     -22.485  -3.765  -8.754  1.00  0.00     0.051 C 
HETATM   19  C   UNL     1     -22.823  -4.610  -9.738  1.00  0.00     0.015 C 
BRANCH  19  20
HETATM   20  C   UNL     1     -22.962  -4.260 -11.161  1.00  0.00    -0.033 A 
HETATM   21  C   UNL     1     -23.084  -5.214 -12.181  1.00  0.00     0.051 A 
HETATM   22  C   UNL     1     -23.239  -4.853 -13.536  1.00  0.00     0.102 A 
HETATM   23  C   UNL     1     -23.281  -3.493 -13.855  1.00  0.00     0.099 A 
HETATM   24  C   UNL     1     -23.182  -2.533 -12.842  1.00  0.00     0.040 A 
HETATM   25  C   UNL     1     -23.032  -2.911 -11.508  1.00  0.00     0.014 A 
BRANCH  22  26
HETATM   26  O   UNL     1     -23.318  -5.958 -14.333  1.00  0.00    -0.353 OA
HETATM   27  C   UNL     1     -24.485  -6.251 -15.073  1.00  0.00     0.210 C 
ENDBRANCH  22  26
BRANCH  23  28
HETATM   28  O   UNL     1     -23.408  -2.937 -15.095  1.00  0.00    -0.358 OA
HETATM   29  H   UNL     1     -22.660  -3.164 -15.654  1.00  0.00     0.217 HD
ENDBRANCH  23  28
ENDBRANCH  19  20
ENDBRANCH  16  18
ENDBRANCH   1  16
TORSDOF 10
BEGIN_RES ARG D 557
REMARK  4 active torsions:
REMARK  status: ('A' for Active; 'I' for Inactive)
REMARK    1  A    between atoms: CA   and  CB  
REMARK    2  A    between atoms: CB   and  CG  
REMARK    3  A    between atoms: CG   and  CD  
REMARK    4  A    between atoms: CD   and  NE  
REMARK       I    between atoms: NE   and  CZ  
REMARK       I    between atoms: CZ   and  NH1 
REMARK       I    between atoms: CZ   and  NH2 
ROOT
ATOM      1  CA  ARG D 557     -26.217   2.705 -17.014  1.00 35.49     0.159 C 
ENDROOT
BRANCH   1   2
ATOM      2  CB  ARG D 557     -26.789   1.319 -17.183  1.00 35.49     0.034 C 
BRANCH   2   3
ATOM      3  CG  ARG D 557     -28.217   1.153 -16.886  1.00 35.49     0.027 C 
BRANCH   3   4
ATOM      4  CD  ARG D 557     -28.607  -0.271 -16.769  1.00 35.49     0.116 C 
BRANCH   4   5
ATOM      5  NE  ARG D 557     -27.619  -1.048 -16.068  1.00 35.49    -0.212 N 
ATOM      6  CZ  ARG D 557     -27.484  -2.354 -16.129  1.00 35.49     0.666 C 
ATOM      7  NH1 ARG D 557     -28.279  -3.116 -16.857  1.00 35.49    -0.235 N 
ATOM      8  NH2 ARG D 557     -26.517  -2.890 -15.442  1.00 35.49    -0.235 N 
ATOM      9  HH  ARG D 557     -28.920  -2.784 -17.319  1.00 35.49     0.174 HD
ATOM     10  HH  ARG D 557     -28.141  -3.961 -16.861  1.00 35.49     0.174 HD
ATOM     11  HH  ARG D 557     -26.015  -2.373 -14.987  1.00 35.49     0.174 HD
ATOM     12  HH  ARG D 557     -26.396  -3.729 -15.460  1.00 35.49     0.174 HD
ATOM     13  HE  ARG D 557     -27.111  -0.645 -15.518  1.00 35.49     0.178 HD
ENDBRANCH   4   5
ENDBRANCH   3   4
ENDBRANCH   2   3
ENDBRANCH   1   2
END_RES ARG D 557
BEGIN_RES GLU D 570
REMARK  3 active torsions:
REMARK  status: ('A' for Active; 'I' for Inactive)
REMARK    5  A    between atoms: CA   and  CB  
REMARK    6  A    between atoms: CB   and  CG  
REMARK    7  A    between atoms: CG   and  CD  
ROOT
ATOM     14  CA  GLU D 570     -18.033  -6.348 -13.375  1.00 32.92     0.160 C 
ENDROOT
BRANCH  14  15
ATOM     15  CB  GLU D 570     -19.500  -6.345 -13.794  1.00 32.92     0.043 C 
BRANCH  15  16
ATOM     16  CG  GLU D 570     -20.090  -7.637 -14.231  1.00 32.92     0.100 C 
BRANCH  16  17
ATOM     17  CD  GLU D 570     -20.641  -7.587 -15.637  1.00 32.92     0.185 C 
ATOM     18  OE1 GLU D 570     -21.112  -8.626 -16.139  1.00 32.92    -0.647 OA
ATOM     19  OE2 GLU D 570     -20.586  -6.502 -16.249  1.00 32.92    -0.647 OA
ENDBRANCH  16  17
ENDBRANCH  15  16
ENDBRANCH  14  15
END_RES GLU D 570
ENDMDL
MODEL 2
REMARK VINA RESULT:      -9.6      4.076     10.793
REMARK  10 active torsions:
REMARK  status: ('A' for Active; 'I' for Inactive)
REMARK    1  A    between atoms: O_2  and  C_3 
REMARK    2  A    between atoms: C_4  and  O_27 
REMARK    3  A    between atoms: C_7  and  C_9 
REMARK    4  A    between atoms: C_10  and  C_11 
REMARK    5  A    between atoms: C_11  and  C_13 
REMARK    6  A    between atoms: C_13  and  C_14 
REMARK    7  A    between atoms: C_14  and  C_16 
REMARK    8  A    between atoms: C_17  and  C_18 
REMARK    9  A    between atoms: C_20  and  O_25 
REMARK   10  A    between atoms: C_21  and  O_24 
ROOT
HETATM    1  C   UNL     1     -23.841  -6.915 -15.203  1.00  0.00     0.165 C 
ENDROOT
BRANCH   1   2
HETATM    2  C   UNL     1     -24.691  -6.780 -16.438  1.00  0.00     0.156 C 
HETATM    3  O   UNL     1     -24.228  -7.026 -17.551  1.00  0.00    -0.293 OA
BRANCH   2   4
HETATM    4  C   UNL     1     -26.121  -6.376 -16.265  1.00  0.00     0.051 C 
HETATM    5  C   UNL     1     -26.889  -6.092 -17.333  1.00  0.00     0.015 C 
BRANCH   5   6
HETATM    6  C   UNL     1     -28.298  -5.668 -17.252  1.00  0.00    -0.033 A 
HETATM    7  C   UNL     1     -29.330  -6.577 -17.027  1.00  0.00     0.014 A 
HETATM    8  C   UNL     1     -30.650  -6.135 -16.923  1.00  0.00     0.040 A 
HETATM    9  C   UNL     1     -30.971  -4.777 -17.029  1.00  0.00     0.099 A 
HETATM   10  C   UNL     1     -29.960  -3.835 -17.236  1.00  0.00     0.102 A 
HETATM   11  C   UNL     1     -28.628  -4.304 -17.336  1.00  0.00     0.051 A 
BRANCH   9  12
HETATM   12  O   UNL     1     -32.308  -4.548 -16.893  1.00  0.00    -0.358 OA
HETATM   13  H   UNL     1     -32.726  -4.397 -17.744  1.00  0.00     0.217 HD
ENDBRANCH   9  12
BRANCH  10  14
HETATM   14  O   UNL     1     -30.027  -2.477 -17.356  1.00  0.00    -0.353 OA
HETATM   15  C   UNL     1     -28.931  -1.655 -17.010  1.00  0.00     0.210 C 
ENDBRANCH  10  14
ENDBRANCH   5   6
ENDBRANCH   2   4
ENDBRANCH   1   2
BRANCH   1  16
HETATM   16  C   UNL     1     -23.449  -5.602 -14.583  1.00  0.00     0.156 C 
HETATM   17  O   UNL     1     -23.141  -4.640 -15.287  1.00  0.00    -0.293 OA
BRANCH  16  18
HETATM   18  C   UNL     1     -23.433  -5.513 -13.090  1.00  0.00     0.051 C 
HETATM   19  C   UNL     1     -22.532  -4.719 -12.494  1.00  0.00     0.015 C 
BRANCH  19  20
HETATM   20  C   UNL     1     -22.410  -4.498 -11.044  1.00  0.00    -0.033 A 
HETATM   21  C   UNL     1     -21.181  -4.318 -10.393  1.00  0.00     0.051 A 
HETATM   22  C   UNL     1     -21.090  -4.085  -9.004  1.00  0.00     0.102 A 
HETATM   23  C   UNL     1     -22.276  -4.025  -8.268  1.00  0.00     0.099 A 
HETATM   24  C   UNL     1     -23.508  -4.182  -8.911  1.00  0.00     0.040 A 
HETATM   25  C   UNL     1     -23.577  -4.408 -10.286  1.00  0.00     0.014 A 
BRANCH  22  26
HETATM   26  O   UNL     1     -19.789  -3.960  -8.611  1.00  0.00    -0.353 OA
HETATM   27  C   UNL     1     -19.290  -4.651  -7.485  1.00  0.00     0.210 C 
ENDBRANCH  22  26
BRANCH  23  28
HETATM   28  O   UNL     1     -22.406  -3.826  -6.924  1.00  0.00    -0.358 OA
HETATM   29  H   UNL     1     -23.073  -4.410  -6.551  1.00  0.00     0.217 HD
ENDBRANCH  23  28
ENDBRANCH  19  20
ENDBRANCH  16  18
ENDBRANCH   1  16
TORSDOF 10
BEGIN_RES ARG D 557
REMARK  4 active torsions:
REMARK  status: ('A' for Active; 'I' for Inactive)
REMARK    1  A    between atoms: CA   and  CB  
REMARK    2  A    between atoms: CB   and  CG  
REMARK    3  A    between atoms: CG   and  CD  
REMARK    4  A    between atoms: CD   and  NE  
REMARK       I    between atoms: NE   and  CZ  
REMARK       I    between atoms: CZ   and  NH1 
REMARK       I    between atoms: CZ   and  NH2 
ROOT
ATOM      1  CA  ARG D 557     -26.217   2.705 -17.014  1.00 35.49     0.159 C 
ENDROOT
BRANCH   1   2
ATOM      2  CB  ARG D 557     -26.789   1.319 -17.183  1.00 35.49     0.034 C 
BRANCH   2   3
ATOM      3  CG  ARG D 557     -25.837   0.203 -17.149  1.00 35.49     0.027 C 
BRANCH   3   4
ATOM      4  CD  ARG D 557     -24.734   0.430 -16.187  1.00 35.49     0.116 C 
BRANCH   4   5
ATOM      5  NE  ARG D 557     -24.837  -0.422 -15.032  1.00 35.49    -0.212 N 
ATOM      6  CZ  ARG D 557     -23.994  -1.375 -14.703  1.00 35.49     0.666 C 
ATOM      7  NH1 ARG D 557     -22.935  -1.668 -15.434  1.00 35.49    -0.235 N 
ATOM      8  NH2 ARG D 557     -24.233  -2.035 -13.607  1.00 35.49    -0.235 N 
ATOM      9  HH  ARG D 557     -22.757  -1.245 -16.157  1.00 35.49     0.174 HD
ATOM     10  HH  ARG D 557     -22.419  -2.298 -15.168  1.00 35.49     0.174 HD
ATOM     11  HH  ARG D 557     -24.921  -1.819 -13.151  1.00 35.49     0.174 HD
ATOM     12  HH  ARG D 557     -23.710  -2.655 -13.360  1.00 35.49     0.174 HD
ATOM     13  HE  ARG D 557     -25.530  -0.351 -14.544  1.00 35.49     0.178 HD
ENDBRANCH   4   5
ENDBRANCH   3   4
ENDBRANCH   2   3
ENDBRANCH   1   2
END_RES ARG D 557
BEGIN_RES GLU D 570
REMARK  3 active torsions:
REMARK  status: ('A' for Active; 'I' for Inactive)
REMARK    5  A    between atoms: CA   and  CB  
REMARK    6  A    between atoms: CB   and  CG  
REMARK    7  A    between atoms: CG   and  CD  
ROOT
ATOM     14  CA  GLU D 570     -18.033  -6.348 -13.375  1.00 32.92     0.160 C 
ENDROOT
BRANCH  14  15
ATOM     15  CB  GLU D 570     -19.500  -6.345 -13.794  1.00 32.92     0.043 C 
BRANCH  15  16
ATOM     16  CG  GLU D 570     -20.085  -7.633 -14.248  1.00 32.92     0.100 C 
BRANCH  16  17
ATOM     17  CD  GLU D 570     -20.501  -7.612 -15.700  1.00 32.92     0.185 C 
ATOM     18  OE1 GLU D 570     -20.847  -8.677 -16.247  1.00 32.92    -0.647 OA
ATOM     19  OE2 GLU D 570     -20.466  -6.520 -16.303  1.00 32.92    -0.647 OA
ENDBRANCH  16  17
ENDBRANCH  15  16
ENDBRANCH  14  15
END_RES GLU D 570
ENDMDL
MODEL 3
REMARK VINA RESULT:      -9.5      3.858     10.736
REMARK  10 active torsions:
REMARK  status: ('A' for Active; 'I' for Inactive)
REMARK    1  A    between atoms: O_2  and  C_3 
REMARK    2  A    between atoms: C_4  and  O_27 
REMARK    3  A    between atoms: C_7  and  C_9 
REMARK    4  A    between atoms: C_10  and  C_11 
REMARK    5  A    between atoms: C_11  and  C_13 
REMARK    6  A    between atoms: C_13  and  C_14 
REMARK    7  A    between atoms: C_14  and  C_16 
REMARK    8  A    between atoms: C_17  and  C_18 
REMARK    9  A    between atoms: C_20  and  O_25 
REMARK   10  A    between atoms: C_21  and  O_24 
ROOT
HETATM    1  C   UNL     1     -24.516  -6.662 -14.877  1.00  0.00     0.165 C 
ENDROOT
BRANCH   1   2
HETATM    2  C   UNL     1     -24.776  -6.674 -16.361  1.00  0.00     0.156 C 
HETATM    3  O   UNL     1     -23.939  -7.119 -17.143  1.00  0.00    -0.293 OA
BRANCH   2   4
HETATM    4  C   UNL     1     -26.097  -6.163 -16.846  1.00  0.00     0.051 C 
HETATM    5  C   UNL     1     -26.737  -5.181 -16.186  1.00  0.00     0.015 C 
BRANCH   5   6
HETATM    6  C   UNL     1     -28.047  -4.635 -16.582  1.00  0.00    -0.033 A 
HETATM    7  C   UNL     1     -28.226  -3.282 -16.870  1.00  0.00     0.014 A 
HETATM    8  C   UNL     1     -29.474  -2.806 -17.275  1.00  0.00     0.040 A 
HETATM    9  C   UNL     1     -30.569  -3.666 -17.412  1.00  0.00     0.099 A 
HETATM   10  C   UNL     1     -30.423  -5.030 -17.149  1.00  0.00     0.102 A 
HETATM   11  C   UNL     1     -29.149  -5.494 -16.744  1.00  0.00     0.051 A 
BRANCH   9  12
HETATM   12  O   UNL     1     -31.693  -3.011 -17.822  1.00  0.00    -0.358 OA
HETATM   13  H   UNL     1     -32.416  -3.134 -17.202  1.00  0.00     0.217 HD
ENDBRANCH   9  12
BRANCH  10  14
HETATM   14  O   UNL     1     -31.329  -6.048 -17.227  1.00  0.00    -0.353 OA
HETATM   15  C   UNL     1     -30.976  -7.306 -17.763  1.00  0.00     0.210 C 
ENDBRANCH  10  14
ENDBRANCH   5   6
ENDBRANCH   2   4
ENDBRANCH   1   2
BRANCH   1  16
HETATM   16  C   UNL     1     -23.620  -5.543 -14.423  1.00  0.00     0.156 C 
HETATM   17  O   UNL     1     -23.253  -4.670 -15.209  1.00  0.00    -0.293 OA
BRANCH  16  18
HETATM   18  C   UNL     1     -23.182  -5.538 -12.993  1.00  0.00     0.051 C 
HETATM   19  C   UNL     1     -22.389  -4.550 -12.556  1.00  0.00     0.015 C 
BRANCH  19  20
HETATM   20  C   UNL     1     -21.901  -4.385 -11.177  1.00  0.00    -0.033 A 
HETATM   21  C   UNL     1     -22.748  -4.342 -10.060  1.00  0.00     0.051 A 
HETATM   22  C   UNL     1     -22.254  -4.207  -8.745  1.00  0.00     0.102 A 
HETATM   23  C   UNL     1     -20.871  -4.124  -8.566  1.00  0.00     0.099 A 
HETATM   24  C   UNL     1     -20.017  -4.187  -9.672  1.00  0.00     0.040 A 
HETATM   25  C   UNL     1     -20.524  -4.325 -10.964  1.00  0.00     0.014 A 
BRANCH  22  26
HETATM   26  O   UNL     1     -23.274  -4.174  -7.839  1.00  0.00    -0.353 OA
HETATM   27  C   UNL     1     -23.242  -4.957  -6.664  1.00  0.00     0.210 C 
ENDBRANCH  22  26
BRANCH  23  28
HETATM   28  O   UNL     1     -20.197  -3.976  -7.388  1.00  0.00    -0.358 OA
HETATM   29  H   UNL     1     -20.143  -4.810  -6.914  1.00  0.00     0.217 HD
ENDBRANCH  23  28
ENDBRANCH  19  20
ENDBRANCH  16  18
ENDBRANCH   1  16
TORSDOF 10
BEGIN_RES ARG D 557
REMARK  4 active torsions:
REMARK  status: ('A' for Active; 'I' for Inactive)
REMARK    1  A    between atoms: CA   and  CB  
REMARK    2  A    between atoms: CB   and  CG  
REMARK    3  A    between atoms: CG   and  CD  
REMARK    4  A    between atoms: CD   and  NE  
REMARK       I    between atoms: NE   and  CZ  
REMARK       I    between atoms: CZ   and  NH1 
REMARK       I    between atoms: CZ   and  NH2 
ROOT
ATOM      1  CA  ARG D 557     -26.217   2.705 -17.014  1.00 35.49     0.159 C 
ENDROOT
BRANCH   1   2
ATOM      2  CB  ARG D 557     -26.789   1.319 -17.183  1.00 35.49     0.034 C 
BRANCH   2   3
ATOM      3  CG  ARG D 557     -25.834   0.204 -17.168  1.00 35.49     0.027 C 
BRANCH   3   4
ATOM      4  CD  ARG D 557     -24.742   0.409 -16.190  1.00 35.49     0.116 C 
BRANCH   4   5
ATOM      5  NE  ARG D 557     -24.889  -0.428 -15.029  1.00 35.49    -0.212 N 
ATOM      6  CZ  ARG D 557     -24.077  -1.399 -14.675  1.00 35.49     0.666 C 
ATOM      7  NH1 ARG D 557     -23.012  -1.727 -15.382  1.00 35.49    -0.235 N 
ATOM      8  NH2 ARG D 557     -24.353  -2.042 -13.578  1.00 35.49    -0.235 N 
ATOM      9  HH  ARG D 557     -22.810  -1.316 -16.107  1.00 35.49     0.174 HD
ATOM     10  HH  ARG D 557     -22.517  -2.367 -15.101  1.00 35.49     0.174 HD
ATOM     11  HH  ARG D 557     -25.044  -1.804 -13.137  1.00 35.49     0.174 HD
ATOM     12  HH  ARG D 557     -23.851  -2.672 -13.315  1.00 35.49     0.174 HD
ATOM     13  HE  ARG D 557     -25.588  -0.334 -14.555  1.00 35.49     0.178 HD
ENDBRANCH   4   5
ENDBRANCH   3   4
ENDBRANCH   2   3
ENDBRANCH   1   2
END_RES ARG D 557
BEGIN_RES GLU D 570
REMARK  3 active torsions:
REMARK  status: ('A' for Active; 'I' for Inactive)
REMARK    5  A    between atoms: CA   and  CB  
REMARK    6  A    between atoms: CB   and  CG  
REMARK    7  A    between atoms: CG   and  CD  
ROOT
ATOM     14  CA  GLU D 570     -18.033  -6.348 -13.375  1.00 32.92     0.160 C 
ENDROOT
BRANCH  14  15
ATOM     15  CB  GLU D 570     -19.500  -6.345 -13.794  1.00 32.92     0.043 C 
BRANCH  15  16
ATOM     16  CG  GLU D 570     -20.104  -7.646 -14.180  1.00 32.92     0.100 C 
BRANCH  16  17
ATOM     17  CD  GLU D 570     -20.715  -7.625 -15.562  1.00 32.92     0.185 C 
ATOM     18  OE1 GLU D 570     -21.216  -8.671 -16.019  1.00 32.92    -0.647 OA
ATOM     19  OE2 GLU D 570     -20.676  -6.556 -16.202  1.00 32.92    -0.647 OA
ENDBRANCH  16  17
ENDBRANCH  15  16
ENDBRANCH  14  15
END_RES GLU D 570
ENDMDL
MODEL 4
REMARK VINA RESULT:      -9.4      0.864      9.294
REMARK  10 active torsions:
REMARK  status: ('A' for Active; 'I' for Inactive)
REMARK    1  A    between atoms: O_2  and  C_3 
REMARK    2  A    between atoms: C_4  and  O_27 
REMARK    3  A    between atoms: C_7  and  C_9 
REMARK    4  A    between atoms: C_10  and  C_11 
REMARK    5  A    between atoms: C_11  and  C_13 
REMARK    6  A    between atoms: C_13  and  C_14 
REMARK    7  A    between atoms: C_14  and  C_16 
REMARK    8  A    between atoms: C_17  and  C_18 
REMARK    9  A    between atoms: C_20  and  O_25 
REMARK   10  A    between atoms: C_21  and  O_24 
ROOT
HETATM    1  C   UNL     1     -21.127  -5.497  -7.675  1.00  0.00     0.165 C 
ENDROOT
BRANCH   1   2
HETATM    2  C   UNL     1     -22.366  -4.650  -7.804  1.00  0.00     0.156 C 
HETATM    3  O   UNL     1     -23.134  -4.508  -6.854  1.00  0.00    -0.293 OA
BRANCH   2   4
HETATM    4  C   UNL     1     -22.610  -3.958  -9.109  1.00  0.00     0.051 C 
HETATM    5  C   UNL     1     -22.660  -4.656 -10.257  1.00  0.00     0.015 C 
BRANCH   5   6
HETATM    6  C   UNL     1     -22.875  -4.054 -11.585  1.00  0.00    -0.033 A 
HETATM    7  C   UNL     1     -22.940  -2.673 -11.767  1.00  0.00     0.014 A 
HETATM    8  C   UNL     1     -23.111  -2.137 -13.044  1.00  0.00     0.040 A 
HETATM    9  C   UNL     1     -23.211  -2.962 -14.170  1.00  0.00     0.099 A 
HETATM   10  C   UNL     1     -23.132  -4.349 -14.028  1.00  0.00     0.102 A 
HETATM   11  C   UNL     1     -22.954  -4.873 -12.725  1.00  0.00     0.051 A 
BRANCH   9  12
HETATM   12  O   UNL     1     -23.367  -2.249 -15.322  1.00  0.00    -0.358 OA
HETATM   13  H   UNL     1     -22.548  -2.210 -15.823  1.00  0.00     0.217 HD
ENDBRANCH   9  12
BRANCH  10  14
HETATM   14  O   UNL     1     -23.187  -5.340 -14.966  1.00  0.00    -0.353 OA
HETATM   15  C   UNL     1     -24.243  -6.278 -14.981  1.00  0.00     0.210 C 
ENDBRANCH  10  14
ENDBRANCH   5   6
ENDBRANCH   2   4
ENDBRANCH   1   2
BRANCH   1  16
HETATM   16  C   UNL     1     -20.436  -5.369  -6.345  1.00  0.00     0.156 C 
HETATM   17  O   UNL     1     -19.629  -4.462  -6.139  1.00  0.00    -0.293 OA
BRANCH  16  18
HETATM   18  C   UNL     1     -20.751  -6.387  -5.296  1.00  0.00     0.051 C 
HETATM   19  C   UNL     1     -21.173  -5.974  -4.092  1.00  0.00     0.015 C 
BRANCH  19  20
HETATM   20  C   UNL     1     -21.553  -6.847  -2.970  1.00  0.00    -0.033 A 
HETATM   21  C   UNL     1     -21.338  -8.233  -2.964  1.00  0.00     0.051 A 
HETATM   22  C   UNL     1     -21.691  -9.046  -1.866  1.00  0.00     0.102 A 
HETATM   23  C   UNL     1     -22.264  -8.432  -0.749  1.00  0.00     0.099 A 
HETATM   24  C   UNL     1     -22.463  -7.048  -0.736  1.00  0.00     0.040 A 
HETATM   25  C   UNL     1     -22.104  -6.261  -1.831  1.00  0.00     0.014 A 
BRANCH  22  26
HETATM   26  O   UNL     1     -21.397 -10.356  -2.111  1.00  0.00    -0.353 OA
HETATM   27  C   UNL     1     -22.410 -11.298  -2.394  1.00  0.00     0.210 C 
ENDBRANCH  22  26
BRANCH  23  28
HETATM   28  O   UNL     1     -22.687  -9.035   0.400  1.00  0.00    -0.358 OA
HETATM   29  H   UNL     1     -22.905  -9.958   0.246  1.00  0.00     0.217 HD
ENDBRANCH  23  28
ENDBRANCH  19  20
ENDBRANCH  16  18
ENDBRANCH   1  16
TORSDOF 10
BEGIN_RES ARG D 557
REMARK  4 active torsions:
REMARK  status: ('A' for Active; 'I' for Inactive)
REMARK    1  A    between atoms: CA   and  CB  
REMARK    2  A    between atoms: CB   and  CG  
REMARK    3  A    between atoms: CG   and  CD  
REMARK    4  A    between atoms: CD   and  NE  
REMARK       I    between atoms: NE   and  CZ  
REMARK       I    between atoms: CZ   and  NH1 
REMARK       I    between atoms: CZ   and  NH2 
ROOT
ATOM      1  CA  ARG D 557     -26.217   2.705 -17.014  1.00 35.49     0.159 C 
ENDROOT
BRANCH   1   2
ATOM      2  CB  ARG D 557     -26.789   1.319 -17.183  1.00 35.49     0.034 C 
BRANCH   2   3
ATOM      3  CG  ARG D 557     -28.225   1.160 -16.922  1.00 35.49     0.027 C 
BRANCH   3   4
ATOM      4  CD  ARG D 557     -28.615  -0.259 -16.758  1.00 35.49     0.116 C 
BRANCH   4   5
ATOM      5  NE  ARG D 557     -27.613  -1.019 -16.059  1.00 35.49    -0.212 N 
ATOM      6  CZ  ARG D 557     -27.453  -2.322 -16.125  1.00 35.49     0.666 C 
ATOM      7  NH1 ARG D 557     -28.233  -3.096 -16.856  1.00 35.49    -0.235 N 
ATOM      8  NH2 ARG D 557     -26.476  -2.842 -15.439  1.00 35.49    -0.235 N 
ATOM      9  HH  ARG D 557     -28.880  -2.775 -17.317  1.00 35.49     0.174 HD
ATOM     10  HH  ARG D 557     -28.079  -3.939 -16.863  1.00 35.49     0.174 HD
ATOM     11  HH  ARG D 557     -25.984  -2.317 -14.982  1.00 35.49     0.174 HD
ATOM     12  HH  ARG D 557     -26.339  -3.679 -15.460  1.00 35.49     0.174 HD
ATOM     13  HE  ARG D 557     -27.112  -0.609 -15.507  1.00 35.49     0.178 HD
ENDBRANCH   4   5
ENDBRANCH   3   4
ENDBRANCH   2   3
ENDBRANCH   1   2
END_RES ARG D 557
BEGIN_RES GLU D 570
REMARK  3 active torsions:
REMARK  status: ('A' for Active; 'I' for Inactive)
REMARK    5  A    between atoms: CA   and  CB  
REMARK    6  A    between atoms: CB   and  CG  
REMARK    7  A    between atoms: CG   and  CD  
ROOT
ATOM     14  CA  GLU D 570     -18.033  -6.348 -13.375  1.00 32.92     0.160 C 
ENDROOT
BRANCH  14  15
ATOM     15  CB  GLU D 570     -19.500  -6.345 -13.794  1.00 32.92     0.043 C 
BRANCH  15  16
ATOM     16  CG  GLU D 570     -20.088  -7.636 -14.236  1.00 32.92     0.100 C 
BRANCH  16  17
ATOM     17  CD  GLU D 570     -20.643  -7.580 -15.641  1.00 32.92     0.185 C 
ATOM     18  OE1 GLU D 570     -21.241  -8.574 -16.095  1.00 32.92    -0.647 OA
ATOM     19  OE2 GLU D 570     -20.462  -6.537 -16.300  1.00 32.92    -0.647 OA
ENDBRANCH  16  17
ENDBRANCH  15  16
ENDBRANCH  14  15
END_RES GLU D 570
ENDMDL
MODEL 5
REMARK VINA RESULT:      -9.0      1.167      2.124
REMARK  10 active torsions:
REMARK  status: ('A' for Active; 'I' for Inactive)
REMARK    1  A    between atoms: O_2  and  C_3 
REMARK    2  A    between atoms: C_4  and  O_27 
REMARK    3  A    between atoms: C_7  and  C_9 
REMARK    4  A    between atoms: C_10  and  C_11 
REMARK    5  A    between atoms: C_11  and  C_13 
REMARK    6  A    between atoms: C_13  and  C_14 
REMARK    7  A    between atoms: C_14  and  C_16 
REMARK    8  A    between atoms: C_17  and  C_18 
REMARK    9  A    between atoms: C_20  and  O_25 
REMARK   10  A    between atoms: C_21  and  O_24 
ROOT
HETATM    1  C   UNL     1     -20.779  -3.803  -7.622  1.00  0.00     0.165 C 
ENDROOT
BRANCH   1   2
HETATM    2  C   UNL     1     -21.765  -4.584  -6.793  1.00  0.00     0.156 C 
HETATM    3  O   UNL     1     -22.973  -4.504  -7.010  1.00  0.00    -0.293 OA
BRANCH   2   4
HETATM    4  C   UNL     1     -21.226  -5.488  -5.728  1.00  0.00     0.051 C 
HETATM    5  C   UNL     1     -22.050  -6.276  -5.015  1.00  0.00     0.015 C 
BRANCH   5   6
HETATM    6  C   UNL     1     -21.607  -7.178  -3.937  1.00  0.00    -0.033 A 
HETATM    7  C   UNL     1     -20.774  -8.269  -4.183  1.00  0.00     0.014 A 
HETATM    8  C   UNL     1     -20.348  -9.082  -3.132  1.00  0.00     0.040 A 
HETATM    9  C   UNL     1     -20.732  -8.823  -1.812  1.00  0.00     0.099 A 
HETATM   10  C   UNL     1     -21.551  -7.728  -1.525  1.00  0.00     0.102 A 
HETATM   11  C   UNL     1     -21.970  -6.913  -2.604  1.00  0.00     0.051 A 
BRANCH   9  12
HETATM   12  O   UNL     1     -20.207  -9.724  -0.933  1.00  0.00    -0.358 OA
HETATM   13  H   UNL     1     -19.463 -10.195  -1.317  1.00  0.00     0.217 HD
ENDBRANCH   9  12
BRANCH  10  14
HETATM   14  O   UNL     1     -22.036  -7.274  -0.332  1.00  0.00    -0.353 OA
HETATM   15  C   UNL     1     -22.986  -8.016   0.403  1.00  0.00     0.210 C 
ENDBRANCH  10  14
ENDBRANCH   5   6
ENDBRANCH   2   4
ENDBRANCH   1   2
BRANCH   1  16
HETATM   16  C   UNL     1     -20.653  -4.289  -9.039  1.00  0.00     0.156 C 
HETATM   17  O   UNL     1     -19.699  -4.988  -9.384  1.00  0.00    -0.293 OA
BRANCH  16  18
HETATM   18  C   UNL     1     -21.712  -3.881 -10.013  1.00  0.00     0.051 C 
HETATM   19  C   UNL     1     -21.728  -4.440 -11.231  1.00  0.00     0.015 C 
BRANCH  19  20
HETATM   20  C   UNL     1     -22.720  -4.171 -12.286  1.00  0.00    -0.033 A 
HETATM   21  C   UNL     1     -22.889  -4.989 -13.412  1.00  0.00     0.051 A 
HETATM   22  C   UNL     1     -23.862  -4.723 -14.398  1.00  0.00     0.102 A 
HETATM   23  C   UNL     1     -24.686  -3.608 -14.227  1.00  0.00     0.099 A 
HETATM   24  C   UNL     1     -24.540  -2.797 -13.097  1.00  0.00     0.040 A 
HETATM   25  C   UNL     1     -23.573  -3.079 -12.131  1.00  0.00     0.014 A 
BRANCH  22  26
HETATM   26  O   UNL     1     -23.816  -5.652 -15.397  1.00  0.00    -0.353 OA
HETATM   27  C   UNL     1     -24.751  -6.708 -15.466  1.00  0.00     0.210 C 
ENDBRANCH  22  26
BRANCH  23  28
HETATM   28  O   UNL     1     -25.670  -3.169 -15.064  1.00  0.00    -0.358 OA
HETATM   29  H   UNL     1     -25.407  -3.262 -15.984  1.00  0.00     0.217 HD
ENDBRANCH  23  28
ENDBRANCH  19  20
ENDBRANCH  16  18
ENDBRANCH   1  16
TORSDOF 10
BEGIN_RES ARG D 557
REMARK  4 active torsions:
REMARK  status: ('A' for Active; 'I' for Inactive)
REMARK    1  A    between atoms: CA   and  CB  
REMARK    2  A    between atoms: CB   and  CG  
REMARK    3  A    between atoms: CG   and  CD  
REMARK    4  A    between atoms: CD   and  NE  
REMARK       I    between atoms: NE   and  CZ  
REMARK       I    between atoms: CZ   and  NH1 
REMARK       I    between atoms: CZ   and  NH2 
ROOT
ATOM      1  CA  ARG D 557     -26.217   2.705 -17.014  1.00 35.49     0.159 C 
ENDROOT
BRANCH   1   2
ATOM      2  CB  ARG D 557     -26.789   1.319 -17.183  1.00 35.49     0.034 C 
BRANCH   2   3
ATOM      3  CG  ARG D 557     -28.144   1.095 -16.664  1.00 35.49     0.027 C 
BRANCH   3   4
ATOM      4  CD  ARG D 557     -28.802  -0.075 -17.288  1.00 35.49     0.116 C 
BRANCH   4   5
ATOM      5  NE  ARG D 557     -28.205  -1.317 -16.875  1.00 35.49    -0.212 N 
ATOM      6  CZ  ARG D 557     -28.715  -2.514 -17.061  1.00 35.49     0.666 C 
ATOM      7  NH1 ARG D 557     -29.877  -2.704 -17.657  1.00 35.49    -0.235 N 
ATOM      8  NH2 ARG D 557     -28.025  -3.533 -16.639  1.00 35.49    -0.235 N 
ATOM      9  HH  ARG D 557     -30.347  -2.048 -17.945  1.00 35.49     0.174 HD
ATOM     10  HH  ARG D 557     -30.159  -3.508 -17.753  1.00 35.49     0.174 HD
ATOM     11  HH  ARG D 557     -27.274  -3.381 -16.264  1.00 35.49     0.174 HD
ATOM     12  HH  ARG D 557     -28.319  -4.321 -16.745  1.00 35.49     0.174 HD
ATOM     13  HE  ARG D 557     -27.488  -1.284 -16.418  1.00 35.49     0.178 HD
ENDBRANCH   4   5
ENDBRANCH   3   4
ENDBRANCH   2   3
ENDBRANCH   1   2
END_RES ARG D 557
BEGIN_RES GLU D 570
REMARK  3 active torsions:
REMARK  status: ('A' for Active; 'I' for Inactive)
REMARK    5  A    between atoms: CA   and  CB  
REMARK    6  A    between atoms: CB   and  CG  
REMARK    7  A    between atoms: CG   and  CD  
ROOT
ATOM     14  CA  GLU D 570     -18.033  -6.348 -13.375  1.00 32.92     0.160 C 
ENDROOT
BRANCH  14  15
ATOM     15  CB  GLU D 570     -19.500  -6.345 -13.794  1.00 32.92     0.043 C 
BRANCH  15  16
ATOM     16  CG  GLU D 570     -20.097  -7.642 -14.206  1.00 32.92     0.100 C 
BRANCH  16  17
ATOM     17  CD  GLU D 570     -20.688  -7.603 -15.596  1.00 32.92     0.185 C 
ATOM     18  OE1 GLU D 570     -20.746  -6.514 -16.199  1.00 32.92    -0.647 OA
ATOM     19  OE2 GLU D 570     -21.112  -8.671 -16.081  1.00 32.92    -0.647 OA
ENDBRANCH  16  17
ENDBRANCH  15  16
ENDBRANCH  14  15
END_RES GLU D 570
ENDMDL
MODEL 6
REMARK VINA RESULT:      -8.9      1.127      9.323
REMARK  10 active torsions:
REMARK  status: ('A' for Active; 'I' for Inactive)
REMARK    1  A    between atoms: O_2  and  C_3 
REMARK    2  A    between atoms: C_4  and  O_27 
REMARK    3  A    between atoms: C_7  and  C_9 
REMARK    4  A    between atoms: C_10  and  C_11 
REMARK    5  A    between atoms: C_11  and  C_13 
REMARK    6  A    between atoms: C_13  and  C_14 
REMARK    7  A    between atoms: C_14  and  C_16 
REMARK    8  A    between atoms: C_17  and  C_18 
REMARK    9  A    between atoms: C_20  and  O_25 
REMARK   10  A    between atoms: C_21  and  O_24 
ROOT
HETATM    1  C   UNL     1     -21.034  -3.760  -7.391  1.00  0.00     0.165 C 
ENDROOT
BRANCH   1   2
HETATM    2  C   UNL     1     -20.807  -4.185  -8.817  1.00  0.00     0.156 C 
HETATM    3  O   UNL     1     -19.793  -4.804  -9.136  1.00  0.00    -0.293 OA
BRANCH   2   4
HETATM    4  C   UNL     1     -21.870  -3.866  -9.822  1.00  0.00     0.051 C 
HETATM    5  C   UNL     1     -21.858  -4.439 -11.039  1.00  0.00     0.015 C 
BRANCH   5   6
HETATM    6  C   UNL     1     -22.851  -4.167 -12.093  1.00  0.00    -0.033 A 
HETATM    7  C   UNL     1     -23.731  -3.088 -12.017  1.00  0.00     0.014 A 
HETATM    8  C   UNL     1     -24.636  -2.842 -13.051  1.00  0.00     0.040 A 
HETATM    9  C   UNL     1     -24.678  -3.657 -14.188  1.00  0.00     0.099 A 
HETATM   10  C   UNL     1     -23.799  -4.736 -14.307  1.00  0.00     0.102 A 
HETATM   11  C   UNL     1     -22.887  -4.967 -13.249  1.00  0.00     0.051 A 
BRANCH   9  12
HETATM   12  O   UNL     1     -25.623  -3.248 -15.083  1.00  0.00    -0.358 OA
HETATM   13  H   UNL     1     -26.483  -3.154 -14.667  1.00  0.00     0.217 HD
ENDBRANCH   9  12
BRANCH  10  14
HETATM   14  O   UNL     1     -23.646  -5.647 -15.313  1.00  0.00    -0.353 OA
HETATM   15  C   UNL     1     -24.563  -6.707 -15.488  1.00  0.00     0.210 C 
ENDBRANCH  10  14
ENDBRANCH   5   6
ENDBRANCH   2   4
ENDBRANCH   1   2
BRANCH   1  16
HETATM   16  C   UNL     1     -21.818  -4.751  -6.575  1.00  0.00     0.156 C 
HETATM   17  O   UNL     1     -23.048  -4.710  -6.546  1.00  0.00    -0.293 OA
BRANCH  16  18
HETATM   18  C   UNL     1     -21.053  -5.771  -5.794  1.00  0.00     0.051 C 
HETATM   19  C   UNL     1     -21.602  -6.291  -4.687  1.00  0.00     0.015 C 
BRANCH  19  20
HETATM   20  C   UNL     1     -20.994  -7.323  -3.831  1.00  0.00    -0.033 A 
HETATM   21  C   UNL     1     -21.281  -7.459  -2.466  1.00  0.00     0.051 A 
HETATM   22  C   UNL     1     -20.703  -8.472  -1.671  1.00  0.00     0.102 A 
HETATM   23  C   UNL     1     -19.823  -9.368  -2.283  1.00  0.00     0.099 A 
HETATM   24  C   UNL     1     -19.547  -9.254  -3.649  1.00  0.00     0.040 A 
HETATM   25  C   UNL     1     -20.131  -8.248  -4.419  1.00  0.00     0.014 A 
BRANCH  22  26
HETATM   26  O   UNL     1     -21.127  -8.383  -0.376  1.00  0.00    -0.353 OA
HETATM   27  C   UNL     1     -22.270  -7.631  -0.025  1.00  0.00     0.210 C 
ENDBRANCH  22  26
BRANCH  23  28
HETATM   28  O   UNL     1     -19.151 -10.401  -1.695  1.00  0.00    -0.358 OA
HETATM   29  H   UNL     1     -19.188 -11.191  -2.240  1.00  0.00     0.217 HD
ENDBRANCH  23  28
ENDBRANCH  19  20
ENDBRANCH  16  18
ENDBRANCH   1  16
TORSDOF 10
BEGIN_RES ARG D 557
REMARK  4 active torsions:
REMARK  status: ('A' for Active; 'I' for Inactive)
REMARK    1  A    between atoms: CA   and  CB  
REMARK    2  A    between atoms: CB   and  CG  
REMARK    3  A    between atoms: CG   and  CD  
REMARK    4  A    between atoms: CD   and  NE  
REMARK       I    between atoms: NE   and  CZ  
REMARK       I    between atoms: CZ   and  NH1 
REMARK       I    between atoms: CZ   and  NH2 
ROOT
ATOM      1  CA  ARG D 557     -26.217   2.705 -17.014  1.00 35.49     0.159 C 
ENDROOT
BRANCH   1   2
ATOM      2  CB  ARG D 557     -26.789   1.319 -17.183  1.00 35.49     0.034 C 
BRANCH   2   3
ATOM      3  CG  ARG D 557     -28.230   1.227 -17.445  1.00 35.49     0.027 C 
BRANCH   3   4
ATOM      4  CD  ARG D 557     -28.919   0.321 -16.498  1.00 35.49     0.116 C 
BRANCH   4   5
ATOM      5  NE  ARG D 557     -28.249  -0.947 -16.375  1.00 35.49    -0.212 N 
ATOM      6  CZ  ARG D 557     -28.664  -2.087 -16.882  1.00 35.49     0.666 C 
ATOM      7  NH1 ARG D 557     -29.787  -2.191 -17.568  1.00 35.49    -0.235 N 
ATOM      8  NH2 ARG D 557     -27.917  -3.136 -16.690  1.00 35.49    -0.235 N 
ATOM      9  HH  ARG D 557     -30.292  -1.514 -17.708  1.00 35.49     0.174 HD
ATOM     10  HH  ARG D 557     -30.005  -2.960 -17.877  1.00 35.49     0.174 HD
ATOM     11  HH  ARG D 557     -27.194  -3.037 -16.249  1.00 35.49     0.174 HD
ATOM     12  HH  ARG D 557     -28.150  -3.888 -17.005  1.00 35.49     0.174 HD
ATOM     13  HE  ARG D 557     -27.554  -0.986 -15.887  1.00 35.49     0.178 HD
ENDBRANCH   4   5
ENDBRANCH   3   4
ENDBRANCH   2   3
ENDBRANCH   1   2
END_RES ARG D 557
BEGIN_RES GLU D 570
REMARK  3 active torsions:
REMARK  status: ('A' for Active; 'I' for Inactive)
REMARK    5  A    between atoms: CA   and  CB  
REMARK    6  A    between atoms: CB   and  CG  
REMARK    7  A    between atoms: CG   and  CD  
ROOT
ATOM     14  CA  GLU D 570     -18.033  -6.348 -13.375  1.00 32.92     0.160 C 
ENDROOT
BRANCH  14  15
ATOM     15  CB  GLU D 570     -19.500  -6.345 -13.794  1.00 32.92     0.043 C 
BRANCH  15  16
ATOM     16  CG  GLU D 570     -20.088  -7.636 -14.237  1.00 32.92     0.100 C 
BRANCH  16  17
ATOM     17  CD  GLU D 570     -20.708  -7.560 -15.613  1.00 32.92     0.185 C 
ATOM     18  OE1 GLU D 570     -21.302  -8.558 -16.065  1.00 32.92    -0.647 OA
ATOM     19  OE2 GLU D 570     -20.583  -6.497 -16.252  1.00 32.92    -0.647 OA
ENDBRANCH  16  17
ENDBRANCH  15  16
ENDBRANCH  14  15
END_RES GLU D 570
ENDMDL
MODEL 7
REMARK VINA RESULT:      -8.8      2.593      3.555
REMARK  10 active torsions:
REMARK  status: ('A' for Active; 'I' for Inactive)
REMARK    1  A    between atoms: O_2  and  C_3 
REMARK    2  A    between atoms: C_4  and  O_27 
REMARK    3  A    between atoms: C_7  and  C_9 
REMARK    4  A    between atoms: C_10  and  C_11 
REMARK    5  A    between atoms: C_11  and  C_13 
REMARK    6  A    between atoms: C_13  and  C_14 
REMARK    7  A    between atoms: C_14  and  C_16 
REMARK    8  A    between atoms: C_17  and  C_18 
REMARK    9  A    between atoms: C_20  and  O_25 
REMARK   10  A    between atoms: C_21  and  O_24 
ROOT
HETATM    1  C   UNL     1     -21.650  -6.545  -4.747  1.00  0.00     0.165 C 
ENDROOT
BRANCH   1   2
HETATM    2  C   UNL     1     -21.732  -6.594  -3.244  1.00  0.00     0.156 C 
HETATM    3  O   UNL     1     -21.941  -5.572  -2.592  1.00  0.00    -0.293 OA
BRANCH   2   4
HETATM    4  C   UNL     1     -21.591  -7.925  -2.576  1.00  0.00     0.051 C 
HETATM    5  C   UNL     1     -22.185  -8.167  -1.394  1.00  0.00     0.015 C 
BRANCH   5   6
HETATM    6  C   UNL     1     -22.082  -9.439  -0.658  1.00  0.00    -0.033 A 
HETATM    7  C   UNL     1     -23.198 -10.234  -0.398  1.00  0.00     0.014 A 
HETATM    8  C   UNL     1     -23.058 -11.450   0.272  1.00  0.00     0.040 A 
HETATM    9  C   UNL     1     -21.803 -11.908   0.689  1.00  0.00     0.099 A 
HETATM   10  C   UNL     1     -20.661 -11.148   0.429  1.00  0.00     0.102 A 
HETATM   11  C   UNL     1     -20.824  -9.919  -0.255  1.00  0.00     0.051 A 
BRANCH   9  12
HETATM   12  O   UNL     1     -21.876 -13.117   1.317  1.00  0.00    -0.358 OA
HETATM   13  H   UNL     1     -22.731 -13.243   1.735  1.00  0.00     0.217 HD
ENDBRANCH   9  12
BRANCH  10  14
HETATM   14  O   UNL     1     -19.349 -11.392   0.722  1.00  0.00    -0.353 OA
HETATM   15  C   UNL     1     -18.542 -12.180  -0.129  1.00  0.00     0.210 C 
ENDBRANCH  10  14
ENDBRANCH   5   6
ENDBRANCH   2   4
ENDBRANCH   1   2
BRANCH   1  16
HETATM   16  C   UNL     1     -20.946  -5.329  -5.282  1.00  0.00     0.156 C 
HETATM   17  O   UNL     1     -20.011  -4.818  -4.663  1.00  0.00    -0.293 OA
BRANCH  16  18
HETATM   18  C   UNL     1     -21.430  -4.756  -6.576  1.00  0.00     0.051 C 
HETATM   19  C   UNL     1     -20.794  -5.080  -7.711  1.00  0.00     0.015 C 
BRANCH  19  20
HETATM   20  C   UNL     1     -21.166  -4.628  -9.062  1.00  0.00    -0.033 A 
HETATM   21  C   UNL     1     -22.483  -4.331  -9.440  1.00  0.00     0.051 A 
HETATM   22  C   UNL     1     -22.812  -3.878 -10.735  1.00  0.00     0.102 A 
HETATM   23  C   UNL     1     -21.776  -3.715 -11.659  1.00  0.00     0.099 A 
HETATM   24  C   UNL     1     -20.456  -3.988 -11.285  1.00  0.00     0.040 A 
HETATM   25  C   UNL     1     -20.151  -4.432  -9.998  1.00  0.00     0.014 A 
BRANCH  22  26
HETATM   26  O   UNL     1     -24.156  -3.676 -10.858  1.00  0.00    -0.353 OA
HETATM   27  C   UNL     1     -24.951  -3.307  -9.751  1.00  0.00     0.210 C 
ENDBRANCH  22  26
BRANCH  23  28
HETATM   28  O   UNL     1     -21.881  -3.306 -12.956  1.00  0.00    -0.358 OA
HETATM   29  H   UNL     1     -21.609  -4.002 -13.561  1.00  0.00     0.217 HD
ENDBRANCH  23  28
ENDBRANCH  19  20
ENDBRANCH  16  18
ENDBRANCH   1  16
TORSDOF 10
BEGIN_RES ARG D 557
REMARK  4 active torsions:
REMARK  status: ('A' for Active; 'I' for Inactive)
REMARK    1  A    between atoms: CA   and  CB  
REMARK    2  A    between atoms: CB   and  CG  
REMARK    3  A    between atoms: CG   and  CD  
REMARK    4  A    between atoms: CD   and  NE  
REMARK       I    between atoms: NE   and  CZ  
REMARK       I    between atoms: CZ   and  NH1 
REMARK       I    between atoms: CZ   and  NH2 
ROOT
ATOM      1  CA  ARG D 557     -26.217   2.705 -17.014  1.00 35.49     0.159 C 
ENDROOT
BRANCH   1   2
ATOM      2  CB  ARG D 557     -26.789   1.319 -17.183  1.00 35.49     0.034 C 
BRANCH   2   3
ATOM      3  CG  ARG D 557     -25.836   0.203 -17.153  1.00 35.49     0.027 C 
BRANCH   3   4
ATOM      4  CD  ARG D 557     -24.770   0.398 -16.144  1.00 35.49     0.116 C 
BRANCH   4   5
ATOM      5  NE  ARG D 557     -24.944  -0.456 -14.999  1.00 35.49    -0.212 N 
ATOM      6  CZ  ARG D 557     -24.149  -1.442 -14.648  1.00 35.49     0.666 C 
ATOM      7  NH1 ARG D 557     -23.077  -1.771 -15.345  1.00 35.49    -0.235 N 
ATOM      8  NH2 ARG D 557     -24.449  -2.099 -13.565  1.00 35.49    -0.235 N 
ATOM      9  HH  ARG D 557     -22.860  -1.351 -16.060  1.00 35.49     0.174 HD
ATOM     10  HH  ARG D 557     -22.595  -2.422 -15.067  1.00 35.49     0.174 HD
ATOM     11  HH  ARG D 557     -25.143  -1.860 -13.131  1.00 35.49     0.174 HD
ATOM     12  HH  ARG D 557     -23.958  -2.739 -13.305  1.00 35.49     0.174 HD
ATOM     13  HE  ARG D 557     -25.649  -0.361 -14.533  1.00 35.49     0.178 HD
ENDBRANCH   4   5
ENDBRANCH   3   4
ENDBRANCH   2   3
ENDBRANCH   1   2
END_RES ARG D 557
BEGIN_RES GLU D 570
REMARK  3 active torsions:
REMARK  status: ('A' for Active; 'I' for Inactive)
REMARK    5  A    between atoms: CA   and  CB  
REMARK    6  A    between atoms: CB   and  CG  
REMARK    7  A    between atoms: CG   and  CD  
ROOT
ATOM     14  CA  GLU D 570     -18.033  -6.348 -13.375  1.00 32.92     0.160 C 
ENDROOT
BRANCH  14  15
ATOM     15  CB  GLU D 570     -19.500  -6.345 -13.794  1.00 32.92     0.043 C 
BRANCH  15  16
ATOM     16  CG  GLU D 570     -19.817  -5.892 -15.173  1.00 32.92     0.100 C 
BRANCH  16  17
ATOM     17  CD  GLU D 570     -21.286  -5.604 -15.376  1.00 32.92     0.185 C 
ATOM     18  OE1 GLU D 570     -22.118  -6.500 -15.132  1.00 32.92    -0.647 OA
ATOM     19  OE2 GLU D 570     -21.608  -4.477 -15.799  1.00 32.92    -0.647 OA
ENDBRANCH  16  17
ENDBRANCH  15  16
ENDBRANCH  14  15
END_RES GLU D 570
ENDMDL
MODEL 8
REMARK VINA RESULT:      -8.8      2.468      9.582
REMARK  10 active torsions:
REMARK  status: ('A' for Active; 'I' for Inactive)
REMARK    1  A    between atoms: O_2  and  C_3 
REMARK    2  A    between atoms: C_4  and  O_27 
REMARK    3  A    between atoms: C_7  and  C_9 
REMARK    4  A    between atoms: C_10  and  C_11 
REMARK    5  A    between atoms: C_11  and  C_13 
REMARK    6  A    between atoms: C_13  and  C_14 
REMARK    7  A    between atoms: C_14  and  C_16 
REMARK    8  A    between atoms: C_17  and  C_18 
REMARK    9  A    between atoms: C_20  and  O_25 
REMARK   10  A    between atoms: C_21  and  O_24 
ROOT
HETATM    1  C   UNL     1     -20.478  -6.318  -4.980  1.00  0.00     0.165 C 
ENDROOT
BRANCH   1   2
HETATM    2  C   UNL     1     -21.899  -5.991  -5.354  1.00  0.00     0.156 C 
HETATM    3  O   UNL     1     -22.811  -6.125  -4.539  1.00  0.00    -0.293 OA
BRANCH   2   4
HETATM    4  C   UNL     1     -22.160  -5.464  -6.730  1.00  0.00     0.051 C 
HETATM    5  C   UNL     1     -21.144  -5.067  -7.517  1.00  0.00     0.015 C 
BRANCH   5   6
HETATM    6  C   UNL     1     -21.312  -4.518  -8.874  1.00  0.00    -0.033 A 
HETATM    7  C   UNL     1     -20.286  -4.555  -9.817  1.00  0.00     0.014 A 
HETATM    8  C   UNL     1     -20.492  -4.055 -11.104  1.00  0.00     0.040 A 
HETATM    9  C   UNL     1     -21.727  -3.518 -11.485  1.00  0.00     0.099 A 
HETATM   10  C   UNL     1     -22.783  -3.481 -10.572  1.00  0.00     0.102 A 
HETATM   11  C   UNL     1     -22.555  -3.996  -9.273  1.00  0.00     0.051 A 
BRANCH   9  12
HETATM   12  O   UNL     1     -21.729  -3.091 -12.780  1.00  0.00    -0.358 OA
HETATM   13  H   UNL     1     -22.048  -2.188 -12.851  1.00  0.00     0.217 HD
ENDBRANCH   9  12
BRANCH  10  14
HETATM   14  O   UNL     1     -24.062  -3.025 -10.716  1.00  0.00    -0.353 OA
HETATM   15  C   UNL     1     -25.046  -3.275  -9.733  1.00  0.00     0.210 C 
ENDBRANCH  10  14
ENDBRANCH   5   6
ENDBRANCH   2   4
ENDBRANCH   1   2
BRANCH   1  16
HETATM   16  C   UNL     1     -20.182  -7.792  -4.934  1.00  0.00     0.156 C 
HETATM   17  O   UNL     1     -19.793  -8.389  -5.938  1.00  0.00    -0.293 OA
BRANCH  16  18
HETATM   18  C   UNL     1     -20.391  -8.504  -3.635  1.00  0.00     0.051 C 
HETATM   19  C   UNL     1     -21.472  -9.283  -3.485  1.00  0.00     0.015 C 
BRANCH  19  20
HETATM   20  C   UNL     1     -21.801 -10.073  -2.288  1.00  0.00    -0.033 A 
HETATM   21  C   UNL     1     -21.075  -9.998  -1.091  1.00  0.00     0.051 A 
HETATM   22  C   UNL     1     -21.424 -10.748   0.052  1.00  0.00     0.102 A 
HETATM   23  C   UNL     1     -22.542 -11.584  -0.025  1.00  0.00     0.099 A 
HETATM   24  C   UNL     1     -23.286 -11.650  -1.208  1.00  0.00     0.040 A 
HETATM   25  C   UNL     1     -22.926 -10.897  -2.325  1.00  0.00     0.014 A 
BRANCH  22  26
HETATM   26  O   UNL     1     -20.556 -10.513   1.078  1.00  0.00    -0.353 OA
HETATM   27  C   UNL     1     -20.619  -9.326   1.840  1.00  0.00     0.210 C 
ENDBRANCH  22  26
BRANCH  23  28
HETATM   28  O   UNL     1     -23.036 -12.398   0.953  1.00  0.00    -0.358 OA
HETATM   29  H   UNL     1     -22.827 -13.318   0.774  1.00  0.00     0.217 HD
ENDBRANCH  23  28
ENDBRANCH  19  20
ENDBRANCH  16  18
ENDBRANCH   1  16
TORSDOF 10
BEGIN_RES ARG D 557
REMARK  4 active torsions:
REMARK  status: ('A' for Active; 'I' for Inactive)
REMARK    1  A    between atoms: CA   and  CB  
REMARK    2  A    between atoms: CB   and  CG  
REMARK    3  A    between atoms: CG   and  CD  
REMARK    4  A    between atoms: CD   and  NE  
REMARK       I    between atoms: NE   and  CZ  
REMARK       I    between atoms: CZ   and  NH1 
REMARK       I    between atoms: CZ   and  NH2 
ROOT
ATOM      1  CA  ARG D 557     -26.217   2.705 -17.014  1.00 35.49     0.159 C 
ENDROOT
BRANCH   1   2
ATOM      2  CB  ARG D 557     -26.789   1.319 -17.183  1.00 35.49     0.034 C 
BRANCH   2   3
ATOM      3  CG  ARG D 557     -25.834   0.204 -17.167  1.00 35.49     0.027 C 
BRANCH   3   4
ATOM      4  CD  ARG D 557     -24.752   0.402 -16.177  1.00 35.49     0.116 C 
BRANCH   4   5
ATOM      5  NE  ARG D 557     -24.916  -0.436 -15.018  1.00 35.49    -0.212 N 
ATOM      6  CZ  ARG D 557     -24.124  -1.424 -14.667  1.00 35.49     0.666 C 
ATOM      7  NH1 ARG D 557     -23.064  -1.770 -15.374  1.00 35.49    -0.235 N 
ATOM      8  NH2 ARG D 557     -24.413  -2.065 -13.572  1.00 35.49    -0.235 N 
ATOM      9  HH  ARG D 557     -22.854  -1.361 -16.097  1.00 35.49     0.174 HD
ATOM     10  HH  ARG D 557     -22.583  -2.421 -15.094  1.00 35.49     0.174 HD
ATOM     11  HH  ARG D 557     -25.099  -1.815 -13.131  1.00 35.49     0.174 HD
ATOM     12  HH  ARG D 557     -23.923  -2.706 -13.310  1.00 35.49     0.174 HD
ATOM     13  HE  ARG D 557     -25.614  -0.330 -14.544  1.00 35.49     0.178 HD
ENDBRANCH   4   5
ENDBRANCH   3   4
ENDBRANCH   2   3
ENDBRANCH   1   2
END_RES ARG D 557
BEGIN_RES GLU D 570
REMARK  3 active torsions:
REMARK  status: ('A' for Active; 'I' for Inactive)
REMARK    5  A    between atoms: CA   and  CB  
REMARK    6  A    between atoms: CB   and  CG  
REMARK    7  A    between atoms: CG   and  CD  
ROOT
ATOM     14  CA  GLU D 570     -18.033  -6.348 -13.375  1.00 32.92     0.160 C 
ENDROOT
BRANCH  14  15
ATOM     15  CB  GLU D 570     -19.500  -6.345 -13.794  1.00 32.92     0.043 C 
BRANCH  15  16
ATOM     16  CG  GLU D 570     -19.805  -6.051 -15.218  1.00 32.92     0.100 C 
BRANCH  16  17
ATOM     17  CD  GLU D 570     -21.168  -5.431 -15.414  1.00 32.92     0.185 C 
ATOM     18  OE1 GLU D 570     -21.972  -5.424 -14.461  1.00 32.92    -0.647 OA
ATOM     19  OE2 GLU D 570     -21.442  -4.962 -16.536  1.00 32.92    -0.647 OA
ENDBRANCH  16  17
ENDBRANCH  15  16
ENDBRANCH  14  15
END_RES GLU D 570
ENDMDL
MODEL 9
REMARK VINA RESULT:      -8.7      1.411      9.294
REMARK  10 active torsions:
REMARK  status: ('A' for Active; 'I' for Inactive)
REMARK    1  A    between atoms: O_2  and  C_3 
REMARK    2  A    between atoms: C_4  and  O_27 
REMARK    3  A    between atoms: C_7  and  C_9 
REMARK    4  A    between atoms: C_10  and  C_11 
REMARK    5  A    between atoms: C_11  and  C_13 
REMARK    6  A    between atoms: C_13  and  C_14 
REMARK    7  A    between atoms: C_14  and  C_16 
REMARK    8  A    between atoms: C_17  and  C_18 
REMARK    9  A    between atoms: C_20  and  O_25 
REMARK   10  A    between atoms: C_21  and  O_24 
ROOT
HETATM    1  C   UNL     1     -20.396  -4.732  -5.322  1.00  0.00     0.165 C 
ENDROOT
BRANCH   1   2
HETATM    2  C   UNL     1     -20.037  -4.597  -6.778  1.00  0.00     0.156 C 
HETATM    3  O   UNL     1     -18.934  -4.951  -7.190  1.00  0.00    -0.293 OA
BRANCH   2   4
HETATM    4  C   UNL     1     -21.076  -4.055  -7.710  1.00  0.00     0.051 C 
HETATM    5  C   UNL     1     -21.426  -4.734  -8.817  1.00  0.00     0.015 C 
BRANCH   5   6
HETATM    6  C   UNL     1     -22.422  -4.266  -9.796  1.00  0.00    -0.033 A 
HETATM    7  C   UNL     1     -23.730  -3.954  -9.427  1.00  0.00     0.014 A 
HETATM    8  C   UNL     1     -24.637  -3.481 -10.376  1.00  0.00     0.040 A 
HETATM    9  C   UNL     1     -24.261  -3.298 -11.712  1.00  0.00     0.099 A 
HETATM   10  C   UNL     1     -22.954  -3.583 -12.114  1.00  0.00     0.102 A 
HETATM   11  C   UNL     1     -22.048  -4.058 -11.136  1.00  0.00     0.051 A 
BRANCH   9  12
HETATM   12  O   UNL     1     -25.284  -2.823 -12.478  1.00  0.00    -0.358 OA
HETATM   13  H   UNL     1     -25.656  -2.020 -12.107  1.00  0.00     0.217 HD
ENDBRANCH   9  12
BRANCH  10  14
HETATM   14  O   UNL     1     -22.360  -3.471 -13.339  1.00  0.00    -0.353 OA
HETATM   15  C   UNL     1     -22.968  -2.742 -14.385  1.00  0.00     0.210 C 
ENDBRANCH  10  14
ENDBRANCH   5   6
ENDBRANCH   2   4
ENDBRANCH   1   2
BRANCH   1  16
HETATM   16  C   UNL     1     -21.427  -5.792  -5.043  1.00  0.00     0.156 C 
HETATM   17  O   UNL     1     -22.539  -5.743  -5.568  1.00  0.00    -0.293 OA
BRANCH  16  18
HETATM   18  C   UNL     1     -21.058  -6.890  -4.097  1.00  0.00     0.051 C 
HETATM   19  C   UNL     1     -21.591  -6.898  -2.867  1.00  0.00     0.015 C 
BRANCH  19  20
HETATM   20  C   UNL     1     -21.356  -7.922  -1.836  1.00  0.00    -0.033 A 
HETATM   21  C   UNL     1     -20.674  -9.122  -2.083  1.00  0.00     0.051 A 
HETATM   22  C   UNL     1     -20.442 -10.079  -1.073  1.00  0.00     0.102 A 
HETATM   23  C   UNL     1     -20.904  -9.802   0.217  1.00  0.00     0.099 A 
HETATM   24  C   UNL     1     -21.567  -8.598   0.478  1.00  0.00     0.040 A 
HETATM   25  C   UNL     1     -21.784  -7.663  -0.534  1.00  0.00     0.014 A 
BRANCH  22  26
HETATM   26  O   UNL     1     -19.776 -11.163  -1.566  1.00  0.00    -0.353 OA
HETATM   27  C   UNL     1     -18.373 -11.155  -1.730  1.00  0.00     0.210 C 
ENDBRANCH  22  26
BRANCH  23  28
HETATM   28  O   UNL     1     -20.796 -10.594   1.323  1.00  0.00    -0.358 OA
HETATM   29  H   UNL     1     -21.100 -10.131   2.109  1.00  0.00     0.217 HD
ENDBRANCH  23  28
ENDBRANCH  19  20
ENDBRANCH  16  18
ENDBRANCH   1  16
TORSDOF 10
BEGIN_RES ARG D 557
REMARK  4 active torsions:
REMARK  status: ('A' for Active; 'I' for Inactive)
REMARK    1  A    between atoms: CA   and  CB  
REMARK    2  A    between atoms: CB   and  CG  
REMARK    3  A    between atoms: CG   and  CD  
REMARK    4  A    between atoms: CD   and  NE  
REMARK       I    between atoms: NE   and  CZ  
REMARK       I    between atoms: CZ   and  NH1 
REMARK       I    between atoms: CZ   and  NH2 
ROOT
ATOM      1  CA  ARG D 557     -26.217   2.705 -17.014  1.00 35.49     0.159 C 
ENDROOT
BRANCH   1   2
ATOM      2  CB  ARG D 557     -26.789   1.319 -17.183  1.00 35.49     0.034 C 
BRANCH   2   3
ATOM      3  CG  ARG D 557     -28.227   1.163 -16.932  1.00 35.49     0.027 C 
BRANCH   3   4
ATOM      4  CD  ARG D 557     -28.611  -0.251 -16.712  1.00 35.49     0.116 C 
BRANCH   4   5
ATOM      5  NE  ARG D 557     -27.609  -0.977 -15.977  1.00 35.49    -0.212 N 
ATOM      6  CZ  ARG D 557     -27.397  -2.272 -16.041  1.00 35.49     0.666 C 
ATOM      7  NH1 ARG D 557     -28.118  -3.071 -16.806  1.00 35.49    -0.235 N 
ATOM      8  NH2 ARG D 557     -26.430  -2.759 -15.320  1.00 35.49    -0.235 N 
ATOM      9  HH  ARG D 557     -28.758  -2.772 -17.290  1.00 35.49     0.174 HD
ATOM     10  HH  ARG D 557     -27.933  -3.908 -16.809  1.00 35.49     0.174 HD
ATOM     11  HH  ARG D 557     -25.976  -2.217 -14.841  1.00 35.49     0.174 HD
ATOM     12  HH  ARG D 557     -26.260  -3.589 -15.338  1.00 35.49     0.174 HD
ATOM     13  HE  ARG D 557     -27.146  -0.550 -15.405  1.00 35.49     0.178 HD
ENDBRANCH   4   5
ENDBRANCH   3   4
ENDBRANCH   2   3
ENDBRANCH   1   2
END_RES ARG D 557
BEGIN_RES GLU D 570
REMARK  3 active torsions:
REMARK  status: ('A' for Active; 'I' for Inactive)
REMARK    5  A    between atoms: CA   and  CB  
REMARK    6  A    between atoms: CB   and  CG  
REMARK    7  A    between atoms: CG   and  CD  
ROOT
ATOM     14  CA  GLU D 570     -18.033  -6.348 -13.375  1.00 32.92     0.160 C 
ENDROOT
BRANCH  14  15
ATOM     15  CB  GLU D 570     -19.500  -6.345 -13.794  1.00 32.92     0.043 C 
BRANCH  15  16
ATOM     16  CG  GLU D 570     -19.804  -6.059 -15.220  1.00 32.92     0.100 C 
BRANCH  16  17
ATOM     17  CD  GLU D 570     -21.285  -5.938 -15.494  1.00 32.92     0.185 C 
ATOM     18  OE1 GLU D 570     -21.666  -5.293 -16.490  1.00 32.92    -0.647 OA
ATOM     19  OE2 GLU D 570     -22.073  -6.481 -14.695  1.00 32.92    -0.647 OA
ENDBRANCH  16  17
ENDBRANCH  15  16
ENDBRANCH  14  15
END_RES GLU D 570
ENDMDL
