MODEL 1
REMARK VINA RESULT:      -7.9      0.000      0.000
REMARK  6 active torsions:
REMARK  status: ('A' for Active; 'I' for Inactive)
REMARK    1  A    between atoms: C_3  and  C_10 
REMARK    2  A    between atoms: C_11  and  C_12 
REMARK    3  A    between atoms: C_13  and  C_14 
REMARK    4  A    between atoms: C_15  and  C_16 
REMARK    5  A    between atoms: C_17  and  C_18 
REMARK    6  A    between atoms: C_18  and  O_19 
ROOT
HETATM    1  C   UNL     1     -20.536  -8.331  -2.830  1.00  0.00     0.009 C 
HETATM    2  C   UNL     1     -20.826  -8.108  -4.127  1.00  0.00     0.007 C 
ENDROOT
BRANCH   2   3
HETATM    3  C   UNL     1     -19.827  -8.045  -5.195  1.00  0.00    -0.062 C 
HETATM    4  C   UNL     1     -19.895  -7.217  -6.263  1.00  0.00     0.007 C 
HETATM    5  C   UNL     1     -18.675  -9.020  -5.103  1.00  0.00     0.048 C 
BRANCH   4   6
HETATM    6  C   UNL     1     -20.929  -6.238  -6.528  1.00  0.00     0.001 C 
HETATM    7  C   UNL     1     -21.085  -5.583  -7.693  1.00  0.00     0.006 C 
BRANCH   7   8
HETATM    8  C   UNL     1     -22.162  -4.633  -7.967  1.00  0.00    -0.064 C 
HETATM    9  C   UNL     1     -22.214  -3.850  -9.067  1.00  0.00     0.005 C 
HETATM   10  C   UNL     1     -23.316  -4.533  -6.993  1.00  0.00     0.048 C 
BRANCH   9  11
HETATM   11  C   UNL     1     -21.242  -3.681 -10.185  1.00  0.00     0.192 C 
BRANCH  11  12
HETATM   12  O   UNL     1     -21.853  -2.881 -11.189  1.00  0.00    -0.397 OA
HETATM   13  H   UNL     1     -22.765  -3.203 -11.284  1.00  0.00     0.209 HD
ENDBRANCH  11  12
ENDBRANCH   9  11
ENDBRANCH   7   8
ENDBRANCH   4   6
ENDBRANCH   2   3
BRANCH   1  14
HETATM   14  C   UNL     1     -21.505  -8.442  -1.727  1.00  0.00    -0.048 C 
HETATM   15  C   UNL     1     -22.125  -7.355  -1.200  1.00  0.00    -0.077 C 
HETATM   16  C   UNL     1     -21.977  -5.940  -1.705  1.00  0.00     0.044 C 
HETATM   17  C   UNL     1     -23.110  -7.445  -0.051  1.00  0.00     0.034 C 
HETATM   18  C   UNL     1     -23.111  -8.775   0.686  1.00  0.00     0.005 C 
HETATM   19  C   UNL     1     -23.097  -9.915  -0.315  1.00  0.00     0.014 C 
HETATM   20  C   UNL     1     -21.850  -9.877  -1.248  1.00  0.00    -0.020 C 
HETATM   21  C   UNL     1     -22.200 -10.813  -2.429  1.00  0.00     0.020 C 
HETATM   22  C   UNL     1     -20.649 -10.463  -0.475  1.00  0.00     0.020 C 
ENDBRANCH   1  14
TORSDOF 6
BEGIN_RES ARG D 557
REMARK  4 active torsions:
REMARK  status: ('A' for Active; 'I' for Inactive)
REMARK    1  A    between atoms: CA   and  CB  
REMARK    2  A    between atoms: CB   and  CG  
REMARK    3  A    between atoms: CG   and  CD  
REMARK    4  A    between atoms: CD   and  NE  
REMARK       I    between atoms: NE   and  CZ  
REMARK       I    between atoms: CZ   and  NH1 
REMARK       I    between atoms: CZ   and  NH2 
ROOT
ATOM      1  CA  ARG D 557     -26.217   2.705 -17.014  1.00 35.49     0.159 C 
ENDROOT
BRANCH   1   2
ATOM      2  CB  ARG D 557     -26.789   1.319 -17.183  1.00 35.49     0.034 C 
BRANCH   2   3
ATOM      3  CG  ARG D 557     -25.871   0.194 -16.964  1.00 35.49     0.027 C 
BRANCH   3   4
ATOM      4  CD  ARG D 557     -26.310  -0.683 -15.854  1.00 35.49     0.116 C 
BRANCH   4   5
ATOM      5  NE  ARG D 557     -25.249  -0.944 -14.917  1.00 35.49    -0.212 N 
ATOM      6  CZ  ARG D 557     -24.994  -2.101 -14.348  1.00 35.49     0.666 C 
ATOM      7  NH1 ARG D 557     -25.722  -3.178 -14.574  1.00 35.49    -0.235 N 
ATOM      8  NH2 ARG D 557     -23.977  -2.160 -13.538  1.00 35.49    -0.235 N 
ATOM      9  HH  ARG D 557     -26.395  -3.163 -15.105  1.00 35.49     0.174 HD
ATOM     10  HH  ARG D 557     -25.507  -3.906 -14.176  1.00 35.49     0.174 HD
ATOM     11  HH  ARG D 557     -23.521  -1.450 -13.416  1.00 35.49     0.174 HD
ATOM     12  HH  ARG D 557     -23.779  -2.890 -13.155  1.00 35.49     0.174 HD
ATOM     13  HE  ARG D 557     -24.775  -0.287 -14.658  1.00 35.49     0.178 HD
ENDBRANCH   4   5
ENDBRANCH   3   4
ENDBRANCH   2   3
ENDBRANCH   1   2
END_RES ARG D 557
BEGIN_RES GLU D 570
REMARK  3 active torsions:
REMARK  status: ('A' for Active; 'I' for Inactive)
REMARK    5  A    between atoms: CA   and  CB  
REMARK    6  A    between atoms: CB   and  CG  
REMARK    7  A    between atoms: CG   and  CD  
ROOT
ATOM     14  CA  GLU D 570     -18.033  -6.348 -13.375  1.00 32.92     0.160 C 
ENDROOT
BRANCH  14  15
ATOM     15  CB  GLU D 570     -19.500  -6.345 -13.794  1.00 32.92     0.043 C 
BRANCH  15  16
ATOM     16  CG  GLU D 570     -20.437  -5.509 -13.000  1.00 32.92     0.100 C 
BRANCH  16  17
ATOM     17  CD  GLU D 570     -21.709  -5.178 -13.746  1.00 32.92     0.185 C 
ATOM     18  OE1 GLU D 570     -22.757  -4.990 -13.100  1.00 32.92    -0.647 OA
ATOM     19  OE2 GLU D 570     -21.659  -5.124 -14.990  1.00 32.92    -0.647 OA
ENDBRANCH  16  17
ENDBRANCH  15  16
ENDBRANCH  14  15
END_RES GLU D 570
ENDMDL
MODEL 2
REMARK VINA RESULT:      -7.5      1.934      2.521
REMARK  6 active torsions:
REMARK  status: ('A' for Active; 'I' for Inactive)
REMARK    1  A    between atoms: C_3  and  C_10 
REMARK    2  A    between atoms: C_11  and  C_12 
REMARK    3  A    between atoms: C_13  and  C_14 
REMARK    4  A    between atoms: C_15  and  C_16 
REMARK    5  A    between atoms: C_17  and  C_18 
REMARK    6  A    between atoms: C_18  and  O_19 
ROOT
HETATM    1  C   UNL     1     -20.729  -9.219  -2.671  1.00  0.00     0.009 C 
HETATM    2  C   UNL     1     -19.395  -9.030  -2.693  1.00  0.00     0.007 C 
ENDROOT
BRANCH   2   3
HETATM    3  C   UNL     1     -18.539  -9.343  -3.838  1.00  0.00    -0.062 C 
HETATM    4  C   UNL     1     -18.821  -9.016  -5.121  1.00  0.00     0.007 C 
HETATM    5  C   UNL     1     -17.282 -10.132  -3.549  1.00  0.00     0.048 C 
BRANCH   4   6
HETATM    6  C   UNL     1     -19.981  -8.285  -5.586  1.00  0.00     0.001 C 
HETATM    7  C   UNL     1     -20.061  -6.944  -5.666  1.00  0.00     0.006 C 
BRANCH   7   8
HETATM    8  C   UNL     1     -21.219  -6.217  -6.184  1.00  0.00    -0.064 C 
HETATM    9  C   UNL     1     -21.210  -5.505  -7.333  1.00  0.00     0.005 C 
HETATM   10  C   UNL     1     -22.526  -6.284  -5.424  1.00  0.00     0.048 C 
BRANCH   9  11
HETATM   11  C   UNL     1     -20.100  -5.213  -8.284  1.00  0.00     0.192 C 
BRANCH  11  12
HETATM   12  O   UNL     1     -19.333  -4.138  -7.757  1.00  0.00    -0.397 OA
HETATM   13  H   UNL     1     -19.045  -4.411  -6.869  1.00  0.00     0.209 HD
ENDBRANCH  11  12
ENDBRANCH   9  11
ENDBRANCH   7   8
ENDBRANCH   4   6
ENDBRANCH   2   3
BRANCH   1  14
HETATM   14  C   UNL     1     -21.638  -8.886  -1.561  1.00  0.00    -0.048 C 
HETATM   15  C   UNL     1     -21.969  -7.604  -1.261  1.00  0.00    -0.077 C 
HETATM   16  C   UNL     1     -21.534  -6.388  -2.042  1.00  0.00     0.044 C 
HETATM   17  C   UNL     1     -22.887  -7.237  -0.111  1.00  0.00     0.034 C 
HETATM   18  C   UNL     1     -23.148  -8.362   0.880  1.00  0.00     0.005 C 
HETATM   19  C   UNL     1     -23.443  -9.646   0.130  1.00  0.00     0.014 C 
HETATM   20  C   UNL     1     -22.272 -10.081  -0.800  1.00  0.00    -0.020 C 
HETATM   21  C   UNL     1     -22.885 -11.123  -1.765  1.00  0.00     0.020 C 
HETATM   22  C   UNL     1     -21.194 -10.766   0.068  1.00  0.00     0.020 C 
ENDBRANCH   1  14
TORSDOF 6
BEGIN_RES ARG D 557
REMARK  4 active torsions:
REMARK  status: ('A' for Active; 'I' for Inactive)
REMARK    1  A    between atoms: CA   and  CB  
REMARK    2  A    between atoms: CB   and  CG  
REMARK    3  A    between atoms: CG   and  CD  
REMARK    4  A    between atoms: CD   and  NE  
REMARK       I    between atoms: NE   and  CZ  
REMARK       I    between atoms: CZ   and  NH1 
REMARK       I    between atoms: CZ   and  NH2 
ROOT
ATOM      1  CA  ARG D 557     -26.217   2.705 -17.014  1.00 35.49     0.159 C 
ENDROOT
BRANCH   1   2
ATOM      2  CB  ARG D 557     -26.789   1.319 -17.183  1.00 35.49     0.034 C 
BRANCH   2   3
ATOM      3  CG  ARG D 557     -28.233   1.226 -17.428  1.00 35.49     0.027 C 
BRANCH   3   4
ATOM      4  CD  ARG D 557     -28.905   0.294 -16.493  1.00 35.49     0.116 C 
BRANCH   4   5
ATOM      5  NE  ARG D 557     -29.301  -0.930 -17.138  1.00 35.49    -0.212 N 
ATOM      6  CZ  ARG D 557     -28.680  -2.084 -17.042  1.00 35.49     0.666 C 
ATOM      7  NH1 ARG D 557     -27.580  -2.241 -16.329  1.00 35.49    -0.235 N 
ATOM      8  NH2 ARG D 557     -29.193  -3.097 -17.679  1.00 35.49    -0.235 N 
ATOM      9  HH  ARG D 557     -27.226  -1.589 -15.900  1.00 35.49     0.174 HD
ATOM     10  HH  ARG D 557     -27.220  -3.018 -16.301  1.00 35.49     0.174 HD
ATOM     11  HH  ARG D 557     -29.908  -2.968 -18.126  1.00 35.49     0.174 HD
ATOM     12  HH  ARG D 557     -28.822  -3.858 -17.638  1.00 35.49     0.174 HD
ATOM     13  HE  ARG D 557     -29.959  -0.903 -17.676  1.00 35.49     0.178 HD
ENDBRANCH   4   5
ENDBRANCH   3   4
ENDBRANCH   2   3
ENDBRANCH   1   2
END_RES ARG D 557
BEGIN_RES GLU D 570
REMARK  3 active torsions:
REMARK  status: ('A' for Active; 'I' for Inactive)
REMARK    5  A    between atoms: CA   and  CB  
REMARK    6  A    between atoms: CB   and  CG  
REMARK    7  A    between atoms: CG   and  CD  
ROOT
ATOM     14  CA  GLU D 570     -18.033  -6.348 -13.375  1.00 32.92     0.160 C 
ENDROOT
BRANCH  14  15
ATOM     15  CB  GLU D 570     -19.500  -6.345 -13.794  1.00 32.92     0.043 C 
BRANCH  15  16
ATOM     16  CG  GLU D 570     -20.444  -5.539 -12.977  1.00 32.92     0.100 C 
BRANCH  16  17
ATOM     17  CD  GLU D 570     -21.729  -5.219 -13.704  1.00 32.92     0.185 C 
ATOM     18  OE1 GLU D 570     -22.377  -4.209 -13.371  1.00 32.92    -0.647 OA
ATOM     19  OE2 GLU D 570     -22.099  -5.997 -14.606  1.00 32.92    -0.647 OA
ENDBRANCH  16  17
ENDBRANCH  15  16
ENDBRANCH  14  15
END_RES GLU D 570
ENDMDL
MODEL 3
REMARK VINA RESULT:      -7.2      2.274      4.168
REMARK  6 active torsions:
REMARK  status: ('A' for Active; 'I' for Inactive)
REMARK    1  A    between atoms: C_3  and  C_10 
REMARK    2  A    between atoms: C_11  and  C_12 
REMARK    3  A    between atoms: C_13  and  C_14 
REMARK    4  A    between atoms: C_15  and  C_16 
REMARK    5  A    between atoms: C_17  and  C_18 
REMARK    6  A    between atoms: C_18  and  O_19 
ROOT
HETATM    1  C   UNL     1     -20.791  -9.479  -1.915  1.00  0.00     0.009 C 
HETATM    2  C   UNL     1     -20.696  -8.235  -1.407  1.00  0.00     0.007 C 
ENDROOT
BRANCH   2   3
HETATM    3  C   UNL     1     -21.820  -7.305  -1.292  1.00  0.00    -0.062 C 
HETATM    4  C   UNL     1     -22.115  -6.339  -2.193  1.00  0.00     0.007 C 
HETATM    5  C   UNL     1     -22.668  -7.417  -0.045  1.00  0.00     0.048 C 
BRANCH   4   6
HETATM    6  C   UNL     1     -21.406  -6.071  -3.428  1.00  0.00     0.001 C 
HETATM    7  C   UNL     1     -21.812  -6.472  -4.646  1.00  0.00     0.006 C 
BRANCH   7   8
HETATM    8  C   UNL     1     -21.116  -6.153  -5.892  1.00  0.00    -0.064 C 
HETATM    9  C   UNL     1     -21.607  -5.322  -6.838  1.00  0.00     0.005 C 
HETATM   10  C   UNL     1     -19.747  -6.748  -6.139  1.00  0.00     0.048 C 
BRANCH   9  11
HETATM   11  C   UNL     1     -22.915  -4.611  -6.922  1.00  0.00     0.192 C 
BRANCH  11  12
HETATM   12  O   UNL     1     -22.833  -3.649  -7.964  1.00  0.00    -0.397 OA
HETATM   13  H   UNL     1     -23.721  -3.267  -8.061  1.00  0.00     0.209 HD
ENDBRANCH  11  12
ENDBRANCH   9  11
ENDBRANCH   7   8
ENDBRANCH   4   6
ENDBRANCH   2   3
BRANCH   1  14
HETATM   14  C   UNL     1     -19.701 -10.464  -2.017  1.00  0.00    -0.048 C 
HETATM   15  C   UNL     1     -19.378 -11.291  -0.990  1.00  0.00    -0.077 C 
HETATM   16  C   UNL     1     -20.114 -11.372   0.326  1.00  0.00     0.044 C 
HETATM   17  C   UNL     1     -18.247 -12.298  -1.066  1.00  0.00     0.034 C 
HETATM   18  C   UNL     1     -17.294 -12.099  -2.234  1.00  0.00     0.005 C 
HETATM   19  C   UNL     1     -18.085 -11.836  -3.502  1.00  0.00     0.014 C 
HETATM   20  C   UNL     1     -18.989 -10.573  -3.392  1.00  0.00    -0.020 C 
HETATM   21  C   UNL     1     -19.999 -10.696  -4.558  1.00  0.00     0.020 C 
HETATM   22  C   UNL     1     -18.108  -9.326  -3.614  1.00  0.00     0.020 C 
ENDBRANCH   1  14
TORSDOF 6
BEGIN_RES ARG D 557
REMARK  4 active torsions:
REMARK  status: ('A' for Active; 'I' for Inactive)
REMARK    1  A    between atoms: CA   and  CB  
REMARK    2  A    between atoms: CB   and  CG  
REMARK    3  A    between atoms: CG   and  CD  
REMARK    4  A    between atoms: CD   and  NE  
REMARK       I    between atoms: NE   and  CZ  
REMARK       I    between atoms: CZ   and  NH1 
REMARK       I    between atoms: CZ   and  NH2 
ROOT
ATOM      1  CA  ARG D 557     -26.217   2.705 -17.014  1.00 35.49     0.159 C 
ENDROOT
BRANCH   1   2
ATOM      2  CB  ARG D 557     -26.789   1.319 -17.183  1.00 35.49     0.034 C 
BRANCH   2   3
ATOM      3  CG  ARG D 557     -28.232   1.226 -17.434  1.00 35.49     0.027 C 
BRANCH   3   4
ATOM      4  CD  ARG D 557     -28.911   0.308 -16.492  1.00 35.49     0.116 C 
BRANCH   4   5
ATOM      5  NE  ARG D 557     -29.333  -0.911 -17.131  1.00 35.49    -0.212 N 
ATOM      6  CZ  ARG D 557     -28.722  -2.072 -17.051  1.00 35.49     0.666 C 
ATOM      7  NH1 ARG D 557     -27.609  -2.241 -16.361  1.00 35.49    -0.235 N 
ATOM      8  NH2 ARG D 557     -29.258  -3.077 -17.679  1.00 35.49    -0.235 N 
ATOM      9  HH  ARG D 557     -27.239  -1.593 -15.938  1.00 35.49     0.174 HD
ATOM     10  HH  ARG D 557     -27.256  -3.021 -16.343  1.00 35.49     0.174 HD
ATOM     11  HH  ARG D 557     -29.981  -2.940 -18.110  1.00 35.49     0.174 HD
ATOM     12  HH  ARG D 557     -28.895  -3.843 -17.647  1.00 35.49     0.174 HD
ATOM     13  HE  ARG D 557     -30.002  -0.876 -17.655  1.00 35.49     0.178 HD
ENDBRANCH   4   5
ENDBRANCH   3   4
ENDBRANCH   2   3
ENDBRANCH   1   2
END_RES ARG D 557
BEGIN_RES GLU D 570
REMARK  3 active torsions:
REMARK  status: ('A' for Active; 'I' for Inactive)
REMARK    5  A    between atoms: CA   and  CB  
REMARK    6  A    between atoms: CB   and  CG  
REMARK    7  A    between atoms: CG   and  CD  
ROOT
ATOM     14  CA  GLU D 570     -18.033  -6.348 -13.375  1.00 32.92     0.160 C 
ENDROOT
BRANCH  14  15
ATOM     15  CB  GLU D 570     -19.500  -6.345 -13.794  1.00 32.92     0.043 C 
BRANCH  15  16
ATOM     16  CG  GLU D 570     -20.439  -5.519 -12.992  1.00 32.92     0.100 C 
BRANCH  16  17
ATOM     17  CD  GLU D 570     -21.743  -5.249 -13.706  1.00 32.92     0.185 C 
ATOM     18  OE1 GLU D 570     -22.334  -4.171 -13.500  1.00 32.92    -0.647 OA
ATOM     19  OE2 GLU D 570     -22.187  -6.132 -14.466  1.00 32.92    -0.647 OA
ENDBRANCH  16  17
ENDBRANCH  15  16
ENDBRANCH  14  15
END_RES GLU D 570
ENDMDL
MODEL 4
REMARK VINA RESULT:      -7.1     10.077     15.077
REMARK  6 active torsions:
REMARK  status: ('A' for Active; 'I' for Inactive)
REMARK    1  A    between atoms: C_3  and  C_10 
REMARK    2  A    between atoms: C_11  and  C_12 
REMARK    3  A    between atoms: C_13  and  C_14 
REMARK    4  A    between atoms: C_15  and  C_16 
REMARK    5  A    between atoms: C_17  and  C_18 
REMARK    6  A    between atoms: C_18  and  O_19 
ROOT
HETATM    1  C   UNL     1     -26.306   9.661  -9.240  1.00  0.00     0.009 C 
HETATM    2  C   UNL     1     -25.941   9.967  -7.980  1.00  0.00     0.007 C 
ENDROOT
BRANCH   2   3
HETATM    3  C   UNL     1     -26.824  10.596  -6.998  1.00  0.00    -0.062 C 
HETATM    4  C   UNL     1     -27.023  10.139  -5.739  1.00  0.00     0.007 C 
HETATM    5  C   UNL     1     -27.598  11.810  -7.460  1.00  0.00     0.048 C 
BRANCH   4   6
HETATM    6  C   UNL     1     -26.390   8.987  -5.133  1.00  0.00     0.001 C 
HETATM    7  C   UNL     1     -25.122   8.957  -4.683  1.00  0.00     0.006 C 
BRANCH   7   8
HETATM    8  C   UNL     1     -24.508   7.804  -4.027  1.00  0.00    -0.064 C 
HETATM    9  C   UNL     1     -23.248   7.799  -3.536  1.00  0.00     0.005 C 
HETATM   10  C   UNL     1     -25.325   6.544  -3.843  1.00  0.00     0.048 C 
BRANCH   9  11
HETATM   11  C   UNL     1     -22.185   8.843  -3.581  1.00  0.00     0.192 C 
BRANCH  11  12
HETATM   12  O   UNL     1     -21.047   8.291  -4.229  1.00  0.00    -0.397 OA
HETATM   13  H   UNL     1     -20.948   8.766  -5.071  1.00  0.00     0.209 HD
ENDBRANCH  11  12
ENDBRANCH   9  11
ENDBRANCH   7   8
ENDBRANCH   4   6
ENDBRANCH   2   3
BRANCH   1  14
HETATM   14  C   UNL     1     -25.470   8.994 -10.252  1.00  0.00    -0.048 C 
HETATM   15  C   UNL     1     -24.444   9.631 -10.874  1.00  0.00    -0.077 C 
HETATM   16  C   UNL     1     -23.980  11.035 -10.569  1.00  0.00     0.044 C 
HETATM   17  C   UNL     1     -23.583   8.970 -11.933  1.00  0.00     0.034 C 
HETATM   18  C   UNL     1     -24.143   7.669 -12.488  1.00  0.00     0.005 C 
HETATM   19  C   UNL     1     -24.644   6.801 -11.350  1.00  0.00     0.014 C 
HETATM   20  C   UNL     1     -25.763   7.493 -10.516  1.00  0.00    -0.020 C 
HETATM   21  C   UNL     1     -25.850   6.681  -9.201  1.00  0.00     0.020 C 
HETATM   22  C   UNL     1     -27.094   7.357 -11.284  1.00  0.00     0.020 C 
ENDBRANCH   1  14
TORSDOF 6
BEGIN_RES ARG D 557
REMARK  4 active torsions:
REMARK  status: ('A' for Active; 'I' for Inactive)
REMARK    1  A    between atoms: CA   and  CB  
REMARK    2  A    between atoms: CB   and  CG  
REMARK    3  A    between atoms: CG   and  CD  
REMARK    4  A    between atoms: CD   and  NE  
REMARK       I    between atoms: NE   and  CZ  
REMARK       I    between atoms: CZ   and  NH1 
REMARK       I    between atoms: CZ   and  NH2 
ROOT
ATOM      1  CA  ARG D 557     -26.217   2.705 -17.014  1.00 35.49     0.159 C 
ENDROOT
BRANCH   1   2
ATOM      2  CB  ARG D 557     -26.789   1.319 -17.183  1.00 35.49     0.034 C 
BRANCH   2   3
ATOM      3  CG  ARG D 557     -25.866   0.195 -16.986  1.00 35.49     0.027 C 
BRANCH   3   4
ATOM      4  CD  ARG D 557     -26.285  -0.691 -15.875  1.00 35.49     0.116 C 
BRANCH   4   5
ATOM      5  NE  ARG D 557     -25.224  -0.912 -14.928  1.00 35.49    -0.212 N 
ATOM      6  CZ  ARG D 557     -24.926  -2.061 -14.363  1.00 35.49     0.666 C 
ATOM      7  NH1 ARG D 557     -25.604  -3.167 -14.605  1.00 35.49    -0.235 N 
ATOM      8  NH2 ARG D 557     -23.916  -2.082 -13.543  1.00 35.49    -0.235 N 
ATOM      9  HH  ARG D 557     -26.272  -3.177 -15.143  1.00 35.49     0.174 HD
ATOM     10  HH  ARG D 557     -25.363  -3.888 -14.209  1.00 35.49     0.174 HD
ATOM     11  HH  ARG D 557     -23.491  -1.354 -13.412  1.00 35.49     0.174 HD
ATOM     12  HH  ARG D 557     -23.691  -2.806 -13.162  1.00 35.49     0.174 HD
ATOM     13  HE  ARG D 557     -24.781  -0.238 -14.660  1.00 35.49     0.178 HD
ENDBRANCH   4   5
ENDBRANCH   3   4
ENDBRANCH   2   3
ENDBRANCH   1   2
END_RES ARG D 557
BEGIN_RES GLU D 570
REMARK  3 active torsions:
REMARK  status: ('A' for Active; 'I' for Inactive)
REMARK    5  A    between atoms: CA   and  CB  
REMARK    6  A    between atoms: CB   and  CG  
REMARK    7  A    between atoms: CG   and  CD  
ROOT
ATOM     14  CA  GLU D 570     -18.033  -6.348 -13.375  1.00 32.92     0.160 C 
ENDROOT
BRANCH  14  15
ATOM     15  CB  GLU D 570     -19.500  -6.345 -13.794  1.00 32.92     0.043 C 
BRANCH  15  16
ATOM     16  CG  GLU D 570     -20.447  -5.553 -12.967  1.00 32.92     0.100 C 
BRANCH  16  17
ATOM     17  CD  GLU D 570     -21.681  -5.127 -13.728  1.00 32.92     0.185 C 
ATOM     18  OE1 GLU D 570     -22.736  -4.915 -13.100  1.00 32.92    -0.647 OA
ATOM     19  OE2 GLU D 570     -21.595  -5.021 -14.967  1.00 32.92    -0.647 OA
ENDBRANCH  16  17
ENDBRANCH  15  16
ENDBRANCH  14  15
END_RES GLU D 570
ENDMDL
MODEL 5
REMARK VINA RESULT:      -7.0      4.107      6.443
REMARK  6 active torsions:
REMARK  status: ('A' for Active; 'I' for Inactive)
REMARK    1  A    between atoms: C_3  and  C_10 
REMARK    2  A    between atoms: C_11  and  C_12 
REMARK    3  A    between atoms: C_13  and  C_14 
REMARK    4  A    between atoms: C_15  and  C_16 
REMARK    5  A    between atoms: C_17  and  C_18 
REMARK    6  A    between atoms: C_18  and  O_19 
ROOT
HETATM    1  C   UNL     1     -20.288  -9.275  -2.838  1.00  0.00     0.009 C 
HETATM    2  C   UNL     1     -18.944  -9.286  -2.741  1.00  0.00     0.007 C 
ENDROOT
BRANCH   2   3
HETATM    3  C   UNL     1     -18.044  -9.691  -3.822  1.00  0.00    -0.062 C 
HETATM    4  C   UNL     1     -16.880 -10.359  -3.644  1.00  0.00     0.007 C 
HETATM    5  C   UNL     1     -18.437  -9.277  -5.222  1.00  0.00     0.048 C 
BRANCH   4   6
HETATM    6  C   UNL     1     -16.336 -10.815  -2.382  1.00  0.00     0.001 C 
HETATM    7  C   UNL     1     -16.338 -12.094  -1.965  1.00  0.00     0.006 C 
BRANCH   7   8
HETATM    8  C   UNL     1     -15.741 -12.553  -0.711  1.00  0.00    -0.064 C 
HETATM    9  C   UNL     1     -14.746 -13.464  -0.639  1.00  0.00     0.005 C 
HETATM   10  C   UNL     1     -16.225 -11.956   0.592  1.00  0.00     0.048 C 
BRANCH   9  11
HETATM   11  C   UNL     1     -14.076 -14.256  -1.711  1.00  0.00     0.192 C 
BRANCH  11  12
HETATM   12  O   UNL     1     -12.678 -14.259  -1.454  1.00  0.00    -0.397 OA
HETATM   13  H   UNL     1     -12.310 -13.483  -1.909  1.00  0.00     0.209 HD
ENDBRANCH  11  12
ENDBRANCH   9  11
ENDBRANCH   7   8
ENDBRANCH   4   6
ENDBRANCH   2   3
BRANCH   1  14
HETATM   14  C   UNL     1     -21.233  -8.841  -1.796  1.00  0.00    -0.048 C 
HETATM   15  C   UNL     1     -21.654  -7.554  -1.695  1.00  0.00    -0.077 C 
HETATM   16  C   UNL     1     -21.290  -6.443  -2.650  1.00  0.00     0.044 C 
HETATM   17  C   UNL     1     -22.612  -7.082  -0.618  1.00  0.00     0.034 C 
HETATM   18  C   UNL     1     -22.811  -8.060   0.531  1.00  0.00     0.005 C 
HETATM   19  C   UNL     1     -23.009  -9.460  -0.018  1.00  0.00     0.014 C 
HETATM   20  C   UNL     1     -21.797  -9.948  -0.865  1.00  0.00    -0.020 C 
HETATM   21  C   UNL     1     -22.324 -11.164  -1.664  1.00  0.00     0.020 C 
HETATM   22  C   UNL     1     -20.688 -10.419   0.101  1.00  0.00     0.020 C 
ENDBRANCH   1  14
TORSDOF 6
BEGIN_RES ARG D 557
REMARK  4 active torsions:
REMARK  status: ('A' for Active; 'I' for Inactive)
REMARK    1  A    between atoms: CA   and  CB  
REMARK    2  A    between atoms: CB   and  CG  
REMARK    3  A    between atoms: CG   and  CD  
REMARK    4  A    between atoms: CD   and  NE  
REMARK       I    between atoms: NE   and  CZ  
REMARK       I    between atoms: CZ   and  NH1 
REMARK       I    between atoms: CZ   and  NH2 
ROOT
ATOM      1  CA  ARG D 557     -26.217   2.705 -17.014  1.00 35.49     0.159 C 
ENDROOT
BRANCH   1   2
ATOM      2  CB  ARG D 557     -26.789   1.319 -17.183  1.00 35.49     0.034 C 
BRANCH   2   3
ATOM      3  CG  ARG D 557     -25.860   0.195 -17.013  1.00 35.49     0.027 C 
BRANCH   3   4
ATOM      4  CD  ARG D 557     -26.212  -0.659 -15.856  1.00 35.49     0.116 C 
BRANCH   4   5
ATOM      5  NE  ARG D 557     -25.126  -0.778 -14.919  1.00 35.49    -0.212 N 
ATOM      6  CZ  ARG D 557     -24.715  -1.893 -14.358  1.00 35.49     0.666 C 
ATOM      7  NH1 ARG D 557     -25.286  -3.059 -14.596  1.00 35.49    -0.235 N 
ATOM      8  NH2 ARG D 557     -23.700  -1.818 -13.547  1.00 35.49    -0.235 N 
ATOM      9  HH  ARG D 557     -25.954  -3.132 -15.127  1.00 35.49     0.174 HD
ATOM     10  HH  ARG D 557     -24.973  -3.753 -14.203  1.00 35.49     0.174 HD
ATOM     11  HH  ARG D 557     -23.346  -1.052 -13.419  1.00 35.49     0.174 HD
ATOM     12  HH  ARG D 557     -23.403  -2.516 -13.170  1.00 35.49     0.174 HD
ATOM     13  HE  ARG D 557     -24.748  -0.064 -14.654  1.00 35.49     0.178 HD
ENDBRANCH   4   5
ENDBRANCH   3   4
ENDBRANCH   2   3
ENDBRANCH   1   2
END_RES ARG D 557
BEGIN_RES GLU D 570
REMARK  3 active torsions:
REMARK  status: ('A' for Active; 'I' for Inactive)
REMARK    5  A    between atoms: CA   and  CB  
REMARK    6  A    between atoms: CB   and  CG  
REMARK    7  A    between atoms: CG   and  CD  
ROOT
ATOM     14  CA  GLU D 570     -18.033  -6.348 -13.375  1.00 32.92     0.160 C 
ENDROOT
BRANCH  14  15
ATOM     15  CB  GLU D 570     -19.500  -6.345 -13.794  1.00 32.92     0.043 C 
BRANCH  15  16
ATOM     16  CG  GLU D 570     -20.437  -5.508 -13.001  1.00 32.92     0.100 C 
BRANCH  16  17
ATOM     17  CD  GLU D 570     -21.703  -5.168 -13.751  1.00 32.92     0.185 C 
ATOM     18  OE1 GLU D 570     -22.579  -4.488 -13.183  1.00 32.92    -0.647 OA
ATOM     19  OE2 GLU D 570     -21.828  -5.600 -14.914  1.00 32.92    -0.647 OA
ENDBRANCH  16  17
ENDBRANCH  15  16
ENDBRANCH  14  15
END_RES GLU D 570
ENDMDL
MODEL 6
REMARK VINA RESULT:      -7.0      2.011      4.032
REMARK  6 active torsions:
REMARK  status: ('A' for Active; 'I' for Inactive)
REMARK    1  A    between atoms: C_3  and  C_10 
REMARK    2  A    between atoms: C_11  and  C_12 
REMARK    3  A    between atoms: C_13  and  C_14 
REMARK    4  A    between atoms: C_15  and  C_16 
REMARK    5  A    between atoms: C_17  and  C_18 
REMARK    6  A    between atoms: C_18  and  O_19 
ROOT
HETATM    1  C   UNL     1     -20.141  -9.358  -4.791  1.00  0.00     0.009 C 
HETATM    2  C   UNL     1     -20.480  -8.187  -5.364  1.00  0.00     0.007 C 
ENDROOT
BRANCH   2   3
HETATM    3  C   UNL     1     -20.932  -7.009  -4.623  1.00  0.00    -0.062 C 
HETATM    4  C   UNL     1     -21.067  -5.771  -5.155  1.00  0.00     0.007 C 
HETATM    5  C   UNL     1     -21.213  -7.201  -3.150  1.00  0.00     0.048 C 
BRANCH   4   6
HETATM    6  C   UNL     1     -20.823  -5.396  -6.532  1.00  0.00     0.001 C 
HETATM    7  C   UNL     1     -21.781  -5.058  -7.415  1.00  0.00     0.006 C 
BRANCH   7   8
HETATM    8  C   UNL     1     -21.522  -4.632  -8.789  1.00  0.00    -0.064 C 
HETATM    9  C   UNL     1     -22.492  -4.329  -9.680  1.00  0.00     0.005 C 
HETATM   10  C   UNL     1     -20.088  -4.480  -9.251  1.00  0.00     0.048 C 
BRANCH   9  11
HETATM   11  C   UNL     1     -23.976  -4.405  -9.562  1.00  0.00     0.192 C 
BRANCH  11  12
HETATM   12  O   UNL     1     -24.425  -3.261  -8.848  1.00  0.00    -0.397 OA
HETATM   13  H   UNL     1     -24.287  -2.496  -9.432  1.00  0.00     0.209 HD
ENDBRANCH  11  12
ENDBRANCH   9  11
ENDBRANCH   7   8
ENDBRANCH   4   6
ENDBRANCH   2   3
BRANCH   1  14
HETATM   14  C   UNL     1     -19.644 -10.558  -5.487  1.00  0.00    -0.048 C 
HETATM   15  C   UNL     1     -18.381 -10.635  -5.978  1.00  0.00    -0.077 C 
HETATM   16  C   UNL     1     -17.319  -9.575  -5.815  1.00  0.00     0.044 C 
HETATM   17  C   UNL     1     -17.856 -11.852  -6.715  1.00  0.00     0.034 C 
HETATM   18  C   UNL     1     -18.924 -12.840  -7.155  1.00  0.00     0.005 C 
HETATM   19  C   UNL     1     -19.902 -13.077  -6.020  1.00  0.00     0.014 C 
HETATM   20  C   UNL     1     -20.612 -11.769  -5.559  1.00  0.00    -0.020 C 
HETATM   21  C   UNL     1     -21.222 -12.106  -4.177  1.00  0.00     0.020 C 
HETATM   22  C   UNL     1     -21.750 -11.459  -6.554  1.00  0.00     0.020 C 
ENDBRANCH   1  14
TORSDOF 6
BEGIN_RES ARG D 557
REMARK  4 active torsions:
REMARK  status: ('A' for Active; 'I' for Inactive)
REMARK    1  A    between atoms: CA   and  CB  
REMARK    2  A    between atoms: CB   and  CG  
REMARK    3  A    between atoms: CG   and  CD  
REMARK    4  A    between atoms: CD   and  NE  
REMARK       I    between atoms: NE   and  CZ  
REMARK       I    between atoms: CZ   and  NH1 
REMARK       I    between atoms: CZ   and  NH2 
ROOT
ATOM      1  CA  ARG D 557     -26.217   2.705 -17.014  1.00 35.49     0.159 C 
ENDROOT
BRANCH   1   2
ATOM      2  CB  ARG D 557     -26.789   1.319 -17.183  1.00 35.49     0.034 C 
BRANCH   2   3
ATOM      3  CG  ARG D 557     -25.859   0.196 -17.015  1.00 35.49     0.027 C 
BRANCH   3   4
ATOM      4  CD  ARG D 557     -26.304  -0.754 -15.970  1.00 35.49     0.116 C 
BRANCH   4   5
ATOM      5  NE  ARG D 557     -25.317  -0.924 -14.936  1.00 35.49    -0.212 N 
ATOM      6  CZ  ARG D 557     -25.027  -2.053 -14.329  1.00 35.49     0.666 C 
ATOM      7  NH1 ARG D 557     -25.646  -3.186 -14.605  1.00 35.49    -0.235 N 
ATOM      8  NH2 ARG D 557     -24.087  -2.026 -13.429  1.00 35.49    -0.235 N 
ATOM      9  HH  ARG D 557     -26.266  -3.227 -15.195  1.00 35.49     0.174 HD
ATOM     10  HH  ARG D 557     -25.413  -3.891 -14.178  1.00 35.49     0.174 HD
ATOM     11  HH  ARG D 557     -23.700  -1.282 -13.277  1.00 35.49     0.174 HD
ATOM     12  HH  ARG D 557     -23.870  -2.736 -13.019  1.00 35.49     0.174 HD
ATOM     13  HE  ARG D 557     -24.921  -0.230 -14.644  1.00 35.49     0.178 HD
ENDBRANCH   4   5
ENDBRANCH   3   4
ENDBRANCH   2   3
ENDBRANCH   1   2
END_RES ARG D 557
BEGIN_RES GLU D 570
REMARK  3 active torsions:
REMARK  status: ('A' for Active; 'I' for Inactive)
REMARK    5  A    between atoms: CA   and  CB  
REMARK    6  A    between atoms: CB   and  CG  
REMARK    7  A    between atoms: CG   and  CD  
ROOT
ATOM     14  CA  GLU D 570     -18.033  -6.348 -13.375  1.00 32.92     0.160 C 
ENDROOT
BRANCH  14  15
ATOM     15  CB  GLU D 570     -19.500  -6.345 -13.794  1.00 32.92     0.043 C 
BRANCH  15  16
ATOM     16  CG  GLU D 570     -20.451  -5.576 -12.951  1.00 32.92     0.100 C 
BRANCH  16  17
ATOM     17  CD  GLU D 570     -21.762  -5.294 -13.648  1.00 32.92     0.185 C 
ATOM     18  OE1 GLU D 570     -22.225  -6.144 -14.432  1.00 32.92    -0.647 OA
ATOM     19  OE2 GLU D 570     -22.323  -4.204 -13.419  1.00 32.92    -0.647 OA
ENDBRANCH  16  17
ENDBRANCH  15  16
ENDBRANCH  14  15
END_RES GLU D 570
ENDMDL
MODEL 7
REMARK VINA RESULT:      -6.9     12.758     15.244
REMARK  6 active torsions:
REMARK  status: ('A' for Active; 'I' for Inactive)
REMARK    1  A    between atoms: C_3  and  C_10 
REMARK    2  A    between atoms: C_11  and  C_12 
REMARK    3  A    between atoms: C_13  and  C_14 
REMARK    4  A    between atoms: C_15  and  C_16 
REMARK    5  A    between atoms: C_17  and  C_18 
REMARK    6  A    between atoms: C_18  and  O_19 
ROOT
HETATM    1  C   UNL     1     -24.848   8.749  -0.583  1.00  0.00     0.009 C 
HETATM    2  C   UNL     1     -24.964   8.422   0.718  1.00  0.00     0.007 C 
ENDROOT
BRANCH   2   3
HETATM    3  C   UNL     1     -24.396   9.204   1.817  1.00  0.00    -0.062 C 
HETATM    4  C   UNL     1     -25.124   9.882   2.735  1.00  0.00     0.007 C 
HETATM    5  C   UNL     1     -22.887   9.289   1.879  1.00  0.00     0.048 C 
BRANCH   4   6
HETATM    6  C   UNL     1     -26.568   9.933   2.819  1.00  0.00     0.001 C 
HETATM    7  C   UNL     1     -27.338   8.981   3.378  1.00  0.00     0.006 C 
BRANCH   7   8
HETATM    8  C   UNL     1     -28.792   9.065   3.503  1.00  0.00    -0.064 C 
HETATM    9  C   UNL     1     -29.553   8.119   4.097  1.00  0.00     0.005 C 
HETATM   10  C   UNL     1     -29.503  10.293   2.977  1.00  0.00     0.048 C 
BRANCH   9  11
HETATM   11  C   UNL     1     -29.181   6.797   4.677  1.00  0.00     0.192 C 
BRANCH  11  12
HETATM   12  O   UNL     1     -29.852   6.654   5.922  1.00  0.00    -0.397 OA
HETATM   13  H   UNL     1     -29.964   5.699   6.069  1.00  0.00     0.209 HD
ENDBRANCH  11  12
ENDBRANCH   9  11
ENDBRANCH   7   8
ENDBRANCH   4   6
ENDBRANCH   2   3
BRANCH   1  14
HETATM   14  C   UNL     1     -25.433   8.019  -1.720  1.00  0.00    -0.048 C 
HETATM   15  C   UNL     1     -24.847   6.912  -2.245  1.00  0.00    -0.077 C 
HETATM   16  C   UNL     1     -23.602   6.249  -1.707  1.00  0.00     0.044 C 
HETATM   17  C   UNL     1     -25.422   6.157  -3.428  1.00  0.00     0.034 C 
HETATM   18  C   UNL     1     -26.507   6.900  -4.192  1.00  0.00     0.005 C 
HETATM   19  C   UNL     1     -27.487   7.521  -3.215  1.00  0.00     0.014 C 
HETATM   20  C   UNL     1     -26.805   8.526  -2.240  1.00  0.00    -0.020 C 
HETATM   21  C   UNL     1     -27.821   8.729  -1.091  1.00  0.00     0.020 C 
HETATM   22  C   UNL     1     -26.608   9.864  -2.985  1.00  0.00     0.020 C 
ENDBRANCH   1  14
TORSDOF 6
BEGIN_RES ARG D 557
REMARK  4 active torsions:
REMARK  status: ('A' for Active; 'I' for Inactive)
REMARK    1  A    between atoms: CA   and  CB  
REMARK    2  A    between atoms: CB   and  CG  
REMARK    3  A    between atoms: CG   and  CD  
REMARK    4  A    between atoms: CD   and  NE  
REMARK       I    between atoms: NE   and  CZ  
REMARK       I    between atoms: CZ   and  NH1 
REMARK       I    between atoms: CZ   and  NH2 
ROOT
ATOM      1  CA  ARG D 557     -26.217   2.705 -17.014  1.00 35.49     0.159 C 
ENDROOT
BRANCH   1   2
ATOM      2  CB  ARG D 557     -26.789   1.319 -17.183  1.00 35.49     0.034 C 
BRANCH   2   3
ATOM      3  CG  ARG D 557     -25.835   0.204 -17.164  1.00 35.49     0.027 C 
BRANCH   3   4
ATOM      4  CD  ARG D 557     -24.745   0.410 -16.184  1.00 35.49     0.116 C 
BRANCH   4   5
ATOM      5  NE  ARG D 557     -24.890  -0.433 -15.026  1.00 35.49    -0.212 N 
ATOM      6  CZ  ARG D 557     -24.074  -1.401 -14.673  1.00 35.49     0.666 C 
ATOM      7  NH1 ARG D 557     -23.006  -1.720 -15.380  1.00 35.49    -0.235 N 
ATOM      8  NH2 ARG D 557     -24.350  -2.050 -13.579  1.00 35.49    -0.235 N 
ATOM      9  HH  ARG D 557     -22.804  -1.305 -16.102  1.00 35.49     0.174 HD
ATOM     10  HH  ARG D 557     -22.509  -2.359 -15.099  1.00 35.49     0.174 HD
ATOM     11  HH  ARG D 557     -25.043  -1.817 -13.140  1.00 35.49     0.174 HD
ATOM     12  HH  ARG D 557     -23.845  -2.678 -13.317  1.00 35.49     0.174 HD
ATOM     13  HE  ARG D 557     -25.592  -0.344 -14.553  1.00 35.49     0.178 HD
ENDBRANCH   4   5
ENDBRANCH   3   4
ENDBRANCH   2   3
ENDBRANCH   1   2
END_RES ARG D 557
BEGIN_RES GLU D 570
REMARK  3 active torsions:
REMARK  status: ('A' for Active; 'I' for Inactive)
REMARK    5  A    between atoms: CA   and  CB  
REMARK    6  A    between atoms: CB   and  CG  
REMARK    7  A    between atoms: CG   and  CD  
ROOT
ATOM     14  CA  GLU D 570     -18.033  -6.348 -13.375  1.00 32.92     0.160 C 
ENDROOT
BRANCH  14  15
ATOM     15  CB  GLU D 570     -19.500  -6.345 -13.794  1.00 32.92     0.043 C 
BRANCH  15  16
ATOM     16  CG  GLU D 570     -20.446  -5.553 -12.967  1.00 32.92     0.100 C 
BRANCH  16  17
ATOM     17  CD  GLU D 570     -21.738  -5.240 -13.686  1.00 32.92     0.185 C 
ATOM     18  OE1 GLU D 570     -22.269  -4.125 -13.519  1.00 32.92    -0.647 OA
ATOM     19  OE2 GLU D 570     -22.233  -6.126 -14.411  1.00 32.92    -0.647 OA
ENDBRANCH  16  17
ENDBRANCH  15  16
ENDBRANCH  14  15
END_RES GLU D 570
ENDMDL
MODEL 8
REMARK VINA RESULT:      -6.9      4.469      7.576
REMARK  6 active torsions:
REMARK  status: ('A' for Active; 'I' for Inactive)
REMARK    1  A    between atoms: C_3  and  C_10 
REMARK    2  A    between atoms: C_11  and  C_12 
REMARK    3  A    between atoms: C_13  and  C_14 
REMARK    4  A    between atoms: C_15  and  C_16 
REMARK    5  A    between atoms: C_17  and  C_18 
REMARK    6  A    between atoms: C_18  and  O_19 
ROOT
HETATM    1  C   UNL     1     -21.829 -10.321  -1.001  1.00  0.00     0.009 C 
HETATM    2  C   UNL     1     -21.173 -10.864   0.043  1.00  0.00     0.007 C 
ENDROOT
BRANCH   2   3
HETATM    3  C   UNL     1     -21.223 -12.283   0.398  1.00  0.00    -0.062 C 
HETATM    4  C   UNL     1     -20.199 -13.153   0.236  1.00  0.00     0.007 C 
HETATM    5  C   UNL     1     -22.539 -12.803   0.933  1.00  0.00     0.048 C 
BRANCH   4   6
HETATM    6  C   UNL     1     -18.881 -12.843  -0.279  1.00  0.00     0.001 C 
HETATM    7  C   UNL     1     -17.872 -12.337   0.453  1.00  0.00     0.006 C 
BRANCH   7   8
HETATM    8  C   UNL     1     -16.530 -12.073  -0.064  1.00  0.00    -0.064 C 
HETATM    9  C   UNL     1     -15.394 -12.479   0.546  1.00  0.00     0.005 C 
HETATM   10  C   UNL     1     -16.383 -11.338  -1.378  1.00  0.00     0.048 C 
BRANCH   9  11
HETATM   11  C   UNL     1     -15.188 -13.182   1.845  1.00  0.00     0.192 C 
BRANCH  11  12
HETATM   12  O   UNL     1     -15.294 -14.580   1.616  1.00  0.00    -0.397 OA
HETATM   13  H   UNL     1     -15.995 -14.701   0.953  1.00  0.00     0.209 HD
ENDBRANCH  11  12
ENDBRANCH   9  11
ENDBRANCH   7   8
ENDBRANCH   4   6
ENDBRANCH   2   3
BRANCH   1  14
HETATM   14  C   UNL     1     -21.780  -8.911  -1.422  1.00  0.00    -0.048 C 
HETATM   15  C   UNL     1     -22.397  -7.927  -0.719  1.00  0.00    -0.077 C 
HETATM   16  C   UNL     1     -23.125  -8.118   0.590  1.00  0.00     0.044 C 
HETATM   17  C   UNL     1     -22.376  -6.472  -1.146  1.00  0.00     0.034 C 
HETATM   18  C   UNL     1     -21.906  -6.233  -2.572  1.00  0.00     0.005 C 
HETATM   19  C   UNL     1     -20.666  -7.061  -2.848  1.00  0.00     0.014 C 
HETATM   20  C   UNL     1     -20.914  -8.588  -2.669  1.00  0.00    -0.020 C 
HETATM   21  C   UNL     1     -19.504  -9.219  -2.573  1.00  0.00     0.020 C 
HETATM   22  C   UNL     1     -21.620  -9.116  -3.935  1.00  0.00     0.020 C 
ENDBRANCH   1  14
TORSDOF 6
BEGIN_RES ARG D 557
REMARK  4 active torsions:
REMARK  status: ('A' for Active; 'I' for Inactive)
REMARK    1  A    between atoms: CA   and  CB  
REMARK    2  A    between atoms: CB   and  CG  
REMARK    3  A    between atoms: CG   and  CD  
REMARK    4  A    between atoms: CD   and  NE  
REMARK       I    between atoms: NE   and  CZ  
REMARK       I    between atoms: CZ   and  NH1 
REMARK       I    between atoms: CZ   and  NH2 
ROOT
ATOM      1  CA  ARG D 557     -26.217   2.705 -17.014  1.00 35.49     0.159 C 
ENDROOT
BRANCH   1   2
ATOM      2  CB  ARG D 557     -26.789   1.319 -17.183  1.00 35.49     0.034 C 
BRANCH   2   3
ATOM      3  CG  ARG D 557     -28.227   1.227 -17.464  1.00 35.49     0.027 C 
BRANCH   3   4
ATOM      4  CD  ARG D 557     -28.929   0.324 -16.523  1.00 35.49     0.116 C 
BRANCH   4   5
ATOM      5  NE  ARG D 557     -29.276  -0.931 -17.134  1.00 35.49    -0.212 N 
ATOM      6  CZ  ARG D 557     -28.615  -2.059 -17.001  1.00 35.49     0.666 C 
ATOM      7  NH1 ARG D 557     -27.515  -2.155 -16.277  1.00 35.49    -0.235 N 
ATOM      8  NH2 ARG D 557     -29.087  -3.107 -17.611  1.00 35.49    -0.235 N 
ATOM      9  HH  ARG D 557     -27.188  -1.479 -15.866  1.00 35.49     0.174 HD
ATOM     10  HH  ARG D 557     -27.128  -2.918 -16.225  1.00 35.49     0.174 HD
ATOM     11  HH  ARG D 557     -29.803  -3.018 -18.066  1.00 35.49     0.174 HD
ATOM     12  HH  ARG D 557     -28.690  -3.854 -17.546  1.00 35.49     0.174 HD
ATOM     13  HE  ARG D 557     -29.931  -0.944 -17.677  1.00 35.49     0.178 HD
ENDBRANCH   4   5
ENDBRANCH   3   4
ENDBRANCH   2   3
ENDBRANCH   1   2
END_RES ARG D 557
BEGIN_RES GLU D 570
REMARK  3 active torsions:
REMARK  status: ('A' for Active; 'I' for Inactive)
REMARK    5  A    between atoms: CA   and  CB  
REMARK    6  A    between atoms: CB   and  CG  
REMARK    7  A    between atoms: CG   and  CD  
ROOT
ATOM     14  CA  GLU D 570     -18.033  -6.348 -13.375  1.00 32.92     0.160 C 
ENDROOT
BRANCH  14  15
ATOM     15  CB  GLU D 570     -19.500  -6.345 -13.794  1.00 32.92     0.043 C 
BRANCH  15  16
ATOM     16  CG  GLU D 570     -20.082  -7.631 -14.257  1.00 32.92     0.100 C 
BRANCH  16  17
ATOM     17  CD  GLU D 570     -20.641  -7.555 -15.659  1.00 32.92     0.185 C 
ATOM     18  OE1 GLU D 570     -20.624  -6.463 -16.258  1.00 32.92    -0.647 OA
ATOM     19  OE2 GLU D 570     -21.116  -8.595 -16.156  1.00 32.92    -0.647 OA
ENDBRANCH  16  17
ENDBRANCH  15  16
ENDBRANCH  14  15
END_RES GLU D 570
ENDMDL
MODEL 9
REMARK VINA RESULT:      -6.9      3.611      5.530
REMARK  6 active torsions:
REMARK  status: ('A' for Active; 'I' for Inactive)
REMARK    1  A    between atoms: C_3  and  C_10 
REMARK    2  A    between atoms: C_11  and  C_12 
REMARK    3  A    between atoms: C_13  and  C_14 
REMARK    4  A    between atoms: C_15  and  C_16 
REMARK    5  A    between atoms: C_17  and  C_18 
REMARK    6  A    between atoms: C_18  and  O_19 
ROOT
HETATM    1  C   UNL     1     -21.235  -8.584  -3.356  1.00  0.00     0.009 C 
HETATM    2  C   UNL     1     -19.945  -8.408  -3.702  1.00  0.00     0.007 C 
ENDROOT
BRANCH   2   3
HETATM    3  C   UNL     1     -19.463  -8.360  -5.083  1.00  0.00    -0.062 C 
HETATM    4  C   UNL     1     -18.447  -9.110  -5.570  1.00  0.00     0.007 C 
HETATM    5  C   UNL     1     -20.128  -7.357  -5.999  1.00  0.00     0.048 C 
BRANCH   4   6
HETATM    6  C   UNL     1     -17.684 -10.101  -4.839  1.00  0.00     0.001 C 
HETATM    7  C   UNL     1     -16.465  -9.891  -4.308  1.00  0.00     0.006 C 
BRANCH   7   8
HETATM    8  C   UNL     1     -15.724 -10.882  -3.530  1.00  0.00    -0.064 C 
HETATM    9  C   UNL     1     -14.866 -11.776  -4.069  1.00  0.00     0.005 C 
HETATM   10  C   UNL     1     -15.884 -10.901  -2.025  1.00  0.00     0.048 C 
BRANCH   9  11
HETATM   11  C   UNL     1     -14.510 -12.044  -5.492  1.00  0.00     0.192 C 
BRANCH  11  12
HETATM   12  O   UNL     1     -13.327 -12.830  -5.515  1.00  0.00    -0.397 OA
HETATM   13  H   UNL     1     -13.572 -13.711  -5.184  1.00  0.00     0.209 HD
ENDBRANCH  11  12
ENDBRANCH   9  11
ENDBRANCH   7   8
ENDBRANCH   4   6
ENDBRANCH   2   3
BRANCH   1  14
HETATM   14  C   UNL     1     -21.775  -8.600  -1.986  1.00  0.00    -0.048 C 
HETATM   15  C   UNL     1     -22.123  -7.461  -1.334  1.00  0.00    -0.077 C 
HETATM   16  C   UNL     1     -22.086  -6.074  -1.928  1.00  0.00     0.044 C 
HETATM   17  C   UNL     1     -22.662  -7.454   0.083  1.00  0.00     0.034 C 
HETATM   18  C   UNL     1     -22.479  -8.760   0.841  1.00  0.00     0.005 C 
HETATM   19  C   UNL     1     -22.863  -9.927  -0.049  1.00  0.00     0.014 C 
HETATM   20  C   UNL     1     -22.008  -9.996  -1.348  1.00  0.00    -0.020 C 
HETATM   21  C   UNL     1     -22.785 -10.942  -2.295  1.00  0.00     0.020 C 
HETATM   22  C   UNL     1     -20.647 -10.635  -0.999  1.00  0.00     0.020 C 
ENDBRANCH   1  14
TORSDOF 6
BEGIN_RES ARG D 557
REMARK  4 active torsions:
REMARK  status: ('A' for Active; 'I' for Inactive)
REMARK    1  A    between atoms: CA   and  CB  
REMARK    2  A    between atoms: CB   and  CG  
REMARK    3  A    between atoms: CG   and  CD  
REMARK    4  A    between atoms: CD   and  NE  
REMARK       I    between atoms: NE   and  CZ  
REMARK       I    between atoms: CZ   and  NH1 
REMARK       I    between atoms: CZ   and  NH2 
ROOT
ATOM      1  CA  ARG D 557     -26.217   2.705 -17.014  1.00 35.49     0.159 C 
ENDROOT
BRANCH   1   2
ATOM      2  CB  ARG D 557     -26.789   1.319 -17.183  1.00 35.49     0.034 C 
BRANCH   2   3
ATOM      3  CG  ARG D 557     -28.233   1.226 -17.428  1.00 35.49     0.027 C 
BRANCH   3   4
ATOM      4  CD  ARG D 557     -28.905   0.294 -16.493  1.00 35.49     0.116 C 
BRANCH   4   5
ATOM      5  NE  ARG D 557     -29.293  -0.933 -17.136  1.00 35.49    -0.212 N 
ATOM      6  CZ  ARG D 557     -28.667  -2.084 -17.035  1.00 35.49     0.666 C 
ATOM      7  NH1 ARG D 557     -27.568  -2.234 -16.319  1.00 35.49    -0.235 N 
ATOM      8  NH2 ARG D 557     -29.173  -3.101 -17.671  1.00 35.49    -0.235 N 
ATOM      9  HH  ARG D 557     -27.219  -1.579 -15.890  1.00 35.49     0.174 HD
ATOM     10  HH  ARG D 557     -27.204  -3.009 -16.288  1.00 35.49     0.174 HD
ATOM     11  HH  ARG D 557     -29.888  -2.977 -18.120  1.00 35.49     0.174 HD
ATOM     12  HH  ARG D 557     -28.799  -3.861 -17.627  1.00 35.49     0.174 HD
ATOM     13  HE  ARG D 557     -29.950  -0.911 -17.676  1.00 35.49     0.178 HD
ENDBRANCH   4   5
ENDBRANCH   3   4
ENDBRANCH   2   3
ENDBRANCH   1   2
END_RES ARG D 557
BEGIN_RES GLU D 570
REMARK  3 active torsions:
REMARK  status: ('A' for Active; 'I' for Inactive)
REMARK    5  A    between atoms: CA   and  CB  
REMARK    6  A    between atoms: CB   and  CG  
REMARK    7  A    between atoms: CG   and  CD  
ROOT
ATOM     14  CA  GLU D 570     -18.033  -6.348 -13.375  1.00 32.92     0.160 C 
ENDROOT
BRANCH  14  15
ATOM     15  CB  GLU D 570     -19.500  -6.345 -13.794  1.00 32.92     0.043 C 
BRANCH  15  16
ATOM     16  CG  GLU D 570     -20.093  -7.639 -14.221  1.00 32.92     0.100 C 
BRANCH  16  17
ATOM     17  CD  GLU D 570     -21.127  -7.482 -15.311  1.00 32.92     0.185 C 
ATOM     18  OE1 GLU D 570     -21.111  -8.269 -16.278  1.00 32.92    -0.647 OA
ATOM     19  OE2 GLU D 570     -21.951  -6.553 -15.206  1.00 32.92    -0.647 OA
ENDBRANCH  16  17
ENDBRANCH  15  16
ENDBRANCH  14  15
END_RES GLU D 570
ENDMDL
