MODEL 1
REMARK VINA RESULT:      -6.2      0.000      0.000
REMARK  13 active torsions:
REMARK  status: ('A' for Active; 'I' for Inactive)
REMARK    1  A    between atoms: C_2  and  C_3 
REMARK    2  A    between atoms: C_3  and  C_4 
REMARK    3  A    between atoms: C_4  and  O_5 
REMARK    4  A    between atoms: O_5  and  C_6 
REMARK    5  A    between atoms: C_6  and  C_8 
REMARK    6  A    between atoms: C_8  and  C_9 
REMARK    7  A    between atoms: C_9  and  C_10 
REMARK    8  A    between atoms: C_10  and  C_11 
REMARK    9  A    between atoms: C_11  and  C_12 
REMARK   10  A    between atoms: C_12  and  O_14 
REMARK   11  A    between atoms: O_14  and  C_15 
REMARK   12  A    between atoms: C_15  and  C_16 
REMARK   13  A    between atoms: C_16  and  C_17 
ROOT
HETATM    1  C   UNL     1     -33.752  -2.577 -10.736  1.00  0.00     0.010 C 
ENDROOT
BRANCH   1   2
HETATM    2  C   UNL     1     -33.046  -3.482 -11.755  1.00  0.00     0.111 C 
BRANCH   2   3
HETATM    3  C   UNL     1     -34.038  -4.038 -12.765  1.00  0.00     0.258 C 
HETATM    4  O   UNL     1     -34.198  -3.620 -13.898  1.00  0.00    -0.265 OA
BRANCH   3   5
HETATM    5  O   UNL     1     -34.808  -4.995 -12.173  1.00  0.00    -0.321 OA
BRANCH   5   6
HETATM    6  C   UNL     1     -34.073  -5.870 -11.303  1.00  0.00     0.178 C 
BRANCH   6   7
HETATM    7  C   UNL     1     -34.702  -5.971  -9.919  1.00  0.00     0.026 C 
BRANCH   7   8
HETATM    8  C   UNL     1     -34.976  -7.429  -9.535  1.00  0.00    -0.002 C 
HETATM    9  C   UNL     1     -34.098  -8.390 -10.321  1.00  0.00     0.005 C 
ENDBRANCH   7   8
ENDBRANCH   6   7
ENDBRANCH   5   6
ENDBRANCH   3   5
ENDBRANCH   2   3
ENDBRANCH   1   2
BRANCH   1  10
HETATM   10  C   UNL     1     -34.644  -1.525 -11.397  1.00  0.00     0.010 C 
BRANCH  10  11
HETATM   11  C   UNL     1     -35.993  -1.362 -10.683  1.00  0.00     0.111 C 
BRANCH  11  12
HETATM   12  C   UNL     1     -36.945  -0.513 -11.500  1.00  0.00     0.258 C 
HETATM   13  O   UNL     1     -37.624   0.413 -11.057  1.00  0.00    -0.265 OA
BRANCH  12  14
HETATM   14  O   UNL     1     -37.042  -0.995 -12.771  1.00  0.00    -0.321 OA
BRANCH  14  15
HETATM   15  C   UNL     1     -37.712  -0.103 -13.675  1.00  0.00     0.178 C 
BRANCH  15  16
HETATM   16  C   UNL     1     -36.926   0.111 -14.961  1.00  0.00     0.026 C 
BRANCH  16  17
HETATM   17  C   UNL     1     -35.419  -0.027 -14.724  1.00  0.00    -0.002 C 
HETATM   18  C   UNL     1     -34.818   1.256 -14.172  1.00  0.00     0.005 C 
ENDBRANCH  16  17
ENDBRANCH  15  16
ENDBRANCH  14  15
ENDBRANCH  12  14
ENDBRANCH  11  12
ENDBRANCH  10  11
ENDBRANCH   1  10
TORSDOF 13
BEGIN_RES ARG D 557
REMARK  4 active torsions:
REMARK  status: ('A' for Active; 'I' for Inactive)
REMARK    1  A    between atoms: CA   and  CB  
REMARK    2  A    between atoms: CB   and  CG  
REMARK    3  A    between atoms: CG   and  CD  
REMARK    4  A    between atoms: CD   and  NE  
REMARK       I    between atoms: NE   and  CZ  
REMARK       I    between atoms: CZ   and  NH1 
REMARK       I    between atoms: CZ   and  NH2 
ROOT
ATOM      1  CA  ARG D 557     -26.217   2.705 -17.014  1.00 35.49     0.159 C 
ENDROOT
BRANCH   1   2
ATOM      2  CB  ARG D 557     -26.789   1.319 -17.183  1.00 35.49     0.034 C 
BRANCH   2   3
ATOM      3  CG  ARG D 557     -25.860   0.195 -17.013  1.00 35.49     0.027 C 
BRANCH   3   4
ATOM      4  CD  ARG D 557     -26.282  -0.728 -15.935  1.00 35.49     0.116 C 
BRANCH   4   5
ATOM      5  NE  ARG D 557     -25.251  -0.920 -14.950  1.00 35.49    -0.212 N 
ATOM      6  CZ  ARG D 557     -24.975  -2.050 -14.337  1.00 35.49     0.666 C 
ATOM      7  NH1 ARG D 557     -25.650  -3.161 -14.561  1.00 35.49    -0.235 N 
ATOM      8  NH2 ARG D 557     -23.989  -2.046 -13.487  1.00 35.49    -0.235 N 
ATOM      9  HH  ARG D 557     -26.301  -3.187 -15.118  1.00 35.49     0.174 HD
ATOM     10  HH  ARG D 557     -25.423  -3.869 -14.134  1.00 35.49     0.174 HD
ATOM     11  HH  ARG D 557     -23.566  -1.315 -13.368  1.00 35.49     0.174 HD
ATOM     12  HH  ARG D 557     -23.779  -2.757 -13.075  1.00 35.49     0.174 HD
ATOM     13  HE  ARG D 557     -24.813  -0.238 -14.692  1.00 35.49     0.178 HD
ENDBRANCH   4   5
ENDBRANCH   3   4
ENDBRANCH   2   3
ENDBRANCH   1   2
END_RES ARG D 557
BEGIN_RES GLU D 570
REMARK  3 active torsions:
REMARK  status: ('A' for Active; 'I' for Inactive)
REMARK    5  A    between atoms: CA   and  CB  
REMARK    6  A    between atoms: CB   and  CG  
REMARK    7  A    between atoms: CG   and  CD  
ROOT
ATOM     14  CA  GLU D 570     -18.033  -6.348 -13.375  1.00 32.92     0.160 C 
ENDROOT
BRANCH  14  15
ATOM     15  CB  GLU D 570     -19.500  -6.345 -13.794  1.00 32.92     0.043 C 
BRANCH  15  16
ATOM     16  CG  GLU D 570     -20.448  -5.560 -12.962  1.00 32.92     0.100 C 
BRANCH  16  17
ATOM     17  CD  GLU D 570     -21.646  -5.066 -13.739  1.00 32.92     0.185 C 
ATOM     18  OE1 GLU D 570     -22.691  -4.781 -13.124  1.00 32.92    -0.647 OA
ATOM     19  OE2 GLU D 570     -21.543  -4.980 -14.979  1.00 32.92    -0.647 OA
ENDBRANCH  16  17
ENDBRANCH  15  16
ENDBRANCH  14  15
END_RES GLU D 570
ENDMDL
MODEL 2
REMARK VINA RESULT:      -6.2      0.558      5.356
REMARK  13 active torsions:
REMARK  status: ('A' for Active; 'I' for Inactive)
REMARK    1  A    between atoms: C_2  and  C_3 
REMARK    2  A    between atoms: C_3  and  C_4 
REMARK    3  A    between atoms: C_4  and  O_5 
REMARK    4  A    between atoms: O_5  and  C_6 
REMARK    5  A    between atoms: C_6  and  C_8 
REMARK    6  A    between atoms: C_8  and  C_9 
REMARK    7  A    between atoms: C_9  and  C_10 
REMARK    8  A    between atoms: C_10  and  C_11 
REMARK    9  A    between atoms: C_11  and  C_12 
REMARK   10  A    between atoms: C_12  and  O_14 
REMARK   11  A    between atoms: O_14  and  C_15 
REMARK   12  A    between atoms: C_15  and  C_16 
REMARK   13  A    between atoms: C_16  and  C_17 
ROOT
HETATM    1  C   UNL     1     -34.696  -1.375 -11.125  1.00  0.00     0.010 C 
ENDROOT
BRANCH   1   2
HETATM    2  C   UNL     1     -36.093  -1.450 -10.494  1.00  0.00     0.111 C 
BRANCH   2   3
HETATM    3  C   UNL     1     -37.126  -0.770 -11.380  1.00  0.00     0.258 C 
HETATM    4  O   UNL     1     -38.075  -0.119 -10.981  1.00  0.00    -0.265 OA
BRANCH   3   5
HETATM    5  O   UNL     1     -36.903  -1.104 -12.683  1.00  0.00    -0.321 OA
BRANCH   5   6
HETATM    6  C   UNL     1     -37.071  -0.007 -13.596  1.00  0.00     0.178 C 
BRANCH   6   7
HETATM    7  C   UNL     1     -36.448  -0.287 -14.957  1.00  0.00     0.026 C 
BRANCH   7   8
HETATM    8  C   UNL     1     -35.069   0.368 -15.086  1.00  0.00    -0.002 C 
HETATM    9  C   UNL     1     -34.699   1.147 -13.833  1.00  0.00     0.005 C 
ENDBRANCH   7   8
ENDBRANCH   6   7
ENDBRANCH   5   6
ENDBRANCH   3   5
ENDBRANCH   2   3
ENDBRANCH   1   2
BRANCH   1  10
HETATM   10  C   UNL     1     -33.739  -2.434 -10.575  1.00  0.00     0.010 C 
BRANCH  10  11
HETATM   11  C   UNL     1     -33.150  -3.327 -11.675  1.00  0.00     0.111 C 
BRANCH  11  12
HETATM   12  C   UNL     1     -34.220  -3.774 -12.649  1.00  0.00     0.258 C 
HETATM   13  O   UNL     1     -34.308  -3.405 -13.819  1.00  0.00    -0.265 OA
BRANCH  12  14
HETATM   14  O   UNL     1     -35.147  -4.547 -12.017  1.00  0.00    -0.321 OA
BRANCH  14  15
HETATM   15  C   UNL     1     -34.727  -5.907 -11.823  1.00  0.00     0.178 C 
BRANCH  15  16
HETATM   16  C   UNL     1     -34.314  -6.182 -10.384  1.00  0.00     0.026 C 
BRANCH  16  17
HETATM   17  C   UNL     1     -34.950  -7.471  -9.856  1.00  0.00    -0.002 C 
HETATM   18  C   UNL     1     -33.947  -8.614  -9.810  1.00  0.00     0.005 C 
ENDBRANCH  16  17
ENDBRANCH  15  16
ENDBRANCH  14  15
ENDBRANCH  12  14
ENDBRANCH  11  12
ENDBRANCH  10  11
ENDBRANCH   1  10
TORSDOF 13
BEGIN_RES ARG D 557
REMARK  4 active torsions:
REMARK  status: ('A' for Active; 'I' for Inactive)
REMARK    1  A    between atoms: CA   and  CB  
REMARK    2  A    between atoms: CB   and  CG  
REMARK    3  A    between atoms: CG   and  CD  
REMARK    4  A    between atoms: CD   and  NE  
REMARK       I    between atoms: NE   and  CZ  
REMARK       I    between atoms: CZ   and  NH1 
REMARK       I    between atoms: CZ   and  NH2 
ROOT
ATOM      1  CA  ARG D 557     -26.217   2.705 -17.014  1.00 35.49     0.159 C 
ENDROOT
BRANCH   1   2
ATOM      2  CB  ARG D 557     -26.789   1.319 -17.183  1.00 35.49     0.034 C 
BRANCH   2   3
ATOM      3  CG  ARG D 557     -25.878   0.194 -16.939  1.00 35.49     0.027 C 
BRANCH   3   4
ATOM      4  CD  ARG D 557     -26.471  -0.830 -16.049  1.00 35.49     0.116 C 
BRANCH   4   5
ATOM      5  NE  ARG D 557     -25.609  -1.152 -14.942  1.00 35.49    -0.212 N 
ATOM      6  CZ  ARG D 557     -25.450  -2.345 -14.414  1.00 35.49     0.666 C 
ATOM      7  NH1 ARG D 557     -26.101  -3.407 -14.853  1.00 35.49    -0.235 N 
ATOM      8  NH2 ARG D 557     -24.609  -2.457 -13.427  1.00 35.49    -0.235 N 
ATOM      9  HH  ARG D 557     -26.657  -3.356 -15.502  1.00 35.49     0.174 HD
ATOM     10  HH  ARG D 557     -25.955  -4.160 -14.471  1.00 35.49     0.174 HD
ATOM     11  HH  ARG D 557     -24.198  -1.756 -13.170  1.00 35.49     0.174 HD
ATOM     12  HH  ARG D 557     -24.477  -3.212 -13.064  1.00 35.49     0.174 HD
ATOM     13  HE  ARG D 557     -25.206  -0.513 -14.551  1.00 35.49     0.178 HD
ENDBRANCH   4   5
ENDBRANCH   3   4
ENDBRANCH   2   3
ENDBRANCH   1   2
END_RES ARG D 557
BEGIN_RES GLU D 570
REMARK  3 active torsions:
REMARK  status: ('A' for Active; 'I' for Inactive)
REMARK    5  A    between atoms: CA   and  CB  
REMARK    6  A    between atoms: CB   and  CG  
REMARK    7  A    between atoms: CG   and  CD  
ROOT
ATOM     14  CA  GLU D 570     -18.033  -6.348 -13.375  1.00 32.92     0.160 C 
ENDROOT
BRANCH  14  15
ATOM     15  CB  GLU D 570     -19.500  -6.345 -13.794  1.00 32.92     0.043 C 
BRANCH  15  16
ATOM     16  CG  GLU D 570     -20.446  -5.551 -12.968  1.00 32.92     0.100 C 
BRANCH  16  17
ATOM     17  CD  GLU D 570     -21.754  -5.275 -13.672  1.00 32.92     0.185 C 
ATOM     18  OE1 GLU D 570     -22.241  -6.153 -14.410  1.00 32.92    -0.647 OA
ATOM     19  OE2 GLU D 570     -22.290  -4.163 -13.497  1.00 32.92    -0.647 OA
ENDBRANCH  16  17
ENDBRANCH  15  16
ENDBRANCH  14  15
END_RES GLU D 570
ENDMDL
MODEL 3
REMARK VINA RESULT:      -6.1      7.634     11.093
REMARK  13 active torsions:
REMARK  status: ('A' for Active; 'I' for Inactive)
REMARK    1  A    between atoms: C_2  and  C_3 
REMARK    2  A    between atoms: C_3  and  C_4 
REMARK    3  A    between atoms: C_4  and  O_5 
REMARK    4  A    between atoms: O_5  and  C_6 
REMARK    5  A    between atoms: C_6  and  C_8 
REMARK    6  A    between atoms: C_8  and  C_9 
REMARK    7  A    between atoms: C_9  and  C_10 
REMARK    8  A    between atoms: C_10  and  C_11 
REMARK    9  A    between atoms: C_11  and  C_12 
REMARK   10  A    between atoms: C_12  and  O_14 
REMARK   11  A    between atoms: O_14  and  C_15 
REMARK   12  A    between atoms: C_15  and  C_16 
REMARK   13  A    between atoms: C_16  and  C_17 
ROOT
HETATM    1  C   UNL     1     -21.764  -3.749  -7.770  1.00  0.00     0.010 C 
ENDROOT
BRANCH   1   2
HETATM    2  C   UNL     1     -22.680  -4.673  -6.957  1.00  0.00     0.111 C 
BRANCH   2   3
HETATM    3  C   UNL     1     -21.890  -5.819  -6.343  1.00  0.00     0.258 C 
HETATM    4  O   UNL     1     -21.059  -6.492  -6.925  1.00  0.00    -0.265 OA
BRANCH   3   5
HETATM    5  O   UNL     1     -22.341  -6.061  -5.079  1.00  0.00    -0.321 OA
BRANCH   5   6
HETATM    6  C   UNL     1     -21.310  -6.007  -4.079  1.00  0.00     0.178 C 
BRANCH   6   7
HETATM    7  C   UNL     1     -21.565  -6.978  -2.934  1.00  0.00     0.026 C 
BRANCH   7   8
HETATM    8  C   UNL     1     -22.190  -6.270  -1.728  1.00  0.00    -0.002 C 
HETATM    9  C   UNL     1     -22.379  -7.220  -0.556  1.00  0.00     0.005 C 
ENDBRANCH   7   8
ENDBRANCH   6   7
ENDBRANCH   5   6
ENDBRANCH   3   5
ENDBRANCH   2   3
ENDBRANCH   1   2
BRANCH   1  10
HETATM   10  C   UNL     1     -22.105  -3.739  -9.261  1.00  0.00     0.010 C 
BRANCH  10  11
HETATM   11  C   UNL     1     -23.463  -4.388  -9.561  1.00  0.00     0.111 C 
BRANCH  11  12
HETATM   12  C   UNL     1     -24.397  -3.411 -10.244  1.00  0.00     0.258 C 
HETATM   13  O   UNL     1     -25.563  -3.199  -9.911  1.00  0.00    -0.265 OA
BRANCH  12  14
HETATM   14  O   UNL     1     -23.810  -2.887 -11.355  1.00  0.00    -0.321 OA
BRANCH  14  15
HETATM   15  C   UNL     1     -24.112  -3.608 -12.560  1.00  0.00     0.178 C 
BRANCH  15  16
HETATM   16  C   UNL     1     -25.039  -2.826 -13.481  1.00  0.00     0.026 C 
BRANCH  16  17
HETATM   17  C   UNL     1     -24.250  -1.932 -14.441  1.00  0.00    -0.002 C 
HETATM   18  C   UNL     1     -22.913  -2.552 -14.815  1.00  0.00     0.005 C 
ENDBRANCH  16  17
ENDBRANCH  15  16
ENDBRANCH  14  15
ENDBRANCH  12  14
ENDBRANCH  11  12
ENDBRANCH  10  11
ENDBRANCH   1  10
TORSDOF 13
BEGIN_RES ARG D 557
REMARK  4 active torsions:
REMARK  status: ('A' for Active; 'I' for Inactive)
REMARK    1  A    between atoms: CA   and  CB  
REMARK    2  A    between atoms: CB   and  CG  
REMARK    3  A    between atoms: CG   and  CD  
REMARK    4  A    between atoms: CD   and  NE  
REMARK       I    between atoms: NE   and  CZ  
REMARK       I    between atoms: CZ   and  NH1 
REMARK       I    between atoms: CZ   and  NH2 
ROOT
ATOM      1  CA  ARG D 557     -26.217   2.705 -17.014  1.00 35.49     0.159 C 
ENDROOT
BRANCH   1   2
ATOM      2  CB  ARG D 557     -26.789   1.319 -17.183  1.00 35.49     0.034 C 
BRANCH   2   3
ATOM      3  CG  ARG D 557     -28.230   1.227 -17.449  1.00 35.49     0.027 C 
BRANCH   3   4
ATOM      4  CD  ARG D 557     -28.917   0.299 -16.521  1.00 35.49     0.116 C 
BRANCH   4   5
ATOM      5  NE  ARG D 557     -29.290  -0.933 -17.164  1.00 35.49    -0.212 N 
ATOM      6  CZ  ARG D 557     -28.667  -2.083 -17.042  1.00 35.49     0.666 C 
ATOM      7  NH1 ARG D 557     -27.585  -2.228 -16.299  1.00 35.49    -0.235 N 
ATOM      8  NH2 ARG D 557     -29.159  -3.104 -17.682  1.00 35.49    -0.235 N 
ATOM      9  HH  ARG D 557     -27.245  -1.570 -15.868  1.00 35.49     0.174 HD
ATOM     10  HH  ARG D 557     -27.222  -3.003 -16.255  1.00 35.49     0.174 HD
ATOM     11  HH  ARG D 557     -29.863  -2.983 -18.147  1.00 35.49     0.174 HD
ATOM     12  HH  ARG D 557     -28.786  -3.863 -17.624  1.00 35.49     0.174 HD
ATOM     13  HE  ARG D 557     -29.935  -0.914 -17.719  1.00 35.49     0.178 HD
ENDBRANCH   4   5
ENDBRANCH   3   4
ENDBRANCH   2   3
ENDBRANCH   1   2
END_RES ARG D 557
BEGIN_RES GLU D 570
REMARK  3 active torsions:
REMARK  status: ('A' for Active; 'I' for Inactive)
REMARK    5  A    between atoms: CA   and  CB  
REMARK    6  A    between atoms: CB   and  CG  
REMARK    7  A    between atoms: CG   and  CD  
ROOT
ATOM     14  CA  GLU D 570     -18.033  -6.348 -13.375  1.00 32.92     0.160 C 
ENDROOT
BRANCH  14  15
ATOM     15  CB  GLU D 570     -19.500  -6.345 -13.794  1.00 32.92     0.043 C 
BRANCH  15  16
ATOM     16  CG  GLU D 570     -20.081  -7.630 -14.263  1.00 32.92     0.100 C 
BRANCH  16  17
ATOM     17  CD  GLU D 570     -20.719  -7.525 -15.629  1.00 32.92     0.185 C 
ATOM     18  OE1 GLU D 570     -21.379  -8.487 -16.064  1.00 32.92    -0.647 OA
ATOM     19  OE2 GLU D 570     -20.542  -6.474 -16.277  1.00 32.92    -0.647 OA
ENDBRANCH  16  17
ENDBRANCH  15  16
ENDBRANCH  14  15
END_RES GLU D 570
ENDMDL
MODEL 4
REMARK VINA RESULT:      -6.1      7.691     12.092
REMARK  13 active torsions:
REMARK  status: ('A' for Active; 'I' for Inactive)
REMARK    1  A    between atoms: C_2  and  C_3 
REMARK    2  A    between atoms: C_3  and  C_4 
REMARK    3  A    between atoms: C_4  and  O_5 
REMARK    4  A    between atoms: O_5  and  C_6 
REMARK    5  A    between atoms: C_6  and  C_8 
REMARK    6  A    between atoms: C_8  and  C_9 
REMARK    7  A    between atoms: C_9  and  C_10 
REMARK    8  A    between atoms: C_10  and  C_11 
REMARK    9  A    between atoms: C_11  and  C_12 
REMARK   10  A    between atoms: C_12  and  O_14 
REMARK   11  A    between atoms: O_14  and  C_15 
REMARK   12  A    between atoms: C_15  and  C_16 
REMARK   13  A    between atoms: C_16  and  C_17 
ROOT
HETATM    1  C   UNL     1     -22.455  -4.500  -9.345  1.00  0.00     0.010 C 
ENDROOT
BRANCH   1   2
HETATM    2  C   UNL     1     -23.805  -4.791 -10.012  1.00  0.00     0.111 C 
BRANCH   2   3
HETATM    3  C   UNL     1     -24.472  -3.504 -10.472  1.00  0.00     0.258 C 
HETATM    4  O   UNL     1     -25.586  -3.133 -10.147  1.00  0.00    -0.265 OA
BRANCH   3   5
HETATM    5  O   UNL     1     -23.688  -2.888 -11.403  1.00  0.00    -0.321 OA
BRANCH   5   6
HETATM    6  C   UNL     1     -24.042  -3.209 -12.758  1.00  0.00     0.178 C 
BRANCH   6   7
HETATM    7  C   UNL     1     -22.936  -3.965 -13.481  1.00  0.00     0.026 C 
BRANCH   7   8
HETATM    8  C   UNL     1     -23.211  -5.472 -13.503  1.00  0.00    -0.002 C 
HETATM    9  C   UNL     1     -24.104  -5.862 -14.670  1.00  0.00     0.005 C 
ENDBRANCH   7   8
ENDBRANCH   6   7
ENDBRANCH   5   6
ENDBRANCH   3   5
ENDBRANCH   2   3
ENDBRANCH   1   2
BRANCH   1  10
HETATM   10  C   UNL     1     -22.589  -4.152  -7.861  1.00  0.00     0.010 C 
BRANCH  10  11
HETATM   11  C   UNL     1     -21.281  -3.624  -7.256  1.00  0.00     0.111 C 
BRANCH  11  12
HETATM   12  C   UNL     1     -20.691  -4.618  -6.277  1.00  0.00     0.258 C 
HETATM   13  O   UNL     1     -19.488  -4.786  -6.080  1.00  0.00    -0.265 OA
BRANCH  12  14
HETATM   14  O   UNL     1     -21.673  -5.389  -5.732  1.00  0.00    -0.321 OA
BRANCH  14  15
HETATM   15  C   UNL     1     -21.300  -6.766  -5.571  1.00  0.00     0.178 C 
BRANCH  15  16
HETATM   16  C   UNL     1     -21.559  -7.272  -4.159  1.00  0.00     0.026 C 
BRANCH  16  17
HETATM   17  C   UNL     1     -21.305  -6.178  -3.118  1.00  0.00    -0.002 C 
HETATM   18  C   UNL     1     -22.257  -6.295  -1.937  1.00  0.00     0.005 C 
ENDBRANCH  16  17
ENDBRANCH  15  16
ENDBRANCH  14  15
ENDBRANCH  12  14
ENDBRANCH  11  12
ENDBRANCH  10  11
ENDBRANCH   1  10
TORSDOF 13
BEGIN_RES ARG D 557
REMARK  4 active torsions:
REMARK  status: ('A' for Active; 'I' for Inactive)
REMARK    1  A    between atoms: CA   and  CB  
REMARK    2  A    between atoms: CB   and  CG  
REMARK    3  A    between atoms: CG   and  CD  
REMARK    4  A    between atoms: CD   and  NE  
REMARK       I    between atoms: NE   and  CZ  
REMARK       I    between atoms: CZ   and  NH1 
REMARK       I    between atoms: CZ   and  NH2 
ROOT
ATOM      1  CA  ARG D 557     -26.217   2.705 -17.014  1.00 35.49     0.159 C 
ENDROOT
BRANCH   1   2
ATOM      2  CB  ARG D 557     -26.789   1.319 -17.183  1.00 35.49     0.034 C 
BRANCH   2   3
ATOM      3  CG  ARG D 557     -28.231   1.167 -16.953  1.00 35.49     0.027 C 
BRANCH   3   4
ATOM      4  CD  ARG D 557     -28.622  -0.245 -16.737  1.00 35.49     0.116 C 
BRANCH   4   5
ATOM      5  NE  ARG D 557     -27.600  -0.992 -16.052  1.00 35.49    -0.212 N 
ATOM      6  CZ  ARG D 557     -27.433  -2.294 -16.108  1.00 35.49     0.666 C 
ATOM      7  NH1 ARG D 557     -28.224  -3.081 -16.813  1.00 35.49    -0.235 N 
ATOM      8  NH2 ARG D 557     -26.439  -2.801 -15.438  1.00 35.49    -0.235 N 
ATOM      9  HH  ARG D 557     -28.883  -2.769 -17.263  1.00 35.49     0.174 HD
ATOM     10  HH  ARG D 557     -28.065  -3.923 -16.814  1.00 35.49     0.174 HD
ATOM     11  HH  ARG D 557     -25.940  -2.268 -14.997  1.00 35.49     0.174 HD
ATOM     12  HH  ARG D 557     -26.297  -3.637 -15.453  1.00 35.49     0.174 HD
ATOM     13  HE  ARG D 557     -27.090  -0.572 -15.517  1.00 35.49     0.178 HD
ENDBRANCH   4   5
ENDBRANCH   3   4
ENDBRANCH   2   3
ENDBRANCH   1   2
END_RES ARG D 557
BEGIN_RES GLU D 570
REMARK  3 active torsions:
REMARK  status: ('A' for Active; 'I' for Inactive)
REMARK    5  A    between atoms: CA   and  CB  
REMARK    6  A    between atoms: CB   and  CG  
REMARK    7  A    between atoms: CG   and  CD  
ROOT
ATOM     14  CA  GLU D 570     -18.033  -6.348 -13.375  1.00 32.92     0.160 C 
ENDROOT
BRANCH  14  15
ATOM     15  CB  GLU D 570     -19.500  -6.345 -13.794  1.00 32.92     0.043 C 
BRANCH  15  16
ATOM     16  CG  GLU D 570     -19.839  -5.715 -15.096  1.00 32.92     0.100 C 
BRANCH  16  17
ATOM     17  CD  GLU D 570     -20.650  -6.619 -15.995  1.00 32.92     0.185 C 
ATOM     18  OE1 GLU D 570     -21.060  -6.179 -17.086  1.00 32.92    -0.647 OA
ATOM     19  OE2 GLU D 570     -20.893  -7.775 -15.596  1.00 32.92    -0.647 OA
ENDBRANCH  16  17
ENDBRANCH  15  16
ENDBRANCH  14  15
END_RES GLU D 570
ENDMDL
MODEL 5
REMARK VINA RESULT:      -5.9      2.476      3.890
REMARK  13 active torsions:
REMARK  status: ('A' for Active; 'I' for Inactive)
REMARK    1  A    between atoms: C_2  and  C_3 
REMARK    2  A    between atoms: C_3  and  C_4 
REMARK    3  A    between atoms: C_4  and  O_5 
REMARK    4  A    between atoms: O_5  and  C_6 
REMARK    5  A    between atoms: C_6  and  C_8 
REMARK    6  A    between atoms: C_8  and  C_9 
REMARK    7  A    between atoms: C_9  and  C_10 
REMARK    8  A    between atoms: C_10  and  C_11 
REMARK    9  A    between atoms: C_11  and  C_12 
REMARK   10  A    between atoms: C_12  and  O_14 
REMARK   11  A    between atoms: O_14  and  C_15 
REMARK   12  A    between atoms: C_15  and  C_16 
REMARK   13  A    between atoms: C_16  and  C_17 
ROOT
HETATM    1  C   UNL     1     -35.567   0.035 -12.761  1.00  0.00     0.010 C 
ENDROOT
BRANCH   1   2
HETATM    2  C   UNL     1     -35.065  -1.357 -13.167  1.00  0.00     0.111 C 
BRANCH   2   3
HETATM    3  C   UNL     1     -34.247  -1.986 -12.049  1.00  0.00     0.258 C 
HETATM    4  O   UNL     1     -33.827  -1.399 -11.068  1.00  0.00    -0.265 OA
BRANCH   3   5
HETATM    5  O   UNL     1     -33.946  -3.276 -12.372  1.00  0.00    -0.321 OA
BRANCH   5   6
HETATM    6  C   UNL     1     -33.202  -3.967 -11.355  1.00  0.00     0.178 C 
BRANCH   6   7
HETATM    7  C   UNL     1     -34.095  -4.822 -10.466  1.00  0.00     0.026 C 
BRANCH   7   8
HETATM    8  C   UNL     1     -33.990  -6.306 -10.831  1.00  0.00    -0.002 C 
HETATM    9  C   UNL     1     -34.822  -7.173  -9.899  1.00  0.00     0.005 C 
ENDBRANCH   7   8
ENDBRANCH   6   7
ENDBRANCH   5   6
ENDBRANCH   3   5
ENDBRANCH   2   3
ENDBRANCH   1   2
BRANCH   1  10
HETATM   10  C   UNL     1     -36.956   0.000 -12.121  1.00  0.00     0.010 C 
BRANCH  10  11
HETATM   11  C   UNL     1     -36.926   0.339 -10.625  1.00  0.00     0.111 C 
BRANCH  11  12
HETATM   12  C   UNL     1     -37.046  -0.911  -9.778  1.00  0.00     0.258 C 
HETATM   13  O   UNL     1     -37.043  -2.061 -10.213  1.00  0.00    -0.265 OA
BRANCH  12  14
HETATM   14  O   UNL     1     -37.284  -0.583  -8.477  1.00  0.00    -0.321 OA
BRANCH  14  15
HETATM   15  C   UNL     1     -36.748   0.695  -8.098  1.00  0.00     0.178 C 
BRANCH  15  16
HETATM   16  C   UNL     1     -37.025   1.025  -6.638  1.00  0.00     0.026 C 
BRANCH  16  17
HETATM   17  C   UNL     1     -37.972   0.001  -6.003  1.00  0.00    -0.002 C 
HETATM   18  C   UNL     1     -37.693  -0.174  -4.518  1.00  0.00     0.005 C 
ENDBRANCH  16  17
ENDBRANCH  15  16
ENDBRANCH  14  15
ENDBRANCH  12  14
ENDBRANCH  11  12
ENDBRANCH  10  11
ENDBRANCH   1  10
TORSDOF 13
BEGIN_RES ARG D 557
REMARK  4 active torsions:
REMARK  status: ('A' for Active; 'I' for Inactive)
REMARK    1  A    between atoms: CA   and  CB  
REMARK    2  A    between atoms: CB   and  CG  
REMARK    3  A    between atoms: CG   and  CD  
REMARK    4  A    between atoms: CD   and  NE  
REMARK       I    between atoms: NE   and  CZ  
REMARK       I    between atoms: CZ   and  NH1 
REMARK       I    between atoms: CZ   and  NH2 
ROOT
ATOM      1  CA  ARG D 557     -26.217   2.705 -17.014  1.00 35.49     0.159 C 
ENDROOT
BRANCH   1   2
ATOM      2  CB  ARG D 557     -26.789   1.319 -17.183  1.00 35.49     0.034 C 
BRANCH   2   3
ATOM      3  CG  ARG D 557     -25.839   0.201 -17.130  1.00 35.49     0.027 C 
BRANCH   3   4
ATOM      4  CD  ARG D 557     -24.758   0.425 -16.143  1.00 35.49     0.116 C 
BRANCH   4   5
ATOM      5  NE  ARG D 557     -24.876  -0.444 -15.003  1.00 35.49    -0.212 N 
ATOM      6  CZ  ARG D 557     -24.049  -1.415 -14.688  1.00 35.49     0.666 C 
ATOM      7  NH1 ARG D 557     -22.992  -1.712 -15.422  1.00 35.49    -0.235 N 
ATOM      8  NH2 ARG D 557     -24.299  -2.089 -13.603  1.00 35.49    -0.235 N 
ATOM      9  HH  ARG D 557     -22.807  -1.280 -16.138  1.00 35.49     0.174 HD
ATOM     10  HH  ARG D 557     -22.486  -2.355 -15.165  1.00 35.49     0.174 HD
ATOM     11  HH  ARG D 557     -24.984  -1.870 -13.145  1.00 35.49     0.174 HD
ATOM     12  HH  ARG D 557     -23.786  -2.721 -13.366  1.00 35.49     0.174 HD
ATOM     13  HE  ARG D 557     -25.569  -0.370 -14.514  1.00 35.49     0.178 HD
ENDBRANCH   4   5
ENDBRANCH   3   4
ENDBRANCH   2   3
ENDBRANCH   1   2
END_RES ARG D 557
BEGIN_RES GLU D 570
REMARK  3 active torsions:
REMARK  status: ('A' for Active; 'I' for Inactive)
REMARK    5  A    between atoms: CA   and  CB  
REMARK    6  A    between atoms: CB   and  CG  
REMARK    7  A    between atoms: CG   and  CD  
ROOT
ATOM     14  CA  GLU D 570     -18.033  -6.348 -13.375  1.00 32.92     0.160 C 
ENDROOT
BRANCH  14  15
ATOM     15  CB  GLU D 570     -19.500  -6.345 -13.794  1.00 32.92     0.043 C 
BRANCH  15  16
ATOM     16  CG  GLU D 570     -19.813  -5.936 -15.188  1.00 32.92     0.100 C 
BRANCH  16  17
ATOM     17  CD  GLU D 570     -21.288  -5.703 -15.416  1.00 32.92     0.185 C 
ATOM     18  OE1 GLU D 570     -21.687  -4.549 -15.667  1.00 32.92    -0.647 OA
ATOM     19  OE2 GLU D 570     -22.056  -6.681 -15.327  1.00 32.92    -0.647 OA
ENDBRANCH  16  17
ENDBRANCH  15  16
ENDBRANCH  14  15
END_RES GLU D 570
ENDMDL
MODEL 6
REMARK VINA RESULT:      -5.9      8.826     12.302
REMARK  13 active torsions:
REMARK  status: ('A' for Active; 'I' for Inactive)
REMARK    1  A    between atoms: C_2  and  C_3 
REMARK    2  A    between atoms: C_3  and  C_4 
REMARK    3  A    between atoms: C_4  and  O_5 
REMARK    4  A    between atoms: O_5  and  C_6 
REMARK    5  A    between atoms: C_6  and  C_8 
REMARK    6  A    between atoms: C_8  and  C_9 
REMARK    7  A    between atoms: C_9  and  C_10 
REMARK    8  A    between atoms: C_10  and  C_11 
REMARK    9  A    between atoms: C_11  and  C_12 
REMARK   10  A    between atoms: C_12  and  O_14 
REMARK   11  A    between atoms: O_14  and  C_15 
REMARK   12  A    between atoms: C_15  and  C_16 
REMARK   13  A    between atoms: C_16  and  C_17 
ROOT
HETATM    1  C   UNL     1     -20.028  -4.923  -5.786  1.00  0.00     0.010 C 
ENDROOT
BRANCH   1   2
HETATM    2  C   UNL     1     -20.523  -6.331  -5.432  1.00  0.00     0.111 C 
BRANCH   2   3
HETATM    3  C   UNL     1     -21.664  -6.270  -4.428  1.00  0.00     0.258 C 
HETATM    4  O   UNL     1     -22.843  -6.423  -4.691  1.00  0.00    -0.265 OA
BRANCH   3   5
HETATM    5  O   UNL     1     -21.182  -5.892  -3.209  1.00  0.00    -0.321 OA
BRANCH   5   6
HETATM    6  C   UNL     1     -22.071  -6.190  -2.120  1.00  0.00     0.178 C 
BRANCH   6   7
HETATM    7  C   UNL     1     -21.686  -7.473  -1.395  1.00  0.00     0.026 C 
BRANCH   7   8
HETATM    8  C   UNL     1     -22.327  -7.545  -0.006  1.00  0.00    -0.002 C 
HETATM    9  C   UNL     1     -23.076  -8.852   0.199  1.00  0.00     0.005 C 
ENDBRANCH   7   8
ENDBRANCH   6   7
ENDBRANCH   5   6
ENDBRANCH   3   5
ENDBRANCH   2   3
ENDBRANCH   1   2
BRANCH   1  10
HETATM   10  C   UNL     1     -20.243  -4.573  -7.260  1.00  0.00     0.010 C 
BRANCH  10  11
HETATM   11  C   UNL     1     -21.385  -3.569  -7.469  1.00  0.00     0.111 C 
BRANCH  11  12
HETATM   12  C   UNL     1     -22.702  -4.279  -7.706  1.00  0.00     0.258 C 
HETATM   13  O   UNL     1     -23.554  -4.491  -6.845  1.00  0.00    -0.265 OA
BRANCH  12  14
HETATM   14  O   UNL     1     -22.760  -4.761  -8.979  1.00  0.00    -0.321 OA
BRANCH  14  15
HETATM   15  C   UNL     1     -23.568  -3.965  -9.859  1.00  0.00     0.178 C 
BRANCH  15  16
HETATM   16  C   UNL     1     -22.759  -3.374 -11.005  1.00  0.00     0.026 C 
BRANCH  16  17
HETATM   17  C   UNL     1     -21.666  -4.339 -11.475  1.00  0.00    -0.002 C 
HETATM   18  C   UNL     1     -20.277  -3.822 -11.134  1.00  0.00     0.005 C 
ENDBRANCH  16  17
ENDBRANCH  15  16
ENDBRANCH  14  15
ENDBRANCH  12  14
ENDBRANCH  11  12
ENDBRANCH  10  11
ENDBRANCH   1  10
TORSDOF 13
BEGIN_RES ARG D 557
REMARK  4 active torsions:
REMARK  status: ('A' for Active; 'I' for Inactive)
REMARK    1  A    between atoms: CA   and  CB  
REMARK    2  A    between atoms: CB   and  CG  
REMARK    3  A    between atoms: CG   and  CD  
REMARK    4  A    between atoms: CD   and  NE  
REMARK       I    between atoms: NE   and  CZ  
REMARK       I    between atoms: CZ   and  NH1 
REMARK       I    between atoms: CZ   and  NH2 
ROOT
ATOM      1  CA  ARG D 557     -26.217   2.705 -17.014  1.00 35.49     0.159 C 
ENDROOT
BRANCH   1   2
ATOM      2  CB  ARG D 557     -26.789   1.319 -17.183  1.00 35.49     0.034 C 
BRANCH   2   3
ATOM      3  CG  ARG D 557     -25.935   0.197 -16.773  1.00 35.49     0.027 C 
BRANCH   3   4
ATOM      4  CD  ARG D 557     -26.700  -0.875 -16.095  1.00 35.49     0.116 C 
BRANCH   4   5
ATOM      5  NE  ARG D 557     -25.980  -1.432 -14.980  1.00 35.49    -0.212 N 
ATOM      6  CZ  ARG D 557     -25.946  -2.703 -14.646  1.00 35.49     0.666 C 
ATOM      7  NH1 ARG D 557     -26.606  -3.630 -15.315  1.00 35.49    -0.235 N 
ATOM      8  NH2 ARG D 557     -25.223  -3.033 -13.615  1.00 35.49    -0.235 N 
ATOM      9  HH  ARG D 557     -27.086  -3.435 -15.998  1.00 35.49     0.174 HD
ATOM     10  HH  ARG D 557     -26.544  -4.443 -15.052  1.00 35.49     0.174 HD
ATOM     11  HH  ARG D 557     -24.802  -2.414 -13.207  1.00 35.49     0.174 HD
ATOM     12  HH  ARG D 557     -25.174  -3.844 -13.371  1.00 35.49     0.174 HD
ATOM     13  HE  ARG D 557     -25.586  -0.896 -14.451  1.00 35.49     0.178 HD
ENDBRANCH   4   5
ENDBRANCH   3   4
ENDBRANCH   2   3
ENDBRANCH   1   2
END_RES ARG D 557
BEGIN_RES GLU D 570
REMARK  3 active torsions:
REMARK  status: ('A' for Active; 'I' for Inactive)
REMARK    5  A    between atoms: CA   and  CB  
REMARK    6  A    between atoms: CB   and  CG  
REMARK    7  A    between atoms: CG   and  CD  
ROOT
ATOM     14  CA  GLU D 570     -18.033  -6.348 -13.375  1.00 32.92     0.160 C 
ENDROOT
BRANCH  14  15
ATOM     15  CB  GLU D 570     -19.500  -6.345 -13.794  1.00 32.92     0.043 C 
BRANCH  15  16
ATOM     16  CG  GLU D 570     -20.109  -7.649 -14.164  1.00 32.92     0.100 C 
BRANCH  16  17
ATOM     17  CD  GLU D 570     -20.706  -7.648 -15.552  1.00 32.92     0.185 C 
ATOM     18  OE1 GLU D 570     -21.197  -6.594 -15.999  1.00 32.92    -0.647 OA
ATOM     19  OE2 GLU D 570     -20.697  -8.717 -16.193  1.00 32.92    -0.647 OA
ENDBRANCH  16  17
ENDBRANCH  15  16
ENDBRANCH  14  15
END_RES GLU D 570
ENDMDL
MODEL 7
REMARK VINA RESULT:      -5.9      1.803      2.203
REMARK  13 active torsions:
REMARK  status: ('A' for Active; 'I' for Inactive)
REMARK    1  A    between atoms: C_2  and  C_3 
REMARK    2  A    between atoms: C_3  and  C_4 
REMARK    3  A    between atoms: C_4  and  O_5 
REMARK    4  A    between atoms: O_5  and  C_6 
REMARK    5  A    between atoms: C_6  and  C_8 
REMARK    6  A    between atoms: C_8  and  C_9 
REMARK    7  A    between atoms: C_9  and  C_10 
REMARK    8  A    between atoms: C_10  and  C_11 
REMARK    9  A    between atoms: C_11  and  C_12 
REMARK   10  A    between atoms: C_12  and  O_14 
REMARK   11  A    between atoms: O_14  and  C_15 
REMARK   12  A    between atoms: C_15  and  C_16 
REMARK   13  A    between atoms: C_16  and  C_17 
ROOT
HETATM    1  C   UNL     1     -35.921  -2.665 -10.641  1.00  0.00     0.010 C 
ENDROOT
BRANCH   1   2
HETATM    2  C   UNL     1     -34.511  -2.778 -11.234  1.00  0.00     0.111 C 
BRANCH   2   3
HETATM    3  C   UNL     1     -34.508  -3.677 -12.461  1.00  0.00     0.258 C 
HETATM    4  O   UNL     1     -34.339  -3.303 -13.608  1.00  0.00    -0.265 OA
BRANCH   3   5
HETATM    5  O   UNL     1     -34.848  -4.947 -12.100  1.00  0.00    -0.321 OA
BRANCH   5   6
HETATM    6  C   UNL     1     -33.843  -5.612 -11.317  1.00  0.00     0.178 C 
BRANCH   6   7
HETATM    7  C   UNL     1     -34.421  -6.265 -10.069  1.00  0.00     0.026 C 
BRANCH   7   8
HETATM    8  C   UNL     1     -34.877  -7.701 -10.349  1.00  0.00    -0.002 C 
HETATM    9  C   UNL     1     -33.902  -8.720  -9.779  1.00  0.00     0.005 C 
ENDBRANCH   7   8
ENDBRANCH   6   7
ENDBRANCH   5   6
ENDBRANCH   3   5
ENDBRANCH   2   3
ENDBRANCH   1   2
BRANCH   1  10
HETATM   10  C   UNL     1     -36.213  -1.277 -10.069  1.00  0.00     0.010 C 
BRANCH  10  11
HETATM   11  C   UNL     1     -37.375  -0.574 -10.785  1.00  0.00     0.111 C 
BRANCH  11  12
HETATM   12  C   UNL     1     -37.038  -0.304 -12.237  1.00  0.00     0.258 C 
HETATM   13  O   UNL     1     -37.639  -0.777 -13.201  1.00  0.00    -0.265 OA
BRANCH  12  14
HETATM   14  O   UNL     1     -35.899   0.437 -12.332  1.00  0.00    -0.321 OA
BRANCH  14  15
HETATM   15  C   UNL     1     -35.060   0.064 -13.436  1.00  0.00     0.178 C 
BRANCH  15  16
HETATM   16  C   UNL     1     -34.950   1.171 -14.475  1.00  0.00     0.026 C 
BRANCH  16  17
HETATM   17  C   UNL     1     -35.902   0.932 -15.651  1.00  0.00    -0.002 C 
HETATM   18  C   UNL     1     -35.874  -0.518 -16.109  1.00  0.00     0.005 C 
ENDBRANCH  16  17
ENDBRANCH  15  16
ENDBRANCH  14  15
ENDBRANCH  12  14
ENDBRANCH  11  12
ENDBRANCH  10  11
ENDBRANCH   1  10
TORSDOF 13
BEGIN_RES ARG D 557
REMARK  4 active torsions:
REMARK  status: ('A' for Active; 'I' for Inactive)
REMARK    1  A    between atoms: CA   and  CB  
REMARK    2  A    between atoms: CB   and  CG  
REMARK    3  A    between atoms: CG   and  CD  
REMARK    4  A    between atoms: CD   and  NE  
REMARK       I    between atoms: NE   and  CZ  
REMARK       I    between atoms: CZ   and  NH1 
REMARK       I    between atoms: CZ   and  NH2 
ROOT
ATOM      1  CA  ARG D 557     -26.217   2.705 -17.014  1.00 35.49     0.159 C 
ENDROOT
BRANCH   1   2
ATOM      2  CB  ARG D 557     -26.789   1.319 -17.183  1.00 35.49     0.034 C 
BRANCH   2   3
ATOM      3  CG  ARG D 557     -28.182   1.123 -16.763  1.00 35.49     0.027 C 
BRANCH   3   4
ATOM      4  CD  ARG D 557     -28.716  -0.195 -17.175  1.00 35.49     0.116 C 
BRANCH   4   5
ATOM      5  NE  ARG D 557     -27.982  -1.285 -16.587  1.00 35.49    -0.212 N 
ATOM      6  CZ  ARG D 557     -28.228  -2.563 -16.770  1.00 35.49     0.666 C 
ATOM      7  NH1 ARG D 557     -29.220  -2.993 -17.528  1.00 35.49    -0.235 N 
ATOM      8  NH2 ARG D 557     -27.446  -3.416 -16.174  1.00 35.49    -0.235 N 
ATOM      9  HH  ARG D 557     -29.745  -2.450 -17.932  1.00 35.49     0.174 HD
ATOM     10  HH  ARG D 557     -29.330  -3.839 -17.613  1.00 35.49     0.174 HD
ATOM     11  HH  ARG D 557     -26.810  -3.109 -15.697  1.00 35.49     0.174 HD
ATOM     12  HH  ARG D 557     -27.571  -4.249 -16.271  1.00 35.49     0.174 HD
ATOM     13  HE  ARG D 557     -27.371  -1.099 -16.026  1.00 35.49     0.178 HD
ENDBRANCH   4   5
ENDBRANCH   3   4
ENDBRANCH   2   3
ENDBRANCH   1   2
END_RES ARG D 557
BEGIN_RES GLU D 570
REMARK  3 active torsions:
REMARK  status: ('A' for Active; 'I' for Inactive)
REMARK    5  A    between atoms: CA   and  CB  
REMARK    6  A    between atoms: CB   and  CG  
REMARK    7  A    between atoms: CG   and  CD  
ROOT
ATOM     14  CA  GLU D 570     -18.033  -6.348 -13.375  1.00 32.92     0.160 C 
ENDROOT
BRANCH  14  15
ATOM     15  CB  GLU D 570     -19.500  -6.345 -13.794  1.00 32.92     0.043 C 
BRANCH  15  16
ATOM     16  CG  GLU D 570     -20.445  -5.547 -12.971  1.00 32.92     0.100 C 
BRANCH  16  17
ATOM     17  CD  GLU D 570     -21.743  -5.249 -13.686  1.00 32.92     0.185 C 
ATOM     18  OE1 GLU D 570     -22.285  -4.140 -13.519  1.00 32.92    -0.647 OA
ATOM     19  OE2 GLU D 570     -22.230  -6.141 -14.408  1.00 32.92    -0.647 OA
ENDBRANCH  16  17
ENDBRANCH  15  16
ENDBRANCH  14  15
END_RES GLU D 570
ENDMDL
MODEL 8
REMARK VINA RESULT:      -5.8      9.156     13.838
REMARK  13 active torsions:
REMARK  status: ('A' for Active; 'I' for Inactive)
REMARK    1  A    between atoms: C_2  and  C_3 
REMARK    2  A    between atoms: C_3  and  C_4 
REMARK    3  A    between atoms: C_4  and  O_5 
REMARK    4  A    between atoms: O_5  and  C_6 
REMARK    5  A    between atoms: C_6  and  C_8 
REMARK    6  A    between atoms: C_8  and  C_9 
REMARK    7  A    between atoms: C_9  and  C_10 
REMARK    8  A    between atoms: C_10  and  C_11 
REMARK    9  A    between atoms: C_11  and  C_12 
REMARK   10  A    between atoms: C_12  and  O_14 
REMARK   11  A    between atoms: O_14  and  C_15 
REMARK   12  A    between atoms: C_15  and  C_16 
REMARK   13  A    between atoms: C_16  and  C_17 
ROOT
HETATM    1  C   UNL     1     -20.847  -6.462  -5.738  1.00  0.00     0.010 C 
ENDROOT
BRANCH   1   2
HETATM    2  C   UNL     1     -20.299  -5.031  -5.662  1.00  0.00     0.111 C 
BRANCH   2   3
HETATM    3  C   UNL     1     -19.934  -4.515  -7.045  1.00  0.00     0.258 C 
HETATM    4  O   UNL     1     -18.810  -4.492  -7.514  1.00  0.00    -0.265 OA
BRANCH   3   5
HETATM    5  O   UNL     1     -21.034  -3.967  -7.635  1.00  0.00    -0.321 OA
BRANCH   5   6
HETATM    6  C   UNL     1     -21.085  -4.163  -9.058  1.00  0.00     0.178 C 
BRANCH   6   7
HETATM    7  C   UNL     1     -22.426  -4.720  -9.517  1.00  0.00     0.026 C 
BRANCH   7   8
HETATM    8  C   UNL     1     -23.591  -4.037  -8.794  1.00  0.00    -0.002 C 
HETATM    9  C   UNL     1     -24.564  -3.401  -9.775  1.00  0.00     0.005 C 
ENDBRANCH   7   8
ENDBRANCH   6   7
ENDBRANCH   5   6
ENDBRANCH   3   5
ENDBRANCH   2   3
ENDBRANCH   1   2
BRANCH   1  10
HETATM   10  C   UNL     1     -21.879  -6.761  -4.650  1.00  0.00     0.010 C 
BRANCH  10  11
HETATM   11  C   UNL     1     -21.550  -6.073  -3.318  1.00  0.00     0.111 C 
BRANCH  11  12
HETATM   12  C   UNL     1     -21.397  -7.085  -2.202  1.00  0.00     0.258 C 
HETATM   13  O   UNL     1     -20.613  -8.033  -2.210  1.00  0.00    -0.265 OA
BRANCH  12  14
HETATM   14  O   UNL     1     -22.336  -6.875  -1.237  1.00  0.00    -0.321 OA
BRANCH  14  15
HETATM   15  C   UNL     1     -22.100  -7.621  -0.032  1.00  0.00     0.178 C 
BRANCH  15  16
HETATM   16  C   UNL     1     -23.219  -8.611   0.260  1.00  0.00     0.026 C 
BRANCH  16  17
HETATM   17  C   UNL     1     -22.964  -9.961  -0.417  1.00  0.00    -0.002 C 
HETATM   18  C   UNL     1     -24.054 -10.969  -0.088  1.00  0.00     0.005 C 
ENDBRANCH  16  17
ENDBRANCH  15  16
ENDBRANCH  14  15
ENDBRANCH  12  14
ENDBRANCH  11  12
ENDBRANCH  10  11
ENDBRANCH   1  10
TORSDOF 13
BEGIN_RES ARG D 557
REMARK  4 active torsions:
REMARK  status: ('A' for Active; 'I' for Inactive)
REMARK    1  A    between atoms: CA   and  CB  
REMARK    2  A    between atoms: CB   and  CG  
REMARK    3  A    between atoms: CG   and  CD  
REMARK    4  A    between atoms: CD   and  NE  
REMARK       I    between atoms: NE   and  CZ  
REMARK       I    between atoms: CZ   and  NH1 
REMARK       I    between atoms: CZ   and  NH2 
ROOT
ATOM      1  CA  ARG D 557     -26.217   2.705 -17.014  1.00 35.49     0.159 C 
ENDROOT
BRANCH   1   2
ATOM      2  CB  ARG D 557     -26.789   1.319 -17.183  1.00 35.49     0.034 C 
BRANCH   2   3
ATOM      3  CG  ARG D 557     -25.839   0.201 -17.133  1.00 35.49     0.027 C 
BRANCH   3   4
ATOM      4  CD  ARG D 557     -24.761   0.421 -16.141  1.00 35.49     0.116 C 
BRANCH   4   5
ATOM      5  NE  ARG D 557     -24.879  -0.459 -15.008  1.00 35.49    -0.212 N 
ATOM      6  CZ  ARG D 557     -24.040  -1.420 -14.692  1.00 35.49     0.666 C 
ATOM      7  NH1 ARG D 557     -22.971  -1.695 -15.416  1.00 35.49    -0.235 N 
ATOM      8  NH2 ARG D 557     -24.292  -2.106 -13.615  1.00 35.49    -0.235 N 
ATOM      9  HH  ARG D 557     -22.784  -1.255 -16.127  1.00 35.49     0.174 HD
ATOM     10  HH  ARG D 557     -22.458  -2.332 -15.159  1.00 35.49     0.174 HD
ATOM     11  HH  ARG D 557     -24.985  -1.901 -13.163  1.00 35.49     0.174 HD
ATOM     12  HH  ARG D 557     -23.772  -2.731 -13.377  1.00 35.49     0.174 HD
ATOM     13  HE  ARG D 557     -25.577  -0.399 -14.527  1.00 35.49     0.178 HD
ENDBRANCH   4   5
ENDBRANCH   3   4
ENDBRANCH   2   3
ENDBRANCH   1   2
END_RES ARG D 557
BEGIN_RES GLU D 570
REMARK  3 active torsions:
REMARK  status: ('A' for Active; 'I' for Inactive)
REMARK    5  A    between atoms: CA   and  CB  
REMARK    6  A    between atoms: CB   and  CG  
REMARK    7  A    between atoms: CG   and  CD  
ROOT
ATOM     14  CA  GLU D 570     -18.033  -6.348 -13.375  1.00 32.92     0.160 C 
ENDROOT
BRANCH  14  15
ATOM     15  CB  GLU D 570     -19.500  -6.345 -13.794  1.00 32.92     0.043 C 
BRANCH  15  16
ATOM     16  CG  GLU D 570     -20.450  -5.568 -12.956  1.00 32.92     0.100 C 
BRANCH  16  17
ATOM     17  CD  GLU D 570     -21.653  -5.080 -13.728  1.00 32.92     0.185 C 
ATOM     18  OE1 GLU D 570     -21.633  -5.125 -14.973  1.00 32.92    -0.647 OA
ATOM     19  OE2 GLU D 570     -22.621  -4.633 -13.081  1.00 32.92    -0.647 OA
ENDBRANCH  16  17
ENDBRANCH  15  16
ENDBRANCH  14  15
END_RES GLU D 570
ENDMDL
MODEL 9
REMARK VINA RESULT:      -5.7      8.407     13.151
REMARK  13 active torsions:
REMARK  status: ('A' for Active; 'I' for Inactive)
REMARK    1  A    between atoms: C_2  and  C_3 
REMARK    2  A    between atoms: C_3  and  C_4 
REMARK    3  A    between atoms: C_4  and  O_5 
REMARK    4  A    between atoms: O_5  and  C_6 
REMARK    5  A    between atoms: C_6  and  C_8 
REMARK    6  A    between atoms: C_8  and  C_9 
REMARK    7  A    between atoms: C_9  and  C_10 
REMARK    8  A    between atoms: C_10  and  C_11 
REMARK    9  A    between atoms: C_11  and  C_12 
REMARK   10  A    between atoms: C_12  and  O_14 
REMARK   11  A    between atoms: O_14  and  C_15 
REMARK   12  A    between atoms: C_15  and  C_16 
REMARK   13  A    between atoms: C_16  and  C_17 
ROOT
HETATM    1  C   UNL     1     -19.739  -5.227  -7.646  1.00  0.00     0.010 C 
ENDROOT
BRANCH   1   2
HETATM    2  C   UNL     1     -20.170  -3.950  -8.378  1.00  0.00     0.111 C 
BRANCH   2   3
HETATM    3  C   UNL     1     -20.544  -4.251  -9.821  1.00  0.00     0.258 C 
HETATM    4  O   UNL     1     -19.852  -4.863 -10.615  1.00  0.00    -0.265 OA
BRANCH   3   5
HETATM    5  O   UNL     1     -21.715  -3.625 -10.132  1.00  0.00    -0.321 OA
BRANCH   5   6
HETATM    6  C   UNL     1     -22.858  -4.169  -9.451  1.00  0.00     0.178 C 
BRANCH   6   7
HETATM    7  C   UNL     1     -23.909  -4.697 -10.419  1.00  0.00     0.026 C 
BRANCH   7   8
HETATM    8  C   UNL     1     -23.591  -4.296 -11.863  1.00  0.00    -0.002 C 
HETATM    9  C   UNL     1     -24.391  -3.077 -12.295  1.00  0.00     0.005 C 
ENDBRANCH   7   8
ENDBRANCH   6   7
ENDBRANCH   5   6
ENDBRANCH   3   5
ENDBRANCH   2   3
ENDBRANCH   1   2
BRANCH   1  10
HETATM   10  C   UNL     1     -19.859  -5.108  -6.126  1.00  0.00     0.010 C 
BRANCH  10  11
HETATM   11  C   UNL     1     -20.443  -6.370  -5.478  1.00  0.00     0.111 C 
BRANCH  11  12
HETATM   12  C   UNL     1     -21.906  -6.181  -5.132  1.00  0.00     0.258 C 
HETATM   13  O   UNL     1     -22.698  -5.489  -5.770  1.00  0.00    -0.265 OA
BRANCH  12  14
HETATM   14  O   UNL     1     -22.197  -6.785  -3.946  1.00  0.00    -0.321 OA
BRANCH  14  15
HETATM   15  C   UNL     1     -21.519  -6.203  -2.822  1.00  0.00     0.178 C 
BRANCH  15  16
HETATM   16  C   UNL     1     -22.264  -6.438  -1.516  1.00  0.00     0.026 C 
BRANCH  16  17
HETATM   17  C   UNL     1     -21.775  -7.708  -0.814  1.00  0.00    -0.002 C 
HETATM   18  C   UNL     1     -22.536  -7.963   0.478  1.00  0.00     0.005 C 
ENDBRANCH  16  17
ENDBRANCH  15  16
ENDBRANCH  14  15
ENDBRANCH  12  14
ENDBRANCH  11  12
ENDBRANCH  10  11
ENDBRANCH   1  10
TORSDOF 13
BEGIN_RES ARG D 557
REMARK  4 active torsions:
REMARK  status: ('A' for Active; 'I' for Inactive)
REMARK    1  A    between atoms: CA   and  CB  
REMARK    2  A    between atoms: CB   and  CG  
REMARK    3  A    between atoms: CG   and  CD  
REMARK    4  A    between atoms: CD   and  NE  
REMARK       I    between atoms: NE   and  CZ  
REMARK       I    between atoms: CZ   and  NH1 
REMARK       I    between atoms: CZ   and  NH2 
ROOT
ATOM      1  CA  ARG D 557     -26.217   2.705 -17.014  1.00 35.49     0.159 C 
ENDROOT
BRANCH   1   2
ATOM      2  CB  ARG D 557     -26.789   1.319 -17.183  1.00 35.49     0.034 C 
BRANCH   2   3
ATOM      3  CG  ARG D 557     -28.231   1.226 -17.441  1.00 35.49     0.027 C 
BRANCH   3   4
ATOM      4  CD  ARG D 557     -28.916   0.316 -16.496  1.00 35.49     0.116 C 
BRANCH   4   5
ATOM      5  NE  ARG D 557     -29.333  -0.908 -17.128  1.00 35.49    -0.212 N 
ATOM      6  CZ  ARG D 557     -28.722  -2.068 -17.035  1.00 35.49     0.666 C 
ATOM      7  NH1 ARG D 557     -27.613  -2.231 -16.337  1.00 35.49    -0.235 N 
ATOM      8  NH2 ARG D 557     -29.254  -3.079 -17.658  1.00 35.49    -0.235 N 
ATOM      9  HH  ARG D 557     -27.247  -1.580 -15.917  1.00 35.49     0.174 HD
ATOM     10  HH  ARG D 557     -27.260  -3.011 -16.310  1.00 35.49     0.174 HD
ATOM     11  HH  ARG D 557     -29.974  -2.946 -18.095  1.00 35.49     0.174 HD
ATOM     12  HH  ARG D 557     -28.890  -3.844 -17.618  1.00 35.49     0.174 HD
ATOM     13  HE  ARG D 557     -29.999  -0.878 -17.656  1.00 35.49     0.178 HD
ENDBRANCH   4   5
ENDBRANCH   3   4
ENDBRANCH   2   3
ENDBRANCH   1   2
END_RES ARG D 557
BEGIN_RES GLU D 570
REMARK  3 active torsions:
REMARK  status: ('A' for Active; 'I' for Inactive)
REMARK    5  A    between atoms: CA   and  CB  
REMARK    6  A    between atoms: CB   and  CG  
REMARK    7  A    between atoms: CG   and  CD  
ROOT
ATOM     14  CA  GLU D 570     -18.033  -6.348 -13.375  1.00 32.92     0.160 C 
ENDROOT
BRANCH  14  15
ATOM     15  CB  GLU D 570     -19.500  -6.345 -13.794  1.00 32.92     0.043 C 
BRANCH  15  16
ATOM     16  CG  GLU D 570     -19.805  -6.039 -15.215  1.00 32.92     0.100 C 
BRANCH  16  17
ATOM     17  CD  GLU D 570     -21.269  -5.751 -15.455  1.00 32.92     0.185 C 
ATOM     18  OE1 GLU D 570     -22.124  -6.513 -14.965  1.00 32.92    -0.647 OA
ATOM     19  OE2 GLU D 570     -21.564  -4.762 -16.155  1.00 32.92    -0.647 OA
ENDBRANCH  16  17
ENDBRANCH  15  16
ENDBRANCH  14  15
END_RES GLU D 570
ENDMDL
