MODEL 1
REMARK VINA RESULT:      -8.9      0.000      0.000
REMARK  7 active torsions:
REMARK  status: ('A' for Active; 'I' for Inactive)
REMARK    1  A    between atoms: C_4  and  N_10 
REMARK    2  A    between atoms: C_5  and  C_7 
REMARK    3  A    between atoms: C_7  and  O_9 
REMARK       I    between atoms: N_10  and  C_11 
REMARK    4  A    between atoms: C_11  and  C_13 
REMARK    5  A    between atoms: C_13  and  C_14 
REMARK    6  A    between atoms: C_14  and  C_15 
REMARK    7  A    between atoms: C_18  and  O_21 
ROOT
HETATM    1  N   UNL     1     -20.829  -6.553  -4.553  1.00  0.00    -0.326 N 
HETATM    2  C   UNL     1     -21.645  -5.990  -5.520  1.00  0.00     0.222 C 
HETATM    3  O   UNL     1     -22.869  -5.916  -5.450  1.00  0.00    -0.273 OA
HETATM    4  H   UNL     1     -19.855  -6.744  -4.792  1.00  0.00     0.169 HD
ENDROOT
BRANCH   1   5
HETATM    5  C   UNL     1     -21.262  -7.018  -3.277  1.00  0.00     0.051 A 
HETATM    6  C   UNL     1     -21.866  -6.155  -2.354  1.00  0.00     0.030 A 
HETATM    7  C   UNL     1     -22.330  -6.617  -1.118  1.00  0.00     0.002 A 
HETATM    8  C   UNL     1     -22.184  -7.954  -0.774  1.00  0.00     0.001 A 
HETATM    9  C   UNL     1     -21.543  -8.826  -1.653  1.00  0.00     0.020 A 
HETATM   10  C   UNL     1     -21.081  -8.366  -2.901  1.00  0.00     0.064 A 
BRANCH  10  11
HETATM   11  C   UNL     1     -20.386  -9.305  -3.815  1.00  0.00     0.178 C 
HETATM   12  O   UNL     1     -20.909 -10.328  -4.226  1.00  0.00    -0.646 OA
BRANCH  11  13
HETATM   13  O   UNL     1     -19.110  -8.965  -4.093  1.00  0.00    -0.773 OA
HETATM   14  H   UNL     1     -18.659  -9.540  -4.739  1.00  0.00     0.167 HD
ENDBRANCH  11  13
ENDBRANCH  10  11
ENDBRANCH   1   5
BRANCH   2  15
HETATM   15  C   UNL     1     -20.908  -5.525  -6.763  1.00  0.00     0.108 C 
BRANCH  15  16
HETATM   16  C   UNL     1     -21.511  -4.197  -7.228  1.00  0.00     0.048 C 
BRANCH  16  17
HETATM   17  C   UNL     1     -21.610  -4.049  -8.724  1.00  0.00    -0.058 A 
HETATM   18  C   UNL     1     -22.840  -3.743  -9.323  1.00  0.00     0.010 A 
HETATM   19  C   UNL     1     -22.926  -3.531 -10.701  1.00  0.00     0.037 A 
HETATM   20  C   UNL     1     -21.779  -3.633 -11.480  1.00  0.00     0.065 A 
HETATM   21  C   UNL     1     -20.554  -3.949 -10.904  1.00  0.00     0.037 A 
HETATM   22  C   UNL     1     -20.468  -4.162  -9.528  1.00  0.00     0.010 A 
BRANCH  20  23
HETATM   23  O   UNL     1     -21.814  -3.421 -12.826  1.00  0.00    -0.361 OA
HETATM   24  H   UNL     1     -22.730  -3.231 -13.084  1.00  0.00     0.217 HD
ENDBRANCH  20  23
ENDBRANCH  16  17
ENDBRANCH  15  16
ENDBRANCH   2  15
TORSDOF 7
BEGIN_RES ARG D 557
REMARK  4 active torsions:
REMARK  status: ('A' for Active; 'I' for Inactive)
REMARK    1  A    between atoms: CA   and  CB  
REMARK    2  A    between atoms: CB   and  CG  
REMARK    3  A    between atoms: CG   and  CD  
REMARK    4  A    between atoms: CD   and  NE  
REMARK       I    between atoms: NE   and  CZ  
REMARK       I    between atoms: CZ   and  NH1 
REMARK       I    between atoms: CZ   and  NH2 
ROOT
ATOM      1  CA  ARG D 557     -26.217   2.705 -17.014  1.00 35.49     0.159 C 
ENDROOT
BRANCH   1   2
ATOM      2  CB  ARG D 557     -26.789   1.319 -17.183  1.00 35.49     0.034 C 
BRANCH   2   3
ATOM      3  CG  ARG D 557     -25.835   0.203 -17.162  1.00 35.49     0.027 C 
BRANCH   3   4
ATOM      4  CD  ARG D 557     -24.768   0.392 -16.152  1.00 35.49     0.116 C 
BRANCH   4   5
ATOM      5  NE  ARG D 557     -24.936  -0.477 -15.017  1.00 35.49    -0.212 N 
ATOM      6  CZ  ARG D 557     -24.121  -1.446 -14.665  1.00 35.49     0.666 C 
ATOM      7  NH1 ARG D 557     -23.032  -1.741 -15.350  1.00 35.49    -0.235 N 
ATOM      8  NH2 ARG D 557     -24.419  -2.120 -13.592  1.00 35.49    -0.235 N 
ATOM      9  HH  ARG D 557     -22.816  -1.309 -16.058  1.00 35.49     0.174 HD
ATOM     10  HH  ARG D 557     -22.537  -2.382 -15.071  1.00 35.49     0.174 HD
ATOM     11  HH  ARG D 557     -25.124  -1.902 -13.165  1.00 35.49     0.174 HD
ATOM     12  HH  ARG D 557     -23.915  -2.750 -13.331  1.00 35.49     0.174 HD
ATOM     13  HE  ARG D 557     -25.650  -0.404 -14.561  1.00 35.49     0.178 HD
ENDBRANCH   4   5
ENDBRANCH   3   4
ENDBRANCH   2   3
ENDBRANCH   1   2
END_RES ARG D 557
BEGIN_RES GLU D 570
REMARK  3 active torsions:
REMARK  status: ('A' for Active; 'I' for Inactive)
REMARK    5  A    between atoms: CA   and  CB  
REMARK    6  A    between atoms: CB   and  CG  
REMARK    7  A    between atoms: CG   and  CD  
ROOT
ATOM     14  CA  GLU D 570     -18.033  -6.348 -13.375  1.00 32.92     0.160 C 
ENDROOT
BRANCH  14  15
ATOM     15  CB  GLU D 570     -19.500  -6.345 -13.794  1.00 32.92     0.043 C 
BRANCH  15  16
ATOM     16  CG  GLU D 570     -19.819  -5.871 -15.165  1.00 32.92     0.100 C 
BRANCH  16  17
ATOM     17  CD  GLU D 570     -21.300  -5.672 -15.391  1.00 32.92     0.185 C 
ATOM     18  OE1 GLU D 570     -22.061  -6.655 -15.312  1.00 32.92    -0.647 OA
ATOM     19  OE2 GLU D 570     -21.701  -4.524 -15.665  1.00 32.92    -0.647 OA
ENDBRANCH  16  17
ENDBRANCH  15  16
ENDBRANCH  14  15
END_RES GLU D 570
ENDMDL
MODEL 2
REMARK VINA RESULT:      -8.8      4.961      9.531
REMARK  7 active torsions:
REMARK  status: ('A' for Active; 'I' for Inactive)
REMARK    1  A    between atoms: C_4  and  N_10 
REMARK    2  A    between atoms: C_5  and  C_7 
REMARK    3  A    between atoms: C_7  and  O_9 
REMARK       I    between atoms: N_10  and  C_11 
REMARK    4  A    between atoms: C_11  and  C_13 
REMARK    5  A    between atoms: C_13  and  C_14 
REMARK    6  A    between atoms: C_14  and  C_15 
REMARK    7  A    between atoms: C_18  and  O_21 
ROOT
HETATM    1  N   UNL     1     -25.261  -6.502 -15.417  1.00  0.00    -0.326 N 
HETATM    2  C   UNL     1     -24.543  -5.498 -14.790  1.00  0.00     0.222 C 
HETATM    3  O   UNL     1     -24.638  -4.301 -15.049  1.00  0.00    -0.273 OA
HETATM    4  H   UNL     1     -24.969  -7.470 -15.272  1.00  0.00     0.169 HD
ENDROOT
BRANCH   1   5
HETATM    5  C   UNL     1     -26.308  -6.301 -16.363  1.00  0.00     0.051 A 
HETATM    6  C   UNL     1     -27.599  -5.942 -15.956  1.00  0.00     0.030 A 
HETATM    7  C   UNL     1     -28.617  -5.702 -16.884  1.00  0.00     0.002 A 
HETATM    8  C   UNL     1     -28.367  -5.834 -18.243  1.00  0.00     0.001 A 
HETATM    9  C   UNL     1     -27.104  -6.237 -18.676  1.00  0.00     0.020 A 
HETATM   10  C   UNL     1     -26.074  -6.472 -17.744  1.00  0.00     0.064 A 
BRANCH  10  11
HETATM   11  C   UNL     1     -24.743  -6.917 -18.223  1.00  0.00     0.178 C 
HETATM   12  O   UNL     1     -24.218  -6.456 -19.224  1.00  0.00    -0.646 OA
BRANCH  11  13
HETATM   13  O   UNL     1     -24.200  -7.918 -17.498  1.00  0.00    -0.773 OA
HETATM   14  H   UNL     1     -24.587  -8.044 -16.611  1.00  0.00     0.167 HD
ENDBRANCH  11  13
ENDBRANCH  10  11
ENDBRANCH   1   5
BRANCH   2  15
HETATM   15  C   UNL     1     -23.526  -5.997 -13.779  1.00  0.00     0.108 C 
BRANCH  15  16
HETATM   16  C   UNL     1     -22.596  -4.841 -13.402  1.00  0.00     0.048 C 
BRANCH  16  17
HETATM   17  C   UNL     1     -22.597  -4.496 -11.935  1.00  0.00    -0.058 A 
HETATM   18  C   UNL     1     -23.765  -4.648 -11.175  1.00  0.00     0.010 A 
HETATM   19  C   UNL     1     -23.755  -4.401  -9.800  1.00  0.00     0.037 A 
HETATM   20  C   UNL     1     -22.575  -3.995  -9.189  1.00  0.00     0.065 A 
HETATM   21  C   UNL     1     -21.412  -3.825  -9.929  1.00  0.00     0.037 A 
HETATM   22  C   UNL     1     -21.422  -4.070 -11.303  1.00  0.00     0.010 A 
BRANCH  20  23
HETATM   23  O   UNL     1     -22.516  -3.757  -7.847  1.00  0.00    -0.361 OA
HETATM   24  H   UNL     1     -23.423  -3.721  -7.501  1.00  0.00     0.217 HD
ENDBRANCH  20  23
ENDBRANCH  16  17
ENDBRANCH  15  16
ENDBRANCH   2  15
TORSDOF 7
BEGIN_RES ARG D 557
REMARK  4 active torsions:
REMARK  status: ('A' for Active; 'I' for Inactive)
REMARK    1  A    between atoms: CA   and  CB  
REMARK    2  A    between atoms: CB   and  CG  
REMARK    3  A    between atoms: CG   and  CD  
REMARK    4  A    between atoms: CD   and  NE  
REMARK       I    between atoms: NE   and  CZ  
REMARK       I    between atoms: CZ   and  NH1 
REMARK       I    between atoms: CZ   and  NH2 
ROOT
ATOM      1  CA  ARG D 557     -26.217   2.705 -17.014  1.00 35.49     0.159 C 
ENDROOT
BRANCH   1   2
ATOM      2  CB  ARG D 557     -26.789   1.319 -17.183  1.00 35.49     0.034 C 
BRANCH   2   3
ATOM      3  CG  ARG D 557     -25.832   0.205 -17.187  1.00 35.49     0.027 C 
BRANCH   3   4
ATOM      4  CD  ARG D 557     -24.678   0.450 -16.293  1.00 35.49     0.116 C 
BRANCH   4   5
ATOM      5  NE  ARG D 557     -24.774  -0.297 -15.067  1.00 35.49    -0.212 N 
ATOM      6  CZ  ARG D 557     -23.972  -1.270 -14.695  1.00 35.49     0.666 C 
ATOM      7  NH1 ARG D 557     -22.968  -1.687 -15.444  1.00 35.49    -0.235 N 
ATOM      8  NH2 ARG D 557     -24.195  -1.822 -13.538  1.00 35.49    -0.235 N 
ATOM      9  HH  ARG D 557     -22.802  -1.336 -16.208  1.00 35.49     0.174 HD
ATOM     10  HH  ARG D 557     -22.477  -2.324 -15.149  1.00 35.49     0.174 HD
ATOM     11  HH  ARG D 557     -24.846  -1.527 -13.072  1.00 35.49     0.174 HD
ATOM     12  HH  ARG D 557     -23.697  -2.451 -13.263  1.00 35.49     0.174 HD
ATOM     13  HE  ARG D 557     -25.436  -0.143 -14.556  1.00 35.49     0.178 HD
ENDBRANCH   4   5
ENDBRANCH   3   4
ENDBRANCH   2   3
ENDBRANCH   1   2
END_RES ARG D 557
BEGIN_RES GLU D 570
REMARK  3 active torsions:
REMARK  status: ('A' for Active; 'I' for Inactive)
REMARK    5  A    between atoms: CA   and  CB  
REMARK    6  A    between atoms: CB   and  CG  
REMARK    7  A    between atoms: CG   and  CD  
ROOT
ATOM     14  CA  GLU D 570     -18.033  -6.348 -13.375  1.00 32.92     0.160 C 
ENDROOT
BRANCH  14  15
ATOM     15  CB  GLU D 570     -19.500  -6.345 -13.794  1.00 32.92     0.043 C 
BRANCH  15  16
ATOM     16  CG  GLU D 570     -19.797  -6.239 -15.246  1.00 32.92     0.100 C 
BRANCH  16  17
ATOM     17  CD  GLU D 570     -20.738  -7.315 -15.735  1.00 32.92     0.185 C 
ATOM     18  OE1 GLU D 570     -20.620  -8.472 -15.287  1.00 32.92    -0.647 OA
ATOM     19  OE2 GLU D 570     -21.592  -7.002 -16.588  1.00 32.92    -0.647 OA
ENDBRANCH  16  17
ENDBRANCH  15  16
ENDBRANCH  14  15
END_RES GLU D 570
ENDMDL
MODEL 3
REMARK VINA RESULT:      -8.8      1.776      7.003
REMARK  7 active torsions:
REMARK  status: ('A' for Active; 'I' for Inactive)
REMARK    1  A    between atoms: C_4  and  N_10 
REMARK    2  A    between atoms: C_5  and  C_7 
REMARK    3  A    between atoms: C_7  and  O_9 
REMARK       I    between atoms: N_10  and  C_11 
REMARK    4  A    between atoms: C_11  and  C_13 
REMARK    5  A    between atoms: C_13  and  C_14 
REMARK    6  A    between atoms: C_14  and  C_15 
REMARK    7  A    between atoms: C_18  and  O_21 
ROOT
HETATM    1  N   UNL     1     -21.873  -4.900  -7.558  1.00  0.00    -0.326 N 
HETATM    2  C   UNL     1     -21.216  -5.859  -6.807  1.00  0.00     0.222 C 
HETATM    3  O   UNL     1     -20.356  -6.622  -7.240  1.00  0.00    -0.273 OA
HETATM    4  H   UNL     1     -22.702  -4.457  -7.160  1.00  0.00     0.169 HD
ENDROOT
BRANCH   1   5
HETATM    5  C   UNL     1     -21.570  -4.559  -8.909  1.00  0.00     0.051 A 
HETATM    6  C   UNL     1     -20.247  -4.484  -9.363  1.00  0.00     0.030 A 
HETATM    7  C   UNL     1     -19.948  -4.192 -10.697  1.00  0.00     0.002 A 
HETATM    8  C   UNL     1     -20.971  -3.952 -11.604  1.00  0.00     0.001 A 
HETATM    9  C   UNL     1     -22.296  -3.972 -11.170  1.00  0.00     0.020 A 
HETATM   10  C   UNL     1     -22.601  -4.273  -9.829  1.00  0.00     0.064 A 
BRANCH  10  11
HETATM   11  C   UNL     1     -24.016  -4.272  -9.383  1.00  0.00     0.178 C 
HETATM   12  O   UNL     1     -24.905  -4.812 -10.021  1.00  0.00    -0.646 OA
BRANCH  11  13
HETATM   13  O   UNL     1     -24.240  -3.568  -8.254  1.00  0.00    -0.773 OA
HETATM   14  H   UNL     1     -24.992  -2.949  -8.294  1.00  0.00     0.167 HD
ENDBRANCH  11  13
ENDBRANCH  10  11
ENDBRANCH   1   5
BRANCH   2  15
HETATM   15  C   UNL     1     -21.705  -5.972  -5.374  1.00  0.00     0.108 C 
BRANCH  15  16
HETATM   16  C   UNL     1     -20.705  -6.811  -4.575  1.00  0.00     0.048 C 
BRANCH  16  17
HETATM   17  C   UNL     1     -21.153  -7.146  -3.176  1.00  0.00    -0.058 A 
HETATM   18  C   UNL     1     -20.708  -8.321  -2.554  1.00  0.00     0.010 A 
HETATM   19  C   UNL     1     -21.059  -8.601  -1.231  1.00  0.00     0.037 A 
HETATM   20  C   UNL     1     -21.863  -7.706  -0.535  1.00  0.00     0.065 A 
HETATM   21  C   UNL     1     -22.324  -6.544  -1.140  1.00  0.00     0.037 A 
HETATM   22  C   UNL     1     -21.975  -6.264  -2.462  1.00  0.00     0.010 A 
BRANCH  20  23
HETATM   23  O   UNL     1     -22.219  -7.933   0.762  1.00  0.00    -0.361 OA
HETATM   24  H   UNL     1     -23.178  -7.811   0.844  1.00  0.00     0.217 HD
ENDBRANCH  20  23
ENDBRANCH  16  17
ENDBRANCH  15  16
ENDBRANCH   2  15
TORSDOF 7
BEGIN_RES ARG D 557
REMARK  4 active torsions:
REMARK  status: ('A' for Active; 'I' for Inactive)
REMARK    1  A    between atoms: CA   and  CB  
REMARK    2  A    between atoms: CB   and  CG  
REMARK    3  A    between atoms: CG   and  CD  
REMARK    4  A    between atoms: CD   and  NE  
REMARK       I    between atoms: NE   and  CZ  
REMARK       I    between atoms: CZ   and  NH1 
REMARK       I    between atoms: CZ   and  NH2 
ROOT
ATOM      1  CA  ARG D 557     -26.217   2.705 -17.014  1.00 35.49     0.159 C 
ENDROOT
BRANCH   1   2
ATOM      2  CB  ARG D 557     -26.789   1.319 -17.183  1.00 35.49     0.034 C 
BRANCH   2   3
ATOM      3  CG  ARG D 557     -25.839   0.201 -17.133  1.00 35.49     0.027 C 
BRANCH   3   4
ATOM      4  CD  ARG D 557     -24.749   0.431 -16.156  1.00 35.49     0.116 C 
BRANCH   4   5
ATOM      5  NE  ARG D 557     -24.855  -0.435 -15.012  1.00 35.49    -0.212 N 
ATOM      6  CZ  ARG D 557     -24.019  -1.400 -14.699  1.00 35.49     0.666 C 
ATOM      7  NH1 ARG D 557     -22.964  -1.692 -15.437  1.00 35.49    -0.235 N 
ATOM      8  NH2 ARG D 557     -24.258  -2.072 -13.611  1.00 35.49    -0.235 N 
ATOM      9  HH  ARG D 557     -22.786  -1.261 -16.156  1.00 35.49     0.174 HD
ATOM     10  HH  ARG D 557     -22.452  -2.330 -15.182  1.00 35.49     0.174 HD
ATOM     11  HH  ARG D 557     -24.942  -1.856 -13.149  1.00 35.49     0.174 HD
ATOM     12  HH  ARG D 557     -23.739  -2.699 -13.374  1.00 35.49     0.174 HD
ATOM     13  HE  ARG D 557     -25.545  -0.365 -14.520  1.00 35.49     0.178 HD
ENDBRANCH   4   5
ENDBRANCH   3   4
ENDBRANCH   2   3
ENDBRANCH   1   2
END_RES ARG D 557
BEGIN_RES GLU D 570
REMARK  3 active torsions:
REMARK  status: ('A' for Active; 'I' for Inactive)
REMARK    5  A    between atoms: CA   and  CB  
REMARK    6  A    between atoms: CB   and  CG  
REMARK    7  A    between atoms: CG   and  CD  
ROOT
ATOM     14  CA  GLU D 570     -18.033  -6.348 -13.375  1.00 32.92     0.160 C 
ENDROOT
BRANCH  14  15
ATOM     15  CB  GLU D 570     -19.500  -6.345 -13.794  1.00 32.92     0.043 C 
BRANCH  15  16
ATOM     16  CG  GLU D 570     -19.832  -5.766 -15.121  1.00 32.92     0.100 C 
BRANCH  16  17
ATOM     17  CD  GLU D 570     -21.315  -5.554 -15.318  1.00 32.92     0.185 C 
ATOM     18  OE1 GLU D 570     -21.711  -4.491 -15.834  1.00 32.92    -0.647 OA
ATOM     19  OE2 GLU D 570     -22.089  -6.454 -14.937  1.00 32.92    -0.647 OA
ENDBRANCH  16  17
ENDBRANCH  15  16
ENDBRANCH  14  15
END_RES GLU D 570
ENDMDL
MODEL 4
REMARK VINA RESULT:      -8.6      2.528      7.270
REMARK  7 active torsions:
REMARK  status: ('A' for Active; 'I' for Inactive)
REMARK    1  A    between atoms: C_4  and  N_10 
REMARK    2  A    between atoms: C_5  and  C_7 
REMARK    3  A    between atoms: C_7  and  O_9 
REMARK       I    between atoms: N_10  and  C_11 
REMARK    4  A    between atoms: C_11  and  C_13 
REMARK    5  A    between atoms: C_13  and  C_14 
REMARK    6  A    between atoms: C_14  and  C_15 
REMARK    7  A    between atoms: C_18  and  O_21 
ROOT
HETATM    1  N   UNL     1     -21.873  -4.800  -7.684  1.00  0.00    -0.326 N 
HETATM    2  C   UNL     1     -21.152  -5.722  -6.945  1.00  0.00     0.222 C 
HETATM    3  O   UNL     1     -20.265  -6.443  -7.395  1.00  0.00    -0.273 OA
HETATM    4  H   UNL     1     -22.715  -4.398  -7.269  1.00  0.00     0.169 HD
ENDROOT
BRANCH   1   5
HETATM    5  C   UNL     1     -21.617  -4.449  -9.042  1.00  0.00     0.051 A 
HETATM    6  C   UNL     1     -20.309  -4.334  -9.531  1.00  0.00     0.030 A 
HETATM    7  C   UNL     1     -20.054  -4.032 -10.872  1.00  0.00     0.002 A 
HETATM    8  C   UNL     1     -21.108  -3.823 -11.751  1.00  0.00     0.001 A 
HETATM    9  C   UNL     1     -22.420  -3.884 -11.283  1.00  0.00     0.020 A 
HETATM   10  C   UNL     1     -22.680  -4.195  -9.934  1.00  0.00     0.064 A 
BRANCH  10  11
HETATM   11  C   UNL     1     -24.082  -4.238  -9.451  1.00  0.00     0.178 C 
HETATM   12  O   UNL     1     -24.918  -4.989  -9.928  1.00  0.00    -0.646 OA
BRANCH  11  13
HETATM   13  O   UNL     1     -24.365  -3.332  -8.492  1.00  0.00    -0.773 OA
HETATM   14  H   UNL     1     -23.589  -2.946  -8.044  1.00  0.00     0.167 HD
ENDBRANCH  11  13
ENDBRANCH  10  11
ENDBRANCH   1   5
BRANCH   2  15
HETATM   15  C   UNL     1     -21.605  -5.855  -5.502  1.00  0.00     0.108 C 
BRANCH  15  16
HETATM   16  C   UNL     1     -20.846  -7.013  -4.850  1.00  0.00     0.048 C 
BRANCH  16  17
HETATM   17  C   UNL     1     -21.116  -7.182  -3.378  1.00  0.00    -0.058 A 
HETATM   18  C   UNL     1     -21.997  -6.314  -2.717  1.00  0.00     0.010 A 
HETATM   19  C   UNL     1     -22.309  -6.509  -1.369  1.00  0.00     0.037 A 
HETATM   20  C   UNL     1     -21.733  -7.571  -0.682  1.00  0.00     0.065 A 
HETATM   21  C   UNL     1     -20.848  -8.433  -1.318  1.00  0.00     0.037 A 
HETATM   22  C   UNL     1     -20.534  -8.238  -2.663  1.00  0.00     0.010 A 
BRANCH  20  23
HETATM   23  O   UNL     1     -22.021  -7.808   0.630  1.00  0.00    -0.361 OA
HETATM   24  H   UNL     1     -22.863  -8.289   0.678  1.00  0.00     0.217 HD
ENDBRANCH  20  23
ENDBRANCH  16  17
ENDBRANCH  15  16
ENDBRANCH   2  15
TORSDOF 7
BEGIN_RES ARG D 557
REMARK  4 active torsions:
REMARK  status: ('A' for Active; 'I' for Inactive)
REMARK    1  A    between atoms: CA   and  CB  
REMARK    2  A    between atoms: CB   and  CG  
REMARK    3  A    between atoms: CG   and  CD  
REMARK    4  A    between atoms: CD   and  NE  
REMARK       I    between atoms: NE   and  CZ  
REMARK       I    between atoms: CZ   and  NH1 
REMARK       I    between atoms: CZ   and  NH2 
ROOT
ATOM      1  CA  ARG D 557     -26.217   2.705 -17.014  1.00 35.49     0.159 C 
ENDROOT
BRANCH   1   2
ATOM      2  CB  ARG D 557     -26.789   1.319 -17.183  1.00 35.49     0.034 C 
BRANCH   2   3
ATOM      3  CG  ARG D 557     -28.231   1.226 -17.442  1.00 35.49     0.027 C 
BRANCH   3   4
ATOM      4  CD  ARG D 557     -28.915   0.307 -16.503  1.00 35.49     0.116 C 
BRANCH   4   5
ATOM      5  NE  ARG D 557     -29.270  -0.940 -17.128  1.00 35.49    -0.212 N 
ATOM      6  CZ  ARG D 557     -28.612  -2.072 -17.012  1.00 35.49     0.666 C 
ATOM      7  NH1 ARG D 557     -27.509  -2.181 -16.295  1.00 35.49    -0.235 N 
ATOM      8  NH2 ARG D 557     -29.092  -3.111 -17.632  1.00 35.49    -0.235 N 
ATOM      9  HH  ARG D 557     -27.177  -1.511 -15.877  1.00 35.49     0.174 HD
ATOM     10  HH  ARG D 557     -27.125  -2.945 -16.254  1.00 35.49     0.174 HD
ATOM     11  HH  ARG D 557     -29.810  -3.012 -18.082  1.00 35.49     0.174 HD
ATOM     12  HH  ARG D 557     -28.697  -3.859 -17.578  1.00 35.49     0.174 HD
ATOM     13  HE  ARG D 557     -29.928  -0.943 -17.667  1.00 35.49     0.178 HD
ENDBRANCH   4   5
ENDBRANCH   3   4
ENDBRANCH   2   3
ENDBRANCH   1   2
END_RES ARG D 557
BEGIN_RES GLU D 570
REMARK  3 active torsions:
REMARK  status: ('A' for Active; 'I' for Inactive)
REMARK    5  A    between atoms: CA   and  CB  
REMARK    6  A    between atoms: CB   and  CG  
REMARK    7  A    between atoms: CG   and  CD  
ROOT
ATOM     14  CA  GLU D 570     -18.033  -6.348 -13.375  1.00 32.92     0.160 C 
ENDROOT
BRANCH  14  15
ATOM     15  CB  GLU D 570     -19.500  -6.345 -13.794  1.00 32.92     0.043 C 
BRANCH  15  16
ATOM     16  CG  GLU D 570     -19.811  -5.962 -15.196  1.00 32.92     0.100 C 
BRANCH  16  17
ATOM     17  CD  GLU D 570     -21.285  -5.726 -15.429  1.00 32.92     0.185 C 
ATOM     18  OE1 GLU D 570     -21.685  -4.566 -15.644  1.00 32.92    -0.647 OA
ATOM     19  OE2 GLU D 570     -22.050  -6.709 -15.379  1.00 32.92    -0.647 OA
ENDBRANCH  16  17
ENDBRANCH  15  16
ENDBRANCH  14  15
END_RES GLU D 570
ENDMDL
MODEL 5
REMARK VINA RESULT:      -8.6      2.009      7.063
REMARK  7 active torsions:
REMARK  status: ('A' for Active; 'I' for Inactive)
REMARK    1  A    between atoms: C_4  and  N_10 
REMARK    2  A    between atoms: C_5  and  C_7 
REMARK    3  A    between atoms: C_7  and  O_9 
REMARK       I    between atoms: N_10  and  C_11 
REMARK    4  A    between atoms: C_11  and  C_13 
REMARK    5  A    between atoms: C_13  and  C_14 
REMARK    6  A    between atoms: C_14  and  C_15 
REMARK    7  A    between atoms: C_18  and  O_21 
ROOT
HETATM    1  N   UNL     1     -22.337  -4.671  -7.825  1.00  0.00    -0.326 N 
HETATM    2  C   UNL     1     -21.624  -5.586  -7.070  1.00  0.00     0.222 C 
HETATM    3  O   UNL     1     -20.643  -6.210  -7.467  1.00  0.00    -0.273 OA
HETATM    4  H   UNL     1     -23.245  -4.358  -7.477  1.00  0.00     0.169 HD
ENDROOT
BRANCH   1   5
HETATM    5  C   UNL     1     -21.977  -4.215  -9.127  1.00  0.00     0.051 A 
HETATM    6  C   UNL     1     -20.636  -4.141  -9.527  1.00  0.00     0.030 A 
HETATM    7  C   UNL     1     -20.281  -3.735 -10.817  1.00  0.00     0.002 A 
HETATM    8  C   UNL     1     -21.263  -3.377 -11.731  1.00  0.00     0.001 A 
HETATM    9  C   UNL     1     -22.603  -3.395 -11.345  1.00  0.00     0.020 A 
HETATM   10  C   UNL     1     -22.965  -3.810 -10.049  1.00  0.00     0.064 A 
BRANCH  10  11
HETATM   11  C   UNL     1     -24.394  -3.805  -9.652  1.00  0.00     0.178 C 
HETATM   12  O   UNL     1     -25.002  -2.777  -9.401  1.00  0.00    -0.646 OA
BRANCH  11  13
HETATM   13  O   UNL     1     -24.938  -5.034  -9.529  1.00  0.00    -0.773 OA
HETATM   14  H   UNL     1     -25.647  -5.108  -8.863  1.00  0.00     0.167 HD
ENDBRANCH  11  13
ENDBRANCH  10  11
ENDBRANCH   1   5
BRANCH   2  15
HETATM   15  C   UNL     1     -22.205  -5.844  -5.692  1.00  0.00     0.108 C 
BRANCH  15  16
HETATM   16  C   UNL     1     -21.073  -5.803  -4.662  1.00  0.00     0.048 C 
BRANCH  16  17
HETATM   17  C   UNL     1     -21.334  -6.613  -3.419  1.00  0.00    -0.058 A 
HETATM   18  C   UNL     1     -21.989  -6.035  -2.323  1.00  0.00     0.010 A 
HETATM   19  C   UNL     1     -22.300  -6.800  -1.197  1.00  0.00     0.037 A 
HETATM   20  C   UNL     1     -21.948  -8.144  -1.166  1.00  0.00     0.065 A 
HETATM   21  C   UNL     1     -21.285  -8.730  -2.238  1.00  0.00     0.037 A 
HETATM   22  C   UNL     1     -20.973  -7.966  -3.362  1.00  0.00     0.010 A 
BRANCH  20  23
HETATM   23  O   UNL     1     -22.245  -8.932  -0.093  1.00  0.00    -0.361 OA
HETATM   24  H   UNL     1     -22.707  -8.391   0.567  1.00  0.00     0.217 HD
ENDBRANCH  20  23
ENDBRANCH  16  17
ENDBRANCH  15  16
ENDBRANCH   2  15
TORSDOF 7
BEGIN_RES ARG D 557
REMARK  4 active torsions:
REMARK  status: ('A' for Active; 'I' for Inactive)
REMARK    1  A    between atoms: CA   and  CB  
REMARK    2  A    between atoms: CB   and  CG  
REMARK    3  A    between atoms: CG   and  CD  
REMARK    4  A    between atoms: CD   and  NE  
REMARK       I    between atoms: NE   and  CZ  
REMARK       I    between atoms: CZ   and  NH1 
REMARK       I    between atoms: CZ   and  NH2 
ROOT
ATOM      1  CA  ARG D 557     -26.217   2.705 -17.014  1.00 35.49     0.159 C 
ENDROOT
BRANCH   1   2
ATOM      2  CB  ARG D 557     -26.789   1.319 -17.183  1.00 35.49     0.034 C 
BRANCH   2   3
ATOM      3  CG  ARG D 557     -25.944   0.198 -16.753  1.00 35.49     0.027 C 
BRANCH   3   4
ATOM      4  CD  ARG D 557     -26.726  -0.890 -16.124  1.00 35.49     0.116 C 
BRANCH   4   5
ATOM      5  NE  ARG D 557     -26.042  -1.469 -14.998  1.00 35.49    -0.212 N 
ATOM      6  CZ  ARG D 557     -26.024  -2.744 -14.683  1.00 35.49     0.666 C 
ATOM      7  NH1 ARG D 557     -26.668  -3.658 -15.386  1.00 35.49    -0.235 N 
ATOM      8  NH2 ARG D 557     -25.333  -3.095 -13.637  1.00 35.49    -0.235 N 
ATOM      9  HH  ARG D 557     -27.127  -3.450 -16.079  1.00 35.49     0.174 HD
ATOM     10  HH  ARG D 557     -26.618  -4.475 -15.134  1.00 35.49     0.174 HD
ATOM     11  HH  ARG D 557     -24.922  -2.485 -13.207  1.00 35.49     0.174 HD
ATOM     12  HH  ARG D 557     -25.295  -3.909 -13.405  1.00 35.49     0.174 HD
ATOM     13  HE  ARG D 557     -25.661  -0.943 -14.449  1.00 35.49     0.178 HD
ENDBRANCH   4   5
ENDBRANCH   3   4
ENDBRANCH   2   3
ENDBRANCH   1   2
END_RES ARG D 557
BEGIN_RES GLU D 570
REMARK  3 active torsions:
REMARK  status: ('A' for Active; 'I' for Inactive)
REMARK    5  A    between atoms: CA   and  CB  
REMARK    6  A    between atoms: CB   and  CG  
REMARK    7  A    between atoms: CG   and  CD  
ROOT
ATOM     14  CA  GLU D 570     -18.033  -6.348 -13.375  1.00 32.92     0.160 C 
ENDROOT
BRANCH  14  15
ATOM     15  CB  GLU D 570     -19.500  -6.345 -13.794  1.00 32.92     0.043 C 
BRANCH  15  16
ATOM     16  CG  GLU D 570     -19.797  -6.235 -15.246  1.00 32.92     0.100 C 
BRANCH  16  17
ATOM     17  CD  GLU D 570     -21.089  -5.505 -15.529  1.00 32.92     0.185 C 
ATOM     18  OE1 GLU D 570     -21.880  -5.288 -14.591  1.00 32.92    -0.647 OA
ATOM     19  OE2 GLU D 570     -21.321  -5.162 -16.705  1.00 32.92    -0.647 OA
ENDBRANCH  16  17
ENDBRANCH  15  16
ENDBRANCH  14  15
END_RES GLU D 570
ENDMDL
MODEL 6
REMARK VINA RESULT:      -8.5      5.406      9.853
REMARK  7 active torsions:
REMARK  status: ('A' for Active; 'I' for Inactive)
REMARK    1  A    between atoms: C_4  and  N_10 
REMARK    2  A    between atoms: C_5  and  C_7 
REMARK    3  A    between atoms: C_7  and  O_9 
REMARK       I    between atoms: N_10  and  C_11 
REMARK    4  A    between atoms: C_11  and  C_13 
REMARK    5  A    between atoms: C_13  and  C_14 
REMARK    6  A    between atoms: C_14  and  C_15 
REMARK    7  A    between atoms: C_18  and  O_21 
ROOT
HETATM    1  N   UNL     1     -25.082  -6.594 -15.639  1.00  0.00    -0.326 N 
HETATM    2  C   UNL     1     -24.568  -5.559 -14.877  1.00  0.00     0.222 C 
HETATM    3  O   UNL     1     -24.852  -4.373 -15.023  1.00  0.00    -0.273 OA
HETATM    4  H   UNL     1     -24.637  -7.511 -15.573  1.00  0.00     0.169 HD
ENDROOT
BRANCH   1   5
HETATM    5  C   UNL     1     -26.109  -6.467 -16.618  1.00  0.00     0.051 A 
HETATM    6  C   UNL     1     -27.432  -6.185 -16.254  1.00  0.00     0.030 A 
HETATM    7  C   UNL     1     -28.434  -6.017 -17.215  1.00  0.00     0.002 A 
HETATM    8  C   UNL     1     -28.134  -6.146 -18.564  1.00  0.00     0.001 A 
HETATM    9  C   UNL     1     -26.836  -6.475 -18.954  1.00  0.00     0.020 A 
HETATM   10  C   UNL     1     -25.823  -6.637 -17.989  1.00  0.00     0.064 A 
BRANCH  10  11
HETATM   11  C   UNL     1     -24.453  -7.004 -18.423  1.00  0.00     0.178 C 
HETATM   12  O   UNL     1     -23.453  -6.519 -17.919  1.00  0.00    -0.646 OA
BRANCH  11  13
HETATM   13  O   UNL     1     -24.414  -7.863 -19.463  1.00  0.00    -0.773 OA
HETATM   14  H   UNL     1     -25.282  -8.187 -19.767  1.00  0.00     0.167 HD
ENDBRANCH  11  13
ENDBRANCH  10  11
ENDBRANCH   1   5
BRANCH   2  15
HETATM   15  C   UNL     1     -23.522  -5.989 -13.864  1.00  0.00     0.108 C 
BRANCH  15  16
HETATM   16  C   UNL     1     -22.663  -4.777 -13.495  1.00  0.00     0.048 C 
BRANCH  16  17
HETATM   17  C   UNL     1     -22.599  -4.488 -12.018  1.00  0.00    -0.058 A 
HETATM   18  C   UNL     1     -21.360  -4.319 -11.384  1.00  0.00     0.010 A 
HETATM   19  C   UNL     1     -21.294  -3.978 -10.031  1.00  0.00     0.037 A 
HETATM   20  C   UNL     1     -22.472  -3.813  -9.311  1.00  0.00     0.065 A 
HETATM   21  C   UNL     1     -23.709  -3.989  -9.920  1.00  0.00     0.037 A 
HETATM   22  C   UNL     1     -23.774  -4.332 -11.271  1.00  0.00     0.010 A 
BRANCH  20  23
HETATM   23  O   UNL     1     -22.455  -3.466  -7.992  1.00  0.00    -0.361 OA
HETATM   24  H   UNL     1     -23.082  -4.034  -7.516  1.00  0.00     0.217 HD
ENDBRANCH  20  23
ENDBRANCH  16  17
ENDBRANCH  15  16
ENDBRANCH   2  15
TORSDOF 7
BEGIN_RES ARG D 557
REMARK  4 active torsions:
REMARK  status: ('A' for Active; 'I' for Inactive)
REMARK    1  A    between atoms: CA   and  CB  
REMARK    2  A    between atoms: CB   and  CG  
REMARK    3  A    between atoms: CG   and  CD  
REMARK    4  A    between atoms: CD   and  NE  
REMARK       I    between atoms: NE   and  CZ  
REMARK       I    between atoms: CZ   and  NH1 
REMARK       I    between atoms: CZ   and  NH2 
ROOT
ATOM      1  CA  ARG D 557     -26.217   2.705 -17.014  1.00 35.49     0.159 C 
ENDROOT
BRANCH   1   2
ATOM      2  CB  ARG D 557     -26.789   1.319 -17.183  1.00 35.49     0.034 C 
BRANCH   2   3
ATOM      3  CG  ARG D 557     -28.234   1.225 -17.423  1.00 35.49     0.027 C 
BRANCH   3   4
ATOM      4  CD  ARG D 557     -28.890   0.237 -16.538  1.00 35.49     0.116 C 
BRANCH   4   5
ATOM      5  NE  ARG D 557     -27.981  -0.792 -16.105  1.00 35.49    -0.212 N 
ATOM      6  CZ  ARG D 557     -27.996  -2.046 -16.500  1.00 35.49     0.666 C 
ATOM      7  NH1 ARG D 557     -28.889  -2.510 -17.354  1.00 35.49    -0.235 N 
ATOM      8  NH2 ARG D 557     -27.081  -2.837 -16.019  1.00 35.49    -0.235 N 
ATOM      9  HH  ARG D 557     -29.499  -2.007 -17.684  1.00 35.49     0.174 HD
ATOM     10  HH  ARG D 557     -28.848  -3.336 -17.576  1.00 35.49     0.174 HD
ATOM     11  HH  ARG D 557     -26.513  -2.507 -15.475  1.00 35.49     0.174 HD
ATOM     12  HH  ARG D 557     -27.056  -3.651 -16.253  1.00 35.49     0.174 HD
ATOM     13  HE  ARG D 557     -27.417  -0.597 -15.499  1.00 35.49     0.178 HD
ENDBRANCH   4   5
ENDBRANCH   3   4
ENDBRANCH   2   3
ENDBRANCH   1   2
END_RES ARG D 557
BEGIN_RES GLU D 570
REMARK  3 active torsions:
REMARK  status: ('A' for Active; 'I' for Inactive)
REMARK    5  A    between atoms: CA   and  CB  
REMARK    6  A    between atoms: CB   and  CG  
REMARK    7  A    between atoms: CG   and  CD  
ROOT
ATOM     14  CA  GLU D 570     -18.033  -6.348 -13.375  1.00 32.92     0.160 C 
ENDROOT
BRANCH  14  15
ATOM     15  CB  GLU D 570     -19.500  -6.345 -13.794  1.00 32.92     0.043 C 
BRANCH  15  16
ATOM     16  CG  GLU D 570     -20.103  -7.645 -14.186  1.00 32.92     0.100 C 
BRANCH  16  17
ATOM     17  CD  GLU D 570     -20.590  -7.662 -15.616  1.00 32.92     0.185 C 
ATOM     18  OE1 GLU D 570     -20.734  -8.757 -16.193  1.00 32.92    -0.647 OA
ATOM     19  OE2 GLU D 570     -20.815  -6.568 -16.170  1.00 32.92    -0.647 OA
ENDBRANCH  16  17
ENDBRANCH  15  16
ENDBRANCH  14  15
END_RES GLU D 570
ENDMDL
MODEL 7
REMARK VINA RESULT:      -8.4      1.920      2.352
REMARK  7 active torsions:
REMARK  status: ('A' for Active; 'I' for Inactive)
REMARK    1  A    between atoms: C_4  and  N_10 
REMARK    2  A    between atoms: C_5  and  C_7 
REMARK    3  A    between atoms: C_7  and  O_9 
REMARK       I    between atoms: N_10  and  C_11 
REMARK    4  A    between atoms: C_11  and  C_13 
REMARK    5  A    between atoms: C_13  and  C_14 
REMARK    6  A    between atoms: C_14  and  C_15 
REMARK    7  A    between atoms: C_18  and  O_21 
ROOT
HETATM    1  N   UNL     1     -20.859  -6.617  -4.449  1.00  0.00    -0.326 N 
HETATM    2  C   UNL     1     -21.763  -6.142  -5.384  1.00  0.00     0.222 C 
HETATM    3  O   UNL     1     -22.981  -6.111  -5.230  1.00  0.00    -0.273 OA
HETATM    4  H   UNL     1     -19.897  -6.784  -4.747  1.00  0.00     0.169 HD
ENDROOT
BRANCH   1   5
HETATM    5  C   UNL     1     -21.182  -7.022  -3.121  1.00  0.00     0.051 A 
HETATM    6  C   UNL     1     -21.999  -6.236  -2.298  1.00  0.00     0.030 A 
HETATM    7  C   UNL     1     -22.352  -6.650  -1.010  1.00  0.00     0.002 A 
HETATM    8  C   UNL     1     -21.879  -7.857  -0.512  1.00  0.00     0.001 A 
HETATM    9  C   UNL     1     -21.025  -8.637  -1.290  1.00  0.00     0.020 A 
HETATM   10  C   UNL     1     -20.673  -8.226  -2.591  1.00  0.00     0.064 A 
BRANCH  10  11
HETATM   11  C   UNL     1     -19.749  -9.061  -3.396  1.00  0.00     0.178 C 
HETATM   12  O   UNL     1     -20.109  -9.662  -4.395  1.00  0.00    -0.646 OA
BRANCH  11  13
HETATM   13  O   UNL     1     -18.501  -9.151  -2.890  1.00  0.00    -0.773 OA
HETATM   14  H   UNL     1     -17.782  -9.014  -3.534  1.00  0.00     0.167 HD
ENDBRANCH  11  13
ENDBRANCH  10  11
ENDBRANCH   1   5
BRANCH   2  15
HETATM   15  C   UNL     1     -21.136  -5.724  -6.702  1.00  0.00     0.108 C 
BRANCH  15  16
HETATM   16  C   UNL     1     -21.708  -4.366  -7.114  1.00  0.00     0.048 C 
BRANCH  16  17
HETATM   17  C   UNL     1     -21.678  -4.103  -8.597  1.00  0.00    -0.058 A 
HETATM   18  C   UNL     1     -20.502  -4.317  -9.329  1.00  0.00     0.010 A 
HETATM   19  C   UNL     1     -20.486  -4.147 -10.715  1.00  0.00     0.037 A 
HETATM   20  C   UNL     1     -21.649  -3.755 -11.367  1.00  0.00     0.065 A 
HETATM   21  C   UNL     1     -22.821  -3.525 -10.656  1.00  0.00     0.037 A 
HETATM   22  C   UNL     1     -22.836  -3.693  -9.271  1.00  0.00     0.010 A 
BRANCH  20  23
HETATM   23  O   UNL     1     -21.683  -3.591 -12.720  1.00  0.00    -0.361 OA
HETATM   24  H   UNL     1     -20.780  -3.680 -13.064  1.00  0.00     0.217 HD
ENDBRANCH  20  23
ENDBRANCH  16  17
ENDBRANCH  15  16
ENDBRANCH   2  15
TORSDOF 7
BEGIN_RES ARG D 557
REMARK  4 active torsions:
REMARK  status: ('A' for Active; 'I' for Inactive)
REMARK    1  A    between atoms: CA   and  CB  
REMARK    2  A    between atoms: CB   and  CG  
REMARK    3  A    between atoms: CG   and  CD  
REMARK    4  A    between atoms: CD   and  NE  
REMARK       I    between atoms: NE   and  CZ  
REMARK       I    between atoms: CZ   and  NH1 
REMARK       I    between atoms: CZ   and  NH2 
ROOT
ATOM      1  CA  ARG D 557     -26.217   2.705 -17.014  1.00 35.49     0.159 C 
ENDROOT
BRANCH   1   2
ATOM      2  CB  ARG D 557     -26.789   1.319 -17.183  1.00 35.49     0.034 C 
BRANCH   2   3
ATOM      3  CG  ARG D 557     -28.149   1.099 -16.677  1.00 35.49     0.027 C 
BRANCH   3   4
ATOM      4  CD  ARG D 557     -28.787  -0.097 -17.273  1.00 35.49     0.116 C 
BRANCH   4   5
ATOM      5  NE  ARG D 557     -28.166  -1.318 -16.833  1.00 35.49    -0.212 N 
ATOM      6  CZ  ARG D 557     -28.641  -2.530 -17.015  1.00 35.49     0.666 C 
ATOM      7  NH1 ARG D 557     -29.786  -2.758 -17.631  1.00 35.49    -0.235 N 
ATOM      8  NH2 ARG D 557     -27.932  -3.526 -16.567  1.00 35.49    -0.235 N 
ATOM      9  HH  ARG D 557     -30.267  -2.118 -17.936  1.00 35.49     0.174 HD
ATOM     10  HH  ARG D 557     -30.044  -3.570 -17.723  1.00 35.49     0.174 HD
ATOM     11  HH  ARG D 557     -27.193  -3.349 -16.180  1.00 35.49     0.174 HD
ATOM     12  HH  ARG D 557     -28.204  -4.323 -16.669  1.00 35.49     0.174 HD
ATOM     13  HE  ARG D 557     -27.460  -1.260 -16.363  1.00 35.49     0.178 HD
ENDBRANCH   4   5
ENDBRANCH   3   4
ENDBRANCH   2   3
ENDBRANCH   1   2
END_RES ARG D 557
BEGIN_RES GLU D 570
REMARK  3 active torsions:
REMARK  status: ('A' for Active; 'I' for Inactive)
REMARK    5  A    between atoms: CA   and  CB  
REMARK    6  A    between atoms: CB   and  CG  
REMARK    7  A    between atoms: CG   and  CD  
ROOT
ATOM     14  CA  GLU D 570     -18.033  -6.348 -13.375  1.00 32.92     0.160 C 
ENDROOT
BRANCH  14  15
ATOM     15  CB  GLU D 570     -19.500  -6.345 -13.794  1.00 32.92     0.043 C 
BRANCH  15  16
ATOM     16  CG  GLU D 570     -19.804  -6.064 -15.221  1.00 32.92     0.100 C 
BRANCH  16  17
ATOM     17  CD  GLU D 570     -21.238  -5.646 -15.447  1.00 32.92     0.185 C 
ATOM     18  OE1 GLU D 570     -22.081  -5.871 -14.558  1.00 32.92    -0.647 OA
ATOM     19  OE2 GLU D 570     -21.525  -5.103 -16.532  1.00 32.92    -0.647 OA
ENDBRANCH  16  17
ENDBRANCH  15  16
ENDBRANCH  14  15
END_RES GLU D 570
ENDMDL
MODEL 8
REMARK VINA RESULT:      -8.3      3.550      5.156
REMARK  7 active torsions:
REMARK  status: ('A' for Active; 'I' for Inactive)
REMARK    1  A    between atoms: C_4  and  N_10 
REMARK    2  A    between atoms: C_5  and  C_7 
REMARK    3  A    between atoms: C_7  and  O_9 
REMARK       I    between atoms: N_10  and  C_11 
REMARK    4  A    between atoms: C_11  and  C_13 
REMARK    5  A    between atoms: C_13  and  C_14 
REMARK    6  A    between atoms: C_14  and  C_15 
REMARK    7  A    between atoms: C_18  and  O_21 
ROOT
HETATM    1  N   UNL     1     -21.008  -3.805  -9.432  1.00  0.00    -0.326 N 
HETATM    2  C   UNL     1     -20.484  -4.342 -10.596  1.00  0.00     0.222 C 
HETATM    3  O   UNL     1     -19.602  -5.196 -10.640  1.00  0.00    -0.273 OA
HETATM    4  H   UNL     1     -21.588  -2.968  -9.503  1.00  0.00     0.169 HD
ENDROOT
BRANCH   1   5
HETATM    5  C   UNL     1     -20.702  -4.243  -8.110  1.00  0.00     0.051 A 
HETATM    6  C   UNL     1     -19.377  -4.406  -7.685  1.00  0.00     0.030 A 
HETATM    7  C   UNL     1     -19.073  -4.795  -6.377  1.00  0.00     0.002 A 
HETATM    8  C   UNL     1     -20.093  -5.044  -5.469  1.00  0.00     0.001 A 
HETATM    9  C   UNL     1     -21.422  -4.936  -5.877  1.00  0.00     0.020 A 
HETATM   10  C   UNL     1     -21.731  -4.538  -7.193  1.00  0.00     0.064 A 
BRANCH  10  11
HETATM   11  C   UNL     1     -23.151  -4.447  -7.613  1.00  0.00     0.178 C 
HETATM   12  O   UNL     1     -23.482  -4.275  -8.775  1.00  0.00    -0.646 OA
BRANCH  11  13
HETATM   13  O   UNL     1     -24.034  -4.501  -6.594  1.00  0.00    -0.773 OA
HETATM   14  H   UNL     1     -24.967  -4.367  -6.846  1.00  0.00     0.167 HD
ENDBRANCH  11  13
ENDBRANCH  10  11
ENDBRANCH   1   5
BRANCH   2  15
HETATM   15  C   UNL     1     -21.031  -3.723 -11.869  1.00  0.00     0.108 C 
BRANCH  15  16
HETATM   16  C   UNL     1     -22.425  -4.295 -12.138  1.00  0.00     0.048 C 
BRANCH  16  17
HETATM   17  C   UNL     1     -23.279  -3.450 -13.047  1.00  0.00    -0.058 A 
HETATM   18  C   UNL     1     -24.656  -3.327 -12.810  1.00  0.00     0.010 A 
HETATM   19  C   UNL     1     -25.441  -2.487 -13.602  1.00  0.00     0.037 A 
HETATM   20  C   UNL     1     -24.847  -1.774 -14.637  1.00  0.00     0.065 A 
HETATM   21  C   UNL     1     -23.487  -1.894 -14.895  1.00  0.00     0.037 A 
HETATM   22  C   UNL     1     -22.703  -2.734 -14.105  1.00  0.00     0.010 A 
BRANCH  20  23
HETATM   23  O   UNL     1     -25.573  -0.931 -15.427  1.00  0.00    -0.361 OA
HETATM   24  H   UNL     1     -25.153  -0.891 -16.301  1.00  0.00     0.217 HD
ENDBRANCH  20  23
ENDBRANCH  16  17
ENDBRANCH  15  16
ENDBRANCH   2  15
TORSDOF 7
BEGIN_RES ARG D 557
REMARK  4 active torsions:
REMARK  status: ('A' for Active; 'I' for Inactive)
REMARK    1  A    between atoms: CA   and  CB  
REMARK    2  A    between atoms: CB   and  CG  
REMARK    3  A    between atoms: CG   and  CD  
REMARK    4  A    between atoms: CD   and  NE  
REMARK       I    between atoms: NE   and  CZ  
REMARK       I    between atoms: CZ   and  NH1 
REMARK       I    between atoms: CZ   and  NH2 
ROOT
ATOM      1  CA  ARG D 557     -26.217   2.705 -17.014  1.00 35.49     0.159 C 
ENDROOT
BRANCH   1   2
ATOM      2  CB  ARG D 557     -26.789   1.319 -17.183  1.00 35.49     0.034 C 
BRANCH   2   3
ATOM      3  CG  ARG D 557     -28.218   1.229 -17.505  1.00 35.49     0.027 C 
BRANCH   3   4
ATOM      4  CD  ARG D 557     -28.946   0.319 -16.590  1.00 35.49     0.116 C 
BRANCH   4   5
ATOM      5  NE  ARG D 557     -28.213  -0.891 -16.332  1.00 35.49    -0.212 N 
ATOM      6  CZ  ARG D 557     -28.514  -2.085 -16.792  1.00 35.49     0.666 C 
ATOM      7  NH1 ARG D 557     -29.569  -2.305 -17.555  1.00 35.49    -0.235 N 
ATOM      8  NH2 ARG D 557     -27.723  -3.068 -16.474  1.00 35.49    -0.235 N 
ATOM      9  HH  ARG D 557     -30.101  -1.673 -17.779  1.00 35.49     0.174 HD
ATOM     10  HH  ARG D 557     -29.714  -3.105 -17.828  1.00 35.49     0.174 HD
ATOM     11  HH  ARG D 557     -27.045  -2.895 -15.986  1.00 35.49     0.174 HD
ATOM     12  HH  ARG D 557     -27.883  -3.852 -16.755  1.00 35.49     0.174 HD
ATOM     13  HE  ARG D 557     -27.559  -0.854 -15.790  1.00 35.49     0.178 HD
ENDBRANCH   4   5
ENDBRANCH   3   4
ENDBRANCH   2   3
ENDBRANCH   1   2
END_RES ARG D 557
BEGIN_RES GLU D 570
REMARK  3 active torsions:
REMARK  status: ('A' for Active; 'I' for Inactive)
REMARK    5  A    between atoms: CA   and  CB  
REMARK    6  A    between atoms: CB   and  CG  
REMARK    7  A    between atoms: CG   and  CD  
ROOT
ATOM     14  CA  GLU D 570     -18.033  -6.348 -13.375  1.00 32.92     0.160 C 
ENDROOT
BRANCH  14  15
ATOM     15  CB  GLU D 570     -19.500  -6.345 -13.794  1.00 32.92     0.043 C 
BRANCH  15  16
ATOM     16  CG  GLU D 570     -19.808  -5.998 -15.206  1.00 32.92     0.100 C 
BRANCH  16  17
ATOM     17  CD  GLU D 570     -21.291  -5.895 -15.477  1.00 32.92     0.185 C 
ATOM     18  OE1 GLU D 570     -21.693  -5.102 -16.350  1.00 32.92    -0.647 OA
ATOM     19  OE2 GLU D 570     -22.060  -6.603 -14.798  1.00 32.92    -0.647 OA
ENDBRANCH  16  17
ENDBRANCH  15  16
ENDBRANCH  14  15
END_RES GLU D 570
ENDMDL
MODEL 9
REMARK VINA RESULT:      -8.2      8.222     11.038
REMARK  7 active torsions:
REMARK  status: ('A' for Active; 'I' for Inactive)
REMARK    1  A    between atoms: C_4  and  N_10 
REMARK    2  A    between atoms: C_5  and  C_7 
REMARK    3  A    between atoms: C_7  and  O_9 
REMARK       I    between atoms: N_10  and  C_11 
REMARK    4  A    between atoms: C_11  and  C_13 
REMARK    5  A    between atoms: C_13  and  C_14 
REMARK    6  A    between atoms: C_14  and  C_15 
REMARK    7  A    between atoms: C_18  and  O_21 
ROOT
HETATM    1  N   UNL     1     -25.272  -6.365 -17.037  1.00  0.00    -0.326 N 
HETATM    2  C   UNL     1     -24.642  -7.106 -16.052  1.00  0.00     0.222 C 
HETATM    3  O   UNL     1     -24.190  -8.237 -16.206  1.00  0.00    -0.273 OA
HETATM    4  H   UNL     1     -25.784  -5.526 -16.759  1.00  0.00     0.169 HD
ENDROOT
BRANCH   1   5
HETATM    5  C   UNL     1     -25.383  -6.739 -18.408  1.00  0.00     0.051 A 
HETATM    6  C   UNL     1     -24.268  -7.174 -19.137  1.00  0.00     0.030 A 
HETATM    7  C   UNL     1     -24.381  -7.582 -20.469  1.00  0.00     0.002 A 
HETATM    8  C   UNL     1     -25.615  -7.548 -21.106  1.00  0.00     0.001 A 
HETATM    9  C   UNL     1     -26.733  -7.074 -20.420  1.00  0.00     0.020 A 
HETATM   10  C   UNL     1     -26.623  -6.669 -19.076  1.00  0.00     0.064 A 
BRANCH  10  11
HETATM   11  C   UNL     1     -27.821  -6.152 -18.370  1.00  0.00     0.178 C 
HETATM   12  O   UNL     1     -28.422  -5.156 -18.740  1.00  0.00    -0.646 OA
BRANCH  11  13
HETATM   13  O   UNL     1     -28.142  -6.836 -17.252  1.00  0.00    -0.773 OA
HETATM   14  H   UNL     1     -28.097  -6.321 -16.424  1.00  0.00     0.167 HD
ENDBRANCH  11  13
ENDBRANCH  10  11
ENDBRANCH   1   5
BRANCH   2  15
HETATM   15  C   UNL     1     -24.619  -6.439 -14.688  1.00  0.00     0.108 C 
BRANCH  15  16
HETATM   16  C   UNL     1     -23.400  -5.516 -14.609  1.00  0.00     0.048 C 
BRANCH  16  17
HETATM   17  C   UNL     1     -23.733  -4.047 -14.598  1.00  0.00    -0.058 A 
HETATM   18  C   UNL     1     -22.756  -3.099 -14.932  1.00  0.00     0.010 A 
HETATM   19  C   UNL     1     -23.076  -1.741 -14.996  1.00  0.00     0.037 A 
HETATM   20  C   UNL     1     -24.375  -1.332 -14.718  1.00  0.00     0.065 A 
HETATM   21  C   UNL     1     -25.353  -2.257 -14.372  1.00  0.00     0.037 A 
HETATM   22  C   UNL     1     -25.033  -3.613 -14.306  1.00  0.00     0.010 A 
BRANCH  20  23
HETATM   23  O   UNL     1     -24.736  -0.019 -14.783  1.00  0.00    -0.361 OA
HETATM   24  H   UNL     1     -24.844   0.226 -15.716  1.00  0.00     0.217 HD
ENDBRANCH  20  23
ENDBRANCH  16  17
ENDBRANCH  15  16
ENDBRANCH   2  15
TORSDOF 7
BEGIN_RES ARG D 557
REMARK  4 active torsions:
REMARK  status: ('A' for Active; 'I' for Inactive)
REMARK    1  A    between atoms: CA   and  CB  
REMARK    2  A    between atoms: CB   and  CG  
REMARK    3  A    between atoms: CG   and  CD  
REMARK    4  A    between atoms: CD   and  NE  
REMARK       I    between atoms: NE   and  CZ  
REMARK       I    between atoms: CZ   and  NH1 
REMARK       I    between atoms: CZ   and  NH2 
ROOT
ATOM      1  CA  ARG D 557     -26.217   2.705 -17.014  1.00 35.49     0.159 C 
ENDROOT
BRANCH   1   2
ATOM      2  CB  ARG D 557     -26.789   1.319 -17.183  1.00 35.49     0.034 C 
BRANCH   2   3
ATOM      3  CG  ARG D 557     -28.221   1.228 -17.491  1.00 35.49     0.027 C 
BRANCH   3   4
ATOM      4  CD  ARG D 557     -28.933   0.289 -16.594  1.00 35.49     0.116 C 
BRANCH   4   5
ATOM      5  NE  ARG D 557     -28.195  -0.929 -16.388  1.00 35.49    -0.212 N 
ATOM      6  CZ  ARG D 557     -28.529  -2.116 -16.843  1.00 35.49     0.666 C 
ATOM      7  NH1 ARG D 557     -29.625  -2.322 -17.549  1.00 35.49    -0.235 N 
ATOM      8  NH2 ARG D 557     -27.729  -3.107 -16.577  1.00 35.49    -0.235 N 
ATOM      9  HH  ARG D 557     -30.165  -1.683 -17.738  1.00 35.49     0.174 HD
ATOM     10  HH  ARG D 557     -29.790  -3.117 -17.822  1.00 35.49     0.174 HD
ATOM     11  HH  ARG D 557     -27.024  -2.943 -16.125  1.00 35.49     0.174 HD
ATOM     12  HH  ARG D 557     -27.909  -3.887 -16.857  1.00 35.49     0.174 HD
ATOM     13  HE  ARG D 557     -27.512  -0.901 -15.881  1.00 35.49     0.178 HD
ENDBRANCH   4   5
ENDBRANCH   3   4
ENDBRANCH   2   3
ENDBRANCH   1   2
END_RES ARG D 557
BEGIN_RES GLU D 570
REMARK  3 active torsions:
REMARK  status: ('A' for Active; 'I' for Inactive)
REMARK    5  A    between atoms: CA   and  CB  
REMARK    6  A    between atoms: CB   and  CG  
REMARK    7  A    between atoms: CG   and  CD  
ROOT
ATOM     14  CA  GLU D 570     -18.033  -6.348 -13.375  1.00 32.92     0.160 C 
ENDROOT
BRANCH  14  15
ATOM     15  CB  GLU D 570     -19.500  -6.345 -13.794  1.00 32.92     0.043 C 
BRANCH  15  16
ATOM     16  CG  GLU D 570     -20.090  -7.637 -14.231  1.00 32.92     0.100 C 
BRANCH  16  17
ATOM     17  CD  GLU D 570     -20.525  -7.627 -15.677  1.00 32.92     0.185 C 
ATOM     18  OE1 GLU D 570     -20.814  -8.706 -16.230  1.00 32.92    -0.647 OA
ATOM     19  OE2 GLU D 570     -20.563  -6.530 -16.269  1.00 32.92    -0.647 OA
ENDBRANCH  16  17
ENDBRANCH  15  16
ENDBRANCH  14  15
END_RES GLU D 570
ENDMDL
