MODEL 1
REMARK VINA RESULT:      -6.7      0.000      0.000
REMARK WARNING: 32 MAX_TORS EXCEEDED!!!
REMARK  33 active torsions:
REMARK  status: ('A' for Active; 'I' for Inactive)
REMARK    1  A    between atoms: C_2  and  C_3 
REMARK    2  A    between atoms: C_3  and  C_4 
REMARK    3  A    between atoms: C_4  and  C_5 
REMARK    4  A    between atoms: C_5  and  C_6 
REMARK    5  A    between atoms: C_6  and  C_7 
REMARK    6  A    between atoms: C_7  and  C_8 
REMARK    7  A    between atoms: C_8  and  C_9 
REMARK    8  A    between atoms: C_9  and  C_10 
REMARK    9  A    between atoms: C_10  and  C_11 
REMARK   10  A    between atoms: C_11  and  C_12 
REMARK   11  A    between atoms: C_12  and  C_13 
REMARK   12  A    between atoms: C_13  and  C_14 
REMARK   13  A    between atoms: C_14  and  C_15 
REMARK   14  A    between atoms: C_15  and  C_16 
REMARK   15  A    between atoms: C_16  and  O_18 
REMARK   16  A    between atoms: C_20  and  C_21 
REMARK   17  A    between atoms: C_20  and  O_53 
REMARK   18  A    between atoms: C_22  and  O_52 
REMARK   19  A    between atoms: C_23  and  O_51 
REMARK   20  A    between atoms: C_24  and  O_50 
REMARK   21  A    between atoms: C_25  and  O_27 
REMARK   22  A    between atoms: O_27  and  C_28 
REMARK   23  A    between atoms: C_29  and  C_48 
REMARK   24  A    between atoms: C_31  and  O_36 
REMARK   25  A    between atoms: C_32  and  O_35 
REMARK   26  A    between atoms: C_33  and  O_34 
REMARK   27  A    between atoms: O_36  and  C_37 
REMARK   28  A    between atoms: C_38  and  C_46 
REMARK   29  A    between atoms: C_40  and  O_45 
REMARK   30  A    between atoms: C_41  and  O_44 
REMARK   31  A    between atoms: C_42  and  O_43 
REMARK   32  A    between atoms: C_46  and  O_47 
REMARK   33  A    between atoms: C_48  and  O_49 
ROOT
HETATM    1  C   UNL     1     -19.664  -5.408  -6.904  1.00  0.00     0.000 C 
ENDROOT
BRANCH   1   2
HETATM    2  C   UNL     1     -20.781  -6.418  -6.672  1.00  0.00     0.000 C 
BRANCH   2   3
HETATM    3  C   UNL     1     -21.998  -5.758  -6.031  1.00  0.00     0.000 C 
BRANCH   3   4
HETATM    4  C   UNL     1     -22.472  -6.514  -4.797  1.00  0.00     0.000 C 
BRANCH   4   5
HETATM    5  C   UNL     1     -21.492  -7.620  -4.447  1.00  0.00     0.000 C 
BRANCH   5   6
HETATM    6  C   UNL     1     -21.072  -7.477  -2.996  1.00  0.00     0.000 C 
BRANCH   6   7
HETATM    7  C   UNL     1     -21.802  -6.318  -2.332  1.00  0.00     0.000 C 
BRANCH   7   8
HETATM    8  C   UNL     1     -22.337  -6.683  -0.948  1.00  0.00    -0.000 C 
BRANCH   8   9
HETATM    9  C   UNL     1     -22.082  -8.142  -0.559  1.00  0.00    -0.005 C 
HETATM   10  C   UNL     1     -23.193  -8.728   0.309  1.00  0.00     0.005 C 
ENDBRANCH   8   9
ENDBRANCH   7   8
ENDBRANCH   6   7
ENDBRANCH   5   6
ENDBRANCH   4   5
ENDBRANCH   3   4
ENDBRANCH   2   3
ENDBRANCH   1   2
BRANCH   1  11
HETATM   11  C   UNL     1     -20.191  -4.079  -7.421  1.00  0.00     0.000 C 
BRANCH  11  12
HETATM   12  C   UNL     1     -19.982  -3.949  -8.933  1.00  0.00     0.000 C 
BRANCH  12  13
HETATM   13  C   UNL     1     -21.222  -4.270  -9.779  1.00  0.00     0.001 C 
BRANCH  13  14
HETATM   14  C   UNL     1     -22.519  -3.827  -9.105  1.00  0.00     0.010 C 
BRANCH  14  15
HETATM   15  C   UNL     1     -23.736  -4.468  -9.753  1.00  0.00     0.110 C 
BRANCH  15  16
HETATM   16  C   UNL     1     -24.654  -3.429 -10.334  1.00  0.00     0.139 C 
HETATM   17  O   UNL     1     -25.750  -3.138  -9.855  1.00  0.00    -0.650 OA
BRANCH  16  18
HETATM   18  O   UNL     1     -24.173  -2.819 -11.442  1.00  0.00    -0.776 OA
HETATM   19  H   UNL     1     -23.920  -3.442 -12.148  1.00  0.00     0.167 HD
ENDBRANCH  16  18
ENDBRANCH  15  16
ENDBRANCH  14  15
ENDBRANCH  13  14
ENDBRANCH  12  13
ENDBRANCH  11  12
ENDBRANCH   1  11
TORSDOF 33
BEGIN_RES ARG D 557
REMARK  4 active torsions:
REMARK  status: ('A' for Active; 'I' for Inactive)
REMARK    1  A    between atoms: CA   and  CB  
REMARK    2  A    between atoms: CB   and  CG  
REMARK    3  A    between atoms: CG   and  CD  
REMARK    4  A    between atoms: CD   and  NE  
REMARK       I    between atoms: NE   and  CZ  
REMARK       I    between atoms: CZ   and  NH1 
REMARK       I    between atoms: CZ   and  NH2 
ROOT
ATOM      1  CA  ARG D 557     -26.217   2.705 -17.014  1.00 35.49     0.159 C 
ENDROOT
BRANCH   1   2
ATOM      2  CB  ARG D 557     -26.789   1.319 -17.183  1.00 35.49     0.034 C 
BRANCH   2   3
ATOM      3  CG  ARG D 557     -25.944   0.198 -16.753  1.00 35.49     0.027 C 
BRANCH   3   4
ATOM      4  CD  ARG D 557     -26.718  -0.862 -16.069  1.00 35.49     0.116 C 
BRANCH   4   5
ATOM      5  NE  ARG D 557     -25.911  -1.611 -15.142  1.00 35.49    -0.212 N 
ATOM      6  CZ  ARG D 557     -26.015  -2.898 -14.898  1.00 35.49     0.666 C 
ATOM      7  NH1 ARG D 557     -26.914  -3.662 -15.492  1.00 35.49    -0.235 N 
ATOM      8  NH2 ARG D 557     -25.184  -3.416 -14.041  1.00 35.49    -0.235 N 
ATOM      9  HH  ARG D 557     -27.469  -3.343 -16.061  1.00 35.49     0.174 HD
ATOM     10  HH  ARG D 557     -26.933  -4.496 -15.295  1.00 35.49     0.174 HD
ATOM     11  HH  ARG D 557     -24.610  -2.900 -13.679  1.00 35.49     0.174 HD
ATOM     12  HH  ARG D 557     -25.218  -4.244 -13.861  1.00 35.49     0.174 HD
ATOM     13  HE  ARG D 557     -25.354  -1.184 -14.662  1.00 35.49     0.178 HD
ENDBRANCH   4   5
ENDBRANCH   3   4
ENDBRANCH   2   3
ENDBRANCH   1   2
END_RES ARG D 557
BEGIN_RES GLU D 570
REMARK  3 active torsions:
REMARK  status: ('A' for Active; 'I' for Inactive)
REMARK    5  A    between atoms: CA   and  CB  
REMARK    6  A    between atoms: CB   and  CG  
REMARK    7  A    between atoms: CG   and  CD  
ROOT
ATOM     14  CA  GLU D 570     -18.033  -6.348 -13.375  1.00 32.92     0.160 C 
ENDROOT
BRANCH  14  15
ATOM     15  CB  GLU D 570     -19.500  -6.345 -13.794  1.00 32.92     0.043 C 
BRANCH  15  16
ATOM     16  CG  GLU D 570     -20.448  -5.558 -12.963  1.00 32.92     0.100 C 
BRANCH  16  17
ATOM     17  CD  GLU D 570     -21.736  -5.236 -13.684  1.00 32.92     0.185 C 
ATOM     18  OE1 GLU D 570     -22.415  -4.262 -13.305  1.00 32.92    -0.647 OA
ATOM     19  OE2 GLU D 570     -22.079  -5.975 -14.628  1.00 32.92    -0.647 OA
ENDBRANCH  16  17
ENDBRANCH  15  16
ENDBRANCH  14  15
END_RES GLU D 570
ENDMDL
MODEL 2
REMARK VINA RESULT:      -6.7      1.021      1.658
REMARK WARNING: 32 MAX_TORS EXCEEDED!!!
REMARK  33 active torsions:
REMARK  status: ('A' for Active; 'I' for Inactive)
REMARK    1  A    between atoms: C_2  and  C_3 
REMARK    2  A    between atoms: C_3  and  C_4 
REMARK    3  A    between atoms: C_4  and  C_5 
REMARK    4  A    between atoms: C_5  and  C_6 
REMARK    5  A    between atoms: C_6  and  C_7 
REMARK    6  A    between atoms: C_7  and  C_8 
REMARK    7  A    between atoms: C_8  and  C_9 
REMARK    8  A    between atoms: C_9  and  C_10 
REMARK    9  A    between atoms: C_10  and  C_11 
REMARK   10  A    between atoms: C_11  and  C_12 
REMARK   11  A    between atoms: C_12  and  C_13 
REMARK   12  A    between atoms: C_13  and  C_14 
REMARK   13  A    between atoms: C_14  and  C_15 
REMARK   14  A    between atoms: C_15  and  C_16 
REMARK   15  A    between atoms: C_16  and  O_18 
REMARK   16  A    between atoms: C_20  and  C_21 
REMARK   17  A    between atoms: C_20  and  O_53 
REMARK   18  A    between atoms: C_22  and  O_52 
REMARK   19  A    between atoms: C_23  and  O_51 
REMARK   20  A    between atoms: C_24  and  O_50 
REMARK   21  A    between atoms: C_25  and  O_27 
REMARK   22  A    between atoms: O_27  and  C_28 
REMARK   23  A    between atoms: C_29  and  C_48 
REMARK   24  A    between atoms: C_31  and  O_36 
REMARK   25  A    between atoms: C_32  and  O_35 
REMARK   26  A    between atoms: C_33  and  O_34 
REMARK   27  A    between atoms: O_36  and  C_37 
REMARK   28  A    between atoms: C_38  and  C_46 
REMARK   29  A    between atoms: C_40  and  O_45 
REMARK   30  A    between atoms: C_41  and  O_44 
REMARK   31  A    between atoms: C_42  and  O_43 
REMARK   32  A    between atoms: C_46  and  O_47 
REMARK   33  A    between atoms: C_48  and  O_49 
ROOT
HETATM    1  C   UNL     1     -20.436  -4.952  -5.654  1.00  0.00     0.000 C 
ENDROOT
BRANCH   1   2
HETATM    2  C   UNL     1     -21.643  -5.875  -5.774  1.00  0.00     0.000 C 
BRANCH   2   3
HETATM    3  C   UNL     1     -21.653  -6.917  -4.660  1.00  0.00     0.000 C 
BRANCH   3   4
HETATM    4  C   UNL     1     -21.555  -6.278  -3.281  1.00  0.00     0.000 C 
BRANCH   4   5
HETATM    5  C   UNL     1     -21.585  -7.346  -2.202  1.00  0.00     0.000 C 
BRANCH   5   6
HETATM    6  C   UNL     1     -22.271  -6.791  -0.967  1.00  0.00     0.000 C 
BRANCH   6   7
HETATM    7  C   UNL     1     -22.166  -7.769   0.196  1.00  0.00     0.000 C 
BRANCH   7   8
HETATM    8  C   UNL     1     -23.333  -8.754   0.234  1.00  0.00    -0.000 C 
BRANCH   8   9
HETATM    9  C   UNL     1     -22.959 -10.164  -0.231  1.00  0.00    -0.005 C 
HETATM   10  C   UNL     1     -21.601 -10.622   0.293  1.00  0.00     0.005 C 
ENDBRANCH   8   9
ENDBRANCH   7   8
ENDBRANCH   6   7
ENDBRANCH   5   6
ENDBRANCH   4   5
ENDBRANCH   3   4
ENDBRANCH   2   3
ENDBRANCH   1   2
BRANCH   1  11
HETATM   11  C   UNL     1     -19.862  -4.578  -7.012  1.00  0.00     0.000 C 
BRANCH  11  12
HETATM   12  C   UNL     1     -20.923  -3.919  -7.900  1.00  0.00     0.000 C 
BRANCH  12  13
HETATM   13  C   UNL     1     -20.888  -4.360  -9.370  1.00  0.00     0.001 C 
BRANCH  13  14
HETATM   14  C   UNL     1     -22.059  -3.801 -10.174  1.00  0.00     0.010 C 
BRANCH  14  15
HETATM   15  C   UNL     1     -23.340  -3.772  -9.356  1.00  0.00     0.110 C 
BRANCH  15  16
HETATM   16  C   UNL     1     -24.543  -3.564 -10.233  1.00  0.00     0.139 C 
HETATM   17  O   UNL     1     -25.610  -3.098  -9.834  1.00  0.00    -0.650 OA
BRANCH  16  18
HETATM   18  O   UNL     1     -24.359  -3.928 -11.524  1.00  0.00    -0.776 OA
HETATM   19  H   UNL     1     -23.814  -4.731 -11.625  1.00  0.00     0.167 HD
ENDBRANCH  16  18
ENDBRANCH  15  16
ENDBRANCH  14  15
ENDBRANCH  13  14
ENDBRANCH  12  13
ENDBRANCH  11  12
ENDBRANCH   1  11
TORSDOF 33
BEGIN_RES ARG D 557
REMARK  4 active torsions:
REMARK  status: ('A' for Active; 'I' for Inactive)
REMARK    1  A    between atoms: CA   and  CB  
REMARK    2  A    between atoms: CB   and  CG  
REMARK    3  A    between atoms: CG   and  CD  
REMARK    4  A    between atoms: CD   and  NE  
REMARK       I    between atoms: NE   and  CZ  
REMARK       I    between atoms: CZ   and  NH1 
REMARK       I    between atoms: CZ   and  NH2 
ROOT
ATOM      1  CA  ARG D 557     -26.217   2.705 -17.014  1.00 35.49     0.159 C 
ENDROOT
BRANCH   1   2
ATOM      2  CB  ARG D 557     -26.789   1.319 -17.183  1.00 35.49     0.034 C 
BRANCH   2   3
ATOM      3  CG  ARG D 557     -25.854   0.196 -17.039  1.00 35.49     0.027 C 
BRANCH   3   4
ATOM      4  CD  ARG D 557     -26.218  -0.701 -15.919  1.00 35.49     0.116 C 
BRANCH   4   5
ATOM      5  NE  ARG D 557     -25.171  -0.792 -14.936  1.00 35.49    -0.212 N 
ATOM      6  CZ  ARG D 557     -24.776  -1.892 -14.334  1.00 35.49     0.666 C 
ATOM      7  NH1 ARG D 557     -25.330  -3.067 -14.569  1.00 35.49    -0.235 N 
ATOM      8  NH2 ARG D 557     -23.795  -1.792 -13.484  1.00 35.49    -0.235 N 
ATOM      9  HH  ARG D 557     -25.975  -3.156 -15.126  1.00 35.49     0.174 HD
ATOM     10  HH  ARG D 557     -25.029  -3.750 -14.148  1.00 35.49     0.174 HD
ATOM     11  HH  ARG D 557     -23.452  -1.022 -13.358  1.00 35.49     0.174 HD
ATOM     12  HH  ARG D 557     -23.510  -2.480 -13.079  1.00 35.49     0.174 HD
ATOM     13  HE  ARG D 557     -24.808  -0.070 -14.670  1.00 35.49     0.178 HD
ENDBRANCH   4   5
ENDBRANCH   3   4
ENDBRANCH   2   3
ENDBRANCH   1   2
END_RES ARG D 557
BEGIN_RES GLU D 570
REMARK  3 active torsions:
REMARK  status: ('A' for Active; 'I' for Inactive)
REMARK    5  A    between atoms: CA   and  CB  
REMARK    6  A    between atoms: CB   and  CG  
REMARK    7  A    between atoms: CG   and  CD  
ROOT
ATOM     14  CA  GLU D 570     -18.033  -6.348 -13.375  1.00 32.92     0.160 C 
ENDROOT
BRANCH  14  15
ATOM     15  CB  GLU D 570     -19.500  -6.345 -13.794  1.00 32.92     0.043 C 
BRANCH  15  16
ATOM     16  CG  GLU D 570     -20.435  -5.501 -13.006  1.00 32.92     0.100 C 
BRANCH  16  17
ATOM     17  CD  GLU D 570     -21.755  -5.272 -13.706  1.00 32.92     0.185 C 
ATOM     18  OE1 GLU D 570     -22.268  -6.207 -14.350  1.00 32.92    -0.647 OA
ATOM     19  OE2 GLU D 570     -22.272  -4.141 -13.622  1.00 32.92    -0.647 OA
ENDBRANCH  16  17
ENDBRANCH  15  16
ENDBRANCH  14  15
END_RES GLU D 570
ENDMDL
MODEL 3
REMARK VINA RESULT:      -6.4      7.754     12.027
REMARK WARNING: 32 MAX_TORS EXCEEDED!!!
REMARK  33 active torsions:
REMARK  status: ('A' for Active; 'I' for Inactive)
REMARK    1  A    between atoms: C_2  and  C_3 
REMARK    2  A    between atoms: C_3  and  C_4 
REMARK    3  A    between atoms: C_4  and  C_5 
REMARK    4  A    between atoms: C_5  and  C_6 
REMARK    5  A    between atoms: C_6  and  C_7 
REMARK    6  A    between atoms: C_7  and  C_8 
REMARK    7  A    between atoms: C_8  and  C_9 
REMARK    8  A    between atoms: C_9  and  C_10 
REMARK    9  A    between atoms: C_10  and  C_11 
REMARK   10  A    between atoms: C_11  and  C_12 
REMARK   11  A    between atoms: C_12  and  C_13 
REMARK   12  A    between atoms: C_13  and  C_14 
REMARK   13  A    between atoms: C_14  and  C_15 
REMARK   14  A    between atoms: C_15  and  C_16 
REMARK   15  A    between atoms: C_16  and  O_18 
REMARK   16  A    between atoms: C_20  and  C_21 
REMARK   17  A    between atoms: C_20  and  O_53 
REMARK   18  A    between atoms: C_22  and  O_52 
REMARK   19  A    between atoms: C_23  and  O_51 
REMARK   20  A    between atoms: C_24  and  O_50 
REMARK   21  A    between atoms: C_25  and  O_27 
REMARK   22  A    between atoms: O_27  and  C_28 
REMARK   23  A    between atoms: C_29  and  C_48 
REMARK   24  A    between atoms: C_31  and  O_36 
REMARK   25  A    between atoms: C_32  and  O_35 
REMARK   26  A    between atoms: C_33  and  O_34 
REMARK   27  A    between atoms: O_36  and  C_37 
REMARK   28  A    between atoms: C_38  and  C_46 
REMARK   29  A    between atoms: C_40  and  O_45 
REMARK   30  A    between atoms: C_41  and  O_44 
REMARK   31  A    between atoms: C_42  and  O_43 
REMARK   32  A    between atoms: C_46  and  O_47 
REMARK   33  A    between atoms: C_48  and  O_49 
ROOT
HETATM    1  C   UNL     1     -34.663  -0.611 -12.293  1.00  0.00     0.000 C 
ENDROOT
BRANCH   1   2
HETATM    2  C   UNL     1     -35.681  -1.571 -11.690  1.00  0.00     0.000 C 
BRANCH   2   3
HETATM    3  C   UNL     1     -34.995  -2.652 -10.859  1.00  0.00     0.000 C 
BRANCH   3   4
HETATM    4  C   UNL     1     -33.480  -2.492 -10.855  1.00  0.00     0.000 C 
BRANCH   4   5
HETATM    5  C   UNL     1     -32.828  -3.630 -11.620  1.00  0.00     0.000 C 
BRANCH   5   6
HETATM    6  C   UNL     1     -33.852  -4.726 -11.857  1.00  0.00     0.000 C 
BRANCH   6   7
HETATM    7  C   UNL     1     -33.546  -5.947 -11.001  1.00  0.00     0.000 C 
BRANCH   7   8
HETATM    8  C   UNL     1     -34.644  -6.231  -9.978  1.00  0.00    -0.000 C 
BRANCH   8   9
HETATM    9  C   UNL     1     -35.022  -7.712  -9.881  1.00  0.00    -0.005 C 
HETATM   10  C   UNL     1     -33.810  -8.639  -9.922  1.00  0.00     0.005 C 
ENDBRANCH   8   9
ENDBRANCH   7   8
ENDBRANCH   6   7
ENDBRANCH   5   6
ENDBRANCH   4   5
ENDBRANCH   3   4
ENDBRANCH   2   3
ENDBRANCH   1   2
BRANCH   1  11
HETATM   11  C   UNL     1     -35.318   0.639 -12.859  1.00  0.00     0.000 C 
BRANCH  11  12
HETATM   12  C   UNL     1     -34.741   0.995 -14.232  1.00  0.00     0.000 C 
BRANCH  12  13
HETATM   13  C   UNL     1     -35.774   1.036 -15.368  1.00  0.00     0.001 C 
BRANCH  13  14
HETATM   14  C   UNL     1     -36.455  -0.313 -15.585  1.00  0.00     0.010 C 
BRANCH  14  15
HETATM   15  C   UNL     1     -35.936  -1.010 -16.833  1.00  0.00     0.110 C 
BRANCH  15  16
HETATM   16  C   UNL     1     -34.876  -2.019 -16.492  1.00  0.00     0.139 C 
HETATM   17  O   UNL     1     -34.028  -2.419 -17.290  1.00  0.00    -0.650 OA
BRANCH  16  18
HETATM   18  O   UNL     1     -34.919  -2.461 -15.213  1.00  0.00    -0.776 OA
HETATM   19  H   UNL     1     -34.329  -1.969 -14.614  1.00  0.00     0.167 HD
ENDBRANCH  16  18
ENDBRANCH  15  16
ENDBRANCH  14  15
ENDBRANCH  13  14
ENDBRANCH  12  13
ENDBRANCH  11  12
ENDBRANCH   1  11
TORSDOF 33
BEGIN_RES ARG D 557
REMARK  4 active torsions:
REMARK  status: ('A' for Active; 'I' for Inactive)
REMARK    1  A    between atoms: CA   and  CB  
REMARK    2  A    between atoms: CB   and  CG  
REMARK    3  A    between atoms: CG   and  CD  
REMARK    4  A    between atoms: CD   and  NE  
REMARK       I    between atoms: NE   and  CZ  
REMARK       I    between atoms: CZ   and  NH1 
REMARK       I    between atoms: CZ   and  NH2 
ROOT
ATOM      1  CA  ARG D 557     -26.217   2.705 -17.014  1.00 35.49     0.159 C 
ENDROOT
BRANCH   1   2
ATOM      2  CB  ARG D 557     -26.789   1.319 -17.183  1.00 35.49     0.034 C 
BRANCH   2   3
ATOM      3  CG  ARG D 557     -28.217   1.229 -17.509  1.00 35.49     0.027 C 
BRANCH   3   4
ATOM      4  CD  ARG D 557     -28.953   0.341 -16.581  1.00 35.49     0.116 C 
BRANCH   4   5
ATOM      5  NE  ARG D 557     -29.283  -0.923 -17.186  1.00 35.49    -0.212 N 
ATOM      6  CZ  ARG D 557     -28.619  -2.046 -17.030  1.00 35.49     0.666 C 
ATOM      7  NH1 ARG D 557     -27.533  -2.130 -16.285  1.00 35.49    -0.235 N 
ATOM      8  NH2 ARG D 557     -29.075  -3.102 -17.638  1.00 35.49    -0.235 N 
ATOM      9  HH  ARG D 557     -27.216  -1.448 -15.873  1.00 35.49     0.174 HD
ATOM     10  HH  ARG D 557     -27.143  -2.890 -16.217  1.00 35.49     0.174 HD
ATOM     11  HH  ARG D 557     -29.783  -3.020 -18.107  1.00 35.49     0.174 HD
ATOM     12  HH  ARG D 557     -28.675  -3.846 -17.558  1.00 35.49     0.174 HD
ATOM     13  HE  ARG D 557     -29.928  -0.944 -17.741  1.00 35.49     0.178 HD
ENDBRANCH   4   5
ENDBRANCH   3   4
ENDBRANCH   2   3
ENDBRANCH   1   2
END_RES ARG D 557
BEGIN_RES GLU D 570
REMARK  3 active torsions:
REMARK  status: ('A' for Active; 'I' for Inactive)
REMARK    5  A    between atoms: CA   and  CB  
REMARK    6  A    between atoms: CB   and  CG  
REMARK    7  A    between atoms: CG   and  CD  
ROOT
ATOM     14  CA  GLU D 570     -18.033  -6.348 -13.375  1.00 32.92     0.160 C 
ENDROOT
BRANCH  14  15
ATOM     15  CB  GLU D 570     -19.500  -6.345 -13.794  1.00 32.92     0.043 C 
BRANCH  15  16
ATOM     16  CG  GLU D 570     -20.438  -5.514 -12.996  1.00 32.92     0.100 C 
BRANCH  16  17
ATOM     17  CD  GLU D 570     -21.733  -5.227 -13.720  1.00 32.92     0.185 C 
ATOM     18  OE1 GLU D 570     -22.219  -6.102 -14.461  1.00 32.92    -0.647 OA
ATOM     19  OE2 GLU D 570     -22.258  -4.108 -13.556  1.00 32.92    -0.647 OA
ENDBRANCH  16  17
ENDBRANCH  15  16
ENDBRANCH  14  15
END_RES GLU D 570
ENDMDL
MODEL 4
REMARK VINA RESULT:      -6.4      2.069      3.636
REMARK WARNING: 32 MAX_TORS EXCEEDED!!!
REMARK  33 active torsions:
REMARK  status: ('A' for Active; 'I' for Inactive)
REMARK    1  A    between atoms: C_2  and  C_3 
REMARK    2  A    between atoms: C_3  and  C_4 
REMARK    3  A    between atoms: C_4  and  C_5 
REMARK    4  A    between atoms: C_5  and  C_6 
REMARK    5  A    between atoms: C_6  and  C_7 
REMARK    6  A    between atoms: C_7  and  C_8 
REMARK    7  A    between atoms: C_8  and  C_9 
REMARK    8  A    between atoms: C_9  and  C_10 
REMARK    9  A    between atoms: C_10  and  C_11 
REMARK   10  A    between atoms: C_11  and  C_12 
REMARK   11  A    between atoms: C_12  and  C_13 
REMARK   12  A    between atoms: C_13  and  C_14 
REMARK   13  A    between atoms: C_14  and  C_15 
REMARK   14  A    between atoms: C_15  and  C_16 
REMARK   15  A    between atoms: C_16  and  O_18 
REMARK   16  A    between atoms: C_20  and  C_21 
REMARK   17  A    between atoms: C_20  and  O_53 
REMARK   18  A    between atoms: C_22  and  O_52 
REMARK   19  A    between atoms: C_23  and  O_51 
REMARK   20  A    between atoms: C_24  and  O_50 
REMARK   21  A    between atoms: C_25  and  O_27 
REMARK   22  A    between atoms: O_27  and  C_28 
REMARK   23  A    between atoms: C_29  and  C_48 
REMARK   24  A    between atoms: C_31  and  O_36 
REMARK   25  A    between atoms: C_32  and  O_35 
REMARK   26  A    between atoms: C_33  and  O_34 
REMARK   27  A    between atoms: O_36  and  C_37 
REMARK   28  A    between atoms: C_38  and  C_46 
REMARK   29  A    between atoms: C_40  and  O_45 
REMARK   30  A    between atoms: C_41  and  O_44 
REMARK   31  A    between atoms: C_42  and  O_43 
REMARK   32  A    between atoms: C_46  and  O_47 
REMARK   33  A    between atoms: C_48  and  O_49 
ROOT
HETATM    1  C   UNL     1     -23.281  -4.434  -8.937  1.00  0.00     0.000 C 
ENDROOT
BRANCH   1   2
HETATM    2  C   UNL     1     -21.811  -4.754  -9.177  1.00  0.00     0.000 C 
BRANCH   2   3
HETATM    3  C   UNL     1     -20.905  -3.721  -8.512  1.00  0.00     0.000 C 
BRANCH   3   4
HETATM    4  C   UNL     1     -20.786  -3.951  -7.011  1.00  0.00     0.000 C 
BRANCH   4   5
HETATM    5  C   UNL     1     -19.659  -4.924  -6.715  1.00  0.00     0.000 C 
BRANCH   5   6
HETATM    6  C   UNL     1     -20.191  -6.061  -5.860  1.00  0.00     0.000 C 
BRANCH   6   7
HETATM    7  C   UNL     1     -21.680  -5.888  -5.594  1.00  0.00     0.000 C 
BRANCH   7   8
HETATM    8  C   UNL     1     -22.134  -6.618  -4.331  1.00  0.00    -0.000 C 
BRANCH   8   9
HETATM    9  C   UNL     1     -21.400  -6.166  -3.066  1.00  0.00    -0.005 C 
HETATM   10  C   UNL     1     -22.241  -6.327  -1.802  1.00  0.00     0.005 C 
ENDBRANCH   8   9
ENDBRANCH   7   8
ENDBRANCH   6   7
ENDBRANCH   5   6
ENDBRANCH   4   5
ENDBRANCH   3   4
ENDBRANCH   2   3
ENDBRANCH   1   2
BRANCH   1  11
HETATM   11  C   UNL     1     -24.112  -4.567 -10.203  1.00  0.00     0.000 C 
BRANCH  11  12
HETATM   12  C   UNL     1     -24.308  -3.209 -10.884  1.00  0.00     0.000 C 
BRANCH  12  13
HETATM   13  C   UNL     1     -23.148  -2.778 -11.793  1.00  0.00     0.001 C 
BRANCH  13  14
HETATM   14  C   UNL     1     -22.916  -3.752 -12.945  1.00  0.00     0.010 C 
BRANCH  14  15
HETATM   15  C   UNL     1     -24.031  -3.681 -13.975  1.00  0.00     0.110 C 
BRANCH  15  16
HETATM   16  C   UNL     1     -24.034  -2.356 -14.684  1.00  0.00     0.139 C 
HETATM   17  O   UNL     1     -24.953  -1.540 -14.610  1.00  0.00    -0.650 OA
BRANCH  16  18
HETATM   18  O   UNL     1     -22.923  -2.117 -15.420  1.00  0.00    -0.776 OA
HETATM   19  H   UNL     1     -23.071  -2.197 -16.381  1.00  0.00     0.167 HD
ENDBRANCH  16  18
ENDBRANCH  15  16
ENDBRANCH  14  15
ENDBRANCH  13  14
ENDBRANCH  12  13
ENDBRANCH  11  12
ENDBRANCH   1  11
TORSDOF 33
BEGIN_RES ARG D 557
REMARK  4 active torsions:
REMARK  status: ('A' for Active; 'I' for Inactive)
REMARK    1  A    between atoms: CA   and  CB  
REMARK    2  A    between atoms: CB   and  CG  
REMARK    3  A    between atoms: CG   and  CD  
REMARK    4  A    between atoms: CD   and  NE  
REMARK       I    between atoms: NE   and  CZ  
REMARK       I    between atoms: CZ   and  NH1 
REMARK       I    between atoms: CZ   and  NH2 
ROOT
ATOM      1  CA  ARG D 557     -26.217   2.705 -17.014  1.00 35.49     0.159 C 
ENDROOT
BRANCH   1   2
ATOM      2  CB  ARG D 557     -26.789   1.319 -17.183  1.00 35.49     0.034 C 
BRANCH   2   3
ATOM      3  CG  ARG D 557     -28.233   1.226 -17.431  1.00 35.49     0.027 C 
BRANCH   3   4
ATOM      4  CD  ARG D 557     -28.908   0.299 -16.493  1.00 35.49     0.116 C 
BRANCH   4   5
ATOM      5  NE  ARG D 557     -29.269  -0.943 -17.124  1.00 35.49    -0.212 N 
ATOM      6  CZ  ARG D 557     -28.625  -2.082 -17.004  1.00 35.49     0.666 C 
ATOM      7  NH1 ARG D 557     -27.530  -2.204 -16.276  1.00 35.49    -0.235 N 
ATOM      8  NH2 ARG D 557     -29.108  -3.114 -17.632  1.00 35.49    -0.235 N 
ATOM      9  HH  ARG D 557     -27.196  -1.538 -15.853  1.00 35.49     0.174 HD
ATOM     10  HH  ARG D 557     -27.154  -2.972 -16.233  1.00 35.49     0.174 HD
ATOM     11  HH  ARG D 557     -29.821  -3.007 -18.089  1.00 35.49     0.174 HD
ATOM     12  HH  ARG D 557     -28.722  -3.867 -17.575  1.00 35.49     0.174 HD
ATOM     13  HE  ARG D 557     -29.921  -0.938 -17.670  1.00 35.49     0.178 HD
ENDBRANCH   4   5
ENDBRANCH   3   4
ENDBRANCH   2   3
ENDBRANCH   1   2
END_RES ARG D 557
BEGIN_RES GLU D 570
REMARK  3 active torsions:
REMARK  status: ('A' for Active; 'I' for Inactive)
REMARK    5  A    between atoms: CA   and  CB  
REMARK    6  A    between atoms: CB   and  CG  
REMARK    7  A    between atoms: CG   and  CD  
ROOT
ATOM     14  CA  GLU D 570     -18.033  -6.348 -13.375  1.00 32.92     0.160 C 
ENDROOT
BRANCH  14  15
ATOM     15  CB  GLU D 570     -19.500  -6.345 -13.794  1.00 32.92     0.043 C 
BRANCH  15  16
ATOM     16  CG  GLU D 570     -19.802  -6.098 -15.228  1.00 32.92     0.100 C 
BRANCH  16  17
ATOM     17  CD  GLU D 570     -21.260  -5.793 -15.479  1.00 32.92     0.185 C 
ATOM     18  OE1 GLU D 570     -21.561  -4.779 -16.138  1.00 32.92    -0.647 OA
ATOM     19  OE2 GLU D 570     -22.111  -6.567 -14.997  1.00 32.92    -0.647 OA
ENDBRANCH  16  17
ENDBRANCH  15  16
ENDBRANCH  14  15
END_RES GLU D 570
ENDMDL
MODEL 5
REMARK VINA RESULT:      -6.4      8.111     12.224
REMARK WARNING: 32 MAX_TORS EXCEEDED!!!
REMARK  33 active torsions:
REMARK  status: ('A' for Active; 'I' for Inactive)
REMARK    1  A    between atoms: C_2  and  C_3 
REMARK    2  A    between atoms: C_3  and  C_4 
REMARK    3  A    between atoms: C_4  and  C_5 
REMARK    4  A    between atoms: C_5  and  C_6 
REMARK    5  A    between atoms: C_6  and  C_7 
REMARK    6  A    between atoms: C_7  and  C_8 
REMARK    7  A    between atoms: C_8  and  C_9 
REMARK    8  A    between atoms: C_9  and  C_10 
REMARK    9  A    between atoms: C_10  and  C_11 
REMARK   10  A    between atoms: C_11  and  C_12 
REMARK   11  A    between atoms: C_12  and  C_13 
REMARK   12  A    between atoms: C_13  and  C_14 
REMARK   13  A    between atoms: C_14  and  C_15 
REMARK   14  A    between atoms: C_15  and  C_16 
REMARK   15  A    between atoms: C_16  and  O_18 
REMARK   16  A    between atoms: C_20  and  C_21 
REMARK   17  A    between atoms: C_20  and  O_53 
REMARK   18  A    between atoms: C_22  and  O_52 
REMARK   19  A    between atoms: C_23  and  O_51 
REMARK   20  A    between atoms: C_24  and  O_50 
REMARK   21  A    between atoms: C_25  and  O_27 
REMARK   22  A    between atoms: O_27  and  C_28 
REMARK   23  A    between atoms: C_29  and  C_48 
REMARK   24  A    between atoms: C_31  and  O_36 
REMARK   25  A    between atoms: C_32  and  O_35 
REMARK   26  A    between atoms: C_33  and  O_34 
REMARK   27  A    between atoms: O_36  and  C_37 
REMARK   28  A    between atoms: C_38  and  C_46 
REMARK   29  A    between atoms: C_40  and  O_45 
REMARK   30  A    between atoms: C_41  and  O_44 
REMARK   31  A    between atoms: C_42  and  O_43 
REMARK   32  A    between atoms: C_46  and  O_47 
REMARK   33  A    between atoms: C_48  and  O_49 
ROOT
HETATM    1  C   UNL     1     -36.164  -0.550 -10.590  1.00  0.00     0.000 C 
ENDROOT
BRANCH   1   2
HETATM    2  C   UNL     1     -35.603  -1.963 -10.493  1.00  0.00     0.000 C 
BRANCH   2   3
HETATM    3  C   UNL     1     -34.105  -1.944 -10.207  1.00  0.00     0.000 C 
BRANCH   3   4
HETATM    4  C   UNL     1     -33.322  -2.780 -11.211  1.00  0.00     0.000 C 
BRANCH   4   5
HETATM    5  C   UNL     1     -34.183  -3.089 -12.423  1.00  0.00     0.000 C 
BRANCH   5   6
HETATM    6  C   UNL     1     -34.132  -4.580 -12.706  1.00  0.00     0.000 C 
BRANCH   6   7
HETATM    7  C   UNL     1     -34.903  -5.358 -11.649  1.00  0.00     0.000 C 
BRANCH   7   8
HETATM    8  C   UNL     1     -33.990  -6.233 -10.791  1.00  0.00    -0.000 C 
BRANCH   8   9
HETATM    9  C   UNL     1     -34.747  -7.258  -9.942  1.00  0.00    -0.005 C 
HETATM   10  C   UNL     1     -34.042  -8.611  -9.875  1.00  0.00     0.005 C 
ENDBRANCH   8   9
ENDBRANCH   7   8
ENDBRANCH   6   7
ENDBRANCH   5   6
ENDBRANCH   4   5
ENDBRANCH   3   4
ENDBRANCH   2   3
ENDBRANCH   1   2
BRANCH   1  11
HETATM   11  C   UNL     1     -37.296  -0.449 -11.600  1.00  0.00     0.000 C 
BRANCH  11  12
HETATM   12  C   UNL     1     -36.770  -0.063 -12.986  1.00  0.00     0.000 C 
BRANCH  12  13
HETATM   13  C   UNL     1     -35.307   0.402 -13.007  1.00  0.00     0.001 C 
BRANCH  13  14
HETATM   14  C   UNL     1     -34.799   0.667 -14.422  1.00  0.00     0.010 C 
BRANCH  14  15
HETATM   15  C   UNL     1     -35.906   0.518 -15.454  1.00  0.00     0.110 C 
BRANCH  15  16
HETATM   16  C   UNL     1     -35.765  -0.766 -16.223  1.00  0.00     0.139 C 
HETATM   17  O   UNL     1     -35.142  -1.745 -15.814  1.00  0.00    -0.650 OA
BRANCH  16  18
HETATM   18  O   UNL     1     -36.393  -0.767 -17.422  1.00  0.00    -0.776 OA
HETATM   19  H   UNL     1     -36.781   0.096 -17.656  1.00  0.00     0.167 HD
ENDBRANCH  16  18
ENDBRANCH  15  16
ENDBRANCH  14  15
ENDBRANCH  13  14
ENDBRANCH  12  13
ENDBRANCH  11  12
ENDBRANCH   1  11
TORSDOF 33
BEGIN_RES ARG D 557
REMARK  4 active torsions:
REMARK  status: ('A' for Active; 'I' for Inactive)
REMARK    1  A    between atoms: CA   and  CB  
REMARK    2  A    between atoms: CB   and  CG  
REMARK    3  A    between atoms: CG   and  CD  
REMARK    4  A    between atoms: CD   and  NE  
REMARK       I    between atoms: NE   and  CZ  
REMARK       I    between atoms: CZ   and  NH1 
REMARK       I    between atoms: CZ   and  NH2 
ROOT
ATOM      1  CA  ARG D 557     -26.217   2.705 -17.014  1.00 35.49     0.159 C 
ENDROOT
BRANCH   1   2
ATOM      2  CB  ARG D 557     -26.789   1.319 -17.183  1.00 35.49     0.034 C 
BRANCH   2   3
ATOM      3  CG  ARG D 557     -25.835   0.203 -17.159  1.00 35.49     0.027 C 
BRANCH   3   4
ATOM      4  CD  ARG D 557     -24.767   0.396 -16.152  1.00 35.49     0.116 C 
BRANCH   4   5
ATOM      5  NE  ARG D 557     -24.937  -0.463 -15.010  1.00 35.49    -0.212 N 
ATOM      6  CZ  ARG D 557     -24.132  -1.441 -14.658  1.00 35.49     0.666 C 
ATOM      7  NH1 ARG D 557     -23.053  -1.756 -15.350  1.00 35.49    -0.235 N 
ATOM      8  NH2 ARG D 557     -24.430  -2.104 -13.579  1.00 35.49    -0.235 N 
ATOM      9  HH  ARG D 557     -22.836  -1.331 -16.062  1.00 35.49     0.174 HD
ATOM     10  HH  ARG D 557     -22.564  -2.401 -15.071  1.00 35.49     0.174 HD
ATOM     11  HH  ARG D 557     -25.129  -1.874 -13.148  1.00 35.49     0.174 HD
ATOM     12  HH  ARG D 557     -23.933  -2.739 -13.317  1.00 35.49     0.174 HD
ATOM     13  HE  ARG D 557     -25.646  -0.378 -14.549  1.00 35.49     0.178 HD
ENDBRANCH   4   5
ENDBRANCH   3   4
ENDBRANCH   2   3
ENDBRANCH   1   2
END_RES ARG D 557
BEGIN_RES GLU D 570
REMARK  3 active torsions:
REMARK  status: ('A' for Active; 'I' for Inactive)
REMARK    5  A    between atoms: CA   and  CB  
REMARK    6  A    between atoms: CB   and  CG  
REMARK    7  A    between atoms: CG   and  CD  
ROOT
ATOM     14  CA  GLU D 570     -18.033  -6.348 -13.375  1.00 32.92     0.160 C 
ENDROOT
BRANCH  14  15
ATOM     15  CB  GLU D 570     -19.500  -6.345 -13.794  1.00 32.92     0.043 C 
BRANCH  15  16
ATOM     16  CG  GLU D 570     -20.435  -5.500 -13.007  1.00 32.92     0.100 C 
BRANCH  16  17
ATOM     17  CD  GLU D 570     -21.571  -4.948 -13.836  1.00 32.92     0.185 C 
ATOM     18  OE1 GLU D 570     -22.455  -4.271 -13.277  1.00 32.92    -0.647 OA
ATOM     19  OE2 GLU D 570     -21.585  -5.208 -15.055  1.00 32.92    -0.647 OA
ENDBRANCH  16  17
ENDBRANCH  15  16
ENDBRANCH  14  15
END_RES GLU D 570
ENDMDL
MODEL 6
REMARK VINA RESULT:      -6.3      1.474      1.937
REMARK WARNING: 32 MAX_TORS EXCEEDED!!!
REMARK  33 active torsions:
REMARK  status: ('A' for Active; 'I' for Inactive)
REMARK    1  A    between atoms: C_2  and  C_3 
REMARK    2  A    between atoms: C_3  and  C_4 
REMARK    3  A    between atoms: C_4  and  C_5 
REMARK    4  A    between atoms: C_5  and  C_6 
REMARK    5  A    between atoms: C_6  and  C_7 
REMARK    6  A    between atoms: C_7  and  C_8 
REMARK    7  A    between atoms: C_8  and  C_9 
REMARK    8  A    between atoms: C_9  and  C_10 
REMARK    9  A    between atoms: C_10  and  C_11 
REMARK   10  A    between atoms: C_11  and  C_12 
REMARK   11  A    between atoms: C_12  and  C_13 
REMARK   12  A    between atoms: C_13  and  C_14 
REMARK   13  A    between atoms: C_14  and  C_15 
REMARK   14  A    between atoms: C_15  and  C_16 
REMARK   15  A    between atoms: C_16  and  O_18 
REMARK   16  A    between atoms: C_20  and  C_21 
REMARK   17  A    between atoms: C_20  and  O_53 
REMARK   18  A    between atoms: C_22  and  O_52 
REMARK   19  A    between atoms: C_23  and  O_51 
REMARK   20  A    between atoms: C_24  and  O_50 
REMARK   21  A    between atoms: C_25  and  O_27 
REMARK   22  A    between atoms: O_27  and  C_28 
REMARK   23  A    between atoms: C_29  and  C_48 
REMARK   24  A    between atoms: C_31  and  O_36 
REMARK   25  A    between atoms: C_32  and  O_35 
REMARK   26  A    between atoms: C_33  and  O_34 
REMARK   27  A    between atoms: O_36  and  C_37 
REMARK   28  A    between atoms: C_38  and  C_46 
REMARK   29  A    between atoms: C_40  and  O_45 
REMARK   30  A    between atoms: C_41  and  O_44 
REMARK   31  A    between atoms: C_42  and  O_43 
REMARK   32  A    between atoms: C_46  and  O_47 
REMARK   33  A    between atoms: C_48  and  O_49 
ROOT
HETATM    1  C   UNL     1     -20.688  -5.990  -6.448  1.00  0.00     0.000 C 
ENDROOT
BRANCH   1   2
HETATM    2  C   UNL     1     -22.149  -5.924  -6.024  1.00  0.00     0.000 C 
BRANCH   2   3
HETATM    3  C   UNL     1     -22.339  -6.466  -4.610  1.00  0.00     0.000 C 
BRANCH   3   4
HETATM    4  C   UNL     1     -21.306  -7.533  -4.266  1.00  0.00     0.000 C 
BRANCH   4   5
HETATM    5  C   UNL     1     -20.971  -7.484  -2.786  1.00  0.00     0.000 C 
BRANCH   5   6
HETATM    6  C   UNL     1     -21.784  -6.386  -2.125  1.00  0.00     0.000 C 
BRANCH   6   7
HETATM    7  C   UNL     1     -22.428  -6.888  -0.840  1.00  0.00     0.000 C 
BRANCH   7   8
HETATM    8  C   UNL     1     -22.118  -8.359  -0.570  1.00  0.00    -0.000 C 
BRANCH   8   9
HETATM    9  C   UNL     1     -21.375  -8.596   0.748  1.00  0.00    -0.005 C 
HETATM   10  C   UNL     1     -20.886 -10.033   0.905  1.00  0.00     0.005 C 
ENDBRANCH   8   9
ENDBRANCH   7   8
ENDBRANCH   6   7
ENDBRANCH   5   6
ENDBRANCH   4   5
ENDBRANCH   3   4
ENDBRANCH   2   3
ENDBRANCH   1   2
BRANCH   1  11
HETATM   11  C   UNL     1     -20.085  -4.608  -6.648  1.00  0.00     0.000 C 
BRANCH  11  12
HETATM   12  C   UNL     1     -20.978  -3.737  -7.537  1.00  0.00     0.000 C 
BRANCH  12  13
HETATM   13  C   UNL     1     -20.887  -4.052  -9.037  1.00  0.00     0.001 C 
BRANCH  13  14
HETATM   14  C   UNL     1     -22.216  -4.533  -9.614  1.00  0.00     0.010 C 
BRANCH  14  15
HETATM   15  C   UNL     1     -23.395  -3.797  -8.998  1.00  0.00     0.110 C 
BRANCH  15  16
HETATM   16  C   UNL     1     -24.369  -3.350 -10.053  1.00  0.00     0.139 C 
HETATM   17  O   UNL     1     -25.570  -3.179  -9.848  1.00  0.00    -0.650 OA
BRANCH  16  18
HETATM   18  O   UNL     1     -23.813  -3.137 -11.268  1.00  0.00    -0.776 OA
HETATM   19  H   UNL     1     -22.926  -3.532 -11.363  1.00  0.00     0.167 HD
ENDBRANCH  16  18
ENDBRANCH  15  16
ENDBRANCH  14  15
ENDBRANCH  13  14
ENDBRANCH  12  13
ENDBRANCH  11  12
ENDBRANCH   1  11
TORSDOF 33
BEGIN_RES ARG D 557
REMARK  4 active torsions:
REMARK  status: ('A' for Active; 'I' for Inactive)
REMARK    1  A    between atoms: CA   and  CB  
REMARK    2  A    between atoms: CB   and  CG  
REMARK    3  A    between atoms: CG   and  CD  
REMARK    4  A    between atoms: CD   and  NE  
REMARK       I    between atoms: NE   and  CZ  
REMARK       I    between atoms: CZ   and  NH1 
REMARK       I    between atoms: CZ   and  NH2 
ROOT
ATOM      1  CA  ARG D 557     -26.217   2.705 -17.014  1.00 35.49     0.159 C 
ENDROOT
BRANCH   1   2
ATOM      2  CB  ARG D 557     -26.789   1.319 -17.183  1.00 35.49     0.034 C 
BRANCH   2   3
ATOM      3  CG  ARG D 557     -28.164   1.110 -16.714  1.00 35.49     0.027 C 
BRANCH   3   4
ATOM      4  CD  ARG D 557     -28.790  -0.089 -17.317  1.00 35.49     0.116 C 
BRANCH   4   5
ATOM      5  NE  ARG D 557     -28.177  -1.308 -16.859  1.00 35.49    -0.212 N 
ATOM      6  CZ  ARG D 557     -28.658  -2.520 -17.026  1.00 35.49     0.666 C 
ATOM      7  NH1 ARG D 557     -29.804  -2.749 -17.640  1.00 35.49    -0.235 N 
ATOM      8  NH2 ARG D 557     -27.957  -3.513 -16.563  1.00 35.49    -0.235 N 
ATOM      9  HH  ARG D 557     -30.281  -2.110 -17.954  1.00 35.49     0.174 HD
ATOM     10  HH  ARG D 557     -30.067  -3.561 -17.722  1.00 35.49     0.174 HD
ATOM     11  HH  ARG D 557     -27.217  -3.336 -16.178  1.00 35.49     0.174 HD
ATOM     12  HH  ARG D 557     -28.233  -4.310 -16.655  1.00 35.49     0.174 HD
ATOM     13  HE  ARG D 557     -27.471  -1.248 -16.389  1.00 35.49     0.178 HD
ENDBRANCH   4   5
ENDBRANCH   3   4
ENDBRANCH   2   3
ENDBRANCH   1   2
END_RES ARG D 557
BEGIN_RES GLU D 570
REMARK  3 active torsions:
REMARK  status: ('A' for Active; 'I' for Inactive)
REMARK    5  A    between atoms: CA   and  CB  
REMARK    6  A    between atoms: CB   and  CG  
REMARK    7  A    between atoms: CG   and  CD  
ROOT
ATOM     14  CA  GLU D 570     -18.033  -6.348 -13.375  1.00 32.92     0.160 C 
ENDROOT
BRANCH  14  15
ATOM     15  CB  GLU D 570     -19.500  -6.345 -13.794  1.00 32.92     0.043 C 
BRANCH  15  16
ATOM     16  CG  GLU D 570     -20.455  -5.594 -12.938  1.00 32.92     0.100 C 
BRANCH  16  17
ATOM     17  CD  GLU D 570     -21.697  -5.160 -13.681  1.00 32.92     0.185 C 
ATOM     18  OE1 GLU D 570     -21.613  -4.892 -14.895  1.00 32.92    -0.647 OA
ATOM     19  OE2 GLU D 570     -22.761  -5.071 -13.039  1.00 32.92    -0.647 OA
ENDBRANCH  16  17
ENDBRANCH  15  16
ENDBRANCH  14  15
END_RES GLU D 570
ENDMDL
MODEL 7
REMARK VINA RESULT:      -6.0      8.387     12.274
REMARK WARNING: 32 MAX_TORS EXCEEDED!!!
REMARK  33 active torsions:
REMARK  status: ('A' for Active; 'I' for Inactive)
REMARK    1  A    between atoms: C_2  and  C_3 
REMARK    2  A    between atoms: C_3  and  C_4 
REMARK    3  A    between atoms: C_4  and  C_5 
REMARK    4  A    between atoms: C_5  and  C_6 
REMARK    5  A    between atoms: C_6  and  C_7 
REMARK    6  A    between atoms: C_7  and  C_8 
REMARK    7  A    between atoms: C_8  and  C_9 
REMARK    8  A    between atoms: C_9  and  C_10 
REMARK    9  A    between atoms: C_10  and  C_11 
REMARK   10  A    between atoms: C_11  and  C_12 
REMARK   11  A    between atoms: C_12  and  C_13 
REMARK   12  A    between atoms: C_13  and  C_14 
REMARK   13  A    between atoms: C_14  and  C_15 
REMARK   14  A    between atoms: C_15  and  C_16 
REMARK   15  A    between atoms: C_16  and  O_18 
REMARK   16  A    between atoms: C_20  and  C_21 
REMARK   17  A    between atoms: C_20  and  O_53 
REMARK   18  A    between atoms: C_22  and  O_52 
REMARK   19  A    between atoms: C_23  and  O_51 
REMARK   20  A    between atoms: C_24  and  O_50 
REMARK   21  A    between atoms: C_25  and  O_27 
REMARK   22  A    between atoms: O_27  and  C_28 
REMARK   23  A    between atoms: C_29  and  C_48 
REMARK   24  A    between atoms: C_31  and  O_36 
REMARK   25  A    between atoms: C_32  and  O_35 
REMARK   26  A    between atoms: C_33  and  O_34 
REMARK   27  A    between atoms: O_36  and  C_37 
REMARK   28  A    between atoms: C_38  and  C_46 
REMARK   29  A    between atoms: C_40  and  O_45 
REMARK   30  A    between atoms: C_41  and  O_44 
REMARK   31  A    between atoms: C_42  and  O_43 
REMARK   32  A    between atoms: C_46  and  O_47 
REMARK   33  A    between atoms: C_48  and  O_49 
ROOT
HETATM    1  C   UNL     1     -36.221  -1.886 -10.775  1.00  0.00     0.000 C 
ENDROOT
BRANCH   1   2
HETATM    2  C   UNL     1     -34.829  -1.665 -10.198  1.00  0.00     0.000 C 
BRANCH   2   3
HETATM    3  C   UNL     1     -33.751  -2.191 -11.140  1.00  0.00     0.000 C 
BRANCH   3   4
HETATM    4  C   UNL     1     -34.335  -2.669 -12.464  1.00  0.00     0.000 C 
BRANCH   4   5
HETATM    5  C   UNL     1     -33.840  -4.069 -12.782  1.00  0.00     0.000 C 
BRANCH   5   6
HETATM    6  C   UNL     1     -32.900  -4.530 -11.683  1.00  0.00     0.000 C 
BRANCH   6   7
HETATM    7  C   UNL     1     -33.325  -5.888 -11.141  1.00  0.00     0.000 C 
BRANCH   7   8
HETATM    8  C   UNL     1     -34.504  -5.784 -10.174  1.00  0.00    -0.000 C 
BRANCH   8   9
HETATM    9  C   UNL     1     -35.072  -7.143  -9.754  1.00  0.00    -0.005 C 
HETATM   10  C   UNL     1     -34.102  -8.295 -10.003  1.00  0.00     0.005 C 
ENDBRANCH   8   9
ENDBRANCH   7   8
ENDBRANCH   6   7
ENDBRANCH   5   6
ENDBRANCH   4   5
ENDBRANCH   3   4
ENDBRANCH   2   3
ENDBRANCH   1   2
BRANCH   1  11
HETATM   11  C   UNL     1     -36.971  -0.579 -10.982  1.00  0.00     0.000 C 
BRANCH  11  12
HETATM   12  C   UNL     1     -36.542   0.107 -12.282  1.00  0.00     0.000 C 
BRANCH  12  13
HETATM   13  C   UNL     1     -37.378  -0.277 -13.512  1.00  0.00     0.001 C 
BRANCH  13  14
HETATM   14  C   UNL     1     -36.808   0.298 -14.807  1.00  0.00     0.010 C 
BRANCH  14  15
HETATM   15  C   UNL     1     -35.464  -0.322 -15.153  1.00  0.00     0.110 C 
BRANCH  15  16
HETATM   16  C   UNL     1     -35.546  -1.131 -16.417  1.00  0.00     0.139 C 
HETATM   17  O   UNL     1     -34.801  -2.076 -16.675  1.00  0.00    -0.650 OA
BRANCH  16  18
HETATM   18  O   UNL     1     -36.526  -0.740 -17.265  1.00  0.00    -0.776 OA
HETATM   19  H   UNL     1     -37.258  -0.274 -16.821  1.00  0.00     0.167 HD
ENDBRANCH  16  18
ENDBRANCH  15  16
ENDBRANCH  14  15
ENDBRANCH  13  14
ENDBRANCH  12  13
ENDBRANCH  11  12
ENDBRANCH   1  11
TORSDOF 33
BEGIN_RES ARG D 557
REMARK  4 active torsions:
REMARK  status: ('A' for Active; 'I' for Inactive)
REMARK    1  A    between atoms: CA   and  CB  
REMARK    2  A    between atoms: CB   and  CG  
REMARK    3  A    between atoms: CG   and  CD  
REMARK    4  A    between atoms: CD   and  NE  
REMARK       I    between atoms: NE   and  CZ  
REMARK       I    between atoms: CZ   and  NH1 
REMARK       I    between atoms: CZ   and  NH2 
ROOT
ATOM      1  CA  ARG D 557     -26.217   2.705 -17.014  1.00 35.49     0.159 C 
ENDROOT
BRANCH   1   2
ATOM      2  CB  ARG D 557     -26.789   1.319 -17.183  1.00 35.49     0.034 C 
BRANCH   2   3
ATOM      3  CG  ARG D 557     -28.211   1.148 -16.863  1.00 35.49     0.027 C 
BRANCH   3   4
ATOM      4  CD  ARG D 557     -28.715  -0.195 -17.233  1.00 35.49     0.116 C 
BRANCH   4   5
ATOM      5  NE  ARG D 557     -27.959  -1.249 -16.610  1.00 35.49    -0.212 N 
ATOM      6  CZ  ARG D 557     -28.176  -2.537 -16.752  1.00 35.49     0.666 C 
ATOM      7  NH1 ARG D 557     -29.157  -3.013 -17.497  1.00 35.49    -0.235 N 
ATOM      8  NH2 ARG D 557     -27.377  -3.353 -16.129  1.00 35.49    -0.235 N 
ATOM      9  HH  ARG D 557     -29.694  -2.494 -17.917  1.00 35.49     0.174 HD
ATOM     10  HH  ARG D 557     -29.249  -3.863 -17.554  1.00 35.49     0.174 HD
ATOM     11  HH  ARG D 557     -26.747  -3.017 -15.661  1.00 35.49     0.174 HD
ATOM     12  HH  ARG D 557     -27.483  -4.191 -16.199  1.00 35.49     0.174 HD
ATOM     13  HE  ARG D 557     -27.353  -1.031 -16.055  1.00 35.49     0.178 HD
ENDBRANCH   4   5
ENDBRANCH   3   4
ENDBRANCH   2   3
ENDBRANCH   1   2
END_RES ARG D 557
BEGIN_RES GLU D 570
REMARK  3 active torsions:
REMARK  status: ('A' for Active; 'I' for Inactive)
REMARK    5  A    between atoms: CA   and  CB  
REMARK    6  A    between atoms: CB   and  CG  
REMARK    7  A    between atoms: CG   and  CD  
ROOT
ATOM     14  CA  GLU D 570     -18.033  -6.348 -13.375  1.00 32.92     0.160 C 
ENDROOT
BRANCH  14  15
ATOM     15  CB  GLU D 570     -19.500  -6.345 -13.794  1.00 32.92     0.043 C 
BRANCH  15  16
ATOM     16  CG  GLU D 570     -19.799  -6.175 -15.239  1.00 32.92     0.100 C 
BRANCH  16  17
ATOM     17  CD  GLU D 570     -20.636  -7.299 -15.804  1.00 32.92     0.185 C 
ATOM     18  OE1 GLU D 570     -20.568  -8.427 -15.280  1.00 32.92    -0.647 OA
ATOM     19  OE2 GLU D 570     -21.355  -7.052 -16.793  1.00 32.92    -0.647 OA
ENDBRANCH  16  17
ENDBRANCH  15  16
ENDBRANCH  14  15
END_RES GLU D 570
ENDMDL
MODEL 8
REMARK VINA RESULT:      -6.0      1.995      2.602
REMARK WARNING: 32 MAX_TORS EXCEEDED!!!
REMARK  33 active torsions:
REMARK  status: ('A' for Active; 'I' for Inactive)
REMARK    1  A    between atoms: C_2  and  C_3 
REMARK    2  A    between atoms: C_3  and  C_4 
REMARK    3  A    between atoms: C_4  and  C_5 
REMARK    4  A    between atoms: C_5  and  C_6 
REMARK    5  A    between atoms: C_6  and  C_7 
REMARK    6  A    between atoms: C_7  and  C_8 
REMARK    7  A    between atoms: C_8  and  C_9 
REMARK    8  A    between atoms: C_9  and  C_10 
REMARK    9  A    between atoms: C_10  and  C_11 
REMARK   10  A    between atoms: C_11  and  C_12 
REMARK   11  A    between atoms: C_12  and  C_13 
REMARK   12  A    between atoms: C_13  and  C_14 
REMARK   13  A    between atoms: C_14  and  C_15 
REMARK   14  A    between atoms: C_15  and  C_16 
REMARK   15  A    between atoms: C_16  and  O_18 
REMARK   16  A    between atoms: C_20  and  C_21 
REMARK   17  A    between atoms: C_20  and  O_53 
REMARK   18  A    between atoms: C_22  and  O_52 
REMARK   19  A    between atoms: C_23  and  O_51 
REMARK   20  A    between atoms: C_24  and  O_50 
REMARK   21  A    between atoms: C_25  and  O_27 
REMARK   22  A    between atoms: O_27  and  C_28 
REMARK   23  A    between atoms: C_29  and  C_48 
REMARK   24  A    between atoms: C_31  and  O_36 
REMARK   25  A    between atoms: C_32  and  O_35 
REMARK   26  A    between atoms: C_33  and  O_34 
REMARK   27  A    between atoms: O_36  and  C_37 
REMARK   28  A    between atoms: C_38  and  C_46 
REMARK   29  A    between atoms: C_40  and  O_45 
REMARK   30  A    between atoms: C_41  and  O_44 
REMARK   31  A    between atoms: C_42  and  O_43 
REMARK   32  A    between atoms: C_46  and  O_47 
REMARK   33  A    between atoms: C_48  and  O_49 
ROOT
HETATM    1  C   UNL     1     -20.778  -4.378  -7.697  1.00  0.00     0.000 C 
ENDROOT
BRANCH   1   2
HETATM    2  C   UNL     1     -19.705  -4.872  -6.735  1.00  0.00     0.000 C 
BRANCH   2   3
HETATM    3  C   UNL     1     -20.235  -4.945  -5.307  1.00  0.00     0.000 C 
BRANCH   3   4
HETATM    4  C   UNL     1     -21.379  -5.943  -5.174  1.00  0.00     0.000 C 
BRANCH   4   5
HETATM    5  C   UNL     1     -20.838  -7.324  -4.850  1.00  0.00     0.000 C 
BRANCH   5   6
HETATM    6  C   UNL     1     -21.360  -7.761  -3.493  1.00  0.00     0.000 C 
BRANCH   6   7
HETATM    7  C   UNL     1     -21.248  -6.629  -2.480  1.00  0.00     0.000 C 
BRANCH   7   8
HETATM    8  C   UNL     1     -22.367  -6.665  -1.442  1.00  0.00    -0.000 C 
BRANCH   8   9
HETATM    9  C   UNL     1     -22.008  -7.457  -0.181  1.00  0.00    -0.005 C 
HETATM   10  C   UNL     1     -22.913  -8.666   0.040  1.00  0.00     0.005 C 
ENDBRANCH   8   9
ENDBRANCH   7   8
ENDBRANCH   6   7
ENDBRANCH   5   6
ENDBRANCH   4   5
ENDBRANCH   3   4
ENDBRANCH   2   3
ENDBRANCH   1   2
BRANCH   1  11
HETATM   11  C   UNL     1     -20.358  -4.525  -9.151  1.00  0.00     0.000 C 
BRANCH  11  12
HETATM   12  C   UNL     1     -21.531  -4.251 -10.098  1.00  0.00     0.000 C 
BRANCH  12  13
HETATM   13  C   UNL     1     -21.128  -3.683 -11.466  1.00  0.00     0.001 C 
BRANCH  13  14
HETATM   14  C   UNL     1     -22.156  -3.993 -12.552  1.00  0.00     0.010 C 
BRANCH  14  15
HETATM   15  C   UNL     1     -22.880  -2.739 -13.014  1.00  0.00     0.110 C 
BRANCH  15  16
HETATM   16  C   UNL     1     -23.045  -2.724 -14.508  1.00  0.00     0.139 C 
HETATM   17  O   UNL     1     -23.873  -2.032 -15.099  1.00  0.00    -0.650 OA
BRANCH  16  18
HETATM   18  O   UNL     1     -22.192  -3.541 -15.169  1.00  0.00    -0.776 OA
HETATM   19  H   UNL     1     -21.764  -3.115 -15.934  1.00  0.00     0.167 HD
ENDBRANCH  16  18
ENDBRANCH  15  16
ENDBRANCH  14  15
ENDBRANCH  13  14
ENDBRANCH  12  13
ENDBRANCH  11  12
ENDBRANCH   1  11
TORSDOF 33
BEGIN_RES ARG D 557
REMARK  4 active torsions:
REMARK  status: ('A' for Active; 'I' for Inactive)
REMARK    1  A    between atoms: CA   and  CB  
REMARK    2  A    between atoms: CB   and  CG  
REMARK    3  A    between atoms: CG   and  CD  
REMARK    4  A    between atoms: CD   and  NE  
REMARK       I    between atoms: NE   and  CZ  
REMARK       I    between atoms: CZ   and  NH1 
REMARK       I    between atoms: CZ   and  NH2 
ROOT
ATOM      1  CA  ARG D 557     -26.217   2.705 -17.014  1.00 35.49     0.159 C 
ENDROOT
BRANCH   1   2
ATOM      2  CB  ARG D 557     -26.789   1.319 -17.183  1.00 35.49     0.034 C 
BRANCH   2   3
ATOM      3  CG  ARG D 557     -28.221   1.157 -16.905  1.00 35.49     0.027 C 
BRANCH   3   4
ATOM      4  CD  ARG D 557     -28.632  -0.265 -16.869  1.00 35.49     0.116 C 
BRANCH   4   5
ATOM      5  NE  ARG D 557     -27.689  -1.083 -16.152  1.00 35.49    -0.212 N 
ATOM      6  CZ  ARG D 557     -27.594  -2.392 -16.229  1.00 35.49     0.666 C 
ATOM      7  NH1 ARG D 557     -28.393  -3.118 -16.989  1.00 35.49    -0.235 N 
ATOM      8  NH2 ARG D 557     -26.664  -2.968 -15.523  1.00 35.49    -0.235 N 
ATOM      9  HH  ARG D 557     -29.010  -2.759 -17.463  1.00 35.49     0.174 HD
ATOM     10  HH  ARG D 557     -28.282  -3.967 -17.001  1.00 35.49     0.174 HD
ATOM     11  HH  ARG D 557     -26.158  -2.474 -15.047  1.00 35.49     0.174 HD
ATOM     12  HH  ARG D 557     -26.570  -3.811 -15.550  1.00 35.49     0.174 HD
ATOM     13  HE  ARG D 557     -27.183  -0.705 -15.583  1.00 35.49     0.178 HD
ENDBRANCH   4   5
ENDBRANCH   3   4
ENDBRANCH   2   3
ENDBRANCH   1   2
END_RES ARG D 557
BEGIN_RES GLU D 570
REMARK  3 active torsions:
REMARK  status: ('A' for Active; 'I' for Inactive)
REMARK    5  A    between atoms: CA   and  CB  
REMARK    6  A    between atoms: CB   and  CG  
REMARK    7  A    between atoms: CG   and  CD  
ROOT
ATOM     14  CA  GLU D 570     -18.033  -6.348 -13.375  1.00 32.92     0.160 C 
ENDROOT
BRANCH  14  15
ATOM     15  CB  GLU D 570     -19.500  -6.345 -13.794  1.00 32.92     0.043 C 
BRANCH  15  16
ATOM     16  CG  GLU D 570     -20.024  -7.565 -14.462  1.00 32.92     0.100 C 
BRANCH  16  17
ATOM     17  CD  GLU D 570     -20.788  -7.261 -15.729  1.00 32.92     0.185 C 
ATOM     18  OE1 GLU D 570     -20.862  -6.081 -16.123  1.00 32.92    -0.647 OA
ATOM     19  OE2 GLU D 570     -21.332  -8.211 -16.326  1.00 32.92    -0.647 OA
ENDBRANCH  16  17
ENDBRANCH  15  16
ENDBRANCH  14  15
END_RES GLU D 570
ENDMDL
MODEL 9
REMARK VINA RESULT:      -5.9      1.910      3.406
REMARK WARNING: 32 MAX_TORS EXCEEDED!!!
REMARK  33 active torsions:
REMARK  status: ('A' for Active; 'I' for Inactive)
REMARK    1  A    between atoms: C_2  and  C_3 
REMARK    2  A    between atoms: C_3  and  C_4 
REMARK    3  A    between atoms: C_4  and  C_5 
REMARK    4  A    between atoms: C_5  and  C_6 
REMARK    5  A    between atoms: C_6  and  C_7 
REMARK    6  A    between atoms: C_7  and  C_8 
REMARK    7  A    between atoms: C_8  and  C_9 
REMARK    8  A    between atoms: C_9  and  C_10 
REMARK    9  A    between atoms: C_10  and  C_11 
REMARK   10  A    between atoms: C_11  and  C_12 
REMARK   11  A    between atoms: C_12  and  C_13 
REMARK   12  A    between atoms: C_13  and  C_14 
REMARK   13  A    between atoms: C_14  and  C_15 
REMARK   14  A    between atoms: C_15  and  C_16 
REMARK   15  A    between atoms: C_16  and  O_18 
REMARK   16  A    between atoms: C_20  and  C_21 
REMARK   17  A    between atoms: C_20  and  O_53 
REMARK   18  A    between atoms: C_22  and  O_52 
REMARK   19  A    between atoms: C_23  and  O_51 
REMARK   20  A    between atoms: C_24  and  O_50 
REMARK   21  A    between atoms: C_25  and  O_27 
REMARK   22  A    between atoms: O_27  and  C_28 
REMARK   23  A    between atoms: C_29  and  C_48 
REMARK   24  A    between atoms: C_31  and  O_36 
REMARK   25  A    between atoms: C_32  and  O_35 
REMARK   26  A    between atoms: C_33  and  O_34 
REMARK   27  A    between atoms: O_36  and  C_37 
REMARK   28  A    between atoms: C_38  and  C_46 
REMARK   29  A    between atoms: C_40  and  O_45 
REMARK   30  A    between atoms: C_41  and  O_44 
REMARK   31  A    between atoms: C_42  and  O_43 
REMARK   32  A    between atoms: C_46  and  O_47 
REMARK   33  A    between atoms: C_48  and  O_49 
ROOT
HETATM    1  C   UNL     1     -21.925  -6.651  -3.623  1.00  0.00     0.000 C 
ENDROOT
BRANCH   1   2
HETATM    2  C   UNL     1     -20.857  -7.582  -3.064  1.00  0.00     0.000 C 
BRANCH   2   3
HETATM    3  C   UNL     1     -20.913  -7.634  -1.540  1.00  0.00     0.000 C 
BRANCH   3   4
HETATM    4  C   UNL     1     -22.216  -7.061  -0.998  1.00  0.00     0.000 C 
BRANCH   4   5
HETATM    5  C   UNL     1     -22.739  -7.923   0.137  1.00  0.00     0.000 C 
BRANCH   5   6
HETATM    6  C   UNL     1     -21.678  -8.937   0.525  1.00  0.00     0.000 C 
BRANCH   6   7
HETATM    7  C   UNL     1     -22.175 -10.357   0.293  1.00  0.00     0.000 C 
BRANCH   7   8
HETATM    8  C   UNL     1     -23.649 -10.400  -0.108  1.00  0.00    -0.000 C 
BRANCH   8   9
HETATM    9  C   UNL     1     -23.923 -11.266  -1.339  1.00  0.00    -0.005 C 
HETATM   10  C   UNL     1     -22.889 -11.073  -2.445  1.00  0.00     0.005 C 
ENDBRANCH   8   9
ENDBRANCH   7   8
ENDBRANCH   6   7
ENDBRANCH   5   6
ENDBRANCH   4   5
ENDBRANCH   3   4
ENDBRANCH   2   3
ENDBRANCH   1   2
BRANCH   1  11
HETATM   11  C   UNL     1     -21.727  -6.374  -5.106  1.00  0.00     0.000 C 
BRANCH  11  12
HETATM   12  C   UNL     1     -20.633  -5.326  -5.333  1.00  0.00     0.000 C 
BRANCH  12  13
HETATM   13  C   UNL     1     -20.948  -4.304  -6.435  1.00  0.00     0.001 C 
BRANCH  13  14
HETATM   14  C   UNL     1     -22.017  -4.802  -7.404  1.00  0.00     0.010 C 
BRANCH  14  15
HETATM   15  C   UNL     1     -22.141  -3.895  -8.618  1.00  0.00     0.110 C 
BRANCH  15  16
HETATM   16  C   UNL     1     -23.433  -4.134  -9.348  1.00  0.00     0.139 C 
HETATM   17  O   UNL     1     -23.553  -4.918 -10.290  1.00  0.00    -0.650 OA
BRANCH  16  18
HETATM   18  O   UNL     1     -24.478  -3.414  -8.879  1.00  0.00    -0.776 OA
HETATM   19  H   UNL     1     -25.112  -3.945  -8.361  1.00  0.00     0.167 HD
ENDBRANCH  16  18
ENDBRANCH  15  16
ENDBRANCH  14  15
ENDBRANCH  13  14
ENDBRANCH  12  13
ENDBRANCH  11  12
ENDBRANCH   1  11
TORSDOF 33
BEGIN_RES ARG D 557
REMARK  4 active torsions:
REMARK  status: ('A' for Active; 'I' for Inactive)
REMARK    1  A    between atoms: CA   and  CB  
REMARK    2  A    between atoms: CB   and  CG  
REMARK    3  A    between atoms: CG   and  CD  
REMARK    4  A    between atoms: CD   and  NE  
REMARK       I    between atoms: NE   and  CZ  
REMARK       I    between atoms: CZ   and  NH1 
REMARK       I    between atoms: CZ   and  NH2 
ROOT
ATOM      1  CA  ARG D 557     -26.217   2.705 -17.014  1.00 35.49     0.159 C 
ENDROOT
BRANCH   1   2
ATOM      2  CB  ARG D 557     -26.789   1.319 -17.183  1.00 35.49     0.034 C 
BRANCH   2   3
ATOM      3  CG  ARG D 557     -28.229   1.227 -17.450  1.00 35.49     0.027 C 
BRANCH   3   4
ATOM      4  CD  ARG D 557     -28.920   0.310 -16.514  1.00 35.49     0.116 C 
BRANCH   4   5
ATOM      5  NE  ARG D 557     -29.302  -0.924 -17.147  1.00 35.49    -0.212 N 
ATOM      6  CZ  ARG D 557     -28.674  -2.073 -17.033  1.00 35.49     0.666 C 
ATOM      7  NH1 ARG D 557     -27.579  -2.214 -16.309  1.00 35.49    -0.235 N 
ATOM      8  NH2 ARG D 557     -29.176  -3.097 -17.661  1.00 35.49    -0.235 N 
ATOM      9  HH  ARG D 557     -27.233  -1.554 -15.885  1.00 35.49     0.174 HD
ATOM     10  HH  ARG D 557     -27.214  -2.988 -16.269  1.00 35.49     0.174 HD
ATOM     11  HH  ARG D 557     -29.888  -2.978 -18.115  1.00 35.49     0.174 HD
ATOM     12  HH  ARG D 557     -28.800  -3.855 -17.608  1.00 35.49     0.174 HD
ATOM     13  HE  ARG D 557     -29.956  -0.909 -17.691  1.00 35.49     0.178 HD
ENDBRANCH   4   5
ENDBRANCH   3   4
ENDBRANCH   2   3
ENDBRANCH   1   2
END_RES ARG D 557
BEGIN_RES GLU D 570
REMARK  3 active torsions:
REMARK  status: ('A' for Active; 'I' for Inactive)
REMARK    5  A    between atoms: CA   and  CB  
REMARK    6  A    between atoms: CB   and  CG  
REMARK    7  A    between atoms: CG   and  CD  
ROOT
ATOM     14  CA  GLU D 570     -18.033  -6.348 -13.375  1.00 32.92     0.160 C 
ENDROOT
BRANCH  14  15
ATOM     15  CB  GLU D 570     -19.500  -6.345 -13.794  1.00 32.92     0.043 C 
BRANCH  15  16
ATOM     16  CG  GLU D 570     -20.441  -5.526 -12.987  1.00 32.92     0.100 C 
BRANCH  16  17
ATOM     17  CD  GLU D 570     -21.743  -5.248 -13.701  1.00 32.92     0.185 C 
ATOM     18  OE1 GLU D 570     -22.121  -6.029 -14.595  1.00 32.92    -0.647 OA
ATOM     19  OE2 GLU D 570     -22.383  -4.229 -13.375  1.00 32.92    -0.647 OA
ENDBRANCH  16  17
ENDBRANCH  15  16
ENDBRANCH  14  15
END_RES GLU D 570
ENDMDL
