MODEL 1
REMARK VINA RESULT:      -5.3      0.000      0.000
REMARK  2 active torsions:
REMARK  status: ('A' for Active; 'I' for Inactive)
REMARK    1  A    between atoms: C_2  and  C_7 
REMARK    2  A    between atoms: C_7  and  O_9 
ROOT
HETATM    1  C   UNK     1     -22.207  -4.567  -9.763  1.00  0.00     0.120 C 
HETATM    2  C   UNK     1     -22.592  -3.684  -8.585  1.00  0.00     0.193 C 
HETATM    3  N   UNK     1     -23.848  -3.030  -8.912  1.00  0.00    -0.337 N 
HETATM    4  C   UNK     1     -24.616  -3.617  -9.876  1.00  0.00     0.280 C 
HETATM    5  O   UNK     1     -25.712  -3.220 -10.227  1.00  0.00    -0.260 OA
HETATM    6  S   UNK     1     -23.802  -5.023 -10.509  1.00  0.00    -0.067 SA
HETATM    7  H   UNK     1     -24.132  -2.127  -8.548  1.00  0.00     0.164 HD
ENDROOT
BRANCH   2   8
HETATM    8  C   UNK     1     -22.685  -4.509  -7.300  1.00  0.00     0.164 C 
HETATM    9  O   UNK     1     -21.747  -5.132  -6.821  1.00  0.00    -0.648 OA
BRANCH   8  10
HETATM   10  O   UNK     1     -23.900  -4.460  -6.702  1.00  0.00    -0.775 OA
HETATM   11  H   UNK     1     -24.287  -3.561  -6.743  1.00  0.00     0.167 HD
ENDBRANCH   8  10
ENDBRANCH   2   8
TORSDOF 2
BEGIN_RES ARG D 557
REMARK  4 active torsions:
REMARK  status: ('A' for Active; 'I' for Inactive)
REMARK    1  A    between atoms: CA   and  CB  
REMARK    2  A    between atoms: CB   and  CG  
REMARK    3  A    between atoms: CG   and  CD  
REMARK    4  A    between atoms: CD   and  NE  
REMARK       I    between atoms: NE   and  CZ  
REMARK       I    between atoms: CZ   and  NH1 
REMARK       I    between atoms: CZ   and  NH2 
ROOT
ATOM      1  CA  ARG D 557     -26.217   2.705 -17.014  1.00 35.49     0.159 C 
ENDROOT
BRANCH   1   2
ATOM      2  CB  ARG D 557     -26.789   1.319 -17.183  1.00 35.49     0.034 C 
BRANCH   2   3
ATOM      3  CG  ARG D 557     -25.837   0.202 -17.144  1.00 35.49     0.027 C 
BRANCH   3   4
ATOM      4  CD  ARG D 557     -24.761   0.412 -16.148  1.00 35.49     0.116 C 
BRANCH   4   5
ATOM      5  NE  ARG D 557     -24.910  -0.443 -15.000  1.00 35.49    -0.212 N 
ATOM      6  CZ  ARG D 557     -24.099  -1.419 -14.660  1.00 35.49     0.666 C 
ATOM      7  NH1 ARG D 557     -23.032  -1.736 -15.371  1.00 35.49    -0.235 N 
ATOM      8  NH2 ARG D 557     -24.376  -2.079 -13.573  1.00 35.49    -0.235 N 
ATOM      9  HH  ARG D 557     -22.829  -1.314 -16.088  1.00 35.49     0.174 HD
ATOM     10  HH  ARG D 557     -22.538  -2.381 -15.098  1.00 35.49     0.174 HD
ATOM     11  HH  ARG D 557     -25.067  -1.847 -13.130  1.00 35.49     0.174 HD
ATOM     12  HH  ARG D 557     -23.874  -2.713 -13.319  1.00 35.49     0.174 HD
ATOM     13  HE  ARG D 557     -25.610  -0.356 -14.526  1.00 35.49     0.178 HD
ENDBRANCH   4   5
ENDBRANCH   3   4
ENDBRANCH   2   3
ENDBRANCH   1   2
END_RES ARG D 557
BEGIN_RES GLU D 570
REMARK  3 active torsions:
REMARK  status: ('A' for Active; 'I' for Inactive)
REMARK    5  A    between atoms: CA   and  CB  
REMARK    6  A    between atoms: CB   and  CG  
REMARK    7  A    between atoms: CG   and  CD  
ROOT
ATOM     14  CA  GLU D 570     -18.033  -6.348 -13.375  1.00 32.92     0.160 C 
ENDROOT
BRANCH  14  15
ATOM     15  CB  GLU D 570     -19.500  -6.345 -13.794  1.00 32.92     0.043 C 
BRANCH  15  16
ATOM     16  CG  GLU D 570     -20.442  -5.533 -12.982  1.00 32.92     0.100 C 
BRANCH  16  17
ATOM     17  CD  GLU D 570     -21.734  -5.230 -13.705  1.00 32.92     0.185 C 
ATOM     18  OE1 GLU D 570     -22.239  -4.097 -13.593  1.00 32.92    -0.647 OA
ATOM     19  OE2 GLU D 570     -22.256  -6.142 -14.376  1.00 32.92    -0.647 OA
ENDBRANCH  16  17
ENDBRANCH  15  16
ENDBRANCH  14  15
END_RES GLU D 570
ENDMDL
MODEL 2
REMARK VINA RESULT:      -5.3      1.099      2.377
REMARK  2 active torsions:
REMARK  status: ('A' for Active; 'I' for Inactive)
REMARK    1  A    between atoms: C_2  and  C_7 
REMARK    2  A    between atoms: C_7  and  O_9 
ROOT
HETATM    1  C   UNK     1     -22.914  -5.039 -10.144  1.00  0.00     0.120 C 
HETATM    2  C   UNK     1     -24.049  -4.510  -9.280  1.00  0.00     0.193 C 
HETATM    3  N   UNK     1     -23.477  -4.067  -8.020  1.00  0.00    -0.337 N 
HETATM    4  C   UNK     1     -22.144  -3.778  -8.016  1.00  0.00     0.280 C 
HETATM    5  O   UNK     1     -21.528  -3.350  -7.055  1.00  0.00    -0.260 OA
HETATM    6  S   UNK     1     -21.463  -4.095  -9.589  1.00  0.00    -0.067 SA
HETATM    7  H   UNK     1     -23.979  -4.058  -7.138  1.00  0.00     0.164 HD
ENDROOT
BRANCH   2   8
HETATM    8  C   UNK     1     -24.801  -3.390 -10.001  1.00  0.00     0.164 C 
HETATM    9  O   UNK     1     -24.329  -2.736 -10.921  1.00  0.00    -0.648 OA
BRANCH   8  10
HETATM   10  O   UNK     1     -26.069  -3.205  -9.560  1.00  0.00    -0.775 OA
HETATM   11  H   UNK     1     -26.633  -2.792 -10.247  1.00  0.00     0.167 HD
ENDBRANCH   8  10
ENDBRANCH   2   8
TORSDOF 2
BEGIN_RES ARG D 557
REMARK  4 active torsions:
REMARK  status: ('A' for Active; 'I' for Inactive)
REMARK    1  A    between atoms: CA   and  CB  
REMARK    2  A    between atoms: CB   and  CG  
REMARK    3  A    between atoms: CG   and  CD  
REMARK    4  A    between atoms: CD   and  NE  
REMARK       I    between atoms: NE   and  CZ  
REMARK       I    between atoms: CZ   and  NH1 
REMARK       I    between atoms: CZ   and  NH2 
ROOT
ATOM      1  CA  ARG D 557     -26.217   2.705 -17.014  1.00 35.49     0.159 C 
ENDROOT
BRANCH   1   2
ATOM      2  CB  ARG D 557     -26.789   1.319 -17.183  1.00 35.49     0.034 C 
BRANCH   2   3
ATOM      3  CG  ARG D 557     -25.832   0.206 -17.188  1.00 35.49     0.027 C 
BRANCH   3   4
ATOM      4  CD  ARG D 557     -24.714   0.418 -16.241  1.00 35.49     0.116 C 
BRANCH   4   5
ATOM      5  NE  ARG D 557     -24.829  -0.413 -15.071  1.00 35.49    -0.212 N 
ATOM      6  CZ  ARG D 557     -24.004  -1.377 -14.730  1.00 35.49     0.666 C 
ATOM      7  NH1 ARG D 557     -22.954  -1.703 -15.460  1.00 35.49    -0.235 N 
ATOM      8  NH2 ARG D 557     -24.250  -2.014 -13.622  1.00 35.49    -0.235 N 
ATOM      9  HH  ARG D 557     -22.771  -1.296 -16.192  1.00 35.49     0.174 HD
ATOM     10  HH  ARG D 557     -22.449  -2.339 -15.187  1.00 35.49     0.174 HD
ATOM     11  HH  ARG D 557     -24.931  -1.777 -13.167  1.00 35.49     0.174 HD
ATOM     12  HH  ARG D 557     -23.738  -2.640 -13.367  1.00 35.49     0.174 HD
ATOM     13  HE  ARG D 557     -25.518  -0.319 -14.581  1.00 35.49     0.178 HD
ENDBRANCH   4   5
ENDBRANCH   3   4
ENDBRANCH   2   3
ENDBRANCH   1   2
END_RES ARG D 557
BEGIN_RES GLU D 570
REMARK  3 active torsions:
REMARK  status: ('A' for Active; 'I' for Inactive)
REMARK    5  A    between atoms: CA   and  CB  
REMARK    6  A    between atoms: CB   and  CG  
REMARK    7  A    between atoms: CG   and  CD  
ROOT
ATOM     14  CA  GLU D 570     -18.033  -6.348 -13.375  1.00 32.92     0.160 C 
ENDROOT
BRANCH  14  15
ATOM     15  CB  GLU D 570     -19.500  -6.345 -13.794  1.00 32.92     0.043 C 
BRANCH  15  16
ATOM     16  CG  GLU D 570     -20.442  -5.530 -12.984  1.00 32.92     0.100 C 
BRANCH  16  17
ATOM     17  CD  GLU D 570     -21.739  -5.241 -13.702  1.00 32.92     0.185 C 
ATOM     18  OE1 GLU D 570     -22.286  -4.133 -13.542  1.00 32.92    -0.647 OA
ATOM     19  OE2 GLU D 570     -22.223  -6.138 -14.419  1.00 32.92    -0.647 OA
ENDBRANCH  16  17
ENDBRANCH  15  16
ENDBRANCH  14  15
END_RES GLU D 570
ENDMDL
MODEL 3
REMARK VINA RESULT:      -5.1      3.212      4.727
REMARK  2 active torsions:
REMARK  status: ('A' for Active; 'I' for Inactive)
REMARK    1  A    between atoms: C_2  and  C_7 
REMARK    2  A    between atoms: C_7  and  O_9 
ROOT
HETATM    1  C   UNK     1     -24.280  -3.155 -11.971  1.00  0.00     0.120 C 
HETATM    2  C   UNK     1     -23.240  -2.542 -12.897  1.00  0.00     0.193 C 
HETATM    3  N   UNK     1     -21.929  -2.960 -12.431  1.00  0.00    -0.337 N 
HETATM    4  C   UNK     1     -21.879  -4.079 -11.652  1.00  0.00     0.280 C 
HETATM    5  O   UNK     1     -20.857  -4.583 -11.224  1.00  0.00    -0.260 OA
HETATM    6  S   UNK     1     -23.492  -4.683 -11.378  1.00  0.00    -0.067 SA
HETATM    7  H   UNK     1     -21.078  -2.422 -12.563  1.00  0.00     0.164 HD
ENDROOT
BRANCH   2   8
HETATM    8  C   UNK     1     -23.498  -2.953 -14.348  1.00  0.00     0.164 C 
HETATM    9  O   UNK     1     -24.505  -3.541 -14.720  1.00  0.00    -0.648 OA
BRANCH   8  10
HETATM   10  O   UNK     1     -22.524  -2.574 -15.210  1.00  0.00    -0.775 OA
HETATM   11  H   UNK     1     -22.574  -3.072 -16.052  1.00  0.00     0.167 HD
ENDBRANCH   8  10
ENDBRANCH   2   8
TORSDOF 2
BEGIN_RES ARG D 557
REMARK  4 active torsions:
REMARK  status: ('A' for Active; 'I' for Inactive)
REMARK    1  A    between atoms: CA   and  CB  
REMARK    2  A    between atoms: CB   and  CG  
REMARK    3  A    between atoms: CG   and  CD  
REMARK    4  A    between atoms: CD   and  NE  
REMARK       I    between atoms: NE   and  CZ  
REMARK       I    between atoms: CZ   and  NH1 
REMARK       I    between atoms: CZ   and  NH2 
ROOT
ATOM      1  CA  ARG D 557     -26.217   2.705 -17.014  1.00 35.49     0.159 C 
ENDROOT
BRANCH   1   2
ATOM      2  CB  ARG D 557     -26.789   1.319 -17.183  1.00 35.49     0.034 C 
BRANCH   2   3
ATOM      3  CG  ARG D 557     -28.209   1.146 -16.855  1.00 35.49     0.027 C 
BRANCH   3   4
ATOM      4  CD  ARG D 557     -28.706  -0.207 -17.195  1.00 35.49     0.116 C 
BRANCH   4   5
ATOM      5  NE  ARG D 557     -27.933  -1.243 -16.562  1.00 35.49    -0.212 N 
ATOM      6  CZ  ARG D 557     -28.121  -2.536 -16.704  1.00 35.49     0.666 C 
ATOM      7  NH1 ARG D 557     -29.083  -3.035 -17.458  1.00 35.49    -0.235 N 
ATOM      8  NH2 ARG D 557     -27.310  -3.333 -16.070  1.00 35.49    -0.235 N 
ATOM      9  HH  ARG D 557     -29.627  -2.529 -17.885  1.00 35.49     0.174 HD
ATOM     10  HH  ARG D 557     -29.155  -3.887 -17.514  1.00 35.49     0.174 HD
ATOM     11  HH  ARG D 557     -26.693  -2.983 -15.597  1.00 35.49     0.174 HD
ATOM     12  HH  ARG D 557     -27.397  -4.174 -16.140  1.00 35.49     0.174 HD
ATOM     13  HE  ARG D 557     -27.338  -1.011 -16.001  1.00 35.49     0.178 HD
ENDBRANCH   4   5
ENDBRANCH   3   4
ENDBRANCH   2   3
ENDBRANCH   1   2
END_RES ARG D 557
BEGIN_RES GLU D 570
REMARK  3 active torsions:
REMARK  status: ('A' for Active; 'I' for Inactive)
REMARK    5  A    between atoms: CA   and  CB  
REMARK    6  A    between atoms: CB   and  CG  
REMARK    7  A    between atoms: CG   and  CD  
ROOT
ATOM     14  CA  GLU D 570     -18.033  -6.348 -13.375  1.00 32.92     0.160 C 
ENDROOT
BRANCH  14  15
ATOM     15  CB  GLU D 570     -19.500  -6.345 -13.794  1.00 32.92     0.043 C 
BRANCH  15  16
ATOM     16  CG  GLU D 570     -19.802  -6.102 -15.228  1.00 32.92     0.100 C 
BRANCH  16  17
ATOM     17  CD  GLU D 570     -21.248  -5.742 -15.474  1.00 32.92     0.185 C 
ATOM     18  OE1 GLU D 570     -21.539  -5.046 -16.466  1.00 32.92    -0.647 OA
ATOM     19  OE2 GLU D 570     -22.098  -6.145 -14.655  1.00 32.92    -0.647 OA
ENDBRANCH  16  17
ENDBRANCH  15  16
ENDBRANCH  14  15
END_RES GLU D 570
ENDMDL
MODEL 4
REMARK VINA RESULT:      -5.1      3.017      4.463
REMARK  2 active torsions:
REMARK  status: ('A' for Active; 'I' for Inactive)
REMARK    1  A    between atoms: C_2  and  C_7 
REMARK    2  A    between atoms: C_7  and  O_9 
ROOT
HETATM    1  C   UNK     1     -22.286  -4.167 -12.745  1.00  0.00     0.120 C 
HETATM    2  C   UNK     1     -23.523  -3.859 -13.577  1.00  0.00     0.193 C 
HETATM    3  N   UNK     1     -24.635  -3.662 -12.662  1.00  0.00    -0.337 N 
HETATM    4  C   UNK     1     -24.324  -3.339 -11.373  1.00  0.00     0.280 C 
HETATM    5  O   UNK     1     -25.139  -3.096 -10.502  1.00  0.00    -0.260 OA
HETATM    6  S   UNK     1     -22.592  -3.310 -11.170  1.00  0.00    -0.067 SA
HETATM    7  H   UNK     1     -25.605  -3.848 -12.896  1.00  0.00     0.164 HD
ENDROOT
BRANCH   2   8
HETATM    8  C   UNK     1     -23.284  -2.641 -14.470  1.00  0.00     0.164 C 
HETATM    9  O   UNK     1     -23.938  -1.609 -14.403  1.00  0.00    -0.648 OA
BRANCH   8  10
HETATM   10  O   UNK     1     -22.245  -2.782 -15.328  1.00  0.00    -0.775 OA
HETATM   11  H   UNK     1     -21.854  -1.916 -15.567  1.00  0.00     0.167 HD
ENDBRANCH   8  10
ENDBRANCH   2   8
TORSDOF 2
BEGIN_RES ARG D 557
REMARK  4 active torsions:
REMARK  status: ('A' for Active; 'I' for Inactive)
REMARK    1  A    between atoms: CA   and  CB  
REMARK    2  A    between atoms: CB   and  CG  
REMARK    3  A    between atoms: CG   and  CD  
REMARK    4  A    between atoms: CD   and  NE  
REMARK       I    between atoms: NE   and  CZ  
REMARK       I    between atoms: CZ   and  NH1 
REMARK       I    between atoms: CZ   and  NH2 
ROOT
ATOM      1  CA  ARG D 557     -26.217   2.705 -17.014  1.00 35.49     0.159 C 
ENDROOT
BRANCH   1   2
ATOM      2  CB  ARG D 557     -26.789   1.319 -17.183  1.00 35.49     0.034 C 
BRANCH   2   3
ATOM      3  CG  ARG D 557     -28.233   1.169 -16.963  1.00 35.49     0.027 C 
BRANCH   3   4
ATOM      4  CD  ARG D 557     -28.641  -0.250 -16.850  1.00 35.49     0.116 C 
BRANCH   4   5
ATOM      5  NE  ARG D 557     -27.674  -1.038 -16.133  1.00 35.49    -0.212 N 
ATOM      6  CZ  ARG D 557     -27.545  -2.344 -16.199  1.00 35.49     0.666 C 
ATOM      7  NH1 ARG D 557     -28.330  -3.096 -16.948  1.00 35.49    -0.235 N 
ATOM      8  NH2 ARG D 557     -26.597  -2.890 -15.495  1.00 35.49    -0.235 N 
ATOM      9  HH  ARG D 557     -28.959  -2.758 -17.421  1.00 35.49     0.174 HD
ATOM     10  HH  ARG D 557     -28.197  -3.943 -16.954  1.00 35.49     0.174 HD
ATOM     11  HH  ARG D 557     -26.101  -2.379 -15.027  1.00 35.49     0.174 HD
ATOM     12  HH  ARG D 557     -26.481  -3.730 -15.516  1.00 35.49     0.174 HD
ATOM     13  HE  ARG D 557     -27.174  -0.641 -15.570  1.00 35.49     0.178 HD
ENDBRANCH   4   5
ENDBRANCH   3   4
ENDBRANCH   2   3
ENDBRANCH   1   2
END_RES ARG D 557
BEGIN_RES GLU D 570
REMARK  3 active torsions:
REMARK  status: ('A' for Active; 'I' for Inactive)
REMARK    5  A    between atoms: CA   and  CB  
REMARK    6  A    between atoms: CB   and  CG  
REMARK    7  A    between atoms: CG   and  CD  
ROOT
ATOM     14  CA  GLU D 570     -18.033  -6.348 -13.375  1.00 32.92     0.160 C 
ENDROOT
BRANCH  14  15
ATOM     15  CB  GLU D 570     -19.500  -6.345 -13.794  1.00 32.92     0.043 C 
BRANCH  15  16
ATOM     16  CG  GLU D 570     -19.825  -5.823 -15.147  1.00 32.92     0.100 C 
BRANCH  16  17
ATOM     17  CD  GLU D 570     -21.202  -6.227 -15.620  1.00 32.92     0.185 C 
ATOM     18  OE1 GLU D 570     -21.840  -5.451 -16.357  1.00 32.92    -0.647 OA
ATOM     19  OE2 GLU D 570     -21.654  -7.323 -15.235  1.00 32.92    -0.647 OA
ENDBRANCH  16  17
ENDBRANCH  15  16
ENDBRANCH  14  15
END_RES GLU D 570
ENDMDL
MODEL 5
REMARK VINA RESULT:      -5.1      5.046      6.967
REMARK  2 active torsions:
REMARK  status: ('A' for Active; 'I' for Inactive)
REMARK    1  A    between atoms: C_2  and  C_7 
REMARK    2  A    between atoms: C_7  and  O_9 
ROOT
HETATM    1  C   UNK     1     -29.141  -5.560 -16.040  1.00  0.00     0.120 C 
HETATM    2  C   UNK     1     -28.305  -6.811 -15.813  1.00  0.00     0.193 C 
HETATM    3  N   UNK     1     -28.827  -7.856 -16.677  1.00  0.00    -0.337 N 
HETATM    4  C   UNK     1     -29.556  -7.454 -17.759  1.00  0.00     0.280 C 
HETATM    5  O   UNK     1     -30.019  -8.202 -18.601  1.00  0.00    -0.260 OA
HETATM    6  S   UNK     1     -29.708  -5.718 -17.761  1.00  0.00    -0.067 SA
HETATM    7  H   UNK     1     -28.769  -8.848 -16.472  1.00  0.00     0.164 HD
ENDROOT
BRANCH   2   8
HETATM    8  C   UNK     1     -26.825  -6.527 -16.074  1.00  0.00     0.164 C 
HETATM    9  O   UNK     1     -26.406  -5.480 -16.549  1.00  0.00    -0.648 OA
BRANCH   8  10
HETATM   10  O   UNK     1     -25.996  -7.530 -15.695  1.00  0.00    -0.775 OA
HETATM   11  H   UNK     1     -25.533  -7.318 -14.858  1.00  0.00     0.167 HD
ENDBRANCH   8  10
ENDBRANCH   2   8
TORSDOF 2
BEGIN_RES ARG D 557
REMARK  4 active torsions:
REMARK  status: ('A' for Active; 'I' for Inactive)
REMARK    1  A    between atoms: CA   and  CB  
REMARK    2  A    between atoms: CB   and  CG  
REMARK    3  A    between atoms: CG   and  CD  
REMARK    4  A    between atoms: CD   and  NE  
REMARK       I    between atoms: NE   and  CZ  
REMARK       I    between atoms: CZ   and  NH1 
REMARK       I    between atoms: CZ   and  NH2 
ROOT
ATOM      1  CA  ARG D 557     -26.217   2.705 -17.014  1.00 35.49     0.159 C 
ENDROOT
BRANCH   1   2
ATOM      2  CB  ARG D 557     -26.789   1.319 -17.183  1.00 35.49     0.034 C 
BRANCH   2   3
ATOM      3  CG  ARG D 557     -25.867   0.195 -16.983  1.00 35.49     0.027 C 
BRANCH   3   4
ATOM      4  CD  ARG D 557     -26.307  -0.709 -15.895  1.00 35.49     0.116 C 
BRANCH   4   5
ATOM      5  NE  ARG D 557     -25.264  -0.947 -14.932  1.00 35.49    -0.212 N 
ATOM      6  CZ  ARG D 557     -24.989  -2.101 -14.367  1.00 35.49     0.666 C 
ATOM      7  NH1 ARG D 557     -25.676  -3.198 -14.625  1.00 35.49    -0.235 N 
ATOM      8  NH2 ARG D 557     -23.992  -2.138 -13.531  1.00 35.49    -0.235 N 
ATOM      9  HH  ARG D 557     -26.334  -3.198 -15.173  1.00 35.49     0.174 HD
ATOM     10  HH  ARG D 557     -25.449  -3.923 -14.228  1.00 35.49     0.174 HD
ATOM     11  HH  ARG D 557     -23.561  -1.415 -13.390  1.00 35.49     0.174 HD
ATOM     12  HH  ARG D 557     -23.782  -2.865 -13.150  1.00 35.49     0.174 HD
ATOM     13  HE  ARG D 557     -24.818  -0.279 -14.654  1.00 35.49     0.178 HD
ENDBRANCH   4   5
ENDBRANCH   3   4
ENDBRANCH   2   3
ENDBRANCH   1   2
END_RES ARG D 557
BEGIN_RES GLU D 570
REMARK  3 active torsions:
REMARK  status: ('A' for Active; 'I' for Inactive)
REMARK    5  A    between atoms: CA   and  CB  
REMARK    6  A    between atoms: CB   and  CG  
REMARK    7  A    between atoms: CG   and  CD  
ROOT
ATOM     14  CA  GLU D 570     -18.033  -6.348 -13.375  1.00 32.92     0.160 C 
ENDROOT
BRANCH  14  15
ATOM     15  CB  GLU D 570     -19.500  -6.345 -13.794  1.00 32.92     0.043 C 
BRANCH  15  16
ATOM     16  CG  GLU D 570     -20.442  -5.530 -12.984  1.00 32.92     0.100 C 
BRANCH  16  17
ATOM     17  CD  GLU D 570     -21.687  -5.138 -13.745  1.00 32.92     0.185 C 
ATOM     18  OE1 GLU D 570     -22.753  -4.978 -13.120  1.00 32.92    -0.647 OA
ATOM     19  OE2 GLU D 570     -21.599  -5.005 -14.981  1.00 32.92    -0.647 OA
ENDBRANCH  16  17
ENDBRANCH  15  16
ENDBRANCH  14  15
END_RES GLU D 570
ENDMDL
MODEL 6
REMARK VINA RESULT:      -4.9      3.015      4.075
REMARK  2 active torsions:
REMARK  status: ('A' for Active; 'I' for Inactive)
REMARK    1  A    between atoms: C_2  and  C_7 
REMARK    2  A    between atoms: C_7  and  O_9 
ROOT
HETATM    1  C   UNK     1     -22.498  -4.119 -12.244  1.00  0.00     0.120 C 
HETATM    2  C   UNK     1     -23.449  -3.071 -11.683  1.00  0.00     0.193 C 
HETATM    3  N   UNK     1     -24.230  -2.544 -12.789  1.00  0.00    -0.337 N 
HETATM    4  C   UNK     1     -24.318  -3.322 -13.908  1.00  0.00     0.280 C 
HETATM    5  O   UNK     1     -24.972  -3.044 -14.897  1.00  0.00    -0.260 OA
HETATM    6  S   UNK     1     -23.373  -4.771 -13.699  1.00  0.00    -0.067 SA
HETATM    7  H   UNK     1     -24.621  -1.608 -12.817  1.00  0.00     0.164 HD
ENDROOT
BRANCH   2   8
HETATM    8  C   UNK     1     -24.330  -3.673 -10.586  1.00  0.00     0.164 C 
HETATM    9  O   UNK     1     -25.394  -3.188 -10.225  1.00  0.00    -0.648 OA
BRANCH   8  10
HETATM   10  O   UNK     1     -23.849  -4.827 -10.065  1.00  0.00    -0.775 OA
HETATM   11  H   UNK     1     -23.288  -4.662  -9.278  1.00  0.00     0.167 HD
ENDBRANCH   8  10
ENDBRANCH   2   8
TORSDOF 2
BEGIN_RES ARG D 557
REMARK  4 active torsions:
REMARK  status: ('A' for Active; 'I' for Inactive)
REMARK    1  A    between atoms: CA   and  CB  
REMARK    2  A    between atoms: CB   and  CG  
REMARK    3  A    between atoms: CG   and  CD  
REMARK    4  A    between atoms: CD   and  NE  
REMARK       I    between atoms: NE   and  CZ  
REMARK       I    between atoms: CZ   and  NH1 
REMARK       I    between atoms: CZ   and  NH2 
ROOT
ATOM      1  CA  ARG D 557     -26.217   2.705 -17.014  1.00 35.49     0.159 C 
ENDROOT
BRANCH   1   2
ATOM      2  CB  ARG D 557     -26.789   1.319 -17.183  1.00 35.49     0.034 C 
BRANCH   2   3
ATOM      3  CG  ARG D 557     -28.235   1.225 -17.417  1.00 35.49     0.027 C 
BRANCH   3   4
ATOM      4  CD  ARG D 557     -28.899   0.289 -16.481  1.00 35.49     0.116 C 
BRANCH   4   5
ATOM      5  NE  ARG D 557     -29.282  -0.940 -17.125  1.00 35.49    -0.212 N 
ATOM      6  CZ  ARG D 557     -28.650  -2.088 -17.027  1.00 35.49     0.666 C 
ATOM      7  NH1 ARG D 557     -27.549  -2.233 -16.314  1.00 35.49    -0.235 N 
ATOM      8  NH2 ARG D 557     -29.153  -3.106 -17.663  1.00 35.49    -0.235 N 
ATOM      9  HH  ARG D 557     -27.202  -1.577 -15.885  1.00 35.49     0.174 HD
ATOM     10  HH  ARG D 557     -27.181  -3.006 -16.285  1.00 35.49     0.174 HD
ATOM     11  HH  ARG D 557     -29.869  -2.985 -18.110  1.00 35.49     0.174 HD
ATOM     12  HH  ARG D 557     -28.775  -3.864 -17.621  1.00 35.49     0.174 HD
ATOM     13  HE  ARG D 557     -29.940  -0.920 -17.663  1.00 35.49     0.178 HD
ENDBRANCH   4   5
ENDBRANCH   3   4
ENDBRANCH   2   3
ENDBRANCH   1   2
END_RES ARG D 557
BEGIN_RES GLU D 570
REMARK  3 active torsions:
REMARK  status: ('A' for Active; 'I' for Inactive)
REMARK    5  A    between atoms: CA   and  CB  
REMARK    6  A    between atoms: CB   and  CG  
REMARK    7  A    between atoms: CG   and  CD  
ROOT
ATOM     14  CA  GLU D 570     -18.033  -6.348 -13.375  1.00 32.92     0.160 C 
ENDROOT
BRANCH  14  15
ATOM     15  CB  GLU D 570     -19.500  -6.345 -13.794  1.00 32.92     0.043 C 
BRANCH  15  16
ATOM     16  CG  GLU D 570     -20.096  -7.641 -14.208  1.00 32.92     0.100 C 
BRANCH  16  17
ATOM     17  CD  GLU D 570     -20.649  -7.613 -15.614  1.00 32.92     0.185 C 
ATOM     18  OE1 GLU D 570     -20.955  -6.518 -16.123  1.00 32.92    -0.647 OA
ATOM     19  OE2 GLU D 570     -20.792  -8.700 -16.208  1.00 32.92    -0.647 OA
ENDBRANCH  16  17
ENDBRANCH  15  16
ENDBRANCH  14  15
END_RES GLU D 570
ENDMDL
MODEL 7
REMARK VINA RESULT:      -4.9      1.887      2.903
REMARK  2 active torsions:
REMARK  status: ('A' for Active; 'I' for Inactive)
REMARK    1  A    between atoms: C_2  and  C_7 
REMARK    2  A    between atoms: C_7  and  O_9 
ROOT
HETATM    1  C   UNK     1     -22.589  -4.581 -11.644  1.00  0.00     0.120 C 
HETATM    2  C   UNK     1     -23.336  -4.750 -10.329  1.00  0.00     0.193 C 
HETATM    3  N   UNK     1     -22.355  -4.741  -9.257  1.00  0.00    -0.337 N 
HETATM    4  C   UNK     1     -21.149  -4.163  -9.529  1.00  0.00     0.280 C 
HETATM    5  O   UNK     1     -20.243  -4.034  -8.726  1.00  0.00    -0.260 OA
HETATM    6  S   UNK     1     -21.110  -3.625 -11.188  1.00  0.00    -0.067 SA
HETATM    7  H   UNK     1     -22.474  -5.220  -8.370  1.00  0.00     0.164 HD
ENDROOT
BRANCH   2   8
HETATM    8  C   UNK     1     -24.389  -3.654 -10.160  1.00  0.00     0.164 C 
HETATM    9  O   UNK     1     -25.044  -3.190 -11.084  1.00  0.00    -0.648 OA
BRANCH   8  10
HETATM   10  O   UNK     1     -24.572  -3.258  -8.877  1.00  0.00    -0.775 OA
HETATM   11  H   UNK     1     -25.523  -3.186  -8.654  1.00  0.00     0.167 HD
ENDBRANCH   8  10
ENDBRANCH   2   8
TORSDOF 2
BEGIN_RES ARG D 557
REMARK  4 active torsions:
REMARK  status: ('A' for Active; 'I' for Inactive)
REMARK    1  A    between atoms: CA   and  CB  
REMARK    2  A    between atoms: CB   and  CG  
REMARK    3  A    between atoms: CG   and  CD  
REMARK    4  A    between atoms: CD   and  NE  
REMARK       I    between atoms: NE   and  CZ  
REMARK       I    between atoms: CZ   and  NH1 
REMARK       I    between atoms: CZ   and  NH2 
ROOT
ATOM      1  CA  ARG D 557     -26.217   2.705 -17.014  1.00 35.49     0.159 C 
ENDROOT
BRANCH   1   2
ATOM      2  CB  ARG D 557     -26.789   1.319 -17.183  1.00 35.49     0.034 C 
BRANCH   2   3
ATOM      3  CG  ARG D 557     -25.856   0.196 -17.028  1.00 35.49     0.027 C 
BRANCH   3   4
ATOM      4  CD  ARG D 557     -26.204  -0.671 -15.879  1.00 35.49     0.116 C 
BRANCH   4   5
ATOM      5  NE  ARG D 557     -25.088  -0.869 -14.992  1.00 35.49    -0.212 N 
ATOM      6  CZ  ARG D 557     -24.870  -1.937 -14.258  1.00 35.49     0.666 C 
ATOM      7  NH1 ARG D 557     -25.691  -2.971 -14.250  1.00 35.49    -0.235 N 
ATOM      8  NH2 ARG D 557     -23.793  -1.954 -13.527  1.00 35.49    -0.235 N 
ATOM      9  HH  ARG D 557     -26.404  -2.983 -14.725  1.00 35.49     0.174 HD
ATOM     10  HH  ARG D 557     -25.495  -3.642 -13.753  1.00 35.49     0.174 HD
ATOM     11  HH  ARG D 557     -23.278  -1.275 -13.558  1.00 35.49     0.174 HD
ATOM     12  HH  ARG D 557     -23.617  -2.628 -13.043  1.00 35.49     0.174 HD
ATOM     13  HE  ARG D 557     -24.547  -0.223 -14.881  1.00 35.49     0.178 HD
ENDBRANCH   4   5
ENDBRANCH   3   4
ENDBRANCH   2   3
ENDBRANCH   1   2
END_RES ARG D 557
BEGIN_RES GLU D 570
REMARK  3 active torsions:
REMARK  status: ('A' for Active; 'I' for Inactive)
REMARK    5  A    between atoms: CA   and  CB  
REMARK    6  A    between atoms: CB   and  CG  
REMARK    7  A    between atoms: CG   and  CD  
ROOT
ATOM     14  CA  GLU D 570     -18.033  -6.348 -13.375  1.00 32.92     0.160 C 
ENDROOT
BRANCH  14  15
ATOM     15  CB  GLU D 570     -19.500  -6.345 -13.794  1.00 32.92     0.043 C 
BRANCH  15  16
ATOM     16  CG  GLU D 570     -19.806  -6.641 -15.217  1.00 32.92     0.100 C 
BRANCH  16  17
ATOM     17  CD  GLU D 570     -20.770  -5.653 -15.831  1.00 32.92     0.185 C 
ATOM     18  OE1 GLU D 570     -21.493  -4.967 -15.082  1.00 32.92    -0.647 OA
ATOM     19  OE2 GLU D 570     -20.816  -5.575 -17.075  1.00 32.92    -0.647 OA
ENDBRANCH  16  17
ENDBRANCH  15  16
ENDBRANCH  14  15
END_RES GLU D 570
ENDMDL
MODEL 8
REMARK VINA RESULT:      -4.9      5.050      7.604
REMARK  2 active torsions:
REMARK  status: ('A' for Active; 'I' for Inactive)
REMARK    1  A    between atoms: C_2  and  C_7 
REMARK    2  A    between atoms: C_7  and  O_9 
ROOT
HETATM    1  C   UNK     1     -29.095  -4.871 -18.379  1.00  0.00     0.120 C 
HETATM    2  C   UNK     1     -28.641  -6.313 -18.550  1.00  0.00     0.193 C 
HETATM    3  N   UNK     1     -27.373  -6.464 -17.856  1.00  0.00    -0.337 N 
HETATM    4  C   UNK     1     -27.089  -5.549 -16.885  1.00  0.00     0.280 C 
HETATM    5  O   UNK     1     -26.094  -5.566 -16.183  1.00  0.00    -0.260 OA
HETATM    6  S   UNK     1     -28.367  -4.367 -16.790  1.00  0.00    -0.067 SA
HETATM    7  H   UNK     1     -26.657  -7.135 -18.115  1.00  0.00     0.164 HD
ENDROOT
BRANCH   2   8
HETATM    8  C   UNK     1     -29.706  -7.280 -18.029  1.00  0.00     0.164 C 
HETATM    9  O   UNK     1     -30.628  -6.947 -17.296  1.00  0.00    -0.648 OA
BRANCH   8  10
HETATM   10  O   UNK     1     -29.568  -8.549 -18.483  1.00  0.00    -0.775 OA
HETATM   11  H   UNK     1     -29.140  -9.126 -17.817  1.00  0.00     0.167 HD
ENDBRANCH   8  10
ENDBRANCH   2   8
TORSDOF 2
BEGIN_RES ARG D 557
REMARK  4 active torsions:
REMARK  status: ('A' for Active; 'I' for Inactive)
REMARK    1  A    between atoms: CA   and  CB  
REMARK    2  A    between atoms: CB   and  CG  
REMARK    3  A    between atoms: CG   and  CD  
REMARK    4  A    between atoms: CD   and  NE  
REMARK       I    between atoms: NE   and  CZ  
REMARK       I    between atoms: CZ   and  NH1 
REMARK       I    between atoms: CZ   and  NH2 
ROOT
ATOM      1  CA  ARG D 557     -26.217   2.705 -17.014  1.00 35.49     0.159 C 
ENDROOT
BRANCH   1   2
ATOM      2  CB  ARG D 557     -26.789   1.319 -17.183  1.00 35.49     0.034 C 
BRANCH   2   3
ATOM      3  CG  ARG D 557     -25.862   0.195 -17.001  1.00 35.49     0.027 C 
BRANCH   3   4
ATOM      4  CD  ARG D 557     -26.262  -0.690 -15.883  1.00 35.49     0.116 C 
BRANCH   4   5
ATOM      5  NE  ARG D 557     -25.190  -0.900 -14.947  1.00 35.49    -0.212 N 
ATOM      6  CZ  ARG D 557     -24.912  -2.031 -14.337  1.00 35.49     0.666 C 
ATOM      7  NH1 ARG D 557     -25.626  -3.127 -14.518  1.00 35.49    -0.235 N 
ATOM      8  NH2 ARG D 557     -23.887  -2.045 -13.536  1.00 35.49    -0.235 N 
ATOM      9  HH  ARG D 557     -26.303  -3.141 -15.042  1.00 35.49     0.174 HD
ATOM     10  HH  ARG D 557     -25.396  -3.836 -14.095  1.00 35.49     0.174 HD
ATOM     11  HH  ARG D 557     -23.441  -1.324 -13.444  1.00 35.49     0.174 HD
ATOM     12  HH  ARG D 557     -23.675  -2.758 -13.127  1.00 35.49     0.174 HD
ATOM     13  HE  ARG D 557     -24.723  -0.227 -14.716  1.00 35.49     0.178 HD
ENDBRANCH   4   5
ENDBRANCH   3   4
ENDBRANCH   2   3
ENDBRANCH   1   2
END_RES ARG D 557
BEGIN_RES GLU D 570
REMARK  3 active torsions:
REMARK  status: ('A' for Active; 'I' for Inactive)
REMARK    5  A    between atoms: CA   and  CB  
REMARK    6  A    between atoms: CB   and  CG  
REMARK    7  A    between atoms: CG   and  CD  
ROOT
ATOM     14  CA  GLU D 570     -18.033  -6.348 -13.375  1.00 32.92     0.160 C 
ENDROOT
BRANCH  14  15
ATOM     15  CB  GLU D 570     -19.500  -6.345 -13.794  1.00 32.92     0.043 C 
BRANCH  15  16
ATOM     16  CG  GLU D 570     -20.447  -5.557 -12.964  1.00 32.92     0.100 C 
BRANCH  16  17
ATOM     17  CD  GLU D 570     -21.685  -5.135 -13.721  1.00 32.92     0.185 C 
ATOM     18  OE1 GLU D 570     -22.717  -4.850 -13.084  1.00 32.92    -0.647 OA
ATOM     19  OE2 GLU D 570     -21.626  -5.106 -14.967  1.00 32.92    -0.647 OA
ENDBRANCH  16  17
ENDBRANCH  15  16
ENDBRANCH  14  15
END_RES GLU D 570
ENDMDL
MODEL 9
REMARK VINA RESULT:      -4.8      4.980      7.448
REMARK  2 active torsions:
REMARK  status: ('A' for Active; 'I' for Inactive)
REMARK    1  A    between atoms: C_2  and  C_7 
REMARK    2  A    between atoms: C_7  and  O_9 
ROOT
HETATM    1  C   UNK     1     -29.838  -6.363 -17.935  1.00  0.00     0.120 C 
HETATM    2  C   UNK     1     -28.785  -5.328 -18.301  1.00  0.00     0.193 C 
HETATM    3  N   UNK     1     -29.431  -4.027 -18.326  1.00  0.00    -0.337 N 
HETATM    4  C   UNK     1     -30.597  -3.904 -17.628  1.00  0.00     0.280 C 
HETATM    5  O   UNK     1     -31.232  -2.871 -17.512  1.00  0.00    -0.260 OA
HETATM    6  S   UNK     1     -31.028  -5.437 -16.918  1.00  0.00    -0.067 SA
HETATM    7  H   UNK     1     -29.127  -3.250 -18.903  1.00  0.00     0.164 HD
ENDROOT
BRANCH   2   8
HETATM    8  C   UNK     1     -27.615  -5.376 -17.316  1.00  0.00     0.164 C 
HETATM    9  O   UNK     1     -27.387  -4.504 -16.487  1.00  0.00    -0.648 OA
BRANCH   8  10
HETATM   10  O   UNK     1     -26.862  -6.499 -17.409  1.00  0.00    -0.775 OA
HETATM   11  H   UNK     1     -26.784  -6.952 -16.544  1.00  0.00     0.167 HD
ENDBRANCH   8  10
ENDBRANCH   2   8
TORSDOF 2
BEGIN_RES ARG D 557
REMARK  4 active torsions:
REMARK  status: ('A' for Active; 'I' for Inactive)
REMARK    1  A    between atoms: CA   and  CB  
REMARK    2  A    between atoms: CB   and  CG  
REMARK    3  A    between atoms: CG   and  CD  
REMARK    4  A    between atoms: CD   and  NE  
REMARK       I    between atoms: NE   and  CZ  
REMARK       I    between atoms: CZ   and  NH1 
REMARK       I    between atoms: CZ   and  NH2 
ROOT
ATOM      1  CA  ARG D 557     -26.217   2.705 -17.014  1.00 35.49     0.159 C 
ENDROOT
BRANCH   1   2
ATOM      2  CB  ARG D 557     -26.789   1.319 -17.183  1.00 35.49     0.034 C 
BRANCH   2   3
ATOM      3  CG  ARG D 557     -25.864   0.195 -16.995  1.00 35.49     0.027 C 
BRANCH   3   4
ATOM      4  CD  ARG D 557     -26.277  -0.697 -15.888  1.00 35.49     0.116 C 
BRANCH   4   5
ATOM      5  NE  ARG D 557     -25.218  -0.909 -14.937  1.00 35.49    -0.212 N 
ATOM      6  CZ  ARG D 557     -24.921  -2.052 -14.360  1.00 35.49     0.666 C 
ATOM      7  NH1 ARG D 557     -25.599  -3.161 -14.592  1.00 35.49    -0.235 N 
ATOM      8  NH2 ARG D 557     -23.912  -2.065 -13.538  1.00 35.49    -0.235 N 
ATOM      9  HH  ARG D 557     -26.265  -3.176 -15.130  1.00 35.49     0.174 HD
ATOM     10  HH  ARG D 557     -25.358  -3.877 -14.188  1.00 35.49     0.174 HD
ATOM     11  HH  ARG D 557     -23.488  -1.335 -13.413  1.00 35.49     0.174 HD
ATOM     12  HH  ARG D 557     -23.688  -2.784 -13.149  1.00 35.49     0.174 HD
ATOM     13  HE  ARG D 557     -24.776  -0.232 -14.675  1.00 35.49     0.178 HD
ENDBRANCH   4   5
ENDBRANCH   3   4
ENDBRANCH   2   3
ENDBRANCH   1   2
END_RES ARG D 557
BEGIN_RES GLU D 570
REMARK  3 active torsions:
REMARK  status: ('A' for Active; 'I' for Inactive)
REMARK    5  A    between atoms: CA   and  CB  
REMARK    6  A    between atoms: CB   and  CG  
REMARK    7  A    between atoms: CG   and  CD  
ROOT
ATOM     14  CA  GLU D 570     -18.033  -6.348 -13.375  1.00 32.92     0.160 C 
ENDROOT
BRANCH  14  15
ATOM     15  CB  GLU D 570     -19.500  -6.345 -13.794  1.00 32.92     0.043 C 
BRANCH  15  16
ATOM     16  CG  GLU D 570     -20.446  -5.548 -12.970  1.00 32.92     0.100 C 
BRANCH  16  17
ATOM     17  CD  GLU D 570     -21.673  -5.113 -13.737  1.00 32.92     0.185 C 
ATOM     18  OE1 GLU D 570     -22.731  -4.901 -13.115  1.00 32.92    -0.647 OA
ATOM     19  OE2 GLU D 570     -21.579  -5.000 -14.975  1.00 32.92    -0.647 OA
ENDBRANCH  16  17
ENDBRANCH  15  16
ENDBRANCH  14  15
END_RES GLU D 570
ENDMDL
