MODEL 1
REMARK VINA RESULT:      -6.1      0.000      0.000
REMARK  12 active torsions:
REMARK  status: ('A' for Active; 'I' for Inactive)
REMARK    1  A    between atoms: C_2  and  C_3 
REMARK    2  A    between atoms: C_3  and  C_4 
REMARK    3  A    between atoms: C_4  and  C_5 
REMARK    4  A    between atoms: C_5  and  C_6 
REMARK    5  A    between atoms: C_6  and  C_7 
REMARK    6  A    between atoms: C_7  and  C_8 
REMARK    7  A    between atoms: C_8  and  C_9 
REMARK    8  A    between atoms: C_9  and  C_10 
REMARK    9  A    between atoms: C_10  and  C_11 
REMARK   10  A    between atoms: C_11  and  C_12 
REMARK   11  A    between atoms: C_12  and  C_13 
REMARK   12  A    between atoms: C_13  and  C_14 
ROOT
HETATM    1  C   UNL     1     -20.577  -5.201  -5.513  1.00  0.00     0.000 C 
ENDROOT
BRANCH   1   2
HETATM    2  C   UNL     1     -19.670  -5.091  -6.732  1.00  0.00     0.000 C 
BRANCH   2   3
HETATM    3  C   UNL     1     -20.159  -3.996  -7.673  1.00  0.00     0.000 C 
BRANCH   3   4
HETATM    4  C   UNL     1     -20.147  -4.486  -9.116  1.00  0.00     0.000 C 
BRANCH   4   5
HETATM    5  C   UNL     1     -21.468  -4.169  -9.810  1.00  0.00     0.000 C 
BRANCH   5   6
HETATM    6  C   UNL     1     -22.519  -3.732  -8.795  1.00  0.00    -0.000 C 
BRANCH   6   7
HETATM    7  C   UNL     1     -23.920  -4.141  -9.244  1.00  0.00    -0.005 C 
HETATM    8  C   UNL     1     -23.865  -4.974 -10.513  1.00  0.00     0.005 C 
ENDBRANCH   6   7
ENDBRANCH   5   6
ENDBRANCH   4   5
ENDBRANCH   3   4
ENDBRANCH   2   3
ENDBRANCH   1   2
BRANCH   1   9
HETATM    9  C   UNL     1     -21.463  -6.437  -5.611  1.00  0.00     0.000 C 
BRANCH   9  10
HETATM   10  C   UNL     1     -22.078  -6.761  -4.255  1.00  0.00     0.000 C 
BRANCH  10  11
HETATM   11  C   UNL     1     -21.315  -6.072  -3.128  1.00  0.00     0.000 C 
BRANCH  11  12
HETATM   12  C   UNL     1     -22.119  -6.141  -1.834  1.00  0.00     0.000 C 
BRANCH  12  13
HETATM   13  C   UNL     1     -22.294  -7.583  -1.365  1.00  0.00     0.004 C 
BRANCH  13  14
HETATM   14  C   UNL     1     -21.058  -8.127  -0.628  1.00  0.00    -0.023 C 
HETATM   15  C   UNL     1     -21.362  -8.499   0.825  1.00  0.00     0.009 C 
HETATM   16  C   UNL     1     -20.512  -9.347  -1.372  1.00  0.00     0.009 C 
ENDBRANCH  13  14
ENDBRANCH  12  13
ENDBRANCH  11  12
ENDBRANCH  10  11
ENDBRANCH   9  10
ENDBRANCH   1   9
TORSDOF 12
BEGIN_RES ARG D 557
REMARK  4 active torsions:
REMARK  status: ('A' for Active; 'I' for Inactive)
REMARK    1  A    between atoms: CA   and  CB  
REMARK    2  A    between atoms: CB   and  CG  
REMARK    3  A    between atoms: CG   and  CD  
REMARK    4  A    between atoms: CD   and  NE  
REMARK       I    between atoms: NE   and  CZ  
REMARK       I    between atoms: CZ   and  NH1 
REMARK       I    between atoms: CZ   and  NH2 
ROOT
ATOM      1  CA  ARG D 557     -26.217   2.705 -17.014  1.00 35.49     0.159 C 
ENDROOT
BRANCH   1   2
ATOM      2  CB  ARG D 557     -26.789   1.319 -17.183  1.00 35.49     0.034 C 
BRANCH   2   3
ATOM      3  CG  ARG D 557     -25.838   0.202 -17.137  1.00 35.49     0.027 C 
BRANCH   3   4
ATOM      4  CD  ARG D 557     -24.769   0.412 -16.134  1.00 35.49     0.116 C 
BRANCH   4   5
ATOM      5  NE  ARG D 557     -24.922  -0.448 -14.990  1.00 35.49    -0.212 N 
ATOM      6  CZ  ARG D 557     -24.110  -1.423 -14.647  1.00 35.49     0.666 C 
ATOM      7  NH1 ARG D 557     -23.038  -1.733 -15.352  1.00 35.49    -0.235 N 
ATOM      8  NH2 ARG D 557     -24.393  -2.087 -13.564  1.00 35.49    -0.235 N 
ATOM      9  HH  ARG D 557     -22.831  -1.308 -16.066  1.00 35.49     0.174 HD
ATOM     10  HH  ARG D 557     -22.543  -2.377 -15.078  1.00 35.49     0.174 HD
ATOM     11  HH  ARG D 557     -25.088  -1.859 -13.125  1.00 35.49     0.174 HD
ATOM     12  HH  ARG D 557     -23.890  -2.720 -13.309  1.00 35.49     0.174 HD
ATOM     13  HE  ARG D 557     -25.626  -0.365 -14.520  1.00 35.49     0.178 HD
ENDBRANCH   4   5
ENDBRANCH   3   4
ENDBRANCH   2   3
ENDBRANCH   1   2
END_RES ARG D 557
BEGIN_RES GLU D 570
REMARK  3 active torsions:
REMARK  status: ('A' for Active; 'I' for Inactive)
REMARK    5  A    between atoms: CA   and  CB  
REMARK    6  A    between atoms: CB   and  CG  
REMARK    7  A    between atoms: CG   and  CD  
ROOT
ATOM     14  CA  GLU D 570     -18.033  -6.348 -13.375  1.00 32.92     0.160 C 
ENDROOT
BRANCH  14  15
ATOM     15  CB  GLU D 570     -19.500  -6.345 -13.794  1.00 32.92     0.043 C 
BRANCH  15  16
ATOM     16  CG  GLU D 570     -20.454  -5.591 -12.940  1.00 32.92     0.100 C 
BRANCH  16  17
ATOM     17  CD  GLU D 570     -21.728  -5.222 -13.664  1.00 32.92     0.185 C 
ATOM     18  OE1 GLU D 570     -22.288  -6.077 -14.377  1.00 32.92    -0.647 OA
ATOM     19  OE2 GLU D 570     -22.161  -4.061 -13.530  1.00 32.92    -0.647 OA
ENDBRANCH  16  17
ENDBRANCH  15  16
ENDBRANCH  14  15
END_RES GLU D 570
ENDMDL
MODEL 2
REMARK VINA RESULT:      -6.1      9.499     12.953
REMARK  12 active torsions:
REMARK  status: ('A' for Active; 'I' for Inactive)
REMARK    1  A    between atoms: C_2  and  C_3 
REMARK    2  A    between atoms: C_3  and  C_4 
REMARK    3  A    between atoms: C_4  and  C_5 
REMARK    4  A    between atoms: C_5  and  C_6 
REMARK    5  A    between atoms: C_6  and  C_7 
REMARK    6  A    between atoms: C_7  and  C_8 
REMARK    7  A    between atoms: C_8  and  C_9 
REMARK    8  A    between atoms: C_9  and  C_10 
REMARK    9  A    between atoms: C_10  and  C_11 
REMARK   10  A    between atoms: C_11  and  C_12 
REMARK   11  A    between atoms: C_12  and  C_13 
REMARK   12  A    between atoms: C_13  and  C_14 
ROOT
HETATM    1  C   UNL     1     -35.072  -0.198 -12.375  1.00  0.00     0.000 C 
ENDROOT
BRANCH   1   2
HETATM    2  C   UNL     1     -36.563   0.011 -12.607  1.00  0.00     0.000 C 
BRANCH   2   3
HETATM    3  C   UNL     1     -37.364  -0.389 -11.373  1.00  0.00     0.000 C 
BRANCH   3   4
HETATM    4  C   UNL     1     -36.947   0.448 -10.170  1.00  0.00     0.000 C 
BRANCH   4   5
HETATM    5  C   UNL     1     -36.744  -0.429  -8.939  1.00  0.00     0.000 C 
BRANCH   5   6
HETATM    6  C   UNL     1     -37.685  -0.008  -7.815  1.00  0.00    -0.000 C 
BRANCH   6   7
HETATM    7  C   UNL     1     -37.050   1.071  -6.942  1.00  0.00    -0.005 C 
HETATM    8  C   UNL     1     -37.114   0.692  -5.472  1.00  0.00     0.005 C 
ENDBRANCH   6   7
ENDBRANCH   5   6
ENDBRANCH   4   5
ENDBRANCH   3   4
ENDBRANCH   2   3
ENDBRANCH   1   2
BRANCH   1   9
HETATM    9  C   UNL     1     -34.747  -1.683 -12.271  1.00  0.00     0.000 C 
BRANCH   9  10
HETATM   10  C   UNL     1     -33.969  -1.969 -10.993  1.00  0.00     0.000 C 
BRANCH  10  11
HETATM   11  C   UNL     1     -32.864  -2.991 -11.240  1.00  0.00     0.000 C 
BRANCH  11  12
HETATM   12  C   UNL     1     -33.413  -4.174 -12.032  1.00  0.00     0.000 C 
BRANCH  12  13
HETATM   13  C   UNL     1     -33.272  -5.479 -11.252  1.00  0.00     0.004 C 
BRANCH  13  14
HETATM   14  C   UNL     1     -34.438  -5.723 -10.278  1.00  0.00    -0.023 C 
HETATM   15  C   UNL     1     -35.716  -4.996 -10.705  1.00  0.00     0.009 C 
HETATM   16  C   UNL     1     -34.708  -7.224 -10.165  1.00  0.00     0.009 C 
ENDBRANCH  13  14
ENDBRANCH  12  13
ENDBRANCH  11  12
ENDBRANCH  10  11
ENDBRANCH   9  10
ENDBRANCH   1   9
TORSDOF 12
BEGIN_RES ARG D 557
REMARK  4 active torsions:
REMARK  status: ('A' for Active; 'I' for Inactive)
REMARK    1  A    between atoms: CA   and  CB  
REMARK    2  A    between atoms: CB   and  CG  
REMARK    3  A    between atoms: CG   and  CD  
REMARK    4  A    between atoms: CD   and  NE  
REMARK       I    between atoms: NE   and  CZ  
REMARK       I    between atoms: CZ   and  NH1 
REMARK       I    between atoms: CZ   and  NH2 
ROOT
ATOM      1  CA  ARG D 557     -26.217   2.705 -17.014  1.00 35.49     0.159 C 
ENDROOT
BRANCH   1   2
ATOM      2  CB  ARG D 557     -26.789   1.319 -17.183  1.00 35.49     0.034 C 
BRANCH   2   3
ATOM      3  CG  ARG D 557     -28.222   1.228 -17.488  1.00 35.49     0.027 C 
BRANCH   3   4
ATOM      4  CD  ARG D 557     -28.943   0.336 -16.552  1.00 35.49     0.116 C 
BRANCH   4   5
ATOM      5  NE  ARG D 557     -29.291  -0.921 -17.160  1.00 35.49    -0.212 N 
ATOM      6  CZ  ARG D 557     -28.636  -2.051 -17.017  1.00 35.49     0.666 C 
ATOM      7  NH1 ARG D 557     -27.542  -2.149 -16.284  1.00 35.49    -0.235 N 
ATOM      8  NH2 ARG D 557     -29.108  -3.100 -17.626  1.00 35.49    -0.235 N 
ATOM      9  HH  ARG D 557     -27.215  -1.472 -15.873  1.00 35.49     0.174 HD
ATOM     10  HH  ARG D 557     -27.158  -2.913 -16.225  1.00 35.49     0.174 HD
ATOM     11  HH  ARG D 557     -29.820  -3.009 -18.086  1.00 35.49     0.174 HD
ATOM     12  HH  ARG D 557     -28.715  -3.848 -17.554  1.00 35.49     0.174 HD
ATOM     13  HE  ARG D 557     -29.942  -0.933 -17.707  1.00 35.49     0.178 HD
ENDBRANCH   4   5
ENDBRANCH   3   4
ENDBRANCH   2   3
ENDBRANCH   1   2
END_RES ARG D 557
BEGIN_RES GLU D 570
REMARK  3 active torsions:
REMARK  status: ('A' for Active; 'I' for Inactive)
REMARK    5  A    between atoms: CA   and  CB  
REMARK    6  A    between atoms: CB   and  CG  
REMARK    7  A    between atoms: CG   and  CD  
ROOT
ATOM     14  CA  GLU D 570     -18.033  -6.348 -13.375  1.00 32.92     0.160 C 
ENDROOT
BRANCH  14  15
ATOM     15  CB  GLU D 570     -19.500  -6.345 -13.794  1.00 32.92     0.043 C 
BRANCH  15  16
ATOM     16  CG  GLU D 570     -20.435  -5.502 -13.006  1.00 32.92     0.100 C 
BRANCH  16  17
ATOM     17  CD  GLU D 570     -21.708  -5.177 -13.752  1.00 32.92     0.185 C 
ATOM     18  OE1 GLU D 570     -21.639  -4.847 -14.952  1.00 32.92    -0.647 OA
ATOM     19  OE2 GLU D 570     -22.785  -5.237 -13.126  1.00 32.92    -0.647 OA
ENDBRANCH  16  17
ENDBRANCH  15  16
ENDBRANCH  14  15
END_RES GLU D 570
ENDMDL
MODEL 3
REMARK VINA RESULT:      -6.0      1.151      2.047
REMARK  12 active torsions:
REMARK  status: ('A' for Active; 'I' for Inactive)
REMARK    1  A    between atoms: C_2  and  C_3 
REMARK    2  A    between atoms: C_3  and  C_4 
REMARK    3  A    between atoms: C_4  and  C_5 
REMARK    4  A    between atoms: C_5  and  C_6 
REMARK    5  A    between atoms: C_6  and  C_7 
REMARK    6  A    between atoms: C_7  and  C_8 
REMARK    7  A    between atoms: C_8  and  C_9 
REMARK    8  A    between atoms: C_9  and  C_10 
REMARK    9  A    between atoms: C_10  and  C_11 
REMARK   10  A    between atoms: C_11  and  C_12 
REMARK   11  A    between atoms: C_12  and  C_13 
REMARK   12  A    between atoms: C_13  and  C_14 
ROOT
HETATM    1  C   UNL     1     -21.994  -6.808  -4.534  1.00  0.00     0.000 C 
ENDROOT
BRANCH   1   2
HETATM    2  C   UNL     1     -21.704  -5.863  -5.693  1.00  0.00     0.000 C 
BRANCH   2   3
HETATM    3  C   UNL     1     -20.416  -5.086  -5.447  1.00  0.00     0.000 C 
BRANCH   3   4
HETATM    4  C   UNL     1     -19.763  -4.700  -6.769  1.00  0.00     0.000 C 
BRANCH   4   5
HETATM    5  C   UNL     1     -20.514  -5.312  -7.947  1.00  0.00     0.000 C 
BRANCH   5   6
HETATM    6  C   UNL     1     -20.245  -4.525  -9.226  1.00  0.00    -0.000 C 
BRANCH   6   7
HETATM    7  C   UNL     1     -21.546  -4.019  -9.843  1.00  0.00    -0.005 C 
HETATM    8  C   UNL     1     -22.730  -4.308  -8.937  1.00  0.00     0.005 C 
ENDBRANCH   6   7
ENDBRANCH   5   6
ENDBRANCH   4   5
ENDBRANCH   3   4
ENDBRANCH   2   3
ENDBRANCH   1   2
BRANCH   1   9
HETATM    9  C   UNL     1     -21.360  -6.293  -3.248  1.00  0.00     0.000 C 
BRANCH   9  10
HETATM   10  C   UNL     1     -21.545  -7.302  -2.122  1.00  0.00     0.000 C 
BRANCH  10  11
HETATM   11  C   UNL     1     -22.389  -6.718  -0.994  1.00  0.00     0.000 C 
BRANCH  11  12
HETATM   12  C   UNL     1     -22.699  -7.796   0.040  1.00  0.00     0.000 C 
BRANCH  12  13
HETATM   13  C   UNL     1     -21.486  -8.690   0.292  1.00  0.00     0.004 C 
BRANCH  13  14
HETATM   14  C   UNL     1     -21.827 -10.189   0.243  1.00  0.00    -0.023 C 
HETATM   15  C   UNL     1     -23.230 -10.450  -0.311  1.00  0.00     0.009 C 
HETATM   16  C   UNL     1     -20.789 -10.925  -0.606  1.00  0.00     0.009 C 
ENDBRANCH  13  14
ENDBRANCH  12  13
ENDBRANCH  11  12
ENDBRANCH  10  11
ENDBRANCH   9  10
ENDBRANCH   1   9
TORSDOF 12
BEGIN_RES ARG D 557
REMARK  4 active torsions:
REMARK  status: ('A' for Active; 'I' for Inactive)
REMARK    1  A    between atoms: CA   and  CB  
REMARK    2  A    between atoms: CB   and  CG  
REMARK    3  A    between atoms: CG   and  CD  
REMARK    4  A    between atoms: CD   and  NE  
REMARK       I    between atoms: NE   and  CZ  
REMARK       I    between atoms: CZ   and  NH1 
REMARK       I    between atoms: CZ   and  NH2 
ROOT
ATOM      1  CA  ARG D 557     -26.217   2.705 -17.014  1.00 35.49     0.159 C 
ENDROOT
BRANCH   1   2
ATOM      2  CB  ARG D 557     -26.789   1.319 -17.183  1.00 35.49     0.034 C 
BRANCH   2   3
ATOM      3  CG  ARG D 557     -25.865   0.195 -16.991  1.00 35.49     0.027 C 
BRANCH   3   4
ATOM      4  CD  ARG D 557     -26.296  -0.710 -15.901  1.00 35.49     0.116 C 
BRANCH   4   5
ATOM      5  NE  ARG D 557     -25.249  -0.936 -14.939  1.00 35.49    -0.212 N 
ATOM      6  CZ  ARG D 557     -24.975  -2.083 -14.358  1.00 35.49     0.666 C 
ATOM      7  NH1 ARG D 557     -25.666  -3.182 -14.597  1.00 35.49    -0.235 N 
ATOM      8  NH2 ARG D 557     -23.975  -2.110 -13.526  1.00 35.49    -0.235 N 
ATOM      9  HH  ARG D 557     -26.326  -3.188 -15.143  1.00 35.49     0.174 HD
ATOM     10  HH  ARG D 557     -25.439  -3.902 -14.191  1.00 35.49     0.174 HD
ATOM     11  HH  ARG D 557     -23.542  -1.387 -13.396  1.00 35.49     0.174 HD
ATOM     12  HH  ARG D 557     -23.765  -2.833 -13.135  1.00 35.49     0.174 HD
ATOM     13  HE  ARG D 557     -24.800  -0.265 -14.671  1.00 35.49     0.178 HD
ENDBRANCH   4   5
ENDBRANCH   3   4
ENDBRANCH   2   3
ENDBRANCH   1   2
END_RES ARG D 557
BEGIN_RES GLU D 570
REMARK  3 active torsions:
REMARK  status: ('A' for Active; 'I' for Inactive)
REMARK    5  A    between atoms: CA   and  CB  
REMARK    6  A    between atoms: CB   and  CG  
REMARK    7  A    between atoms: CG   and  CD  
ROOT
ATOM     14  CA  GLU D 570     -18.033  -6.348 -13.375  1.00 32.92     0.160 C 
ENDROOT
BRANCH  14  15
ATOM     15  CB  GLU D 570     -19.500  -6.345 -13.794  1.00 32.92     0.043 C 
BRANCH  15  16
ATOM     16  CG  GLU D 570     -20.444  -5.541 -12.976  1.00 32.92     0.100 C 
BRANCH  16  17
ATOM     17  CD  GLU D 570     -21.687  -5.139 -13.735  1.00 32.92     0.185 C 
ATOM     18  OE1 GLU D 570     -21.622  -4.998 -14.971  1.00 32.92    -0.647 OA
ATOM     19  OE2 GLU D 570     -22.733  -4.946 -13.084  1.00 32.92    -0.647 OA
ENDBRANCH  16  17
ENDBRANCH  15  16
ENDBRANCH  14  15
END_RES GLU D 570
ENDMDL
MODEL 4
REMARK VINA RESULT:      -5.9      2.383      3.047
REMARK  12 active torsions:
REMARK  status: ('A' for Active; 'I' for Inactive)
REMARK    1  A    between atoms: C_2  and  C_3 
REMARK    2  A    between atoms: C_3  and  C_4 
REMARK    3  A    between atoms: C_4  and  C_5 
REMARK    4  A    between atoms: C_5  and  C_6 
REMARK    5  A    between atoms: C_6  and  C_7 
REMARK    6  A    between atoms: C_7  and  C_8 
REMARK    7  A    between atoms: C_8  and  C_9 
REMARK    8  A    between atoms: C_9  and  C_10 
REMARK    9  A    between atoms: C_10  and  C_11 
REMARK   10  A    between atoms: C_11  and  C_12 
REMARK   11  A    between atoms: C_12  and  C_13 
REMARK   12  A    between atoms: C_13  and  C_14 
ROOT
HETATM    1  C   UNL     1     -20.386  -4.814  -6.880  1.00  0.00     0.000 C 
ENDROOT
BRANCH   1   2
HETATM    2  C   UNL     1     -21.537  -3.939  -7.356  1.00  0.00     0.000 C 
BRANCH   2   3
HETATM    3  C   UNL     1     -21.711  -4.048  -8.867  1.00  0.00     0.000 C 
BRANCH   3   4
HETATM    4  C   UNL     1     -20.357  -4.172  -9.554  1.00  0.00     0.000 C 
BRANCH   4   5
HETATM    5  C   UNL     1     -20.508  -4.118 -11.071  1.00  0.00     0.000 C 
BRANCH   5   6
HETATM    6  C   UNL     1     -21.910  -3.660 -11.457  1.00  0.00    -0.000 C 
BRANCH   6   7
HETATM    7  C   UNL     1     -22.253  -4.081 -12.883  1.00  0.00    -0.005 C 
HETATM    8  C   UNL     1     -23.361  -5.120 -12.896  1.00  0.00     0.005 C 
ENDBRANCH   6   7
ENDBRANCH   5   6
ENDBRANCH   4   5
ENDBRANCH   3   4
ENDBRANCH   2   3
ENDBRANCH   1   2
BRANCH   1   9
HETATM    9  C   UNL     1     -20.477  -5.052  -5.377  1.00  0.00     0.000 C 
BRANCH   9  10
HETATM   10  C   UNL     1     -20.867  -6.496  -5.089  1.00  0.00     0.000 C 
BRANCH  10  11
HETATM   11  C   UNL     1     -21.945  -6.569  -4.012  1.00  0.00     0.000 C 
BRANCH  11  12
HETATM   12  C   UNL     1     -21.323  -6.364  -2.635  1.00  0.00     0.000 C 
BRANCH  12  13
HETATM   13  C   UNL     1     -22.360  -6.532  -1.526  1.00  0.00     0.004 C 
BRANCH  13  14
HETATM   14  C   UNL     1     -21.903  -7.499  -0.420  1.00  0.00    -0.023 C 
HETATM   15  C   UNL     1     -23.079  -8.086   0.363  1.00  0.00     0.009 C 
HETATM   16  C   UNL     1     -21.073  -8.627  -1.036  1.00  0.00     0.009 C 
ENDBRANCH  13  14
ENDBRANCH  12  13
ENDBRANCH  11  12
ENDBRANCH  10  11
ENDBRANCH   9  10
ENDBRANCH   1   9
TORSDOF 12
BEGIN_RES ARG D 557
REMARK  4 active torsions:
REMARK  status: ('A' for Active; 'I' for Inactive)
REMARK    1  A    between atoms: CA   and  CB  
REMARK    2  A    between atoms: CB   and  CG  
REMARK    3  A    between atoms: CG   and  CD  
REMARK    4  A    between atoms: CD   and  NE  
REMARK       I    between atoms: NE   and  CZ  
REMARK       I    between atoms: CZ   and  NH1 
REMARK       I    between atoms: CZ   and  NH2 
ROOT
ATOM      1  CA  ARG D 557     -26.217   2.705 -17.014  1.00 35.49     0.159 C 
ENDROOT
BRANCH   1   2
ATOM      2  CB  ARG D 557     -26.789   1.319 -17.183  1.00 35.49     0.034 C 
BRANCH   2   3
ATOM      3  CG  ARG D 557     -28.232   1.226 -17.437  1.00 35.49     0.027 C 
BRANCH   3   4
ATOM      4  CD  ARG D 557     -28.911   0.302 -16.500  1.00 35.49     0.116 C 
BRANCH   4   5
ATOM      5  NE  ARG D 557     -29.313  -0.922 -17.142  1.00 35.49    -0.212 N 
ATOM      6  CZ  ARG D 557     -28.697  -2.078 -17.046  1.00 35.49     0.666 C 
ATOM      7  NH1 ARG D 557     -27.596  -2.237 -16.335  1.00 35.49    -0.235 N 
ATOM      8  NH2 ARG D 557     -29.215  -3.090 -17.680  1.00 35.49    -0.235 N 
ATOM      9  HH  ARG D 557     -27.238  -1.586 -15.908  1.00 35.49     0.174 HD
ATOM     10  HH  ARG D 557     -27.238  -3.016 -16.307  1.00 35.49     0.174 HD
ATOM     11  HH  ARG D 557     -29.931  -2.959 -18.125  1.00 35.49     0.174 HD
ATOM     12  HH  ARG D 557     -28.847  -3.853 -17.638  1.00 35.49     0.174 HD
ATOM     13  HE  ARG D 557     -29.973  -0.893 -17.679  1.00 35.49     0.178 HD
ENDBRANCH   4   5
ENDBRANCH   3   4
ENDBRANCH   2   3
ENDBRANCH   1   2
END_RES ARG D 557
BEGIN_RES GLU D 570
REMARK  3 active torsions:
REMARK  status: ('A' for Active; 'I' for Inactive)
REMARK    5  A    between atoms: CA   and  CB  
REMARK    6  A    between atoms: CB   and  CG  
REMARK    7  A    between atoms: CG   and  CD  
ROOT
ATOM     14  CA  GLU D 570     -18.033  -6.348 -13.375  1.00 32.92     0.160 C 
ENDROOT
BRANCH  14  15
ATOM     15  CB  GLU D 570     -19.500  -6.345 -13.794  1.00 32.92     0.043 C 
BRANCH  15  16
ATOM     16  CG  GLU D 570     -20.097  -7.642 -14.205  1.00 32.92     0.100 C 
BRANCH  16  17
ATOM     17  CD  GLU D 570     -20.993  -7.521 -15.416  1.00 32.92     0.185 C 
ATOM     18  OE1 GLU D 570     -21.499  -6.414 -15.686  1.00 32.92    -0.647 OA
ATOM     19  OE2 GLU D 570     -21.205  -8.547 -16.091  1.00 32.92    -0.647 OA
ENDBRANCH  16  17
ENDBRANCH  15  16
ENDBRANCH  14  15
END_RES GLU D 570
ENDMDL
MODEL 5
REMARK VINA RESULT:      -5.9      2.213      6.781
REMARK  12 active torsions:
REMARK  status: ('A' for Active; 'I' for Inactive)
REMARK    1  A    between atoms: C_2  and  C_3 
REMARK    2  A    between atoms: C_3  and  C_4 
REMARK    3  A    between atoms: C_4  and  C_5 
REMARK    4  A    between atoms: C_5  and  C_6 
REMARK    5  A    between atoms: C_6  and  C_7 
REMARK    6  A    between atoms: C_7  and  C_8 
REMARK    7  A    between atoms: C_8  and  C_9 
REMARK    8  A    between atoms: C_9  and  C_10 
REMARK    9  A    between atoms: C_10  and  C_11 
REMARK   10  A    between atoms: C_11  and  C_12 
REMARK   11  A    between atoms: C_12  and  C_13 
REMARK   12  A    between atoms: C_13  and  C_14 
ROOT
HETATM    1  C   UNL     1     -22.004  -6.520  -5.267  1.00  0.00     0.000 C 
ENDROOT
BRANCH   1   2
HETATM    2  C   UNL     1     -20.780  -7.186  -4.651  1.00  0.00     0.000 C 
BRANCH   2   3
HETATM    3  C   UNL     1     -20.968  -7.382  -3.151  1.00  0.00     0.000 C 
BRANCH   3   4
HETATM    4  C   UNL     1     -21.953  -6.359  -2.597  1.00  0.00     0.000 C 
BRANCH   4   5
HETATM    5  C   UNL     1     -22.276  -6.650  -1.135  1.00  0.00     0.000 C 
BRANCH   5   6
HETATM    6  C   UNL     1     -21.450  -7.825  -0.623  1.00  0.00    -0.000 C 
BRANCH   6   7
HETATM    7  C   UNL     1     -22.067  -8.423   0.638  1.00  0.00    -0.005 C 
HETATM    8  C   UNL     1     -23.474  -8.930   0.371  1.00  0.00     0.005 C 
ENDBRANCH   6   7
ENDBRANCH   5   6
ENDBRANCH   4   5
ENDBRANCH   3   4
ENDBRANCH   2   3
ENDBRANCH   1   2
BRANCH   1   9
HETATM    9  C   UNL     1     -21.594  -5.323  -6.116  1.00  0.00     0.000 C 
BRANCH   9  10
HETATM   10  C   UNL     1     -20.143  -4.950  -5.846  1.00  0.00     0.000 C 
BRANCH  10  11
HETATM   11  C   UNL     1     -19.350  -4.851  -7.146  1.00  0.00     0.000 C 
BRANCH  11  12
HETATM   12  C   UNL     1     -20.068  -3.930  -8.127  1.00  0.00     0.000 C 
BRANCH  12  13
HETATM   13  C   UNL     1     -20.153  -4.556  -9.517  1.00  0.00     0.004 C 
BRANCH  13  14
HETATM   14  C   UNL     1     -21.494  -4.280 -10.218  1.00  0.00    -0.023 C 
HETATM   15  C   UNL     1     -22.545  -3.713  -9.261  1.00  0.00     0.009 C 
HETATM   16  C   UNL     1     -21.277  -3.313 -11.382  1.00  0.00     0.009 C 
ENDBRANCH  13  14
ENDBRANCH  12  13
ENDBRANCH  11  12
ENDBRANCH  10  11
ENDBRANCH   9  10
ENDBRANCH   1   9
TORSDOF 12
BEGIN_RES ARG D 557
REMARK  4 active torsions:
REMARK  status: ('A' for Active; 'I' for Inactive)
REMARK    1  A    between atoms: CA   and  CB  
REMARK    2  A    between atoms: CB   and  CG  
REMARK    3  A    between atoms: CG   and  CD  
REMARK    4  A    between atoms: CD   and  NE  
REMARK       I    between atoms: NE   and  CZ  
REMARK       I    between atoms: CZ   and  NH1 
REMARK       I    between atoms: CZ   and  NH2 
ROOT
ATOM      1  CA  ARG D 557     -26.217   2.705 -17.014  1.00 35.49     0.159 C 
ENDROOT
BRANCH   1   2
ATOM      2  CB  ARG D 557     -26.789   1.319 -17.183  1.00 35.49     0.034 C 
BRANCH   2   3
ATOM      3  CG  ARG D 557     -28.189   1.129 -16.786  1.00 35.49     0.027 C 
BRANCH   3   4
ATOM      4  CD  ARG D 557     -28.730  -0.176 -17.229  1.00 35.49     0.116 C 
BRANCH   4   5
ATOM      5  NE  ARG D 557     -28.010  -1.283 -16.657  1.00 35.49    -0.212 N 
ATOM      6  CZ  ARG D 557     -28.295  -2.555 -16.827  1.00 35.49     0.666 C 
ATOM      7  NH1 ARG D 557     -29.318  -2.961 -17.557  1.00 35.49    -0.235 N 
ATOM      8  NH2 ARG D 557     -27.521  -3.427 -16.249  1.00 35.49    -0.235 N 
ATOM      9  HH  ARG D 557     -29.839  -2.405 -17.948  1.00 35.49     0.174 HD
ATOM     10  HH  ARG D 557     -29.454  -3.803 -17.635  1.00 35.49     0.174 HD
ATOM     11  HH  ARG D 557     -26.864  -3.136 -15.790  1.00 35.49     0.174 HD
ATOM     12  HH  ARG D 557     -27.671  -4.256 -16.339  1.00 35.49     0.174 HD
ATOM     13  HE  ARG D 557     -27.380  -1.112 -16.113  1.00 35.49     0.178 HD
ENDBRANCH   4   5
ENDBRANCH   3   4
ENDBRANCH   2   3
ENDBRANCH   1   2
END_RES ARG D 557
BEGIN_RES GLU D 570
REMARK  3 active torsions:
REMARK  status: ('A' for Active; 'I' for Inactive)
REMARK    5  A    between atoms: CA   and  CB  
REMARK    6  A    between atoms: CB   and  CG  
REMARK    7  A    between atoms: CG   and  CD  
ROOT
ATOM     14  CA  GLU D 570     -18.033  -6.348 -13.375  1.00 32.92     0.160 C 
ENDROOT
BRANCH  14  15
ATOM     15  CB  GLU D 570     -19.500  -6.345 -13.794  1.00 32.92     0.043 C 
BRANCH  15  16
ATOM     16  CG  GLU D 570     -19.798  -6.206 -15.243  1.00 32.92     0.100 C 
BRANCH  16  17
ATOM     17  CD  GLU D 570     -21.088  -5.467 -15.511  1.00 32.92     0.185 C 
ATOM     18  OE1 GLU D 570     -21.852  -5.218 -14.559  1.00 32.92    -0.647 OA
ATOM     19  OE2 GLU D 570     -21.345  -5.148 -16.689  1.00 32.92    -0.647 OA
ENDBRANCH  16  17
ENDBRANCH  15  16
ENDBRANCH  14  15
END_RES GLU D 570
ENDMDL
MODEL 6
REMARK VINA RESULT:      -5.9      1.186      6.533
REMARK  12 active torsions:
REMARK  status: ('A' for Active; 'I' for Inactive)
REMARK    1  A    between atoms: C_2  and  C_3 
REMARK    2  A    between atoms: C_3  and  C_4 
REMARK    3  A    between atoms: C_4  and  C_5 
REMARK    4  A    between atoms: C_5  and  C_6 
REMARK    5  A    between atoms: C_6  and  C_7 
REMARK    6  A    between atoms: C_7  and  C_8 
REMARK    7  A    between atoms: C_8  and  C_9 
REMARK    8  A    between atoms: C_9  and  C_10 
REMARK    9  A    between atoms: C_10  and  C_11 
REMARK   10  A    between atoms: C_11  and  C_12 
REMARK   11  A    between atoms: C_12  and  C_13 
REMARK   12  A    between atoms: C_13  and  C_14 
ROOT
HETATM    1  C   UNL     1     -21.778  -6.622  -4.081  1.00  0.00     0.000 C 
ENDROOT
BRANCH   1   2
HETATM    2  C   UNL     1     -21.306  -6.864  -2.653  1.00  0.00     0.000 C 
BRANCH   2   3
HETATM    3  C   UNL     1     -22.298  -6.286  -1.650  1.00  0.00     0.000 C 
BRANCH   3   4
HETATM    4  C   UNL     1     -22.436  -7.206  -0.443  1.00  0.00     0.000 C 
BRANCH   4   5
HETATM    5  C   UNL     1     -21.306  -8.231  -0.407  1.00  0.00     0.000 C 
BRANCH   5   6
HETATM    6  C   UNL     1     -21.770  -9.522   0.260  1.00  0.00    -0.000 C 
BRANCH   6   7
HETATM    7  C   UNL     1     -22.571 -10.385  -0.712  1.00  0.00    -0.005 C 
HETATM    8  C   UNL     1     -23.941 -10.718  -0.146  1.00  0.00     0.005 C 
ENDBRANCH   6   7
ENDBRANCH   5   6
ENDBRANCH   4   5
ENDBRANCH   3   4
ENDBRANCH   2   3
ENDBRANCH   1   2
BRANCH   1   9
HETATM    9  C   UNL     1     -20.825  -5.683  -4.811  1.00  0.00     0.000 C 
BRANCH   9  10
HETATM   10  C   UNL     1     -20.728  -6.062  -6.283  1.00  0.00     0.000 C 
BRANCH  10  11
HETATM   11  C   UNL     1     -20.010  -4.979  -7.082  1.00  0.00     0.000 C 
BRANCH  11  12
HETATM   12  C   UNL     1     -20.953  -3.809  -7.342  1.00  0.00     0.000 C 
BRANCH  12  13
HETATM   13  C   UNL     1     -22.323  -4.292  -7.812  1.00  0.00     0.004 C 
BRANCH  13  14
HETATM   14  C   UNL     1     -22.363  -4.606  -9.318  1.00  0.00    -0.023 C 
HETATM   15  C   UNL     1     -23.781  -4.548  -9.888  1.00  0.00     0.009 C 
HETATM   16  C   UNL     1     -21.460  -3.627 -10.070  1.00  0.00     0.009 C 
ENDBRANCH  13  14
ENDBRANCH  12  13
ENDBRANCH  11  12
ENDBRANCH  10  11
ENDBRANCH   9  10
ENDBRANCH   1   9
TORSDOF 12
BEGIN_RES ARG D 557
REMARK  4 active torsions:
REMARK  status: ('A' for Active; 'I' for Inactive)
REMARK    1  A    between atoms: CA   and  CB  
REMARK    2  A    between atoms: CB   and  CG  
REMARK    3  A    between atoms: CG   and  CD  
REMARK    4  A    between atoms: CD   and  NE  
REMARK       I    between atoms: NE   and  CZ  
REMARK       I    between atoms: CZ   and  NH1 
REMARK       I    between atoms: CZ   and  NH2 
ROOT
ATOM      1  CA  ARG D 557     -26.217   2.705 -17.014  1.00 35.49     0.159 C 
ENDROOT
BRANCH   1   2
ATOM      2  CB  ARG D 557     -26.789   1.319 -17.183  1.00 35.49     0.034 C 
BRANCH   2   3
ATOM      3  CG  ARG D 557     -25.856   0.196 -17.028  1.00 35.49     0.027 C 
BRANCH   3   4
ATOM      4  CD  ARG D 557     -26.221  -0.688 -15.897  1.00 35.49     0.116 C 
BRANCH   4   5
ATOM      5  NE  ARG D 557     -25.145  -0.833 -14.953  1.00 35.49    -0.212 N 
ATOM      6  CZ  ARG D 557     -24.795  -1.948 -14.352  1.00 35.49     0.666 C 
ATOM      7  NH1 ARG D 557     -25.428  -3.089 -14.551  1.00 35.49    -0.235 N 
ATOM      8  NH2 ARG D 557     -23.778  -1.899 -13.541  1.00 35.49    -0.235 N 
ATOM      9  HH  ARG D 557     -26.098  -3.145 -15.082  1.00 35.49     0.174 HD
ATOM     10  HH  ARG D 557     -25.153  -3.785 -14.133  1.00 35.49     0.174 HD
ATOM     11  HH  ARG D 557     -23.384  -1.150 -13.438  1.00 35.49     0.174 HD
ATOM     12  HH  ARG D 557     -23.520  -2.599 -13.138  1.00 35.49     0.174 HD
ATOM     13  HE  ARG D 557     -24.729  -0.132 -14.711  1.00 35.49     0.178 HD
ENDBRANCH   4   5
ENDBRANCH   3   4
ENDBRANCH   2   3
ENDBRANCH   1   2
END_RES ARG D 557
BEGIN_RES GLU D 570
REMARK  3 active torsions:
REMARK  status: ('A' for Active; 'I' for Inactive)
REMARK    5  A    between atoms: CA   and  CB  
REMARK    6  A    between atoms: CB   and  CG  
REMARK    7  A    between atoms: CG   and  CD  
ROOT
ATOM     14  CA  GLU D 570     -18.033  -6.348 -13.375  1.00 32.92     0.160 C 
ENDROOT
BRANCH  14  15
ATOM     15  CB  GLU D 570     -19.500  -6.345 -13.794  1.00 32.92     0.043 C 
BRANCH  15  16
ATOM     16  CG  GLU D 570     -20.424  -5.453 -13.046  1.00 32.92     0.100 C 
BRANCH  16  17
ATOM     17  CD  GLU D 570     -21.708  -5.176 -13.792  1.00 32.92     0.185 C 
ATOM     18  OE1 GLU D 570     -22.610  -4.530 -13.225  1.00 32.92    -0.647 OA
ATOM     19  OE2 GLU D 570     -21.820  -5.625 -14.950  1.00 32.92    -0.647 OA
ENDBRANCH  16  17
ENDBRANCH  15  16
ENDBRANCH  14  15
END_RES GLU D 570
ENDMDL
MODEL 7
REMARK VINA RESULT:      -5.8      9.906     12.896
REMARK  12 active torsions:
REMARK  status: ('A' for Active; 'I' for Inactive)
REMARK    1  A    between atoms: C_2  and  C_3 
REMARK    2  A    between atoms: C_3  and  C_4 
REMARK    3  A    between atoms: C_4  and  C_5 
REMARK    4  A    between atoms: C_5  and  C_6 
REMARK    5  A    between atoms: C_6  and  C_7 
REMARK    6  A    between atoms: C_7  and  C_8 
REMARK    7  A    between atoms: C_8  and  C_9 
REMARK    8  A    between atoms: C_9  and  C_10 
REMARK    9  A    between atoms: C_10  and  C_11 
REMARK   10  A    between atoms: C_11  and  C_12 
REMARK   11  A    between atoms: C_12  and  C_13 
REMARK   12  A    between atoms: C_13  and  C_14 
ROOT
HETATM    1  C   UNL     1     -35.091  -1.889 -10.162  1.00  0.00     0.000 C 
ENDROOT
BRANCH   1   2
HETATM    2  C   UNL     1     -34.017  -1.895 -11.242  1.00  0.00     0.000 C 
BRANCH   2   3
HETATM    3  C   UNL     1     -33.240  -3.207 -11.226  1.00  0.00     0.000 C 
BRANCH   3   4
HETATM    4  C   UNL     1     -33.702  -4.117 -12.357  1.00  0.00     0.000 C 
BRANCH   4   5
HETATM    5  C   UNL     1     -34.613  -5.222 -11.831  1.00  0.00     0.000 C 
BRANCH   5   6
HETATM    6  C   UNL     1     -34.026  -5.851 -10.572  1.00  0.00    -0.000 C 
BRANCH   6   7
HETATM    7  C   UNL     1     -34.931  -6.958 -10.038  1.00  0.00    -0.005 C 
HETATM    8  C   UNL     1     -34.182  -8.276  -9.940  1.00  0.00     0.005 C 
ENDBRANCH   6   7
ENDBRANCH   5   6
ENDBRANCH   4   5
ENDBRANCH   3   4
ENDBRANCH   2   3
ENDBRANCH   1   2
BRANCH   1   9
HETATM    9  C   UNL     1     -36.465  -1.635 -10.771  1.00  0.00     0.000 C 
BRANCH   9  10
HETATM   10  C   UNL     1     -36.722  -0.139 -10.899  1.00  0.00     0.000 C 
BRANCH  10  11
HETATM   11  C   UNL     1     -36.363   0.592  -9.609  1.00  0.00     0.000 C 
BRANCH  11  12
HETATM   12  C   UNL     1     -37.617   1.189  -8.980  1.00  0.00     0.000 C 
BRANCH  12  13
HETATM   13  C   UNL     1     -37.350   1.672  -7.556  1.00  0.00     0.004 C 
BRANCH  13  14
HETATM   14  C   UNL     1     -37.063   0.521  -6.577  1.00  0.00    -0.023 C 
HETATM   15  C   UNL     1     -37.108   0.974  -5.116  1.00  0.00     0.009 C 
HETATM   16  C   UNL     1     -38.072  -0.607  -6.801  1.00  0.00     0.009 C 
ENDBRANCH  13  14
ENDBRANCH  12  13
ENDBRANCH  11  12
ENDBRANCH  10  11
ENDBRANCH   9  10
ENDBRANCH   1   9
TORSDOF 12
BEGIN_RES ARG D 557
REMARK  4 active torsions:
REMARK  status: ('A' for Active; 'I' for Inactive)
REMARK    1  A    between atoms: CA   and  CB  
REMARK    2  A    between atoms: CB   and  CG  
REMARK    3  A    between atoms: CG   and  CD  
REMARK    4  A    between atoms: CD   and  NE  
REMARK       I    between atoms: NE   and  CZ  
REMARK       I    between atoms: CZ   and  NH1 
REMARK       I    between atoms: CZ   and  NH2 
ROOT
ATOM      1  CA  ARG D 557     -26.217   2.705 -17.014  1.00 35.49     0.159 C 
ENDROOT
BRANCH   1   2
ATOM      2  CB  ARG D 557     -26.789   1.319 -17.183  1.00 35.49     0.034 C 
BRANCH   2   3
ATOM      3  CG  ARG D 557     -28.232   1.226 -17.438  1.00 35.49     0.027 C 
BRANCH   3   4
ATOM      4  CD  ARG D 557     -28.912   0.304 -16.500  1.00 35.49     0.116 C 
BRANCH   4   5
ATOM      5  NE  ARG D 557     -29.301  -0.927 -17.137  1.00 35.49    -0.212 N 
ATOM      6  CZ  ARG D 557     -28.677  -2.078 -17.027  1.00 35.49     0.666 C 
ATOM      7  NH1 ARG D 557     -27.580  -2.225 -16.307  1.00 35.49    -0.235 N 
ATOM      8  NH2 ARG D 557     -29.183  -3.098 -17.658  1.00 35.49    -0.235 N 
ATOM      9  HH  ARG D 557     -27.231  -1.568 -15.882  1.00 35.49     0.174 HD
ATOM     10  HH  ARG D 557     -27.218  -3.001 -16.271  1.00 35.49     0.174 HD
ATOM     11  HH  ARG D 557     -29.896  -2.975 -18.110  1.00 35.49     0.174 HD
ATOM     12  HH  ARG D 557     -28.811  -3.858 -17.609  1.00 35.49     0.174 HD
ATOM     13  HE  ARG D 557     -29.956  -0.907 -17.678  1.00 35.49     0.178 HD
ENDBRANCH   4   5
ENDBRANCH   3   4
ENDBRANCH   2   3
ENDBRANCH   1   2
END_RES ARG D 557
BEGIN_RES GLU D 570
REMARK  3 active torsions:
REMARK  status: ('A' for Active; 'I' for Inactive)
REMARK    5  A    between atoms: CA   and  CB  
REMARK    6  A    between atoms: CB   and  CG  
REMARK    7  A    between atoms: CG   and  CD  
ROOT
ATOM     14  CA  GLU D 570     -18.033  -6.348 -13.375  1.00 32.92     0.160 C 
ENDROOT
BRANCH  14  15
ATOM     15  CB  GLU D 570     -19.500  -6.345 -13.794  1.00 32.92     0.043 C 
BRANCH  15  16
ATOM     16  CG  GLU D 570     -19.802  -6.088 -15.226  1.00 32.92     0.100 C 
BRANCH  16  17
ATOM     17  CD  GLU D 570     -21.265  -5.805 -15.478  1.00 32.92     0.185 C 
ATOM     18  OE1 GLU D 570     -21.582  -4.792 -16.129  1.00 32.92    -0.647 OA
ATOM     19  OE2 GLU D 570     -22.104  -6.597 -15.004  1.00 32.92    -0.647 OA
ENDBRANCH  16  17
ENDBRANCH  15  16
ENDBRANCH  14  15
END_RES GLU D 570
ENDMDL
MODEL 8
REMARK VINA RESULT:      -5.8      1.439      6.661
REMARK  12 active torsions:
REMARK  status: ('A' for Active; 'I' for Inactive)
REMARK    1  A    between atoms: C_2  and  C_3 
REMARK    2  A    between atoms: C_3  and  C_4 
REMARK    3  A    between atoms: C_4  and  C_5 
REMARK    4  A    between atoms: C_5  and  C_6 
REMARK    5  A    between atoms: C_6  and  C_7 
REMARK    6  A    between atoms: C_7  and  C_8 
REMARK    7  A    between atoms: C_8  and  C_9 
REMARK    8  A    between atoms: C_9  and  C_10 
REMARK    9  A    between atoms: C_10  and  C_11 
REMARK   10  A    between atoms: C_11  and  C_12 
REMARK   11  A    between atoms: C_12  and  C_13 
REMARK   12  A    between atoms: C_13  and  C_14 
ROOT
HETATM    1  C   UNL     1     -20.664  -6.985  -5.291  1.00  0.00     0.000 C 
ENDROOT
BRANCH   1   2
HETATM    2  C   UNL     1     -21.982  -6.552  -4.662  1.00  0.00     0.000 C 
BRANCH   2   3
HETATM    3  C   UNL     1     -21.826  -6.357  -3.158  1.00  0.00     0.000 C 
BRANCH   3   4
HETATM    4  C   UNL     1     -20.891  -7.411  -2.576  1.00  0.00     0.000 C 
BRANCH   4   5
HETATM    5  C   UNL     1     -21.602  -8.245  -1.514  1.00  0.00     0.000 C 
BRANCH   5   6
HETATM    6  C   UNL     1     -22.442  -7.355  -0.604  1.00  0.00    -0.000 C 
BRANCH   6   7
HETATM    7  C   UNL     1     -22.596  -7.976   0.782  1.00  0.00    -0.005 C 
HETATM    8  C   UNL     1     -21.281  -8.562   1.267  1.00  0.00     0.005 C 
ENDBRANCH   6   7
ENDBRANCH   5   6
ENDBRANCH   4   5
ENDBRANCH   3   4
ENDBRANCH   2   3
ENDBRANCH   1   2
BRANCH   1   9
HETATM    9  C   UNL     1     -20.336  -6.118  -6.501  1.00  0.00     0.000 C 
BRANCH   9  10
HETATM   10  C   UNL     1     -20.210  -4.657  -6.091  1.00  0.00     0.000 C 
BRANCH  10  11
HETATM   11  C   UNL     1     -20.900  -3.743  -7.099  1.00  0.00     0.000 C 
BRANCH  11  12
HETATM   12  C   UNL     1     -21.201  -4.512  -8.382  1.00  0.00     0.000 C 
BRANCH  12  13
HETATM   13  C   UNL     1     -22.475  -4.001  -9.051  1.00  0.00     0.004 C 
BRANCH  13  14
HETATM   14  C   UNL     1     -22.350  -3.905 -10.581  1.00  0.00    -0.023 C 
HETATM   15  C   UNL     1     -20.942  -4.247 -11.073  1.00  0.00     0.009 C 
HETATM   16  C   UNL     1     -23.370  -4.836 -11.239  1.00  0.00     0.009 C 
ENDBRANCH  13  14
ENDBRANCH  12  13
ENDBRANCH  11  12
ENDBRANCH  10  11
ENDBRANCH   9  10
ENDBRANCH   1   9
TORSDOF 12
BEGIN_RES ARG D 557
REMARK  4 active torsions:
REMARK  status: ('A' for Active; 'I' for Inactive)
REMARK    1  A    between atoms: CA   and  CB  
REMARK    2  A    between atoms: CB   and  CG  
REMARK    3  A    between atoms: CG   and  CD  
REMARK    4  A    between atoms: CD   and  NE  
REMARK       I    between atoms: NE   and  CZ  
REMARK       I    between atoms: CZ   and  NH1 
REMARK       I    between atoms: CZ   and  NH2 
ROOT
ATOM      1  CA  ARG D 557     -26.217   2.705 -17.014  1.00 35.49     0.159 C 
ENDROOT
BRANCH   1   2
ATOM      2  CB  ARG D 557     -26.789   1.319 -17.183  1.00 35.49     0.034 C 
BRANCH   2   3
ATOM      3  CG  ARG D 557     -25.865   0.195 -16.988  1.00 35.49     0.027 C 
BRANCH   3   4
ATOM      4  CD  ARG D 557     -26.294  -0.704 -15.892  1.00 35.49     0.116 C 
BRANCH   4   5
ATOM      5  NE  ARG D 557     -25.247  -0.924 -14.930  1.00 35.49    -0.212 N 
ATOM      6  CZ  ARG D 557     -24.960  -2.070 -14.355  1.00 35.49     0.666 C 
ATOM      7  NH1 ARG D 557     -25.637  -3.176 -14.602  1.00 35.49    -0.235 N 
ATOM      8  NH2 ARG D 557     -23.961  -2.090 -13.521  1.00 35.49    -0.235 N 
ATOM      9  HH  ARG D 557     -26.296  -3.187 -15.149  1.00 35.49     0.174 HD
ATOM     10  HH  ARG D 557     -25.402  -3.896 -14.200  1.00 35.49     0.174 HD
ATOM     11  HH  ARG D 557     -23.537  -1.362 -13.387  1.00 35.49     0.174 HD
ATOM     12  HH  ARG D 557     -23.743  -2.812 -13.134  1.00 35.49     0.174 HD
ATOM     13  HE  ARG D 557     -24.807  -0.249 -14.658  1.00 35.49     0.178 HD
ENDBRANCH   4   5
ENDBRANCH   3   4
ENDBRANCH   2   3
ENDBRANCH   1   2
END_RES ARG D 557
BEGIN_RES GLU D 570
REMARK  3 active torsions:
REMARK  status: ('A' for Active; 'I' for Inactive)
REMARK    5  A    between atoms: CA   and  CB  
REMARK    6  A    between atoms: CB   and  CG  
REMARK    7  A    between atoms: CG   and  CD  
ROOT
ATOM     14  CA  GLU D 570     -18.033  -6.348 -13.375  1.00 32.92     0.160 C 
ENDROOT
BRANCH  14  15
ATOM     15  CB  GLU D 570     -19.500  -6.345 -13.794  1.00 32.92     0.043 C 
BRANCH  15  16
ATOM     16  CG  GLU D 570     -20.074  -7.624 -14.285  1.00 32.92     0.100 C 
BRANCH  16  17
ATOM     17  CD  GLU D 570     -20.964  -7.446 -15.493  1.00 32.92     0.185 C 
ATOM     18  OE1 GLU D 570     -21.185  -6.295 -15.917  1.00 32.92    -0.647 OA
ATOM     19  OE2 GLU D 570     -21.459  -8.466 -16.011  1.00 32.92    -0.647 OA
ENDBRANCH  16  17
ENDBRANCH  15  16
ENDBRANCH  14  15
END_RES GLU D 570
ENDMDL
MODEL 9
REMARK VINA RESULT:      -5.7      2.051      2.697
REMARK  12 active torsions:
REMARK  status: ('A' for Active; 'I' for Inactive)
REMARK    1  A    between atoms: C_2  and  C_3 
REMARK    2  A    between atoms: C_3  and  C_4 
REMARK    3  A    between atoms: C_4  and  C_5 
REMARK    4  A    between atoms: C_5  and  C_6 
REMARK    5  A    between atoms: C_6  and  C_7 
REMARK    6  A    between atoms: C_7  and  C_8 
REMARK    7  A    between atoms: C_8  and  C_9 
REMARK    8  A    between atoms: C_9  and  C_10 
REMARK    9  A    between atoms: C_10  and  C_11 
REMARK   10  A    between atoms: C_11  and  C_12 
REMARK   11  A    between atoms: C_12  and  C_13 
REMARK   12  A    between atoms: C_13  and  C_14 
ROOT
HETATM    1  C   UNL     1     -21.821  -6.646  -5.124  1.00  0.00     0.000 C 
ENDROOT
BRANCH   1   2
HETATM    2  C   UNL     1     -21.512  -5.421  -5.976  1.00  0.00     0.000 C 
BRANCH   2   3
HETATM    3  C   UNL     1     -20.060  -4.994  -5.802  1.00  0.00     0.000 C 
BRANCH   3   4
HETATM    4  C   UNL     1     -19.389  -4.815  -7.158  1.00  0.00     0.000 C 
BRANCH   4   5
HETATM    5  C   UNL     1     -20.179  -3.847  -8.034  1.00  0.00     0.000 C 
BRANCH   5   6
HETATM    6  C   UNL     1     -20.483  -4.473  -9.391  1.00  0.00    -0.000 C 
BRANCH   6   7
HETATM    7  C   UNL     1     -21.745  -3.871 -10.003  1.00  0.00    -0.005 C 
HETATM    8  C   UNL     1     -22.917  -3.962  -9.041  1.00  0.00     0.005 C 
ENDBRANCH   6   7
ENDBRANCH   5   6
ENDBRANCH   4   5
ENDBRANCH   3   4
ENDBRANCH   2   3
ENDBRANCH   1   2
BRANCH   1   9
HETATM    9  C   UNL     1     -20.693  -7.666  -5.219  1.00  0.00     0.000 C 
BRANCH   9  10
HETATM   10  C   UNL     1     -20.327  -8.187  -3.835  1.00  0.00     0.000 C 
BRANCH  10  11
HETATM   11  C   UNL     1     -21.536  -8.168  -2.905  1.00  0.00     0.000 C 
BRANCH  11  12
HETATM   12  C   UNL     1     -21.137  -7.613  -1.541  1.00  0.00     0.000 C 
BRANCH  12  13
HETATM   13  C   UNL     1     -22.362  -7.185  -0.736  1.00  0.00     0.004 C 
BRANCH  13  14
HETATM   14  C   UNL     1     -22.640  -8.105   0.465  1.00  0.00    -0.023 C 
HETATM   15  C   UNL     1     -23.351  -9.396   0.057  1.00  0.00     0.009 C 
HETATM   16  C   UNL     1     -21.326  -8.437   1.173  1.00  0.00     0.009 C 
ENDBRANCH  13  14
ENDBRANCH  12  13
ENDBRANCH  11  12
ENDBRANCH  10  11
ENDBRANCH   9  10
ENDBRANCH   1   9
TORSDOF 12
BEGIN_RES ARG D 557
REMARK  4 active torsions:
REMARK  status: ('A' for Active; 'I' for Inactive)
REMARK    1  A    between atoms: CA   and  CB  
REMARK    2  A    between atoms: CB   and  CG  
REMARK    3  A    between atoms: CG   and  CD  
REMARK    4  A    between atoms: CD   and  NE  
REMARK       I    between atoms: NE   and  CZ  
REMARK       I    between atoms: CZ   and  NH1 
REMARK       I    between atoms: CZ   and  NH2 
ROOT
ATOM      1  CA  ARG D 557     -26.217   2.705 -17.014  1.00 35.49     0.159 C 
ENDROOT
BRANCH   1   2
ATOM      2  CB  ARG D 557     -26.789   1.319 -17.183  1.00 35.49     0.034 C 
BRANCH   2   3
ATOM      3  CG  ARG D 557     -25.957   0.200 -16.723  1.00 35.49     0.027 C 
BRANCH   3   4
ATOM      4  CD  ARG D 557     -26.751  -0.853 -16.049  1.00 35.49     0.116 C 
BRANCH   4   5
ATOM      5  NE  ARG D 557     -27.999  -1.104 -16.720  1.00 35.49    -0.212 N 
ATOM      6  CZ  ARG D 557     -28.517  -2.288 -16.960  1.00 35.49     0.666 C 
ATOM      7  NH1 ARG D 557     -27.916  -3.410 -16.609  1.00 35.49    -0.235 N 
ATOM      8  NH2 ARG D 557     -29.671  -2.327 -17.562  1.00 35.49    -0.235 N 
ATOM      9  HH  ARG D 557     -27.158  -3.407 -16.211  1.00 35.49     0.174 HD
ATOM     10  HH  ARG D 557     -28.303  -4.152 -16.790  1.00 35.49     0.174 HD
ATOM     11  HH  ARG D 557     -30.039  -1.587 -17.770  1.00 35.49     0.174 HD
ATOM     12  HH  ARG D 557     -30.039  -3.072 -17.730  1.00 35.49     0.174 HD
ATOM     13  HE  ARG D 557     -28.418  -0.440 -17.045  1.00 35.49     0.178 HD
ENDBRANCH   4   5
ENDBRANCH   3   4
ENDBRANCH   2   3
ENDBRANCH   1   2
END_RES ARG D 557
BEGIN_RES GLU D 570
REMARK  3 active torsions:
REMARK  status: ('A' for Active; 'I' for Inactive)
REMARK    5  A    between atoms: CA   and  CB  
REMARK    6  A    between atoms: CB   and  CG  
REMARK    7  A    between atoms: CG   and  CD  
ROOT
ATOM     14  CA  GLU D 570     -18.033  -6.348 -13.375  1.00 32.92     0.160 C 
ENDROOT
BRANCH  14  15
ATOM     15  CB  GLU D 570     -19.500  -6.345 -13.794  1.00 32.92     0.043 C 
BRANCH  15  16
ATOM     16  CG  GLU D 570     -20.435  -5.501 -13.006  1.00 32.92     0.100 C 
BRANCH  16  17
ATOM     17  CD  GLU D 570     -21.704  -5.168 -13.757  1.00 32.92     0.185 C 
ATOM     18  OE1 GLU D 570     -21.641  -4.940 -14.980  1.00 32.92    -0.647 OA
ATOM     19  OE2 GLU D 570     -22.769  -5.119 -13.111  1.00 32.92    -0.647 OA
ENDBRANCH  16  17
ENDBRANCH  15  16
ENDBRANCH  14  15
END_RES GLU D 570
ENDMDL
