MODEL 1
REMARK VINA RESULT:      -8.4      0.000      0.000
REMARK  22 active torsions:
REMARK  status: ('A' for Active; 'I' for Inactive)
REMARK    1  A    between atoms: C_1  and  C_2 
REMARK    2  A    between atoms: C_1  and  O_34 
REMARK    3  A    between atoms: C_3  and  O_33 
REMARK    4  A    between atoms: C_4  and  O_32 
REMARK    5  A    between atoms: C_5  and  O_31 
REMARK    6  A    between atoms: C_6  and  O_8 
REMARK    7  A    between atoms: O_8  and  C_9 
REMARK    8  A    between atoms: C_9  and  C_10 
REMARK    9  A    between atoms: C_11  and  O_30 
REMARK   10  A    between atoms: C_12  and  O_29 
REMARK   11  A    between atoms: C_13  and  O_28 
REMARK   12  A    between atoms: C_14  and  O_16 
REMARK   13  A    between atoms: O_16  and  C_17 
REMARK   14  A    between atoms: C_17  and  C_18 
REMARK   15  A    between atoms: C_18  and  C_19 
REMARK   16  A    between atoms: C_18  and  O_27 
REMARK   17  A    between atoms: C_19  and  C_20 
REMARK   18  A    between atoms: C_19  and  O_26 
REMARK   19  A    between atoms: C_20  and  C_21 
REMARK   20  A    between atoms: C_20  and  O_25 
REMARK   21  A    between atoms: C_21  and  C_22 
REMARK   22  A    between atoms: C_21  and  O_24 
ROOT
HETATM    1  C   UNL     1     -22.721  -4.151 -14.413  1.00  0.00     0.180 C 
HETATM    2  C   UNL     1     -22.791  -2.616 -14.400  1.00  0.00     0.180 C 
HETATM    3  C   UNL     1     -24.122  -2.119 -13.805  1.00  0.00     0.183 C 
HETATM    4  C   UNL     1     -25.342  -2.763 -14.477  1.00  0.00     0.204 C 
HETATM    5  C   UNL     1     -25.150  -4.297 -14.454  1.00  0.00     0.291 C 
HETATM    6  O   UNL     1     -23.902  -4.705 -15.010  1.00  0.00    -0.348 OA
ENDROOT
BRANCH   1   7
HETATM    7  C   UNL     1     -22.451  -4.784 -13.047  1.00  0.00     0.205 C 
BRANCH   7   8
HETATM    8  O   UNL     1     -21.435  -4.004 -12.398  1.00  0.00    -0.356 OA
BRANCH   8   9
HETATM    9  C   UNL     1     -21.781  -3.746 -11.036  1.00  0.00     0.291 C 
HETATM   10  C   UNL     1     -20.500  -3.821 -10.189  1.00  0.00     0.204 C 
HETATM   11  C   UNL     1     -20.867  -3.544  -8.729  1.00  0.00     0.183 C 
HETATM   12  C   UNL     1     -21.958  -4.523  -8.253  1.00  0.00     0.180 C 
HETATM   13  C   UNL     1     -23.138  -4.622  -9.242  1.00  0.00     0.179 C 
HETATM   14  O   UNL     1     -22.697  -4.753 -10.606  1.00  0.00    -0.348 OA
BRANCH  10  15
HETATM   15  O   UNL     1     -19.928  -5.152 -10.277  1.00  0.00    -0.388 OA
HETATM   16  H   UNL     1     -19.864  -5.342 -11.237  1.00  0.00     0.210 HD
ENDBRANCH  10  15
BRANCH  11  17
HETATM   17  O   UNL     1     -19.698  -3.663  -7.907  1.00  0.00    -0.390 OA
HETATM   18  H   UNL     1     -19.085  -4.232  -8.416  1.00  0.00     0.210 HD
ENDBRANCH  11  17
BRANCH  12  19
HETATM   19  O   UNL     1     -21.385  -5.839  -8.106  1.00  0.00    -0.390 OA
HETATM   20  H   UNL     1     -20.745  -5.949  -8.842  1.00  0.00     0.210 HD
ENDBRANCH  12  19
BRANCH  13  21
HETATM   21  C   UNL     1     -24.166  -3.487  -9.109  1.00  0.00     0.198 C 
BRANCH  21  22
HETATM   22  O   UNL     1     -25.428  -3.856  -9.649  1.00  0.00    -0.398 OA
HETATM   23  H   UNL     1     -25.785  -3.079 -10.115  1.00  0.00     0.209 HD
ENDBRANCH  21  22
ENDBRANCH  13  21
ENDBRANCH   8   9
ENDBRANCH   7   8
ENDBRANCH   1   7
BRANCH   2  24
HETATM   24  O   UNL     1     -22.649  -2.122 -15.744  1.00  0.00    -0.390 OA
HETATM   25  H   UNL     1     -22.067  -2.716 -16.247  1.00  0.00     0.210 HD
ENDBRANCH   2  24
BRANCH   3  26
HETATM   26  O   UNL     1     -24.201  -0.694 -13.936  1.00  0.00    -0.390 OA
HETATM   27  H   UNL     1     -24.552  -0.381 -13.074  1.00  0.00     0.210 HD
ENDBRANCH   3  26
BRANCH   5  28
HETATM   28  O   UNL     1     -26.181  -5.051 -15.087  1.00  0.00    -0.356 OA
BRANCH  28  29
HETATM   29  C   UNL     1     -25.821  -6.046 -16.036  1.00  0.00     0.205 C 
BRANCH  29  30
HETATM   30  C   UNL     1     -26.960  -6.645 -16.897  1.00  0.00     0.173 C 
BRANCH  30  31
HETATM   31  C   UNL     1     -28.316  -6.664 -16.139  1.00  0.00     0.180 C 
BRANCH  31  32
HETATM   32  C   UNL     1     -29.496  -7.189 -16.988  1.00  0.00     0.184 C 
BRANCH  32  33
HETATM   33  C   UNL     1     -30.413  -6.044 -17.482  1.00  0.00     0.210 C 
BRANCH  33  34
HETATM   34  C   UNL     1     -30.915  -5.210 -16.314  1.00  0.00     0.265 C 
HETATM   35  O   UNL     1     -31.734  -4.299 -16.443  1.00  0.00    -0.304 OA
ENDBRANCH  33  34
BRANCH  33  36
HETATM   36  O   UNL     1     -29.688  -5.188 -18.367  1.00  0.00    -0.386 OA
HETATM   37  H   UNL     1     -28.774  -5.147 -18.020  1.00  0.00     0.210 HD
ENDBRANCH  33  36
ENDBRANCH  32  33
BRANCH  32  38
HETATM   38  O   UNL     1     -29.058  -7.969 -18.108  1.00  0.00    -0.390 OA
HETATM   39  H   UNL     1     -28.178  -7.628 -18.375  1.00  0.00     0.210 HD
ENDBRANCH  32  38
ENDBRANCH  31  32
BRANCH  31  40
HETATM   40  O   UNL     1     -28.274  -7.447 -14.941  1.00  0.00    -0.390 OA
HETATM   41  H   UNL     1     -27.618  -8.159 -15.086  1.00  0.00     0.210 HD
ENDBRANCH  31  40
ENDBRANCH  30  31
BRANCH  30  42
HETATM   42  O   UNL     1     -26.988  -5.922 -18.131  1.00  0.00    -0.391 OA
HETATM   43  H   UNL     1     -26.528  -6.436 -18.815  1.00  0.00     0.210 HD
ENDBRANCH  30  42
ENDBRANCH  29  30
ENDBRANCH  28  29
ENDBRANCH   5  28
BRANCH   4  44
HETATM   44  O   UNL     1     -25.502  -2.183 -15.786  1.00  0.00    -0.388 OA
HETATM   45  H   UNL     1     -26.320  -1.660 -15.821  1.00  0.00     0.210 HD
ENDBRANCH   4  44
TORSDOF 22
BEGIN_RES ARG D 557
REMARK  4 active torsions:
REMARK  status: ('A' for Active; 'I' for Inactive)
REMARK    1  A    between atoms: CA   and  CB  
REMARK    2  A    between atoms: CB   and  CG  
REMARK    3  A    between atoms: CG   and  CD  
REMARK    4  A    between atoms: CD   and  NE  
REMARK       I    between atoms: NE   and  CZ  
REMARK       I    between atoms: CZ   and  NH1 
REMARK       I    between atoms: CZ   and  NH2 
ROOT
ATOM      1  CA  ARG D 557     -26.217   2.705 -17.014  1.00 35.49     0.159 C 
ENDROOT
BRANCH   1   2
ATOM      2  CB  ARG D 557     -26.789   1.319 -17.183  1.00 35.49     0.034 C 
BRANCH   2   3
ATOM      3  CG  ARG D 557     -28.232   1.226 -17.436  1.00 35.49     0.027 C 
BRANCH   3   4
ATOM      4  CD  ARG D 557     -28.911   0.305 -16.495  1.00 35.49     0.116 C 
BRANCH   4   5
ATOM      5  NE  ARG D 557     -28.250  -0.970 -16.412  1.00 35.49    -0.212 N 
ATOM      6  CZ  ARG D 557     -28.695  -2.100 -16.912  1.00 35.49     0.666 C 
ATOM      7  NH1 ARG D 557     -29.845  -2.187 -17.555  1.00 35.49    -0.235 N 
ATOM      8  NH2 ARG D 557     -27.951  -3.158 -16.761  1.00 35.49    -0.235 N 
ATOM      9  HH  ARG D 557     -30.349  -1.504 -17.669  1.00 35.49     0.174 HD
ATOM     10  HH  ARG D 557     -30.082  -2.951 -17.862  1.00 35.49     0.174 HD
ATOM     11  HH  ARG D 557     -27.210  -3.070 -16.348  1.00 35.49     0.174 HD
ATOM     12  HH  ARG D 557     -28.204  -3.905 -17.073  1.00 35.49     0.174 HD
ATOM     13  HE  ARG D 557     -27.536  -1.020 -15.952  1.00 35.49     0.178 HD
ENDBRANCH   4   5
ENDBRANCH   3   4
ENDBRANCH   2   3
ENDBRANCH   1   2
END_RES ARG D 557
BEGIN_RES GLU D 570
REMARK  3 active torsions:
REMARK  status: ('A' for Active; 'I' for Inactive)
REMARK    5  A    between atoms: CA   and  CB  
REMARK    6  A    between atoms: CB   and  CG  
REMARK    7  A    between atoms: CG   and  CD  
ROOT
ATOM     14  CA  GLU D 570     -18.033  -6.348 -13.375  1.00 32.92     0.160 C 
ENDROOT
BRANCH  14  15
ATOM     15  CB  GLU D 570     -19.500  -6.345 -13.794  1.00 32.92     0.043 C 
BRANCH  15  16
ATOM     16  CG  GLU D 570     -19.796  -6.310 -15.250  1.00 32.92     0.100 C 
BRANCH  16  17
ATOM     17  CD  GLU D 570     -20.803  -7.355 -15.671  1.00 32.92     0.185 C 
ATOM     18  OE1 GLU D 570     -21.826  -6.996 -16.285  1.00 32.92    -0.647 OA
ATOM     19  OE2 GLU D 570     -20.574  -8.543 -15.370  1.00 32.92    -0.647 OA
ENDBRANCH  16  17
ENDBRANCH  15  16
ENDBRANCH  14  15
END_RES GLU D 570
ENDMDL
MODEL 2
REMARK VINA RESULT:      -8.0      1.296      2.346
REMARK  22 active torsions:
REMARK  status: ('A' for Active; 'I' for Inactive)
REMARK    1  A    between atoms: C_1  and  C_2 
REMARK    2  A    between atoms: C_1  and  O_34 
REMARK    3  A    between atoms: C_3  and  O_33 
REMARK    4  A    between atoms: C_4  and  O_32 
REMARK    5  A    between atoms: C_5  and  O_31 
REMARK    6  A    between atoms: C_6  and  O_8 
REMARK    7  A    between atoms: O_8  and  C_9 
REMARK    8  A    between atoms: C_9  and  C_10 
REMARK    9  A    between atoms: C_11  and  O_30 
REMARK   10  A    between atoms: C_12  and  O_29 
REMARK   11  A    between atoms: C_13  and  O_28 
REMARK   12  A    between atoms: C_14  and  O_16 
REMARK   13  A    between atoms: O_16  and  C_17 
REMARK   14  A    between atoms: C_17  and  C_18 
REMARK   15  A    between atoms: C_18  and  C_19 
REMARK   16  A    between atoms: C_18  and  O_27 
REMARK   17  A    between atoms: C_19  and  C_20 
REMARK   18  A    between atoms: C_19  and  O_26 
REMARK   19  A    between atoms: C_20  and  C_21 
REMARK   20  A    between atoms: C_20  and  O_25 
REMARK   21  A    between atoms: C_21  and  C_22 
REMARK   22  A    between atoms: C_21  and  O_24 
ROOT
HETATM    1  C   UNL     1     -22.303  -3.286 -13.619  1.00  0.00     0.180 C 
HETATM    2  C   UNL     1     -23.076  -2.070 -14.151  1.00  0.00     0.180 C 
HETATM    3  C   UNL     1     -24.572  -2.155 -13.796  1.00  0.00     0.183 C 
HETATM    4  C   UNL     1     -25.200  -3.489 -14.220  1.00  0.00     0.204 C 
HETATM    5  C   UNL     1     -24.328  -4.633 -13.653  1.00  0.00     0.291 C 
HETATM    6  O   UNL     1     -22.953  -4.505 -14.005  1.00  0.00    -0.348 OA
ENDROOT
BRANCH   1   7
HETATM    7  C   UNL     1     -22.039  -3.260 -12.113  1.00  0.00     0.205 C 
BRANCH   7   8
HETATM    8  O   UNL     1     -22.882  -4.250 -11.506  1.00  0.00    -0.356 OA
BRANCH   8   9
HETATM    9  C   UNL     1     -22.380  -4.633 -10.224  1.00  0.00     0.291 C 
HETATM   10  C   UNL     1     -23.449  -4.308  -9.168  1.00  0.00     0.204 C 
HETATM   11  C   UNL     1     -22.915  -4.718  -7.794  1.00  0.00     0.183 C 
HETATM   12  C   UNL     1     -21.566  -4.028  -7.512  1.00  0.00     0.180 C 
HETATM   13  C   UNL     1     -20.578  -4.155  -8.691  1.00  0.00     0.179 C 
HETATM   14  O   UNL     1     -21.200  -3.875  -9.958  1.00  0.00    -0.348 OA
BRANCH  10  15
HETATM   15  O   UNL     1     -23.711  -2.880  -9.155  1.00  0.00    -0.388 OA
HETATM   16  H   UNL     1     -24.618  -2.781  -9.514  1.00  0.00     0.210 HD
ENDBRANCH  10  15
BRANCH  11  17
HETATM   17  O   UNL     1     -23.871  -4.374  -6.782  1.00  0.00    -0.390 OA
HETATM   18  H   UNL     1     -23.962  -5.178  -6.233  1.00  0.00     0.210 HD
ENDBRANCH  11  17
BRANCH  12  19
HETATM   19  O   UNL     1     -21.792  -2.624  -7.268  1.00  0.00    -0.390 OA
HETATM   20  H   UNL     1     -21.709  -2.172  -8.135  1.00  0.00     0.210 HD
ENDBRANCH  12  19
BRANCH  13  21
HETATM   21  C   UNL     1     -19.827  -5.495  -8.739  1.00  0.00     0.198 C 
BRANCH  21  22
HETATM   22  O   UNL     1     -19.864  -6.163  -7.484  1.00  0.00    -0.398 OA
HETATM   23  H   UNL     1     -19.898  -7.120  -7.664  1.00  0.00     0.209 HD
ENDBRANCH  21  22
ENDBRANCH  13  21
ENDBRANCH   8   9
ENDBRANCH   7   8
ENDBRANCH   1   7
BRANCH   2  24
HETATM   24  O   UNL     1     -22.923  -1.996 -15.580  1.00  0.00    -0.390 OA
HETATM   25  H   UNL     1     -22.694  -1.086 -15.834  1.00  0.00     0.210 HD
ENDBRANCH   2  24
BRANCH   3  26
HETATM   26  O   UNL     1     -25.274  -1.075 -14.423  1.00  0.00    -0.390 OA
HETATM   27  H   UNL     1     -25.699  -1.475 -15.213  1.00  0.00     0.210 HD
ENDBRANCH   3  26
BRANCH   5  28
HETATM   28  O   UNL     1     -24.750  -5.951 -13.998  1.00  0.00    -0.356 OA
BRANCH  28  29
HETATM   29  C   UNL     1     -24.119  -6.610 -15.088  1.00  0.00     0.205 C 
BRANCH  29  30
HETATM   30  C   UNL     1     -25.040  -7.186 -16.192  1.00  0.00     0.173 C 
BRANCH  30  31
HETATM   31  C   UNL     1     -26.520  -6.754 -16.001  1.00  0.00     0.180 C 
BRANCH  31  32
HETATM   32  C   UNL     1     -27.370  -6.862 -17.288  1.00  0.00     0.184 C 
BRANCH  32  33
HETATM   33  C   UNL     1     -28.870  -7.089 -16.977  1.00  0.00     0.210 C 
BRANCH  33  34
HETATM   34  C   UNL     1     -29.741  -6.578 -18.114  1.00  0.00     0.265 C 
HETATM   35  O   UNL     1     -29.954  -5.381 -18.309  1.00  0.00    -0.304 OA
ENDBRANCH  33  34
BRANCH  33  36
HETATM   36  O   UNL     1     -29.126  -8.484 -16.806  1.00  0.00    -0.386 OA
HETATM   37  H   UNL     1     -28.318  -8.863 -16.405  1.00  0.00     0.210 HD
ENDBRANCH  33  36
ENDBRANCH  32  33
BRANCH  32  38
HETATM   38  O   UNL     1     -27.225  -5.715 -18.136  1.00  0.00    -0.390 OA
HETATM   39  H   UNL     1     -26.271  -5.487 -18.159  1.00  0.00     0.210 HD
ENDBRANCH  32  38
ENDBRANCH  31  32
BRANCH  31  40
HETATM   40  O   UNL     1     -27.193  -7.506 -14.985  1.00  0.00    -0.390 OA
HETATM   41  H   UNL     1     -26.748  -8.376 -14.929  1.00  0.00     0.210 HD
ENDBRANCH  31  40
ENDBRANCH  30  31
BRANCH  30  42
HETATM   42  O   UNL     1     -24.477  -6.813 -17.454  1.00  0.00    -0.391 OA
HETATM   43  H   UNL     1     -23.547  -6.563 -17.330  1.00  0.00     0.210 HD
ENDBRANCH  30  42
ENDBRANCH  29  30
ENDBRANCH  28  29
ENDBRANCH   5  28
BRANCH   4  44
HETATM   44  O   UNL     1     -25.355  -3.486 -15.652  1.00  0.00    -0.388 OA
HETATM   45  H   UNL     1     -25.543  -2.587 -15.965  1.00  0.00     0.210 HD
ENDBRANCH   4  44
TORSDOF 22
BEGIN_RES ARG D 557
REMARK  4 active torsions:
REMARK  status: ('A' for Active; 'I' for Inactive)
REMARK    1  A    between atoms: CA   and  CB  
REMARK    2  A    between atoms: CB   and  CG  
REMARK    3  A    between atoms: CG   and  CD  
REMARK    4  A    between atoms: CD   and  NE  
REMARK       I    between atoms: NE   and  CZ  
REMARK       I    between atoms: CZ   and  NH1 
REMARK       I    between atoms: CZ   and  NH2 
ROOT
ATOM      1  CA  ARG D 557     -26.217   2.705 -17.014  1.00 35.49     0.159 C 
ENDROOT
BRANCH   1   2
ATOM      2  CB  ARG D 557     -26.789   1.319 -17.183  1.00 35.49     0.034 C 
BRANCH   2   3
ATOM      3  CG  ARG D 557     -28.179   1.121 -16.754  1.00 35.49     0.027 C 
BRANCH   3   4
ATOM      4  CD  ARG D 557     -28.806  -0.055 -17.399  1.00 35.49     0.116 C 
BRANCH   4   5
ATOM      5  NE  ARG D 557     -28.227  -1.293 -16.948  1.00 35.49    -0.212 N 
ATOM      6  CZ  ARG D 557     -28.776  -2.483 -17.057  1.00 35.49     0.666 C 
ATOM      7  NH1 ARG D 557     -29.966  -2.668 -17.599  1.00 35.49    -0.235 N 
ATOM      8  NH2 ARG D 557     -28.097  -3.500 -16.613  1.00 35.49    -0.235 N 
ATOM      9  HH  ARG D 557     -30.429  -2.013 -17.900  1.00 35.49     0.174 HD
ATOM     10  HH  ARG D 557     -30.272  -3.466 -17.645  1.00 35.49     0.174 HD
ATOM     11  HH  ARG D 557     -27.329  -3.351 -16.275  1.00 35.49     0.174 HD
ATOM     12  HH  ARG D 557     -28.417  -4.283 -16.669  1.00 35.49     0.174 HD
ATOM     13  HE  ARG D 557     -27.492  -1.259 -16.522  1.00 35.49     0.178 HD
ENDBRANCH   4   5
ENDBRANCH   3   4
ENDBRANCH   2   3
ENDBRANCH   1   2
END_RES ARG D 557
BEGIN_RES GLU D 570
REMARK  3 active torsions:
REMARK  status: ('A' for Active; 'I' for Inactive)
REMARK    5  A    between atoms: CA   and  CB  
REMARK    6  A    between atoms: CB   and  CG  
REMARK    7  A    between atoms: CG   and  CD  
ROOT
ATOM     14  CA  GLU D 570     -18.033  -6.348 -13.375  1.00 32.92     0.160 C 
ENDROOT
BRANCH  14  15
ATOM     15  CB  GLU D 570     -19.500  -6.345 -13.794  1.00 32.92     0.043 C 
BRANCH  15  16
ATOM     16  CG  GLU D 570     -19.803  -6.071 -15.222  1.00 32.92     0.100 C 
BRANCH  16  17
ATOM     17  CD  GLU D 570     -20.637  -7.154 -15.867  1.00 32.92     0.185 C 
ATOM     18  OE1 GLU D 570     -20.651  -8.290 -15.356  1.00 32.92    -0.647 OA
ATOM     19  OE2 GLU D 570     -21.269  -6.867 -16.902  1.00 32.92    -0.647 OA
ENDBRANCH  16  17
ENDBRANCH  15  16
ENDBRANCH  14  15
END_RES GLU D 570
ENDMDL
MODEL 3
REMARK VINA RESULT:      -7.9      1.718      8.543
REMARK  22 active torsions:
REMARK  status: ('A' for Active; 'I' for Inactive)
REMARK    1  A    between atoms: C_1  and  C_2 
REMARK    2  A    between atoms: C_1  and  O_34 
REMARK    3  A    between atoms: C_3  and  O_33 
REMARK    4  A    between atoms: C_4  and  O_32 
REMARK    5  A    between atoms: C_5  and  O_31 
REMARK    6  A    between atoms: C_6  and  O_8 
REMARK    7  A    between atoms: O_8  and  C_9 
REMARK    8  A    between atoms: C_9  and  C_10 
REMARK    9  A    between atoms: C_11  and  O_30 
REMARK   10  A    between atoms: C_12  and  O_29 
REMARK   11  A    between atoms: C_13  and  O_28 
REMARK   12  A    between atoms: C_14  and  O_16 
REMARK   13  A    between atoms: O_16  and  C_17 
REMARK   14  A    between atoms: C_17  and  C_18 
REMARK   15  A    between atoms: C_18  and  C_19 
REMARK   16  A    between atoms: C_18  and  O_27 
REMARK   17  A    between atoms: C_19  and  C_20 
REMARK   18  A    between atoms: C_19  and  O_26 
REMARK   19  A    between atoms: C_20  and  C_21 
REMARK   20  A    between atoms: C_20  and  O_25 
REMARK   21  A    between atoms: C_21  and  C_22 
REMARK   22  A    between atoms: C_21  and  O_24 
ROOT
HETATM    1  C   UNL     1     -26.255  -6.366 -16.424  1.00  0.00     0.180 C 
HETATM    2  C   UNL     1     -25.131  -7.218 -17.031  1.00  0.00     0.180 C 
HETATM    3  C   UNL     1     -24.048  -7.548 -15.987  1.00  0.00     0.183 C 
HETATM    4  C   UNL     1     -23.522  -6.296 -15.272  1.00  0.00     0.204 C 
HETATM    5  C   UNL     1     -24.736  -5.508 -14.727  1.00  0.00     0.291 C 
HETATM    6  O   UNL     1     -25.711  -5.234 -15.731  1.00  0.00    -0.348 OA
ENDROOT
BRANCH   1   7
HETATM    7  C   UNL     1     -27.225  -7.139 -15.530  1.00  0.00     0.205 C 
BRANCH   7   8
HETATM    8  O   UNL     1     -28.364  -6.298 -15.293  1.00  0.00    -0.356 OA
BRANCH   8   9
HETATM    9  C   UNL     1     -29.144  -6.148 -16.482  1.00  0.00     0.291 C 
HETATM   10  C   UNL     1     -30.035  -4.906 -16.321  1.00  0.00     0.204 C 
HETATM   11  C   UNL     1     -30.871  -4.741 -17.593  1.00  0.00     0.183 C 
HETATM   12  C   UNL     1     -31.676  -6.023 -17.878  1.00  0.00     0.180 C 
HETATM   13  C   UNL     1     -30.810  -7.298 -17.796  1.00  0.00     0.179 C 
HETATM   14  O   UNL     1     -29.963  -7.307 -16.632  1.00  0.00    -0.348 OA
BRANCH  10  15
HETATM   15  O   UNL     1     -30.936  -5.087 -15.197  1.00  0.00    -0.388 OA
HETATM   16  H   UNL     1     -31.704  -4.508 -15.386  1.00  0.00     0.210 HD
ENDBRANCH  10  15
BRANCH  11  17
HETATM   17  O   UNL     1     -31.754  -3.620 -17.448  1.00  0.00    -0.390 OA
HETATM   18  H   UNL     1     -31.524  -3.018 -18.184  1.00  0.00     0.210 HD
ENDBRANCH  11  17
BRANCH  12  19
HETATM   19  O   UNL     1     -32.740  -6.142 -16.911  1.00  0.00    -0.390 OA
HETATM   20  H   UNL     1     -33.210  -6.979 -17.114  1.00  0.00     0.210 HD
ENDBRANCH  12  19
BRANCH  13  21
HETATM   21  C   UNL     1     -29.994  -7.586 -19.065  1.00  0.00     0.198 C 
BRANCH  21  22
HETATM   22  O   UNL     1     -29.645  -8.961 -19.165  1.00  0.00    -0.398 OA
HETATM   23  H   UNL     1     -30.033  -9.301 -19.991  1.00  0.00     0.209 HD
ENDBRANCH  21  22
ENDBRANCH  13  21
ENDBRANCH   8   9
ENDBRANCH   7   8
ENDBRANCH   1   7
BRANCH   2  24
HETATM   24  O   UNL     1     -24.538  -6.509 -18.134  1.00  0.00    -0.390 OA
HETATM   25  H   UNL     1     -25.079  -6.639 -18.930  1.00  0.00     0.210 HD
ENDBRANCH   2  24
BRANCH   3  26
HETATM   26  O   UNL     1     -22.959  -8.226 -16.626  1.00  0.00    -0.390 OA
HETATM   27  H   UNL     1     -22.158  -7.933 -16.139  1.00  0.00     0.210 HD
ENDBRANCH   3  26
BRANCH   5  28
HETATM   28  O   UNL     1     -24.423  -4.282 -14.070  1.00  0.00    -0.356 OA
BRANCH  28  29
HETATM   29  C   UNL     1     -23.662  -4.321 -12.870  1.00  0.00     0.205 C 
BRANCH  29  30
HETATM   30  C   UNL     1     -24.057  -3.325 -11.752  1.00  0.00     0.173 C 
BRANCH  30  31
HETATM   31  C   UNL     1     -24.091  -4.001 -10.353  1.00  0.00     0.180 C 
BRANCH  31  32
HETATM   32  C   UNL     1     -22.930  -3.573  -9.427  1.00  0.00     0.184 C 
BRANCH  32  33
HETATM   33  C   UNL     1     -22.859  -4.439  -8.145  1.00  0.00     0.210 C 
BRANCH  33  34
HETATM   34  C   UNL     1     -21.552  -4.203  -7.406  1.00  0.00     0.265 C 
HETATM   35  O   UNL     1     -20.491  -4.736  -7.734  1.00  0.00    -0.304 OA
ENDBRANCH  33  34
BRANCH  33  36
HETATM   36  O   UNL     1     -23.938  -4.103  -7.271  1.00  0.00    -0.386 OA
HETATM   37  H   UNL     1     -24.507  -3.481  -7.767  1.00  0.00     0.210 HD
ENDBRANCH  33  36
ENDBRANCH  32  33
BRANCH  32  38
HETATM   38  O   UNL     1     -21.661  -3.601 -10.094  1.00  0.00    -0.390 OA
HETATM   39  H   UNL     1     -21.060  -4.158  -9.555  1.00  0.00     0.210 HD
ENDBRANCH  32  38
ENDBRANCH  31  32
BRANCH  31  40
HETATM   40  O   UNL     1     -25.311  -3.753  -9.646  1.00  0.00    -0.390 OA
HETATM   41  H   UNL     1     -25.982  -3.495 -10.310  1.00  0.00     0.210 HD
ENDBRANCH  31  40
ENDBRANCH  30  31
BRANCH  30  42
HETATM   42  O   UNL     1     -23.167  -2.208 -11.842  1.00  0.00    -0.391 OA
HETATM   43  H   UNL     1     -22.862  -2.113 -12.759  1.00  0.00     0.210 HD
ENDBRANCH  30  42
ENDBRANCH  29  30
ENDBRANCH  28  29
ENDBRANCH   5  28
BRANCH   4  44
HETATM   44  O   UNL     1     -22.677  -5.569 -16.185  1.00  0.00    -0.388 OA
HETATM   45  H   UNL     1     -21.958  -6.141 -16.500  1.00  0.00     0.210 HD
ENDBRANCH   4  44
TORSDOF 22
BEGIN_RES ARG D 557
REMARK  4 active torsions:
REMARK  status: ('A' for Active; 'I' for Inactive)
REMARK    1  A    between atoms: CA   and  CB  
REMARK    2  A    between atoms: CB   and  CG  
REMARK    3  A    between atoms: CG   and  CD  
REMARK    4  A    between atoms: CD   and  NE  
REMARK       I    between atoms: NE   and  CZ  
REMARK       I    between atoms: CZ   and  NH1 
REMARK       I    between atoms: CZ   and  NH2 
ROOT
ATOM      1  CA  ARG D 557     -26.217   2.705 -17.014  1.00 35.49     0.159 C 
ENDROOT
BRANCH   1   2
ATOM      2  CB  ARG D 557     -26.789   1.319 -17.183  1.00 35.49     0.034 C 
BRANCH   2   3
ATOM      3  CG  ARG D 557     -28.246   1.187 -17.067  1.00 35.49     0.027 C 
BRANCH   3   4
ATOM      4  CD  ARG D 557     -28.656  -0.154 -16.592  1.00 35.49     0.116 C 
BRANCH   4   5
ATOM      5  NE  ARG D 557     -27.633  -0.784 -15.798  1.00 35.49    -0.212 N 
ATOM      6  CZ  ARG D 557     -27.247  -2.036 -15.895  1.00 35.49     0.666 C 
ATOM      7  NH1 ARG D 557     -27.789  -2.880 -16.754  1.00 35.49    -0.235 N 
ATOM      8  NH2 ARG D 557     -26.289  -2.432 -15.108  1.00 35.49    -0.235 N 
ATOM      9  HH  ARG D 557     -28.419  -2.641 -17.283  1.00 35.49     0.174 HD
ATOM     10  HH  ARG D 557     -27.495  -3.685 -16.774  1.00 35.49     0.174 HD
ATOM     11  HH  ARG D 557     -25.954  -1.863 -14.569  1.00 35.49     0.174 HD
ATOM     12  HH  ARG D 557     -26.011  -3.232 -15.145  1.00 35.49     0.174 HD
ATOM     13  HE  ARG D 557     -27.281  -0.332 -15.169  1.00 35.49     0.178 HD
ENDBRANCH   4   5
ENDBRANCH   3   4
ENDBRANCH   2   3
ENDBRANCH   1   2
END_RES ARG D 557
BEGIN_RES GLU D 570
REMARK  3 active torsions:
REMARK  status: ('A' for Active; 'I' for Inactive)
REMARK    5  A    between atoms: CA   and  CB  
REMARK    6  A    between atoms: CB   and  CG  
REMARK    7  A    between atoms: CG   and  CD  
ROOT
ATOM     14  CA  GLU D 570     -18.033  -6.348 -13.375  1.00 32.92     0.160 C 
ENDROOT
BRANCH  14  15
ATOM     15  CB  GLU D 570     -19.500  -6.345 -13.794  1.00 32.92     0.043 C 
BRANCH  15  16
ATOM     16  CG  GLU D 570     -20.105  -7.647 -14.177  1.00 32.92     0.100 C 
BRANCH  16  17
ATOM     17  CD  GLU D 570     -20.245  -7.814 -15.672  1.00 32.92     0.185 C 
ATOM     18  OE1 GLU D 570     -20.248  -6.801 -16.397  1.00 32.92    -0.647 OA
ATOM     19  OE2 GLU D 570     -20.370  -8.970 -16.122  1.00 32.92    -0.647 OA
ENDBRANCH  16  17
ENDBRANCH  15  16
ENDBRANCH  14  15
END_RES GLU D 570
ENDMDL
MODEL 4
REMARK VINA RESULT:      -7.8      2.058      3.230
REMARK  22 active torsions:
REMARK  status: ('A' for Active; 'I' for Inactive)
REMARK    1  A    between atoms: C_1  and  C_2 
REMARK    2  A    between atoms: C_1  and  O_34 
REMARK    3  A    between atoms: C_3  and  O_33 
REMARK    4  A    between atoms: C_4  and  O_32 
REMARK    5  A    between atoms: C_5  and  O_31 
REMARK    6  A    between atoms: C_6  and  O_8 
REMARK    7  A    between atoms: O_8  and  C_9 
REMARK    8  A    between atoms: C_9  and  C_10 
REMARK    9  A    between atoms: C_11  and  O_30 
REMARK   10  A    between atoms: C_12  and  O_29 
REMARK   11  A    between atoms: C_13  and  O_28 
REMARK   12  A    between atoms: C_14  and  O_16 
REMARK   13  A    between atoms: O_16  and  C_17 
REMARK   14  A    between atoms: C_17  and  C_18 
REMARK   15  A    between atoms: C_18  and  C_19 
REMARK   16  A    between atoms: C_18  and  O_27 
REMARK   17  A    between atoms: C_19  and  C_20 
REMARK   18  A    between atoms: C_19  and  O_26 
REMARK   19  A    between atoms: C_20  and  C_21 
REMARK   20  A    between atoms: C_20  and  O_25 
REMARK   21  A    between atoms: C_21  and  C_22 
REMARK   22  A    between atoms: C_21  and  O_24 
ROOT
HETATM    1  C   UNL     1     -22.575  -4.117 -14.225  1.00  0.00     0.180 C 
HETATM    2  C   UNL     1     -23.177  -2.705 -14.169  1.00  0.00     0.180 C 
HETATM    3  C   UNL     1     -24.630  -2.733 -13.660  1.00  0.00     0.183 C 
HETATM    4  C   UNL     1     -25.506  -3.721 -14.442  1.00  0.00     0.204 C 
HETATM    5  C   UNL     1     -24.792  -5.092 -14.454  1.00  0.00     0.291 C 
HETATM    6  O   UNL     1     -23.450  -5.011 -14.927  1.00  0.00    -0.348 OA
ENDROOT
BRANCH   1   7
HETATM    7  C   UNL     1     -22.182  -4.694 -12.865  1.00  0.00     0.205 C 
BRANCH   7   8
HETATM    8  O   UNL     1     -21.358  -3.723 -12.201  1.00  0.00    -0.356 OA
BRANCH   8   9
HETATM    9  C   UNL     1     -21.785  -3.527 -10.851  1.00  0.00     0.291 C 
HETATM   10  C   UNL     1     -20.567  -3.700  -9.929  1.00  0.00     0.204 C 
HETATM   11  C   UNL     1     -21.020  -3.489  -8.483  1.00  0.00     0.183 C 
HETATM   12  C   UNL     1     -22.175  -4.448  -8.135  1.00  0.00     0.180 C 
HETATM   13  C   UNL     1     -23.290  -4.445  -9.203  1.00  0.00     0.179 C 
HETATM   14  O   UNL     1     -22.764  -4.518 -10.540  1.00  0.00    -0.348 OA
BRANCH  10  15
HETATM   15  O   UNL     1     -20.039  -5.046 -10.057  1.00  0.00    -0.388 OA
HETATM   16  H   UNL     1     -20.714  -5.628  -9.649  1.00  0.00     0.210 HD
ENDBRANCH  10  15
BRANCH  11  17
HETATM   17  O   UNL     1     -19.913  -3.700  -7.595  1.00  0.00    -0.390 OA
HETATM   18  H   UNL     1     -20.074  -3.099  -6.840  1.00  0.00     0.210 HD
ENDBRANCH  11  17
BRANCH  12  19
HETATM   19  O   UNL     1     -21.662  -5.792  -8.028  1.00  0.00    -0.390 OA
HETATM   20  H   UNL     1     -20.869  -5.743  -7.452  1.00  0.00     0.210 HD
ENDBRANCH  12  19
BRANCH  13  21
HETATM   21  C   UNL     1     -24.282  -3.279  -9.072  1.00  0.00     0.198 C 
BRANCH  21  22
HETATM   22  O   UNL     1     -25.423  -3.465  -9.899  1.00  0.00    -0.398 OA
HETATM   23  H   UNL     1     -26.125  -3.851  -9.345  1.00  0.00     0.209 HD
ENDBRANCH  21  22
ENDBRANCH  13  21
ENDBRANCH   8   9
ENDBRANCH   7   8
ENDBRANCH   1   7
BRANCH   2  24
HETATM   24  O   UNL     1     -23.137  -2.118 -15.482  1.00  0.00    -0.390 OA
HETATM   25  H   UNL     1     -23.316  -1.165 -15.415  1.00  0.00     0.210 HD
ENDBRANCH   2  24
BRANCH   3  26
HETATM   26  O   UNL     1     -25.193  -1.419 -13.751  1.00  0.00    -0.390 OA
HETATM   27  H   UNL     1     -25.889  -1.394 -13.059  1.00  0.00     0.210 HD
ENDBRANCH   3  26
BRANCH   5  28
HETATM   28  O   UNL     1     -25.456  -6.120 -15.186  1.00  0.00    -0.356 OA
BRANCH  28  29
HETATM   29  C   UNL     1     -24.740  -6.812 -16.201  1.00  0.00     0.205 C 
BRANCH  29  30
HETATM   30  C   UNL     1     -25.135  -6.515 -17.669  1.00  0.00     0.173 C 
BRANCH  30  31
HETATM   31  C   UNL     1     -24.284  -7.333 -18.679  1.00  0.00     0.180 C 
BRANCH  31  32
HETATM   32  C   UNL     1     -24.562  -6.980 -20.157  1.00  0.00     0.184 C 
BRANCH  32  33
HETATM   33  C   UNL     1     -24.208  -8.147 -21.111  1.00  0.00     0.210 C 
BRANCH  33  34
HETATM   34  C   UNL     1     -23.981  -7.639 -22.526  1.00  0.00     0.265 C 
HETATM   35  O   UNL     1     -24.152  -6.463 -22.851  1.00  0.00    -0.304 OA
ENDBRANCH  33  34
BRANCH  33  36
HETATM   36  O   UNL     1     -23.013  -8.793 -20.668  1.00  0.00    -0.386 OA
HETATM   37  H   UNL     1     -22.709  -9.346 -21.415  1.00  0.00     0.210 HD
ENDBRANCH  33  36
ENDBRANCH  32  33
BRANCH  32  38
HETATM   38  O   UNL     1     -25.921  -6.579 -20.376  1.00  0.00    -0.390 OA
HETATM   39  H   UNL     1     -26.198  -6.947 -21.242  1.00  0.00     0.210 HD
ENDBRANCH  32  38
ENDBRANCH  31  32
BRANCH  31  40
HETATM   40  O   UNL     1     -22.875  -7.187 -18.466  1.00  0.00    -0.390 OA
HETATM   41  H   UNL     1     -22.430  -7.873 -19.004  1.00  0.00     0.210 HD
ENDBRANCH  31  40
ENDBRANCH  30  31
BRANCH  30  42
HETATM   42  O   UNL     1     -26.545  -6.727 -17.783  1.00  0.00    -0.391 OA
HETATM   43  H   UNL     1     -26.983  -6.425 -16.970  1.00  0.00     0.210 HD
ENDBRANCH  30  42
ENDBRANCH  29  30
ENDBRANCH  28  29
ENDBRANCH   5  28
BRANCH   4  44
HETATM   44  O   UNL     1     -25.781  -3.159 -15.740  1.00  0.00    -0.388 OA
HETATM   45  H   UNL     1     -26.689  -2.816 -15.769  1.00  0.00     0.210 HD
ENDBRANCH   4  44
TORSDOF 22
BEGIN_RES ARG D 557
REMARK  4 active torsions:
REMARK  status: ('A' for Active; 'I' for Inactive)
REMARK    1  A    between atoms: CA   and  CB  
REMARK    2  A    between atoms: CB   and  CG  
REMARK    3  A    between atoms: CG   and  CD  
REMARK    4  A    between atoms: CD   and  NE  
REMARK       I    between atoms: NE   and  CZ  
REMARK       I    between atoms: CZ   and  NH1 
REMARK       I    between atoms: CZ   and  NH2 
ROOT
ATOM      1  CA  ARG D 557     -26.217   2.705 -17.014  1.00 35.49     0.159 C 
ENDROOT
BRANCH   1   2
ATOM      2  CB  ARG D 557     -26.789   1.319 -17.183  1.00 35.49     0.034 C 
BRANCH   2   3
ATOM      3  CG  ARG D 557     -28.122   1.081 -16.616  1.00 35.49     0.027 C 
BRANCH   3   4
ATOM      4  CD  ARG D 557     -28.850   0.001 -17.321  1.00 35.49     0.116 C 
BRANCH   4   5
ATOM      5  NE  ARG D 557     -28.328  -1.302 -17.005  1.00 35.49    -0.212 N 
ATOM      6  CZ  ARG D 557     -28.977  -2.439 -17.120  1.00 35.49     0.666 C 
ATOM      7  NH1 ARG D 557     -30.227  -2.502 -17.539  1.00 35.49    -0.235 N 
ATOM      8  NH2 ARG D 557     -28.339  -3.529 -16.809  1.00 35.49    -0.235 N 
ATOM      9  HH  ARG D 557     -30.666  -1.797 -17.752  1.00 35.49     0.174 HD
ATOM     10  HH  ARG D 557     -30.599  -3.271 -17.597  1.00 35.49     0.174 HD
ATOM     11  HH  ARG D 557     -27.530  -3.458 -16.548  1.00 35.49     0.174 HD
ATOM     12  HH  ARG D 557     -28.723  -4.282 -16.874  1.00 35.49     0.174 HD
ATOM     13  HE  ARG D 557     -27.552  -1.348 -16.659  1.00 35.49     0.178 HD
ENDBRANCH   4   5
ENDBRANCH   3   4
ENDBRANCH   2   3
ENDBRANCH   1   2
END_RES ARG D 557
BEGIN_RES GLU D 570
REMARK  3 active torsions:
REMARK  status: ('A' for Active; 'I' for Inactive)
REMARK    5  A    between atoms: CA   and  CB  
REMARK    6  A    between atoms: CB   and  CG  
REMARK    7  A    between atoms: CG   and  CD  
ROOT
ATOM     14  CA  GLU D 570     -18.033  -6.348 -13.375  1.00 32.92     0.160 C 
ENDROOT
BRANCH  14  15
ATOM     15  CB  GLU D 570     -19.500  -6.345 -13.794  1.00 32.92     0.043 C 
BRANCH  15  16
ATOM     16  CG  GLU D 570     -20.048  -7.597 -14.378  1.00 32.92     0.100 C 
BRANCH  16  17
ATOM     17  CD  GLU D 570     -20.801  -7.365 -15.667  1.00 32.92     0.185 C 
ATOM     18  OE1 GLU D 570     -21.561  -8.256 -16.092  1.00 32.92    -0.647 OA
ATOM     19  OE2 GLU D 570     -20.615  -6.289 -16.267  1.00 32.92    -0.647 OA
ENDBRANCH  16  17
ENDBRANCH  15  16
ENDBRANCH  14  15
END_RES GLU D 570
ENDMDL
MODEL 5
REMARK VINA RESULT:      -7.8      1.320      1.904
REMARK  22 active torsions:
REMARK  status: ('A' for Active; 'I' for Inactive)
REMARK    1  A    between atoms: C_1  and  C_2 
REMARK    2  A    between atoms: C_1  and  O_34 
REMARK    3  A    between atoms: C_3  and  O_33 
REMARK    4  A    between atoms: C_4  and  O_32 
REMARK    5  A    between atoms: C_5  and  O_31 
REMARK    6  A    between atoms: C_6  and  O_8 
REMARK    7  A    between atoms: O_8  and  C_9 
REMARK    8  A    between atoms: C_9  and  C_10 
REMARK    9  A    between atoms: C_11  and  O_30 
REMARK   10  A    between atoms: C_12  and  O_29 
REMARK   11  A    between atoms: C_13  and  O_28 
REMARK   12  A    between atoms: C_14  and  O_16 
REMARK   13  A    between atoms: O_16  and  C_17 
REMARK   14  A    between atoms: C_17  and  C_18 
REMARK   15  A    between atoms: C_18  and  C_19 
REMARK   16  A    between atoms: C_18  and  O_27 
REMARK   17  A    between atoms: C_19  and  C_20 
REMARK   18  A    between atoms: C_19  and  O_26 
REMARK   19  A    between atoms: C_20  and  C_21 
REMARK   20  A    between atoms: C_20  and  O_25 
REMARK   21  A    between atoms: C_21  and  C_22 
REMARK   22  A    between atoms: C_21  and  O_24 
ROOT
HETATM    1  C   UNL     1     -22.564  -2.924 -13.521  1.00  0.00     0.180 C 
HETATM    2  C   UNL     1     -23.501  -1.905 -14.187  1.00  0.00     0.180 C 
HETATM    3  C   UNL     1     -24.980  -2.255 -13.939  1.00  0.00     0.183 C 
HETATM    4  C   UNL     1     -25.312  -3.704 -14.320  1.00  0.00     0.204 C 
HETATM    5  C   UNL     1     -24.295  -4.631 -13.616  1.00  0.00     0.291 C 
HETATM    6  O   UNL     1     -22.942  -4.262 -13.872  1.00  0.00    -0.348 OA
ENDROOT
BRANCH   1   7
HETATM    7  C   UNL     1     -22.439  -2.772 -12.004  1.00  0.00     0.205 C 
BRANCH   7   8
HETATM    8  O   UNL     1     -21.608  -3.842 -11.527  1.00  0.00    -0.356 OA
BRANCH   8   9
HETATM    9  C   UNL     1     -21.541  -3.838 -10.099  1.00  0.00     0.291 C 
HETATM   10  C   UNL     1     -20.064  -3.942  -9.684  1.00  0.00     0.204 C 
HETATM   11  C   UNL     1     -19.988  -3.937  -8.156  1.00  0.00     0.183 C 
HETATM   12  C   UNL     1     -20.856  -5.067  -7.569  1.00  0.00     0.180 C 
HETATM   13  C   UNL     1     -22.273  -5.102  -8.178  1.00  0.00     0.179 C 
HETATM   14  O   UNL     1     -22.255  -4.974  -9.611  1.00  0.00    -0.348 OA
BRANCH  10  15
HETATM   15  O   UNL     1     -19.502  -5.189 -10.171  1.00  0.00    -0.388 OA
HETATM   16  H   UNL     1     -19.890  -5.887  -9.601  1.00  0.00     0.210 HD
ENDBRANCH  10  15
BRANCH  11  17
HETATM   17  O   UNL     1     -18.624  -4.089  -7.741  1.00  0.00    -0.390 OA
HETATM   18  H   UNL     1     -18.094  -3.655  -8.439  1.00  0.00     0.210 HD
ENDBRANCH  11  17
BRANCH  12  19
HETATM   19  O   UNL     1     -20.224  -6.337  -7.832  1.00  0.00    -0.390 OA
HETATM   20  H   UNL     1     -20.944  -7.001  -7.886  1.00  0.00     0.210 HD
ENDBRANCH  12  19
BRANCH  13  21
HETATM   21  C   UNL     1     -23.251  -4.094  -7.554  1.00  0.00     0.198 C 
BRANCH  21  22
HETATM   22  O   UNL     1     -24.309  -3.768  -8.445  1.00  0.00    -0.398 OA
HETATM   23  H   UNL     1     -24.282  -4.409  -9.177  1.00  0.00     0.209 HD
ENDBRANCH  21  22
ENDBRANCH  13  21
ENDBRANCH   8   9
ENDBRANCH   7   8
ENDBRANCH   1   7
BRANCH   2  24
HETATM   24  O   UNL     1     -23.243  -1.876 -15.603  1.00  0.00    -0.390 OA
HETATM   25  H   UNL     1     -22.654  -2.612 -15.839  1.00  0.00     0.210 HD
ENDBRANCH   2  24
BRANCH   3  26
HETATM   26  O   UNL     1     -25.814  -1.361 -14.686  1.00  0.00    -0.390 OA
HETATM   27  H   UNL     1     -25.245  -0.584 -14.877  1.00  0.00     0.210 HD
ENDBRANCH   3  26
BRANCH   5  28
HETATM   28  O   UNL     1     -24.434  -6.021 -13.904  1.00  0.00    -0.356 OA
BRANCH  28  29
HETATM   29  C   UNL     1     -23.962  -6.514 -15.150  1.00  0.00     0.205 C 
BRANCH  29  30
HETATM   30  C   UNL     1     -24.767  -7.664 -15.804  1.00  0.00     0.173 C 
BRANCH  30  31
HETATM   31  C   UNL     1     -25.917  -7.134 -16.705  1.00  0.00     0.180 C 
BRANCH  31  32
HETATM   32  C   UNL     1     -27.174  -6.701 -15.918  1.00  0.00     0.184 C 
BRANCH  32  33
HETATM   33  C   UNL     1     -28.385  -6.448 -16.850  1.00  0.00     0.210 C 
BRANCH  33  34
HETATM   34  C   UNL     1     -29.589  -5.971 -16.054  1.00  0.00     0.265 C 
HETATM   35  O   UNL     1     -29.511  -5.586 -14.886  1.00  0.00    -0.304 OA
ENDBRANCH  33  34
BRANCH  33  36
HETATM   36  O   UNL     1     -28.057  -5.445 -17.814  1.00  0.00    -0.386 OA
HETATM   37  H   UNL     1     -28.367  -4.596 -17.440  1.00  0.00     0.210 HD
ENDBRANCH  33  36
ENDBRANCH  32  33
BRANCH  32  38
HETATM   38  O   UNL     1     -27.539  -7.648 -14.906  1.00  0.00    -0.390 OA
HETATM   39  H   UNL     1     -26.905  -7.542 -14.165  1.00  0.00     0.210 HD
ENDBRANCH  32  38
ENDBRANCH  31  32
BRANCH  31  40
HETATM   40  O   UNL     1     -25.520  -6.022 -17.516  1.00  0.00    -0.390 OA
HETATM   41  H   UNL     1     -24.544  -6.047 -17.582  1.00  0.00     0.210 HD
ENDBRANCH  31  40
ENDBRANCH  30  31
BRANCH  30  42
HETATM   42  O   UNL     1     -23.831  -8.508 -16.483  1.00  0.00    -0.391 OA
HETATM   43  H   UNL     1     -23.326  -9.019 -15.830  1.00  0.00     0.210 HD
ENDBRANCH  30  42
ENDBRANCH  29  30
ENDBRANCH  28  29
ENDBRANCH   5  28
BRANCH   4  44
HETATM   44  O   UNL     1     -25.343  -3.803 -15.757  1.00  0.00    -0.388 OA
HETATM   45  H   UNL     1     -26.260  -3.874 -16.066  1.00  0.00     0.210 HD
ENDBRANCH   4  44
TORSDOF 22
BEGIN_RES ARG D 557
REMARK  4 active torsions:
REMARK  status: ('A' for Active; 'I' for Inactive)
REMARK    1  A    between atoms: CA   and  CB  
REMARK    2  A    between atoms: CB   and  CG  
REMARK    3  A    between atoms: CG   and  CD  
REMARK    4  A    between atoms: CD   and  NE  
REMARK       I    between atoms: NE   and  CZ  
REMARK       I    between atoms: CZ   and  NH1 
REMARK       I    between atoms: CZ   and  NH2 
ROOT
ATOM      1  CA  ARG D 557     -26.217   2.705 -17.014  1.00 35.49     0.159 C 
ENDROOT
BRANCH   1   2
ATOM      2  CB  ARG D 557     -26.789   1.319 -17.183  1.00 35.49     0.034 C 
BRANCH   2   3
ATOM      3  CG  ARG D 557     -28.252   1.209 -17.226  1.00 35.49     0.027 C 
BRANCH   3   4
ATOM      4  CD  ARG D 557     -28.763   0.133 -16.346  1.00 35.49     0.116 C 
BRANCH   4   5
ATOM      5  NE  ARG D 557     -29.395  -0.923 -17.091  1.00 35.49    -0.212 N 
ATOM      6  CZ  ARG D 557     -28.976  -2.166 -17.168  1.00 35.49     0.666 C 
ATOM      7  NH1 ARG D 557     -27.883  -2.585 -16.557  1.00 35.49    -0.235 N 
ATOM      8  NH2 ARG D 557     -29.687  -2.997 -17.873  1.00 35.49    -0.235 N 
ATOM      9  HH  ARG D 557     -27.401  -2.056 -16.085  1.00 35.49     0.174 HD
ATOM     10  HH  ARG D 557     -27.660  -3.408 -16.640  1.00 35.49     0.174 HD
ATOM     11  HH  ARG D 557     -30.392  -2.701 -18.251  1.00 35.49     0.174 HD
ATOM     12  HH  ARG D 557     -29.450  -3.808 -17.943  1.00 35.49     0.174 HD
ATOM     13  HE  ARG D 557     -30.066  -0.725 -17.575  1.00 35.49     0.178 HD
ENDBRANCH   4   5
ENDBRANCH   3   4
ENDBRANCH   2   3
ENDBRANCH   1   2
END_RES ARG D 557
BEGIN_RES GLU D 570
REMARK  3 active torsions:
REMARK  status: ('A' for Active; 'I' for Inactive)
REMARK    5  A    between atoms: CA   and  CB  
REMARK    6  A    between atoms: CB   and  CG  
REMARK    7  A    between atoms: CG   and  CD  
ROOT
ATOM     14  CA  GLU D 570     -18.033  -6.348 -13.375  1.00 32.92     0.160 C 
ENDROOT
BRANCH  14  15
ATOM     15  CB  GLU D 570     -19.500  -6.345 -13.794  1.00 32.92     0.043 C 
BRANCH  15  16
ATOM     16  CG  GLU D 570     -20.081  -7.630 -14.262  1.00 32.92     0.100 C 
BRANCH  16  17
ATOM     17  CD  GLU D 570     -20.551  -7.577 -15.697  1.00 32.92     0.185 C 
ATOM     18  OE1 GLU D 570     -20.888  -8.634 -16.263  1.00 32.92    -0.647 OA
ATOM     19  OE2 GLU D 570     -20.567  -6.467 -16.266  1.00 32.92    -0.647 OA
ENDBRANCH  16  17
ENDBRANCH  15  16
ENDBRANCH  14  15
END_RES GLU D 570
ENDMDL
MODEL 6
REMARK VINA RESULT:      -7.6      1.497      8.097
REMARK  22 active torsions:
REMARK  status: ('A' for Active; 'I' for Inactive)
REMARK    1  A    between atoms: C_1  and  C_2 
REMARK    2  A    between atoms: C_1  and  O_34 
REMARK    3  A    between atoms: C_3  and  O_33 
REMARK    4  A    between atoms: C_4  and  O_32 
REMARK    5  A    between atoms: C_5  and  O_31 
REMARK    6  A    between atoms: C_6  and  O_8 
REMARK    7  A    between atoms: O_8  and  C_9 
REMARK    8  A    between atoms: C_9  and  C_10 
REMARK    9  A    between atoms: C_11  and  O_30 
REMARK   10  A    between atoms: C_12  and  O_29 
REMARK   11  A    between atoms: C_13  and  O_28 
REMARK   12  A    between atoms: C_14  and  O_16 
REMARK   13  A    between atoms: O_16  and  C_17 
REMARK   14  A    between atoms: C_17  and  C_18 
REMARK   15  A    between atoms: C_18  and  C_19 
REMARK   16  A    between atoms: C_18  and  O_27 
REMARK   17  A    between atoms: C_19  and  C_20 
REMARK   18  A    between atoms: C_19  and  O_26 
REMARK   19  A    between atoms: C_20  and  C_21 
REMARK   20  A    between atoms: C_20  and  O_25 
REMARK   21  A    between atoms: C_21  and  C_22 
REMARK   22  A    between atoms: C_21  and  O_24 
ROOT
HETATM    1  C   UNL     1     -25.380  -4.114 -14.366  1.00  0.00     0.180 C 
HETATM    2  C   UNL     1     -24.940  -2.724 -14.846  1.00  0.00     0.180 C 
HETATM    3  C   UNL     1     -23.407  -2.579 -14.822  1.00  0.00     0.183 C 
HETATM    4  C   UNL     1     -22.804  -2.955 -13.462  1.00  0.00     0.204 C 
HETATM    5  C   UNL     1     -23.334  -4.354 -13.071  1.00  0.00     0.291 C 
HETATM    6  O   UNL     1     -24.757  -4.437 -13.114  1.00  0.00    -0.348 OA
ENDROOT
BRANCH   1   7
HETATM    7  C   UNL     1     -25.169  -5.234 -15.386  1.00  0.00     0.205 C 
BRANCH   7   8
HETATM    8  O   UNL     1     -26.151  -5.072 -16.420  1.00  0.00    -0.356 OA
BRANCH   8   9
HETATM    9  C   UNL     1     -27.344  -5.796 -16.111  1.00  0.00     0.291 C 
HETATM   10  C   UNL     1     -27.800  -6.540 -17.377  1.00  0.00     0.204 C 
HETATM   11  C   UNL     1     -29.077  -7.318 -17.048  1.00  0.00     0.183 C 
HETATM   12  C   UNL     1     -30.155  -6.371 -16.487  1.00  0.00     0.180 C 
HETATM   13  C   UNL     1     -29.615  -5.451 -15.372  1.00  0.00     0.179 C 
HETATM   14  O   UNL     1     -28.348  -4.862 -15.717  1.00  0.00    -0.348 OA
BRANCH  10  15
HETATM   15  O   UNL     1     -28.099  -5.585 -18.429  1.00  0.00    -0.388 OA
HETATM   16  H   UNL     1     -28.479  -4.806 -17.970  1.00  0.00     0.210 HD
ENDBRANCH  10  15
BRANCH  11  17
HETATM   17  O   UNL     1     -29.557  -7.977 -18.228  1.00  0.00    -0.390 OA
HETATM   18  H   UNL     1     -30.530  -7.994 -18.132  1.00  0.00     0.210 HD
ENDBRANCH  11  17
BRANCH  12  19
HETATM   19  O   UNL     1     -30.656  -5.537 -17.553  1.00  0.00    -0.390 OA
HETATM   20  H   UNL     1     -30.102  -5.726 -18.340  1.00  0.00     0.210 HD
ENDBRANCH  12  19
BRANCH  13  21
HETATM   21  C   UNL     1     -29.548  -6.116 -13.988  1.00  0.00     0.198 C 
BRANCH  21  22
HETATM   22  O   UNL     1     -30.321  -5.408 -13.028  1.00  0.00    -0.398 OA
HETATM   23  H   UNL     1     -31.257  -5.617 -13.195  1.00  0.00     0.209 HD
ENDBRANCH  21  22
ENDBRANCH  13  21
ENDBRANCH   8   9
ENDBRANCH   7   8
ENDBRANCH   1   7
BRANCH   2  24
HETATM   24  O   UNL     1     -25.533  -1.719 -14.003  1.00  0.00    -0.390 OA
HETATM   25  H   UNL     1     -24.970  -1.579 -13.223  1.00  0.00     0.210 HD
ENDBRANCH   2  24
BRANCH   3  26
HETATM   26  O   UNL     1     -23.049  -1.231 -15.147  1.00  0.00    -0.390 OA
HETATM   27  H   UNL     1     -22.507  -0.923 -14.389  1.00  0.00     0.210 HD
ENDBRANCH   3  26
BRANCH   5  28
HETATM   28  O   UNL     1     -22.904  -4.837 -11.800  1.00  0.00    -0.356 OA
BRANCH  28  29
HETATM   29  C   UNL     1     -23.884  -5.198 -10.835  1.00  0.00     0.205 C 
BRANCH  29  30
HETATM   30  C   UNL     1     -24.317  -4.106  -9.827  1.00  0.00     0.173 C 
BRANCH  30  31
HETATM   31  C   UNL     1     -23.104  -3.489  -9.077  1.00  0.00     0.180 C 
BRANCH  31  32
HETATM   32  C   UNL     1     -22.559  -4.381  -7.938  1.00  0.00     0.184 C 
BRANCH  32  33
HETATM   33  C   UNL     1     -21.165  -3.914  -7.450  1.00  0.00     0.210 C 
BRANCH  33  34
HETATM   34  C   UNL     1     -20.867  -4.459  -6.063  1.00  0.00     0.265 C 
HETATM   35  O   UNL     1     -19.734  -4.773  -5.695  1.00  0.00    -0.304 OA
ENDBRANCH  33  34
BRANCH  33  36
HETATM   36  O   UNL     1     -20.154  -4.384  -8.344  1.00  0.00    -0.386 OA
HETATM   37  H   UNL     1     -20.483  -4.203  -9.248  1.00  0.00     0.210 HD
ENDBRANCH  33  36
ENDBRANCH  32  33
BRANCH  32  38
HETATM   38  O   UNL     1     -23.457  -4.452  -6.822  1.00  0.00    -0.390 OA
HETATM   39  H   UNL     1     -24.266  -3.953  -7.066  1.00  0.00     0.210 HD
ENDBRANCH  32  38
ENDBRANCH  31  32
BRANCH  31  40
HETATM   40  O   UNL     1     -22.005  -3.193  -9.945  1.00  0.00    -0.390 OA
HETATM   41  H   UNL     1     -22.127  -2.274 -10.261  1.00  0.00     0.210 HD
ENDBRANCH  31  40
ENDBRANCH  30  31
BRANCH  30  42
HETATM   42  O   UNL     1     -25.109  -3.153 -10.544  1.00  0.00    -0.391 OA
HETATM   43  H   UNL     1     -25.494  -2.519  -9.918  1.00  0.00     0.210 HD
ENDBRANCH  30  42
ENDBRANCH  29  30
ENDBRANCH  28  29
ENDBRANCH   5  28
BRANCH   4  44
HETATM   44  O   UNL     1     -23.099  -1.902 -12.524  1.00  0.00    -0.388 OA
HETATM   45  H   UNL     1     -23.898  -2.119 -12.019  1.00  0.00     0.210 HD
ENDBRANCH   4  44
TORSDOF 22
BEGIN_RES ARG D 557
REMARK  4 active torsions:
REMARK  status: ('A' for Active; 'I' for Inactive)
REMARK    1  A    between atoms: CA   and  CB  
REMARK    2  A    between atoms: CB   and  CG  
REMARK    3  A    between atoms: CG   and  CD  
REMARK    4  A    between atoms: CD   and  NE  
REMARK       I    between atoms: NE   and  CZ  
REMARK       I    between atoms: CZ   and  NH1 
REMARK       I    between atoms: CZ   and  NH2 
ROOT
ATOM      1  CA  ARG D 557     -26.217   2.705 -17.014  1.00 35.49     0.159 C 
ENDROOT
BRANCH   1   2
ATOM      2  CB  ARG D 557     -26.789   1.319 -17.183  1.00 35.49     0.034 C 
BRANCH   2   3
ATOM      3  CG  ARG D 557     -28.216   1.229 -17.516  1.00 35.49     0.027 C 
BRANCH   3   4
ATOM      4  CD  ARG D 557     -28.961   0.361 -16.577  1.00 35.49     0.116 C 
BRANCH   4   5
ATOM      5  NE  ARG D 557     -29.393  -0.864 -17.197  1.00 35.49    -0.212 N 
ATOM      6  CZ  ARG D 557     -28.776  -2.022 -17.121  1.00 35.49     0.666 C 
ATOM      7  NH1 ARG D 557     -27.648  -2.183 -16.455  1.00 35.49    -0.235 N 
ATOM      8  NH2 ARG D 557     -29.323  -3.035 -17.730  1.00 35.49    -0.235 N 
ATOM      9  HH  ARG D 557     -27.271  -1.531 -16.045  1.00 35.49     0.174 HD
ATOM     10  HH  ARG D 557     -27.292  -2.962 -16.438  1.00 35.49     0.174 HD
ATOM     11  HH  ARG D 557     -30.056  -2.903 -18.146  1.00 35.49     0.174 HD
ATOM     12  HH  ARG D 557     -28.957  -3.799 -17.700  1.00 35.49     0.174 HD
ATOM     13  HE  ARG D 557     -30.073  -0.836 -17.706  1.00 35.49     0.178 HD
ENDBRANCH   4   5
ENDBRANCH   3   4
ENDBRANCH   2   3
ENDBRANCH   1   2
END_RES ARG D 557
BEGIN_RES GLU D 570
REMARK  3 active torsions:
REMARK  status: ('A' for Active; 'I' for Inactive)
REMARK    5  A    between atoms: CA   and  CB  
REMARK    6  A    between atoms: CB   and  CG  
REMARK    7  A    between atoms: CG   and  CD  
ROOT
ATOM     14  CA  GLU D 570     -18.033  -6.348 -13.375  1.00 32.92     0.160 C 
ENDROOT
BRANCH  14  15
ATOM     15  CB  GLU D 570     -19.500  -6.345 -13.794  1.00 32.92     0.043 C 
BRANCH  15  16
ATOM     16  CG  GLU D 570     -19.799  -6.162 -15.238  1.00 32.92     0.100 C 
BRANCH  16  17
ATOM     17  CD  GLU D 570     -21.280  -6.078 -15.527  1.00 32.92     0.185 C 
ATOM     18  OE1 GLU D 570     -22.048  -6.901 -14.992  1.00 32.92    -0.647 OA
ATOM     19  OE2 GLU D 570     -21.674  -5.192 -16.310  1.00 32.92    -0.647 OA
ENDBRANCH  16  17
ENDBRANCH  15  16
ENDBRANCH  14  15
END_RES GLU D 570
ENDMDL
MODEL 7
REMARK VINA RESULT:      -7.4      1.668      8.487
REMARK  22 active torsions:
REMARK  status: ('A' for Active; 'I' for Inactive)
REMARK    1  A    between atoms: C_1  and  C_2 
REMARK    2  A    between atoms: C_1  and  O_34 
REMARK    3  A    between atoms: C_3  and  O_33 
REMARK    4  A    between atoms: C_4  and  O_32 
REMARK    5  A    between atoms: C_5  and  O_31 
REMARK    6  A    between atoms: C_6  and  O_8 
REMARK    7  A    between atoms: O_8  and  C_9 
REMARK    8  A    between atoms: C_9  and  C_10 
REMARK    9  A    between atoms: C_11  and  O_30 
REMARK   10  A    between atoms: C_12  and  O_29 
REMARK   11  A    between atoms: C_13  and  O_28 
REMARK   12  A    between atoms: C_14  and  O_16 
REMARK   13  A    between atoms: O_16  and  C_17 
REMARK   14  A    between atoms: C_17  and  C_18 
REMARK   15  A    between atoms: C_18  and  C_19 
REMARK   16  A    between atoms: C_18  and  O_27 
REMARK   17  A    between atoms: C_19  and  C_20 
REMARK   18  A    between atoms: C_19  and  O_26 
REMARK   19  A    between atoms: C_20  and  C_21 
REMARK   20  A    between atoms: C_20  and  O_25 
REMARK   21  A    between atoms: C_21  and  C_22 
REMARK   22  A    between atoms: C_21  and  O_24 
ROOT
HETATM    1  C   UNL     1     -25.301  -3.015 -14.314  1.00  0.00     0.180 C 
HETATM    2  C   UNL     1     -23.938  -3.167 -15.006  1.00  0.00     0.180 C 
HETATM    3  C   UNL     1     -23.034  -4.163 -14.256  1.00  0.00     0.183 C 
HETATM    4  C   UNL     1     -22.907  -3.831 -12.763  1.00  0.00     0.204 C 
HETATM    5  C   UNL     1     -24.332  -3.677 -12.182  1.00  0.00     0.291 C 
HETATM    6  O   UNL     1     -25.129  -2.749 -12.915  1.00  0.00    -0.348 OA
ENDROOT
BRANCH   1   7
HETATM    7  C   UNL     1     -26.258  -4.187 -14.534  1.00  0.00     0.205 C 
BRANCH   7   8
HETATM    8  O   UNL     1     -26.640  -4.184 -15.918  1.00  0.00    -0.356 OA
BRANCH   8   9
HETATM    9  C   UNL     1     -27.860  -4.902 -16.112  1.00  0.00     0.291 C 
HETATM   10  C   UNL     1     -27.549  -6.407 -16.061  1.00  0.00     0.204 C 
HETATM   11  C   UNL     1     -28.854  -7.180 -16.267  1.00  0.00     0.183 C 
HETATM   12  C   UNL     1     -29.530  -6.753 -17.584  1.00  0.00     0.180 C 
HETATM   13  C   UNL     1     -29.617  -5.220 -17.736  1.00  0.00     0.179 C 
HETATM   14  O   UNL     1     -28.381  -4.566 -17.398  1.00  0.00    -0.348 OA
BRANCH  10  15
HETATM   15  O   UNL     1     -26.630  -6.758 -17.128  1.00  0.00    -0.388 OA
HETATM   16  H   UNL     1     -25.820  -6.233 -16.954  1.00  0.00     0.210 HD
ENDBRANCH  10  15
BRANCH  11  17
HETATM   17  O   UNL     1     -28.583  -8.588 -16.279  1.00  0.00    -0.390 OA
HETATM   18  H   UNL     1     -27.652  -8.666 -16.567  1.00  0.00     0.210 HD
ENDBRANCH  11  17
BRANCH  12  19
HETATM   19  O   UNL     1     -28.771  -7.270 -18.697  1.00  0.00    -0.390 OA
HETATM   20  H   UNL     1     -29.324  -7.967 -19.112  1.00  0.00     0.210 HD
ENDBRANCH  12  19
BRANCH  13  21
HETATM   21  C   UNL     1     -30.794  -4.580 -16.982  1.00  0.00     0.198 C 
BRANCH  21  22
HETATM   22  O   UNL     1     -31.874  -5.491 -16.825  1.00  0.00    -0.398 OA
HETATM   23  H   UNL     1     -32.643  -4.980 -16.514  1.00  0.00     0.209 HD
ENDBRANCH  21  22
ENDBRANCH  13  21
ENDBRANCH   8   9
ENDBRANCH   7   8
ENDBRANCH   1   7
BRANCH   2  24
HETATM   24  O   UNL     1     -23.291  -1.883 -15.071  1.00  0.00    -0.390 OA
HETATM   25  H   UNL     1     -23.077  -1.676 -15.996  1.00  0.00     0.210 HD
ENDBRANCH   2  24
BRANCH   3  26
HETATM   26  O   UNL     1     -21.733  -4.172 -14.856  1.00  0.00    -0.390 OA
HETATM   27  H   UNL     1     -21.229  -4.850 -14.355  1.00  0.00     0.210 HD
ENDBRANCH   3  26
BRANCH   5  28
HETATM   28  O   UNL     1     -24.394  -3.318 -10.804  1.00  0.00    -0.356 OA
BRANCH  28  29
HETATM   29  C   UNL     1     -23.981  -4.267  -9.829  1.00  0.00     0.205 C 
BRANCH  29  30
HETATM   30  C   UNL     1     -22.700  -3.939  -9.024  1.00  0.00     0.173 C 
BRANCH  30  31
HETATM   31  C   UNL     1     -22.688  -4.637  -7.635  1.00  0.00     0.180 C 
BRANCH  31  32
HETATM   32  C   UNL     1     -21.450  -4.293  -6.777  1.00  0.00     0.184 C 
BRANCH  32  33
HETATM   33  C   UNL     1     -20.771  -5.560  -6.202  1.00  0.00     0.210 C 
BRANCH  33  34
HETATM   34  C   UNL     1     -21.342  -5.908  -4.837  1.00  0.00     0.265 C 
HETATM   35  O   UNL     1     -22.539  -6.132  -4.649  1.00  0.00    -0.304 OA
ENDBRANCH  33  34
BRANCH  33  36
HETATM   36  O   UNL     1     -20.988  -6.669  -7.077  1.00  0.00    -0.386 OA
HETATM   37  H   UNL     1     -20.302  -6.606  -7.772  1.00  0.00     0.210 HD
ENDBRANCH  33  36
ENDBRANCH  32  33
BRANCH  32  38
HETATM   38  O   UNL     1     -20.483  -3.517  -7.498  1.00  0.00    -0.390 OA
HETATM   39  H   UNL     1     -20.504  -2.609  -7.128  1.00  0.00     0.210 HD
ENDBRANCH  32  38
ENDBRANCH  31  32
BRANCH  31  40
HETATM   40  O   UNL     1     -23.846  -4.331  -6.850  1.00  0.00    -0.390 OA
HETATM   41  H   UNL     1     -24.512  -3.947  -7.456  1.00  0.00     0.210 HD
ENDBRANCH  31  40
ENDBRANCH  30  31
BRANCH  30  42
HETATM   42  O   UNL     1     -21.580  -4.266  -9.853  1.00  0.00    -0.391 OA
HETATM   43  H   UNL     1     -21.758  -3.977 -10.763  1.00  0.00     0.210 HD
ENDBRANCH  30  42
ENDBRANCH  29  30
ENDBRANCH  28  29
ENDBRANCH   5  28
BRANCH   4  44
HETATM   44  O   UNL     1     -22.058  -2.676 -12.623  1.00  0.00    -0.388 OA
HETATM   45  H   UNL     1     -21.160  -2.884 -12.928  1.00  0.00     0.210 HD
ENDBRANCH   4  44
TORSDOF 22
BEGIN_RES ARG D 557
REMARK  4 active torsions:
REMARK  status: ('A' for Active; 'I' for Inactive)
REMARK    1  A    between atoms: CA   and  CB  
REMARK    2  A    between atoms: CB   and  CG  
REMARK    3  A    between atoms: CG   and  CD  
REMARK    4  A    between atoms: CD   and  NE  
REMARK       I    between atoms: NE   and  CZ  
REMARK       I    between atoms: CZ   and  NH1 
REMARK       I    between atoms: CZ   and  NH2 
ROOT
ATOM      1  CA  ARG D 557     -26.217   2.705 -17.014  1.00 35.49     0.159 C 
ENDROOT
BRANCH   1   2
ATOM      2  CB  ARG D 557     -26.789   1.319 -17.183  1.00 35.49     0.034 C 
BRANCH   2   3
ATOM      3  CG  ARG D 557     -25.958   0.200 -16.722  1.00 35.49     0.027 C 
BRANCH   3   4
ATOM      4  CD  ARG D 557     -26.713  -0.753 -15.877  1.00 35.49     0.116 C 
BRANCH   4   5
ATOM      5  NE  ARG D 557     -27.712  -1.468 -16.627  1.00 35.49    -0.212 N 
ATOM      6  CZ  ARG D 557     -28.959  -1.093 -16.798  1.00 35.49     0.666 C 
ATOM      7  NH1 ARG D 557     -29.445   0.014 -16.267  1.00 35.49    -0.235 N 
ATOM      8  NH2 ARG D 557     -29.721  -1.855 -17.527  1.00 35.49    -0.235 N 
ATOM      9  HH  ARG D 557     -28.961   0.532 -15.786  1.00 35.49     0.174 HD
ATOM     10  HH  ARG D 557     -30.266   0.210 -16.415  1.00 35.49     0.174 HD
ATOM     11  HH  ARG D 557     -29.378  -2.560 -17.863  1.00 35.49     0.174 HD
ATOM     12  HH  ARG D 557     -30.531  -1.643 -17.663  1.00 35.49     0.174 HD
ATOM     13  HE  ARG D 557     -27.504  -2.230 -16.943  1.00 35.49     0.178 HD
ENDBRANCH   4   5
ENDBRANCH   3   4
ENDBRANCH   2   3
ENDBRANCH   1   2
END_RES ARG D 557
BEGIN_RES GLU D 570
REMARK  3 active torsions:
REMARK  status: ('A' for Active; 'I' for Inactive)
REMARK    5  A    between atoms: CA   and  CB  
REMARK    6  A    between atoms: CB   and  CG  
REMARK    7  A    between atoms: CG   and  CD  
ROOT
ATOM     14  CA  GLU D 570     -18.033  -6.348 -13.375  1.00 32.92     0.160 C 
ENDROOT
BRANCH  14  15
ATOM     15  CB  GLU D 570     -19.500  -6.345 -13.794  1.00 32.92     0.043 C 
BRANCH  15  16
ATOM     16  CG  GLU D 570     -20.094  -7.640 -14.215  1.00 32.92     0.100 C 
BRANCH  16  17
ATOM     17  CD  GLU D 570     -20.614  -7.616 -15.634  1.00 32.92     0.185 C 
ATOM     18  OE1 GLU D 570     -20.840  -8.695 -16.214  1.00 32.92    -0.647 OA
ATOM     19  OE2 GLU D 570     -20.782  -6.506 -16.176  1.00 32.92    -0.647 OA
ENDBRANCH  16  17
ENDBRANCH  15  16
ENDBRANCH  14  15
END_RES GLU D 570
ENDMDL
MODEL 8
REMARK VINA RESULT:      -6.9      2.330      8.727
REMARK  22 active torsions:
REMARK  status: ('A' for Active; 'I' for Inactive)
REMARK    1  A    between atoms: C_1  and  C_2 
REMARK    2  A    between atoms: C_1  and  O_34 
REMARK    3  A    between atoms: C_3  and  O_33 
REMARK    4  A    between atoms: C_4  and  O_32 
REMARK    5  A    between atoms: C_5  and  O_31 
REMARK    6  A    between atoms: C_6  and  O_8 
REMARK    7  A    between atoms: O_8  and  C_9 
REMARK    8  A    between atoms: C_9  and  C_10 
REMARK    9  A    between atoms: C_11  and  O_30 
REMARK   10  A    between atoms: C_12  and  O_29 
REMARK   11  A    between atoms: C_13  and  O_28 
REMARK   12  A    between atoms: C_14  and  O_16 
REMARK   13  A    between atoms: O_16  and  C_17 
REMARK   14  A    between atoms: C_17  and  C_18 
REMARK   15  A    between atoms: C_18  and  C_19 
REMARK   16  A    between atoms: C_18  and  O_27 
REMARK   17  A    between atoms: C_19  and  C_20 
REMARK   18  A    between atoms: C_19  and  O_26 
REMARK   19  A    between atoms: C_20  and  C_21 
REMARK   20  A    between atoms: C_20  and  O_25 
REMARK   21  A    between atoms: C_21  and  C_22 
REMARK   22  A    between atoms: C_21  and  O_24 
ROOT
HETATM    1  C   UNL     1     -24.921  -3.205 -14.372  1.00  0.00     0.180 C 
HETATM    2  C   UNL     1     -24.070  -4.416 -14.782  1.00  0.00     0.180 C 
HETATM    3  C   UNL     1     -24.072  -5.501 -13.688  1.00  0.00     0.183 C 
HETATM    4  C   UNL     1     -23.689  -4.945 -12.310  1.00  0.00     0.204 C 
HETATM    5  C   UNL     1     -24.588  -3.722 -12.018  1.00  0.00     0.291 C 
HETATM    6  O   UNL     1     -24.555  -2.751 -13.061  1.00  0.00    -0.348 OA
ENDROOT
BRANCH   1   7
HETATM    7  C   UNL     1     -26.430  -3.428 -14.471  1.00  0.00     0.205 C 
BRANCH   7   8
HETATM    8  O   UNL     1     -26.803  -3.280 -15.850  1.00  0.00    -0.356 OA
BRANCH   8   9
HETATM    9  C   UNL     1     -27.920  -4.112 -16.170  1.00  0.00     0.291 C 
HETATM   10  C   UNL     1     -27.489  -5.580 -16.018  1.00  0.00     0.204 C 
HETATM   11  C   UNL     1     -28.683  -6.475 -16.358  1.00  0.00     0.183 C 
HETATM   12  C   UNL     1     -29.216  -6.149 -17.767  1.00  0.00     0.180 C 
HETATM   13  C   UNL     1     -29.416  -4.635 -17.989  1.00  0.00     0.179 C 
HETATM   14  O   UNL     1     -28.296  -3.862 -17.523  1.00  0.00    -0.348 OA
BRANCH  10  15
HETATM   15  O   UNL     1     -26.411  -5.875 -16.946  1.00  0.00    -0.388 OA
HETATM   16  H   UNL     1     -26.849  -6.253 -17.738  1.00  0.00     0.210 HD
ENDBRANCH  10  15
BRANCH  11  17
HETATM   17  O   UNL     1     -28.292  -7.852 -16.279  1.00  0.00    -0.390 OA
HETATM   18  H   UNL     1     -27.456  -7.909 -16.784  1.00  0.00     0.210 HD
ENDBRANCH  11  17
BRANCH  12  19
HETATM   19  O   UNL     1     -28.277  -6.626 -18.753  1.00  0.00    -0.390 OA
HETATM   20  H   UNL     1     -28.802  -6.865 -19.546  1.00  0.00     0.210 HD
ENDBRANCH  12  19
BRANCH  13  21
HETATM   21  C   UNL     1     -30.732  -4.085 -17.417  1.00  0.00     0.198 C 
BRANCH  21  22
HETATM   22  O   UNL     1     -31.206  -2.973 -18.166  1.00  0.00    -0.398 OA
HETATM   23  H   UNL     1     -31.637  -2.363 -17.541  1.00  0.00     0.209 HD
ENDBRANCH  21  22
ENDBRANCH  13  21
ENDBRANCH   8   9
ENDBRANCH   7   8
ENDBRANCH   1   7
BRANCH   2  24
HETATM   24  O   UNL     1     -22.719  -3.987 -15.032  1.00  0.00    -0.390 OA
HETATM   25  H   UNL     1     -22.724  -3.059 -15.319  1.00  0.00     0.210 HD
ENDBRANCH   2  24
BRANCH   3  26
HETATM   26  O   UNL     1     -23.164  -6.547 -14.051  1.00  0.00    -0.390 OA
HETATM   27  H   UNL     1     -23.640  -7.380 -13.842  1.00  0.00     0.210 HD
ENDBRANCH   3  26
BRANCH   5  28
HETATM   28  O   UNL     1     -24.328  -3.053 -10.786  1.00  0.00    -0.356 OA
BRANCH  28  29
HETATM   29  C   UNL     1     -24.136  -3.830  -9.611  1.00  0.00     0.205 C 
BRANCH  29  30
HETATM   30  C   UNL     1     -22.809  -3.625  -8.839  1.00  0.00     0.173 C 
BRANCH  30  31
HETATM   31  C   UNL     1     -22.717  -4.536  -7.584  1.00  0.00     0.180 C 
BRANCH  31  32
HETATM   32  C   UNL     1     -21.467  -4.272  -6.714  1.00  0.00     0.184 C 
BRANCH  32  33
HETATM   33  C   UNL     1     -20.817  -5.587  -6.216  1.00  0.00     0.210 C 
BRANCH  33  34
HETATM   34  C   UNL     1     -21.347  -5.965  -4.842  1.00  0.00     0.265 C 
HETATM   35  O   UNL     1     -22.540  -6.172  -4.618  1.00  0.00    -0.304 OA
ENDBRANCH  33  34
BRANCH  33  36
HETATM   36  O   UNL     1     -21.114  -6.651  -7.122  1.00  0.00    -0.386 OA
HETATM   37  H   UNL     1     -22.000  -6.456  -7.489  1.00  0.00     0.210 HD
ENDBRANCH  33  36
ENDBRANCH  32  33
BRANCH  32  38
HETATM   38  O   UNL     1     -20.485  -3.480  -7.395  1.00  0.00    -0.390 OA
HETATM   39  H   UNL     1     -20.408  -2.631  -6.910  1.00  0.00     0.210 HD
ENDBRANCH  32  38
ENDBRANCH  31  32
BRANCH  31  40
HETATM   40  O   UNL     1     -23.860  -4.421  -6.729  1.00  0.00    -0.390 OA
HETATM   41  H   UNL     1     -24.650  -4.592  -7.280  1.00  0.00     0.210 HD
ENDBRANCH  31  40
ENDBRANCH  30  31
BRANCH  30  42
HETATM   42  O   UNL     1     -21.740  -3.805  -9.774  1.00  0.00    -0.391 OA
HETATM   43  H   UNL     1     -20.900  -3.555  -9.355  1.00  0.00     0.210 HD
ENDBRANCH  30  42
ENDBRANCH  29  30
ENDBRANCH  28  29
ENDBRANCH   5  28
BRANCH   4  44
HETATM   44  O   UNL     1     -22.273  -4.684 -12.300  1.00  0.00    -0.388 OA
HETATM   45  H   UNL     1     -21.825  -5.295 -11.693  1.00  0.00     0.210 HD
ENDBRANCH   4  44
TORSDOF 22
BEGIN_RES ARG D 557
REMARK  4 active torsions:
REMARK  status: ('A' for Active; 'I' for Inactive)
REMARK    1  A    between atoms: CA   and  CB  
REMARK    2  A    between atoms: CB   and  CG  
REMARK    3  A    between atoms: CG   and  CD  
REMARK    4  A    between atoms: CD   and  NE  
REMARK       I    between atoms: NE   and  CZ  
REMARK       I    between atoms: CZ   and  NH1 
REMARK       I    between atoms: CZ   and  NH2 
ROOT
ATOM      1  CA  ARG D 557     -26.217   2.705 -17.014  1.00 35.49     0.159 C 
ENDROOT
BRANCH   1   2
ATOM      2  CB  ARG D 557     -26.789   1.319 -17.183  1.00 35.49     0.034 C 
BRANCH   2   3
ATOM      3  CG  ARG D 557     -25.872   0.194 -16.963  1.00 35.49     0.027 C 
BRANCH   3   4
ATOM      4  CD  ARG D 557     -24.491   0.641 -16.671  1.00 35.49     0.116 C 
BRANCH   4   5
ATOM      5  NE  ARG D 557     -24.040   0.202 -15.376  1.00 35.49    -0.212 N 
ATOM      6  CZ  ARG D 557     -23.112  -0.701 -15.152  1.00 35.49     0.666 C 
ATOM      7  NH1 ARG D 557     -22.484  -1.330 -16.128  1.00 35.49    -0.235 N 
ATOM      8  NH2 ARG D 557     -22.815  -0.961 -13.912  1.00 35.49    -0.235 N 
ATOM      9  HH  ARG D 557     -22.661  -1.173 -16.951  1.00 35.49     0.174 HD
ATOM     10  HH  ARG D 557     -21.885  -1.907 -15.921  1.00 35.49     0.174 HD
ATOM     11  HH  ARG D 557     -23.232  -0.534 -13.302  1.00 35.49     0.174 HD
ATOM     12  HH  ARG D 557     -22.218  -1.534 -13.727  1.00 35.49     0.174 HD
ATOM     13  HE  ARG D 557     -24.443   0.503 -14.690  1.00 35.49     0.178 HD
ENDBRANCH   4   5
ENDBRANCH   3   4
ENDBRANCH   2   3
ENDBRANCH   1   2
END_RES ARG D 557
BEGIN_RES GLU D 570
REMARK  3 active torsions:
REMARK  status: ('A' for Active; 'I' for Inactive)
REMARK    5  A    between atoms: CA   and  CB  
REMARK    6  A    between atoms: CB   and  CG  
REMARK    7  A    between atoms: CG   and  CD  
ROOT
ATOM     14  CA  GLU D 570     -18.033  -6.348 -13.375  1.00 32.92     0.160 C 
ENDROOT
BRANCH  14  15
ATOM     15  CB  GLU D 570     -19.500  -6.345 -13.794  1.00 32.92     0.043 C 
BRANCH  15  16
ATOM     16  CG  GLU D 570     -20.083  -7.632 -14.255  1.00 32.92     0.100 C 
BRANCH  16  17
ATOM     17  CD  GLU D 570     -20.672  -7.548 -15.643  1.00 32.92     0.185 C 
ATOM     18  OE1 GLU D 570     -20.780  -8.589 -16.319  1.00 32.92    -0.647 OA
ATOM     19  OE2 GLU D 570     -21.015  -6.426 -16.066  1.00 32.92    -0.647 OA
ENDBRANCH  16  17
ENDBRANCH  15  16
ENDBRANCH  14  15
END_RES GLU D 570
ENDMDL
MODEL 9
REMARK VINA RESULT:      -6.8      4.065      7.562
REMARK  22 active torsions:
REMARK  status: ('A' for Active; 'I' for Inactive)
REMARK    1  A    between atoms: C_1  and  C_2 
REMARK    2  A    between atoms: C_1  and  O_34 
REMARK    3  A    between atoms: C_3  and  O_33 
REMARK    4  A    between atoms: C_4  and  O_32 
REMARK    5  A    between atoms: C_5  and  O_31 
REMARK    6  A    between atoms: C_6  and  O_8 
REMARK    7  A    between atoms: O_8  and  C_9 
REMARK    8  A    between atoms: C_9  and  C_10 
REMARK    9  A    between atoms: C_11  and  O_30 
REMARK   10  A    between atoms: C_12  and  O_29 
REMARK   11  A    between atoms: C_13  and  O_28 
REMARK   12  A    between atoms: C_14  and  O_16 
REMARK   13  A    between atoms: O_16  and  C_17 
REMARK   14  A    between atoms: C_17  and  C_18 
REMARK   15  A    between atoms: C_18  and  C_19 
REMARK   16  A    between atoms: C_18  and  O_27 
REMARK   17  A    between atoms: C_19  and  C_20 
REMARK   18  A    between atoms: C_19  and  O_26 
REMARK   19  A    between atoms: C_20  and  C_21 
REMARK   20  A    between atoms: C_20  and  O_25 
REMARK   21  A    between atoms: C_21  and  C_22 
REMARK   22  A    between atoms: C_21  and  O_24 
ROOT
HETATM    1  C   UNL     1     -21.197  -6.321  -6.479  1.00  0.00     0.180 C 
HETATM    2  C   UNL     1     -19.731  -5.981  -6.784  1.00  0.00     0.180 C 
HETATM    3  C   UNL     1     -19.485  -4.461  -6.741  1.00  0.00     0.183 C 
HETATM    4  C   UNL     1     -20.471  -3.683  -7.623  1.00  0.00     0.204 C 
HETATM    5  C   UNL     1     -21.904  -4.124  -7.248  1.00  0.00     0.291 C 
HETATM    6  O   UNL     1     -22.077  -5.538  -7.297  1.00  0.00    -0.348 OA
ENDROOT
BRANCH   1   7
HETATM    7  C   UNL     1     -21.580  -6.211  -5.003  1.00  0.00     0.205 C 
BRANCH   7   8
HETATM    8  O   UNL     1     -21.953  -7.521  -4.550  1.00  0.00    -0.356 OA
BRANCH   8   9
HETATM    9  C   UNL     1     -21.160  -7.920  -3.430  1.00  0.00     0.291 C 
HETATM   10  C   UNL     1     -19.891  -8.611  -3.957  1.00  0.00     0.204 C 
HETATM   11  C   UNL     1     -19.039  -9.037  -2.760  1.00  0.00     0.183 C 
HETATM   12  C   UNL     1     -19.856  -9.931  -1.807  1.00  0.00     0.180 C 
HETATM   13  C   UNL     1     -21.240  -9.335  -1.477  1.00  0.00     0.179 C 
HETATM   14  O   UNL     1     -21.917  -8.843  -2.648  1.00  0.00    -0.348 OA
BRANCH  10  15
HETATM   15  O   UNL     1     -20.253  -9.796  -4.713  1.00  0.00    -0.388 OA
HETATM   16  H   UNL     1     -21.103 -10.098  -4.328  1.00  0.00     0.210 HD
ENDBRANCH  10  15
BRANCH  11  17
HETATM   17  O   UNL     1     -17.874  -9.735  -3.221  1.00  0.00    -0.390 OA
HETATM   18  H   UNL     1     -17.133  -9.111  -3.087  1.00  0.00     0.210 HD
ENDBRANCH  11  17
BRANCH  12  19
HETATM   19  O   UNL     1     -20.060 -11.220  -2.423  1.00  0.00    -0.390 OA
HETATM   20  H   UNL     1     -19.216 -11.713  -2.325  1.00  0.00     0.210 HD
ENDBRANCH  12  19
BRANCH  13  21
HETATM   21  C   UNL     1     -21.216  -8.265  -0.373  1.00  0.00     0.198 C 
BRANCH  21  22
HETATM   22  O   UNL     1     -21.065  -8.844   0.916  1.00  0.00    -0.398 OA
HETATM   23  H   UNL     1     -20.130  -9.099   1.014  1.00  0.00     0.209 HD
ENDBRANCH  21  22
ENDBRANCH  13  21
ENDBRANCH   8   9
ENDBRANCH   7   8
ENDBRANCH   1   7
BRANCH   2  24
HETATM   24  O   UNL     1     -19.384  -6.489  -8.085  1.00  0.00    -0.390 OA
HETATM   25  H   UNL     1     -18.462  -6.256  -8.287  1.00  0.00     0.210 HD
ENDBRANCH   2  24
BRANCH   3  26
HETATM   26  O   UNL     1     -18.145  -4.181  -7.160  1.00  0.00    -0.390 OA
HETATM   27  H   UNL     1     -18.184  -3.281  -7.549  1.00  0.00     0.210 HD
ENDBRANCH   3  26
BRANCH   5  28
HETATM   28  O   UNL     1     -22.947  -3.525  -8.013  1.00  0.00    -0.356 OA
BRANCH  28  29
HETATM   29  C   UNL     1     -23.480  -4.238  -9.122  1.00  0.00     0.205 C 
BRANCH  29  30
HETATM   30  C   UNL     1     -23.610  -3.468 -10.459  1.00  0.00     0.173 C 
BRANCH  30  31
HETATM   31  C   UNL     1     -22.815  -4.151 -11.606  1.00  0.00     0.180 C 
BRANCH  31  32
HETATM   32  C   UNL     1     -22.600  -3.245 -12.840  1.00  0.00     0.184 C 
BRANCH  32  33
HETATM   33  C   UNL     1     -22.691  -4.038 -14.167  1.00  0.00     0.210 C 
BRANCH  33  34
HETATM   34  C   UNL     1     -24.107  -4.541 -14.400  1.00  0.00     0.265 C 
HETATM   35  O   UNL     1     -24.978  -3.863 -14.947  1.00  0.00    -0.304 OA
ENDBRANCH  33  34
BRANCH  33  36
HETATM   36  O   UNL     1     -22.326  -3.198 -15.263  1.00  0.00    -0.386 OA
HETATM   37  H   UNL     1     -21.368  -3.024 -15.166  1.00  0.00     0.210 HD
ENDBRANCH  33  36
ENDBRANCH  32  33
BRANCH  32  38
HETATM   38  O   UNL     1     -23.518  -2.145 -12.876  1.00  0.00    -0.390 OA
HETATM   39  H   UNL     1     -22.987  -1.322 -12.933  1.00  0.00     0.210 HD
ENDBRANCH  32  38
ENDBRANCH  31  32
BRANCH  31  40
HETATM   40  O   UNL     1     -21.525  -4.612 -11.190  1.00  0.00    -0.390 OA
HETATM   41  H   UNL     1     -21.665  -5.428 -10.667  1.00  0.00     0.210 HD
ENDBRANCH  31  40
ENDBRANCH  30  31
BRANCH  30  42
HETATM   42  O   UNL     1     -25.007  -3.310 -10.727  1.00  0.00    -0.391 OA
HETATM   43  H   UNL     1     -25.157  -2.453 -11.159  1.00  0.00     0.210 HD
ENDBRANCH  30  42
ENDBRANCH  29  30
ENDBRANCH  28  29
ENDBRANCH   5  28
BRANCH   4  44
HETATM   44  O   UNL     1     -20.106  -3.885  -9.002  1.00  0.00    -0.388 OA
HETATM   45  H   UNL     1     -19.140  -3.920  -9.090  1.00  0.00     0.210 HD
ENDBRANCH   4  44
TORSDOF 22
BEGIN_RES ARG D 557
REMARK  4 active torsions:
REMARK  status: ('A' for Active; 'I' for Inactive)
REMARK    1  A    between atoms: CA   and  CB  
REMARK    2  A    between atoms: CB   and  CG  
REMARK    3  A    between atoms: CG   and  CD  
REMARK    4  A    between atoms: CD   and  NE  
REMARK       I    between atoms: NE   and  CZ  
REMARK       I    between atoms: CZ   and  NH1 
REMARK       I    between atoms: CZ   and  NH2 
ROOT
ATOM      1  CA  ARG D 557     -26.217   2.705 -17.014  1.00 35.49     0.159 C 
ENDROOT
BRANCH   1   2
ATOM      2  CB  ARG D 557     -26.789   1.319 -17.183  1.00 35.49     0.034 C 
BRANCH   2   3
ATOM      3  CG  ARG D 557     -28.160   1.107 -16.702  1.00 35.49     0.027 C 
BRANCH   3   4
ATOM      4  CD  ARG D 557     -28.728  -0.179 -17.168  1.00 35.49     0.116 C 
BRANCH   4   5
ATOM      5  NE  ARG D 557     -28.026  -1.311 -16.625  1.00 35.49    -0.212 N 
ATOM      6  CZ  ARG D 557     -28.326  -2.573 -16.833  1.00 35.49     0.666 C 
ATOM      7  NH1 ARG D 557     -29.350  -2.945 -17.580  1.00 35.49    -0.235 N 
ATOM      8  NH2 ARG D 557     -27.566  -3.471 -16.277  1.00 35.49    -0.235 N 
ATOM      9  HH  ARG D 557     -29.862  -2.371 -17.958  1.00 35.49     0.174 HD
ATOM     10  HH  ARG D 557     -29.496  -3.783 -17.683  1.00 35.49     0.174 HD
ATOM     11  HH  ARG D 557     -26.908  -3.202 -15.806  1.00 35.49     0.174 HD
ATOM     12  HH  ARG D 557     -27.726  -4.296 -16.392  1.00 35.49     0.174 HD
ATOM     13  HE  ARG D 557     -27.396  -1.163 -16.073  1.00 35.49     0.178 HD
ENDBRANCH   4   5
ENDBRANCH   3   4
ENDBRANCH   2   3
ENDBRANCH   1   2
END_RES ARG D 557
BEGIN_RES GLU D 570
REMARK  3 active torsions:
REMARK  status: ('A' for Active; 'I' for Inactive)
REMARK    5  A    between atoms: CA   and  CB  
REMARK    6  A    between atoms: CB   and  CG  
REMARK    7  A    between atoms: CG   and  CD  
ROOT
ATOM     14  CA  GLU D 570     -18.033  -6.348 -13.375  1.00 32.92     0.160 C 
ENDROOT
BRANCH  14  15
ATOM     15  CB  GLU D 570     -19.500  -6.345 -13.794  1.00 32.92     0.043 C 
BRANCH  15  16
ATOM     16  CG  GLU D 570     -20.082  -7.630 -14.260  1.00 32.92     0.100 C 
BRANCH  16  17
ATOM     17  CD  GLU D 570     -20.740  -7.523 -15.615  1.00 32.92     0.185 C 
ATOM     18  OE1 GLU D 570     -21.195  -8.552 -16.151  1.00 32.92    -0.647 OA
ATOM     19  OE2 GLU D 570     -20.786  -6.400 -16.155  1.00 32.92    -0.647 OA
ENDBRANCH  16  17
ENDBRANCH  15  16
ENDBRANCH  14  15
END_RES GLU D 570
ENDMDL
