MODEL 1
REMARK VINA RESULT:      -4.7      0.000      0.000
REMARK  4 active torsions:
REMARK  status: ('A' for Active; 'I' for Inactive)
REMARK    1  A    between atoms: C_2  and  C_3 
REMARK    2  A    between atoms: C_3  and  C_4 
REMARK    3  A    between atoms: C_4  and  O_5 
REMARK    4  A    between atoms: O_5  and  C_6 
ROOT
HETATM    1  C   UNL     1     -35.160  -1.859 -10.802  1.00  0.00     0.178 C 
ENDROOT
BRANCH   1   2
HETATM    2  C   UNL     1     -33.727  -2.352 -10.629  1.00  0.00     0.026 C 
BRANCH   2   3
HETATM    3  C   UNL     1     -33.622  -3.865 -10.798  1.00  0.00    -0.002 C 
HETATM    4  C   UNL     1     -32.705  -4.230 -11.954  1.00  0.00     0.005 C 
ENDBRANCH   2   3
ENDBRANCH   1   2
BRANCH   1   5
HETATM    5  O   UNL     1     -35.661  -2.245 -12.096  1.00  0.00    -0.322 OA
BRANCH   5   6
HETATM    6  C   UNL     1     -35.282  -1.414 -13.102  1.00  0.00     0.254 C 
HETATM    7  O   UNL     1     -34.954  -1.777 -14.231  1.00  0.00    -0.266 OA
HETATM    8  C   UNL     1     -35.295   0.025 -12.691  1.00  0.00     0.126 C 
ENDBRANCH   5   6
ENDBRANCH   1   5
TORSDOF 4
BEGIN_RES ARG D 557
REMARK  4 active torsions:
REMARK  status: ('A' for Active; 'I' for Inactive)
REMARK    1  A    between atoms: CA   and  CB  
REMARK    2  A    between atoms: CB   and  CG  
REMARK    3  A    between atoms: CG   and  CD  
REMARK    4  A    between atoms: CD   and  NE  
REMARK       I    between atoms: NE   and  CZ  
REMARK       I    between atoms: CZ   and  NH1 
REMARK       I    between atoms: CZ   and  NH2 
ROOT
ATOM      1  CA  ARG D 557     -26.217   2.705 -17.014  1.00 35.49     0.159 C 
ENDROOT
BRANCH   1   2
ATOM      2  CB  ARG D 557     -26.789   1.319 -17.183  1.00 35.49     0.034 C 
BRANCH   2   3
ATOM      3  CG  ARG D 557     -25.836   0.203 -17.156  1.00 35.49     0.027 C 
BRANCH   3   4
ATOM      4  CD  ARG D 557     -24.752   0.411 -16.168  1.00 35.49     0.116 C 
BRANCH   4   5
ATOM      5  NE  ARG D 557     -24.898  -0.440 -15.016  1.00 35.49    -0.212 N 
ATOM      6  CZ  ARG D 557     -24.081  -1.409 -14.669  1.00 35.49     0.666 C 
ATOM      7  NH1 ARG D 557     -23.011  -1.723 -15.377  1.00 35.49    -0.235 N 
ATOM      8  NH2 ARG D 557     -24.357  -2.065 -13.580  1.00 35.49    -0.235 N 
ATOM      9  HH  ARG D 557     -22.809  -1.303 -16.096  1.00 35.49     0.174 HD
ATOM     10  HH  ARG D 557     -22.514  -2.363 -15.100  1.00 35.49     0.174 HD
ATOM     11  HH  ARG D 557     -25.050  -1.836 -13.139  1.00 35.49     0.174 HD
ATOM     12  HH  ARG D 557     -23.851  -2.695 -13.321  1.00 35.49     0.174 HD
ATOM     13  HE  ARG D 557     -25.600  -0.355 -14.544  1.00 35.49     0.178 HD
ENDBRANCH   4   5
ENDBRANCH   3   4
ENDBRANCH   2   3
ENDBRANCH   1   2
END_RES ARG D 557
BEGIN_RES GLU D 570
REMARK  3 active torsions:
REMARK  status: ('A' for Active; 'I' for Inactive)
REMARK    5  A    between atoms: CA   and  CB  
REMARK    6  A    between atoms: CB   and  CG  
REMARK    7  A    between atoms: CG   and  CD  
ROOT
ATOM     14  CA  GLU D 570     -18.033  -6.348 -13.375  1.00 32.92     0.160 C 
ENDROOT
BRANCH  14  15
ATOM     15  CB  GLU D 570     -19.500  -6.345 -13.794  1.00 32.92     0.043 C 
BRANCH  15  16
ATOM     16  CG  GLU D 570     -20.444  -5.541 -12.976  1.00 32.92     0.100 C 
BRANCH  16  17
ATOM     17  CD  GLU D 570     -21.743  -5.249 -13.691  1.00 32.92     0.185 C 
ATOM     18  OE1 GLU D 570     -22.243  -6.128 -14.418  1.00 32.92    -0.647 OA
ATOM     19  OE2 GLU D 570     -22.257  -4.124 -13.534  1.00 32.92    -0.647 OA
ENDBRANCH  16  17
ENDBRANCH  15  16
ENDBRANCH  14  15
END_RES GLU D 570
ENDMDL
MODEL 2
REMARK VINA RESULT:      -4.4      6.740      8.472
REMARK  4 active torsions:
REMARK  status: ('A' for Active; 'I' for Inactive)
REMARK    1  A    between atoms: C_2  and  C_3 
REMARK    2  A    between atoms: C_3  and  C_4 
REMARK    3  A    between atoms: C_4  and  O_5 
REMARK    4  A    between atoms: O_5  and  C_6 
ROOT
HETATM    1  C   UNL     1     -22.478  -4.277  -8.495  1.00  0.00     0.178 C 
ENDROOT
BRANCH   1   2
HETATM    2  C   UNL     1     -21.571  -3.653  -7.439  1.00  0.00     0.026 C 
BRANCH   2   3
HETATM    3  C   UNL     1     -20.299  -4.470  -7.229  1.00  0.00    -0.002 C 
HETATM    4  C   UNL     1     -20.068  -4.765  -5.756  1.00  0.00     0.005 C 
ENDBRANCH   2   3
ENDBRANCH   1   2
BRANCH   1   5
HETATM    5  O   UNL     1     -23.351  -3.273  -9.050  1.00  0.00    -0.322 OA
BRANCH   5   6
HETATM    6  C   UNL     1     -24.271  -3.766  -9.919  1.00  0.00     0.254 C 
HETATM    7  O   UNL     1     -25.358  -3.245 -10.166  1.00  0.00    -0.266 OA
HETATM    8  C   UNL     1     -23.828  -5.044 -10.560  1.00  0.00     0.126 C 
ENDBRANCH   5   6
ENDBRANCH   1   5
TORSDOF 4
BEGIN_RES ARG D 557
REMARK  4 active torsions:
REMARK  status: ('A' for Active; 'I' for Inactive)
REMARK    1  A    between atoms: CA   and  CB  
REMARK    2  A    between atoms: CB   and  CG  
REMARK    3  A    between atoms: CG   and  CD  
REMARK    4  A    between atoms: CD   and  NE  
REMARK       I    between atoms: NE   and  CZ  
REMARK       I    between atoms: CZ   and  NH1 
REMARK       I    between atoms: CZ   and  NH2 
ROOT
ATOM      1  CA  ARG D 557     -26.217   2.705 -17.014  1.00 35.49     0.159 C 
ENDROOT
BRANCH   1   2
ATOM      2  CB  ARG D 557     -26.789   1.319 -17.183  1.00 35.49     0.034 C 
BRANCH   2   3
ATOM      3  CG  ARG D 557     -25.837   0.202 -17.148  1.00 35.49     0.027 C 
BRANCH   3   4
ATOM      4  CD  ARG D 557     -24.757   0.412 -16.157  1.00 35.49     0.116 C 
BRANCH   4   5
ATOM      5  NE  ARG D 557     -24.904  -0.440 -15.007  1.00 35.49    -0.212 N 
ATOM      6  CZ  ARG D 557     -24.090  -1.413 -14.663  1.00 35.49     0.666 C 
ATOM      7  NH1 ARG D 557     -23.022  -1.729 -15.373  1.00 35.49    -0.235 N 
ATOM      8  NH2 ARG D 557     -24.366  -2.071 -13.574  1.00 35.49    -0.235 N 
ATOM      9  HH  ARG D 557     -22.820  -1.308 -16.091  1.00 35.49     0.174 HD
ATOM     10  HH  ARG D 557     -22.527  -2.372 -15.098  1.00 35.49     0.174 HD
ATOM     11  HH  ARG D 557     -25.058  -1.840 -13.132  1.00 35.49     0.174 HD
ATOM     12  HH  ARG D 557     -23.862  -2.703 -13.318  1.00 35.49     0.174 HD
ATOM     13  HE  ARG D 557     -25.604  -0.354 -14.533  1.00 35.49     0.178 HD
ENDBRANCH   4   5
ENDBRANCH   3   4
ENDBRANCH   2   3
ENDBRANCH   1   2
END_RES ARG D 557
BEGIN_RES GLU D 570
REMARK  3 active torsions:
REMARK  status: ('A' for Active; 'I' for Inactive)
REMARK    5  A    between atoms: CA   and  CB  
REMARK    6  A    between atoms: CB   and  CG  
REMARK    7  A    between atoms: CG   and  CD  
ROOT
ATOM     14  CA  GLU D 570     -18.033  -6.348 -13.375  1.00 32.92     0.160 C 
ENDROOT
BRANCH  14  15
ATOM     15  CB  GLU D 570     -19.500  -6.345 -13.794  1.00 32.92     0.043 C 
BRANCH  15  16
ATOM     16  CG  GLU D 570     -20.441  -5.527 -12.986  1.00 32.92     0.100 C 
BRANCH  16  17
ATOM     17  CD  GLU D 570     -21.742  -5.246 -13.702  1.00 32.92     0.185 C 
ATOM     18  OE1 GLU D 570     -22.251  -6.140 -14.405  1.00 32.92    -0.647 OA
ATOM     19  OE2 GLU D 570     -22.249  -4.115 -13.570  1.00 32.92    -0.647 OA
ENDBRANCH  16  17
ENDBRANCH  15  16
ENDBRANCH  14  15
END_RES GLU D 570
ENDMDL
MODEL 3
REMARK VINA RESULT:      -4.3      6.316      8.245
REMARK  4 active torsions:
REMARK  status: ('A' for Active; 'I' for Inactive)
REMARK    1  A    between atoms: C_2  and  C_3 
REMARK    2  A    between atoms: C_3  and  C_4 
REMARK    3  A    between atoms: C_4  and  O_5 
REMARK    4  A    between atoms: O_5  and  C_6 
ROOT
HETATM    1  C   UNL     1     -23.066  -4.521 -11.436  1.00  0.00     0.178 C 
ENDROOT
BRANCH   1   2
HETATM    2  C   UNL     1     -21.761  -4.113 -12.113  1.00  0.00     0.026 C 
BRANCH   2   3
HETATM    3  C   UNL     1     -20.780  -3.489 -11.125  1.00  0.00    -0.002 C 
HETATM    4  C   UNL     1     -20.237  -4.526 -10.155  1.00  0.00     0.005 C 
ENDBRANCH   2   3
ENDBRANCH   1   2
BRANCH   1   5
HETATM    5  O   UNL     1     -23.847  -3.350 -11.125  1.00  0.00    -0.322 OA
BRANCH   5   6
HETATM    6  C   UNL     1     -24.557  -3.455  -9.972  1.00  0.00     0.254 C 
HETATM    7  O   UNL     1     -25.738  -3.134  -9.839  1.00  0.00    -0.266 OA
HETATM    8  C   UNL     1     -23.742  -4.006  -8.844  1.00  0.00     0.126 C 
ENDBRANCH   5   6
ENDBRANCH   1   5
TORSDOF 4
BEGIN_RES ARG D 557
REMARK  4 active torsions:
REMARK  status: ('A' for Active; 'I' for Inactive)
REMARK    1  A    between atoms: CA   and  CB  
REMARK    2  A    between atoms: CB   and  CG  
REMARK    3  A    between atoms: CG   and  CD  
REMARK    4  A    between atoms: CD   and  NE  
REMARK       I    between atoms: NE   and  CZ  
REMARK       I    between atoms: CZ   and  NH1 
REMARK       I    between atoms: CZ   and  NH2 
ROOT
ATOM      1  CA  ARG D 557     -26.217   2.705 -17.014  1.00 35.49     0.159 C 
ENDROOT
BRANCH   1   2
ATOM      2  CB  ARG D 557     -26.789   1.319 -17.183  1.00 35.49     0.034 C 
BRANCH   2   3
ATOM      3  CG  ARG D 557     -25.947   0.199 -16.745  1.00 35.49     0.027 C 
BRANCH   3   4
ATOM      4  CD  ARG D 557     -26.738  -0.900 -16.144  1.00 35.49     0.116 C 
BRANCH   4   5
ATOM      5  NE  ARG D 557     -26.075  -1.487 -15.010  1.00 35.49    -0.212 N 
ATOM      6  CZ  ARG D 557     -26.062  -2.766 -14.705  1.00 35.49     0.666 C 
ATOM      7  NH1 ARG D 557     -26.691  -3.674 -15.428  1.00 35.49    -0.235 N 
ATOM      8  NH2 ARG D 557     -25.390  -3.124 -13.650  1.00 35.49    -0.235 N 
ATOM      9  HH  ARG D 557     -27.137  -3.460 -16.128  1.00 35.49     0.174 HD
ATOM     10  HH  ARG D 557     -26.645  -4.493 -15.183  1.00 35.49     0.174 HD
ATOM     11  HH  ARG D 557     -24.988  -2.517 -13.206  1.00 35.49     0.174 HD
ATOM     12  HH  ARG D 557     -25.356  -3.941 -13.424  1.00 35.49     0.174 HD
ATOM     13  HE  ARG D 557     -25.705  -0.966 -14.449  1.00 35.49     0.178 HD
ENDBRANCH   4   5
ENDBRANCH   3   4
ENDBRANCH   2   3
ENDBRANCH   1   2
END_RES ARG D 557
BEGIN_RES GLU D 570
REMARK  3 active torsions:
REMARK  status: ('A' for Active; 'I' for Inactive)
REMARK    5  A    between atoms: CA   and  CB  
REMARK    6  A    between atoms: CB   and  CG  
REMARK    7  A    between atoms: CG   and  CD  
ROOT
ATOM     14  CA  GLU D 570     -18.033  -6.348 -13.375  1.00 32.92     0.160 C 
ENDROOT
BRANCH  14  15
ATOM     15  CB  GLU D 570     -19.500  -6.345 -13.794  1.00 32.92     0.043 C 
BRANCH  15  16
ATOM     16  CG  GLU D 570     -19.810  -5.978 -15.200  1.00 32.92     0.100 C 
BRANCH  16  17
ATOM     17  CD  GLU D 570     -21.282  -5.733 -15.435  1.00 32.92     0.185 C 
ATOM     18  OE1 GLU D 570     -21.644  -4.649 -15.931  1.00 32.92    -0.647 OA
ATOM     19  OE2 GLU D 570     -22.084  -6.628 -15.102  1.00 32.92    -0.647 OA
ENDBRANCH  16  17
ENDBRANCH  15  16
ENDBRANCH  14  15
END_RES GLU D 570
ENDMDL
MODEL 4
REMARK VINA RESULT:      -4.0      6.364      8.699
REMARK  4 active torsions:
REMARK  status: ('A' for Active; 'I' for Inactive)
REMARK    1  A    between atoms: C_2  and  C_3 
REMARK    2  A    between atoms: C_3  and  C_4 
REMARK    3  A    between atoms: C_4  and  O_5 
REMARK    4  A    between atoms: O_5  and  C_6 
ROOT
HETATM    1  C   UNL     1     -23.463  -5.802 -14.016  1.00  0.00     0.178 C 
ENDROOT
BRANCH   1   2
HETATM    2  C   UNL     1     -22.740  -4.516 -13.631  1.00  0.00     0.026 C 
BRANCH   2   3
HETATM    3  C   UNL     1     -22.281  -4.536 -12.176  1.00  0.00    -0.002 C 
HETATM    4  C   UNL     1     -21.995  -3.132 -11.667  1.00  0.00     0.005 C 
ENDBRANCH   2   3
ENDBRANCH   1   2
BRANCH   1   5
HETATM    5  O   UNL     1     -23.849  -5.754 -15.404  1.00  0.00    -0.322 OA
BRANCH   5   6
HETATM    6  C   UNL     1     -24.561  -6.837 -15.813  1.00  0.00     0.254 C 
HETATM    7  O   UNL     1     -25.497  -7.341 -15.194  1.00  0.00    -0.266 OA
HETATM    8  C   UNL     1     -24.079  -7.377 -17.124  1.00  0.00     0.126 C 
ENDBRANCH   5   6
ENDBRANCH   1   5
TORSDOF 4
BEGIN_RES ARG D 557
REMARK  4 active torsions:
REMARK  status: ('A' for Active; 'I' for Inactive)
REMARK    1  A    between atoms: CA   and  CB  
REMARK    2  A    between atoms: CB   and  CG  
REMARK    3  A    between atoms: CG   and  CD  
REMARK    4  A    between atoms: CD   and  NE  
REMARK       I    between atoms: NE   and  CZ  
REMARK       I    between atoms: CZ   and  NH1 
REMARK       I    between atoms: CZ   and  NH2 
ROOT
ATOM      1  CA  ARG D 557     -26.217   2.705 -17.014  1.00 35.49     0.159 C 
ENDROOT
BRANCH   1   2
ATOM      2  CB  ARG D 557     -26.789   1.319 -17.183  1.00 35.49     0.034 C 
BRANCH   2   3
ATOM      3  CG  ARG D 557     -28.232   1.226 -17.439  1.00 35.49     0.027 C 
BRANCH   3   4
ATOM      4  CD  ARG D 557     -28.913   0.306 -16.500  1.00 35.49     0.116 C 
BRANCH   4   5
ATOM      5  NE  ARG D 557     -29.293  -0.930 -17.131  1.00 35.49    -0.212 N 
ATOM      6  CZ  ARG D 557     -28.650  -2.072 -17.032  1.00 35.49     0.666 C 
ATOM      7  NH1 ARG D 557     -27.541  -2.203 -16.329  1.00 35.49    -0.235 N 
ATOM      8  NH2 ARG D 557     -29.151  -3.098 -17.656  1.00 35.49    -0.235 N 
ATOM      9  HH  ARG D 557     -27.195  -1.541 -15.908  1.00 35.49     0.174 HD
ATOM     10  HH  ARG D 557     -27.166  -2.973 -16.298  1.00 35.49     0.174 HD
ATOM     11  HH  ARG D 557     -29.872  -2.986 -18.097  1.00 35.49     0.174 HD
ATOM     12  HH  ARG D 557     -28.766  -3.853 -17.613  1.00 35.49     0.174 HD
ATOM     13  HE  ARG D 557     -29.956  -0.919 -17.663  1.00 35.49     0.178 HD
ENDBRANCH   4   5
ENDBRANCH   3   4
ENDBRANCH   2   3
ENDBRANCH   1   2
END_RES ARG D 557
BEGIN_RES GLU D 570
REMARK  3 active torsions:
REMARK  status: ('A' for Active; 'I' for Inactive)
REMARK    5  A    between atoms: CA   and  CB  
REMARK    6  A    between atoms: CB   and  CG  
REMARK    7  A    between atoms: CG   and  CD  
ROOT
ATOM     14  CA  GLU D 570     -18.033  -6.348 -13.375  1.00 32.92     0.160 C 
ENDROOT
BRANCH  14  15
ATOM     15  CB  GLU D 570     -19.500  -6.345 -13.794  1.00 32.92     0.043 C 
BRANCH  15  16
ATOM     16  CG  GLU D 570     -20.096  -7.641 -14.210  1.00 32.92     0.100 C 
BRANCH  16  17
ATOM     17  CD  GLU D 570     -20.569  -7.639 -15.645  1.00 32.92     0.185 C 
ATOM     18  OE1 GLU D 570     -20.774  -8.727 -16.216  1.00 32.92    -0.647 OA
ATOM     19  OE2 GLU D 570     -20.721  -6.537 -16.209  1.00 32.92    -0.647 OA
ENDBRANCH  16  17
ENDBRANCH  15  16
ENDBRANCH  14  15
END_RES GLU D 570
ENDMDL
MODEL 5
REMARK VINA RESULT:      -4.0      5.444      6.790
REMARK  4 active torsions:
REMARK  status: ('A' for Active; 'I' for Inactive)
REMARK    1  A    between atoms: C_2  and  C_3 
REMARK    2  A    between atoms: C_3  and  C_4 
REMARK    3  A    between atoms: C_4  and  O_5 
REMARK    4  A    between atoms: O_5  and  C_6 
ROOT
HETATM    1  C   UNL     1     -27.199  -5.993 -17.799  1.00  0.00     0.178 C 
ENDROOT
BRANCH   1   2
HETATM    2  C   UNL     1     -28.434  -5.107 -17.929  1.00  0.00     0.026 C 
BRANCH   2   3
HETATM    3  C   UNL     1     -29.699  -5.822 -17.463  1.00  0.00    -0.002 C 
HETATM    4  C   UNL     1     -29.965  -5.569 -15.988  1.00  0.00     0.005 C 
ENDBRANCH   2   3
ENDBRANCH   1   2
BRANCH   1   5
HETATM    5  O   UNL     1     -26.439  -5.610 -16.636  1.00  0.00    -0.322 OA
BRANCH   5   6
HETATM    6  C   UNL     1     -26.088  -6.655 -15.841  1.00  0.00     0.254 C 
HETATM    7  O   UNL     1     -26.877  -7.453 -15.336  1.00  0.00    -0.266 OA
HETATM    8  C   UNL     1     -24.609  -6.741 -15.627  1.00  0.00     0.126 C 
ENDBRANCH   5   6
ENDBRANCH   1   5
TORSDOF 4
BEGIN_RES ARG D 557
REMARK  4 active torsions:
REMARK  status: ('A' for Active; 'I' for Inactive)
REMARK    1  A    between atoms: CA   and  CB  
REMARK    2  A    between atoms: CB   and  CG  
REMARK    3  A    between atoms: CG   and  CD  
REMARK    4  A    between atoms: CD   and  NE  
REMARK       I    between atoms: NE   and  CZ  
REMARK       I    between atoms: CZ   and  NH1 
REMARK       I    between atoms: CZ   and  NH2 
ROOT
ATOM      1  CA  ARG D 557     -26.217   2.705 -17.014  1.00 35.49     0.159 C 
ENDROOT
BRANCH   1   2
ATOM      2  CB  ARG D 557     -26.789   1.319 -17.183  1.00 35.49     0.034 C 
BRANCH   2   3
ATOM      3  CG  ARG D 557     -25.866   0.195 -16.987  1.00 35.49     0.027 C 
BRANCH   3   4
ATOM      4  CD  ARG D 557     -26.319  -0.729 -15.922  1.00 35.49     0.116 C 
BRANCH   4   5
ATOM      5  NE  ARG D 557     -25.303  -0.950 -14.928  1.00 35.49    -0.212 N 
ATOM      6  CZ  ARG D 557     -25.014  -2.103 -14.366  1.00 35.49     0.666 C 
ATOM      7  NH1 ARG D 557     -25.662  -3.215 -14.659  1.00 35.49    -0.235 N 
ATOM      8  NH2 ARG D 557     -24.046  -2.122 -13.497  1.00 35.49    -0.235 N 
ATOM      9  HH  ARG D 557     -26.301  -3.226 -15.230  1.00 35.49     0.174 HD
ATOM     10  HH  ARG D 557     -25.428  -3.938 -14.264  1.00 35.49     0.174 HD
ATOM     11  HH  ARG D 557     -23.641  -1.390 -13.334  1.00 35.49     0.174 HD
ATOM     12  HH  ARG D 557     -23.829  -2.848 -13.117  1.00 35.49     0.174 HD
ATOM     13  HE  ARG D 557     -24.885  -0.273 -14.626  1.00 35.49     0.178 HD
ENDBRANCH   4   5
ENDBRANCH   3   4
ENDBRANCH   2   3
ENDBRANCH   1   2
END_RES ARG D 557
BEGIN_RES GLU D 570
REMARK  3 active torsions:
REMARK  status: ('A' for Active; 'I' for Inactive)
REMARK    5  A    between atoms: CA   and  CB  
REMARK    6  A    between atoms: CB   and  CG  
REMARK    7  A    between atoms: CG   and  CD  
ROOT
ATOM     14  CA  GLU D 570     -18.033  -6.348 -13.375  1.00 32.92     0.160 C 
ENDROOT
BRANCH  14  15
ATOM     15  CB  GLU D 570     -19.500  -6.345 -13.794  1.00 32.92     0.043 C 
BRANCH  15  16
ATOM     16  CG  GLU D 570     -20.455  -5.594 -12.938  1.00 32.92     0.100 C 
BRANCH  16  17
ATOM     17  CD  GLU D 570     -21.670  -5.112 -13.695  1.00 32.92     0.185 C 
ATOM     18  OE1 GLU D 570     -21.608  -5.003 -14.934  1.00 32.92    -0.647 OA
ATOM     19  OE2 GLU D 570     -22.691  -4.823 -13.039  1.00 32.92    -0.647 OA
ENDBRANCH  16  17
ENDBRANCH  15  16
ENDBRANCH  14  15
END_RES GLU D 570
ENDMDL
MODEL 6
REMARK VINA RESULT:      -4.0      6.380      8.387
REMARK  4 active torsions:
REMARK  status: ('A' for Active; 'I' for Inactive)
REMARK    1  A    between atoms: C_2  and  C_3 
REMARK    2  A    between atoms: C_3  and  C_4 
REMARK    3  A    between atoms: C_4  and  O_5 
REMARK    4  A    between atoms: O_5  and  C_6 
ROOT
HETATM    1  C   UNL     1     -23.444  -4.086  -8.638  1.00  0.00     0.178 C 
ENDROOT
BRANCH   1   2
HETATM    2  C   UNL     1     -22.110  -3.894  -7.922  1.00  0.00     0.026 C 
BRANCH   2   3
HETATM    3  C   UNL     1     -20.988  -4.685  -8.590  1.00  0.00    -0.002 C 
HETATM    4  C   UNL     1     -19.623  -4.213  -8.118  1.00  0.00     0.005 C 
ENDBRANCH   2   3
ENDBRANCH   1   2
BRANCH   1   5
HETATM    5  O   UNL     1     -23.221  -4.316 -10.043  1.00  0.00    -0.322 OA
BRANCH   5   6
HETATM    6  C   UNL     1     -23.765  -3.366 -10.847  1.00  0.00     0.254 C 
HETATM    7  O   UNL     1     -24.972  -3.176 -10.998  1.00  0.00    -0.266 OA
HETATM    8  C   UNL     1     -22.728  -2.555 -11.559  1.00  0.00     0.126 C 
ENDBRANCH   5   6
ENDBRANCH   1   5
TORSDOF 4
BEGIN_RES ARG D 557
REMARK  4 active torsions:
REMARK  status: ('A' for Active; 'I' for Inactive)
REMARK    1  A    between atoms: CA   and  CB  
REMARK    2  A    between atoms: CB   and  CG  
REMARK    3  A    between atoms: CG   and  CD  
REMARK    4  A    between atoms: CD   and  NE  
REMARK       I    between atoms: NE   and  CZ  
REMARK       I    between atoms: CZ   and  NH1 
REMARK       I    between atoms: CZ   and  NH2 
ROOT
ATOM      1  CA  ARG D 557     -26.217   2.705 -17.014  1.00 35.49     0.159 C 
ENDROOT
BRANCH   1   2
ATOM      2  CB  ARG D 557     -26.789   1.319 -17.183  1.00 35.49     0.034 C 
BRANCH   2   3
ATOM      3  CG  ARG D 557     -25.944   0.198 -16.753  1.00 35.49     0.027 C 
BRANCH   3   4
ATOM      4  CD  ARG D 557     -26.715  -0.854 -16.054  1.00 35.49     0.116 C 
BRANCH   4   5
ATOM      5  NE  ARG D 557     -25.892  -1.630 -15.164  1.00 35.49    -0.212 N 
ATOM      6  CZ  ARG D 557     -26.004  -2.921 -14.943  1.00 35.49     0.666 C 
ATOM      7  NH1 ARG D 557     -26.929  -3.662 -15.525  1.00 35.49    -0.235 N 
ATOM      8  NH2 ARG D 557     -25.156  -3.464 -14.119  1.00 35.49    -0.235 N 
ATOM      9  HH  ARG D 557     -27.496  -3.326 -16.072  1.00 35.49     0.174 HD
ATOM     10  HH  ARG D 557     -26.952  -4.499 -15.344  1.00 35.49     0.174 HD
ATOM     11  HH  ARG D 557     -24.565  -2.962 -13.763  1.00 35.49     0.174 HD
ATOM     12  HH  ARG D 557     -25.195  -4.295 -13.954  1.00 35.49     0.174 HD
ATOM     13  HE  ARG D 557     -25.316  -1.219 -14.692  1.00 35.49     0.178 HD
ENDBRANCH   4   5
ENDBRANCH   3   4
ENDBRANCH   2   3
ENDBRANCH   1   2
END_RES ARG D 557
BEGIN_RES GLU D 570
REMARK  3 active torsions:
REMARK  status: ('A' for Active; 'I' for Inactive)
REMARK    5  A    between atoms: CA   and  CB  
REMARK    6  A    between atoms: CB   and  CG  
REMARK    7  A    between atoms: CG   and  CD  
ROOT
ATOM     14  CA  GLU D 570     -18.033  -6.348 -13.375  1.00 32.92     0.160 C 
ENDROOT
BRANCH  14  15
ATOM     15  CB  GLU D 570     -19.500  -6.345 -13.794  1.00 32.92     0.043 C 
BRANCH  15  16
ATOM     16  CG  GLU D 570     -20.425  -5.460 -13.041  1.00 32.92     0.100 C 
BRANCH  16  17
ATOM     17  CD  GLU D 570     -21.714  -5.188 -13.781  1.00 32.92     0.185 C 
ATOM     18  OE1 GLU D 570     -22.794  -5.530 -13.262  1.00 32.92    -0.647 OA
ATOM     19  OE2 GLU D 570     -21.642  -4.641 -14.899  1.00 32.92    -0.647 OA
ENDBRANCH  16  17
ENDBRANCH  15  16
ENDBRANCH  14  15
END_RES GLU D 570
ENDMDL
MODEL 7
REMARK VINA RESULT:      -3.9      6.033      8.189
REMARK  4 active torsions:
REMARK  status: ('A' for Active; 'I' for Inactive)
REMARK    1  A    between atoms: C_2  and  C_3 
REMARK    2  A    between atoms: C_3  and  C_4 
REMARK    3  A    between atoms: C_4  and  O_5 
REMARK    4  A    between atoms: O_5  and  C_6 
ROOT
HETATM    1  C   UNL     1     -24.118  -3.156 -12.028  1.00  0.00     0.178 C 
ENDROOT
BRANCH   1   2
HETATM    2  C   UNL     1     -22.660  -2.905 -11.656  1.00  0.00     0.026 C 
BRANCH   2   3
HETATM    3  C   UNL     1     -21.886  -4.207 -11.478  1.00  0.00    -0.002 C 
HETATM    4  C   UNL     1     -20.448  -3.944 -11.059  1.00  0.00     0.005 C 
ENDBRANCH   2   3
ENDBRANCH   1   2
BRANCH   1   5
HETATM    5  O   UNL     1     -24.216  -3.525 -13.417  1.00  0.00    -0.322 OA
BRANCH   5   6
HETATM    6  C   UNL     1     -24.297  -2.465 -14.263  1.00  0.00     0.254 C 
HETATM    7  O   UNL     1     -25.302  -1.776 -14.436  1.00  0.00    -0.266 OA
HETATM    8  C   UNL     1     -23.013  -2.210 -14.988  1.00  0.00     0.126 C 
ENDBRANCH   5   6
ENDBRANCH   1   5
TORSDOF 4
BEGIN_RES ARG D 557
REMARK  4 active torsions:
REMARK  status: ('A' for Active; 'I' for Inactive)
REMARK    1  A    between atoms: CA   and  CB  
REMARK    2  A    between atoms: CB   and  CG  
REMARK    3  A    between atoms: CG   and  CD  
REMARK    4  A    between atoms: CD   and  NE  
REMARK       I    between atoms: NE   and  CZ  
REMARK       I    between atoms: CZ   and  NH1 
REMARK       I    between atoms: CZ   and  NH2 
ROOT
ATOM      1  CA  ARG D 557     -26.217   2.705 -17.014  1.00 35.49     0.159 C 
ENDROOT
BRANCH   1   2
ATOM      2  CB  ARG D 557     -26.789   1.319 -17.183  1.00 35.49     0.034 C 
BRANCH   2   3
ATOM      3  CG  ARG D 557     -28.230   1.227 -17.446  1.00 35.49     0.027 C 
BRANCH   3   4
ATOM      4  CD  ARG D 557     -28.918   0.310 -16.509  1.00 35.49     0.116 C 
BRANCH   4   5
ATOM      5  NE  ARG D 557     -29.294  -0.928 -17.139  1.00 35.49    -0.212 N 
ATOM      6  CZ  ARG D 557     -28.655  -2.071 -17.029  1.00 35.49     0.666 C 
ATOM      7  NH1 ARG D 557     -27.553  -2.202 -16.314  1.00 35.49    -0.235 N 
ATOM      8  NH2 ARG D 557     -29.152  -3.099 -17.654  1.00 35.49    -0.235 N 
ATOM      9  HH  ARG D 557     -27.210  -1.539 -15.893  1.00 35.49     0.174 HD
ATOM     10  HH  ARG D 557     -27.181  -2.973 -16.277  1.00 35.49     0.174 HD
ATOM     11  HH  ARG D 557     -29.869  -2.987 -18.102  1.00 35.49     0.174 HD
ATOM     12  HH  ARG D 557     -28.770  -3.855 -17.603  1.00 35.49     0.174 HD
ATOM     13  HE  ARG D 557     -29.952  -0.918 -17.677  1.00 35.49     0.178 HD
ENDBRANCH   4   5
ENDBRANCH   3   4
ENDBRANCH   2   3
ENDBRANCH   1   2
END_RES ARG D 557
BEGIN_RES GLU D 570
REMARK  3 active torsions:
REMARK  status: ('A' for Active; 'I' for Inactive)
REMARK    5  A    between atoms: CA   and  CB  
REMARK    6  A    between atoms: CB   and  CG  
REMARK    7  A    between atoms: CG   and  CD  
ROOT
ATOM     14  CA  GLU D 570     -18.033  -6.348 -13.375  1.00 32.92     0.160 C 
ENDROOT
BRANCH  14  15
ATOM     15  CB  GLU D 570     -19.500  -6.345 -13.794  1.00 32.92     0.043 C 
BRANCH  15  16
ATOM     16  CG  GLU D 570     -19.808  -6.003 -15.207  1.00 32.92     0.100 C 
BRANCH  16  17
ATOM     17  CD  GLU D 570     -21.254  -5.621 -15.419  1.00 32.92     0.185 C 
ATOM     18  OE1 GLU D 570     -21.572  -5.007 -16.455  1.00 32.92    -0.647 OA
ATOM     19  OE2 GLU D 570     -22.075  -5.925 -14.531  1.00 32.92    -0.647 OA
ENDBRANCH  16  17
ENDBRANCH  15  16
ENDBRANCH  14  15
END_RES GLU D 570
ENDMDL
MODEL 8
REMARK VINA RESULT:      -3.8      8.647     12.036
REMARK  4 active torsions:
REMARK  status: ('A' for Active; 'I' for Inactive)
REMARK    1  A    between atoms: C_2  and  C_3 
REMARK    2  A    between atoms: C_3  and  C_4 
REMARK    3  A    between atoms: C_4  and  O_5 
REMARK    4  A    between atoms: O_5  and  C_6 
ROOT
HETATM    1  C   UNL     1     -22.632  -8.049  -0.256  1.00  0.00     0.178 C 
ENDROOT
BRANCH   1   2
HETATM    2  C   UNL     1     -22.222  -7.984   1.212  1.00  0.00     0.026 C 
BRANCH   2   3
HETATM    3  C   UNL     1     -20.936  -8.762   1.478  1.00  0.00    -0.002 C 
HETATM    4  C   UNL     1     -20.962 -10.121   0.798  1.00  0.00     0.005 C 
ENDBRANCH   2   3
ENDBRANCH   1   2
BRANCH   1   5
HETATM    5  O   UNL     1     -22.633  -6.725  -0.826  1.00  0.00    -0.322 OA
BRANCH   5   6
HETATM    6  C   UNL     1     -22.027  -6.650  -2.039  1.00  0.00     0.254 C 
HETATM    7  O   UNL     1     -22.406  -5.946  -2.975  1.00  0.00    -0.266 OA
HETATM    8  C   UNL     1     -20.823  -7.535  -2.134  1.00  0.00     0.126 C 
ENDBRANCH   5   6
ENDBRANCH   1   5
TORSDOF 4
BEGIN_RES ARG D 557
REMARK  4 active torsions:
REMARK  status: ('A' for Active; 'I' for Inactive)
REMARK    1  A    between atoms: CA   and  CB  
REMARK    2  A    between atoms: CB   and  CG  
REMARK    3  A    between atoms: CG   and  CD  
REMARK    4  A    between atoms: CD   and  NE  
REMARK       I    between atoms: NE   and  CZ  
REMARK       I    between atoms: CZ   and  NH1 
REMARK       I    between atoms: CZ   and  NH2 
ROOT
ATOM      1  CA  ARG D 557     -26.217   2.705 -17.014  1.00 35.49     0.159 C 
ENDROOT
BRANCH   1   2
ATOM      2  CB  ARG D 557     -26.789   1.319 -17.183  1.00 35.49     0.034 C 
BRANCH   2   3
ATOM      3  CG  ARG D 557     -25.840   0.201 -17.123  1.00 35.49     0.027 C 
BRANCH   3   4
ATOM      4  CD  ARG D 557     -24.775   0.418 -16.117  1.00 35.49     0.116 C 
BRANCH   4   5
ATOM      5  NE  ARG D 557     -24.887  -0.488 -15.004  1.00 35.49    -0.212 N 
ATOM      6  CZ  ARG D 557     -24.043  -1.451 -14.710  1.00 35.49     0.666 C 
ATOM      7  NH1 ARG D 557     -22.973  -1.704 -15.440  1.00 35.49    -0.235 N 
ATOM      8  NH2 ARG D 557     -24.291  -2.163 -13.649  1.00 35.49    -0.235 N 
ATOM      9  HH  ARG D 557     -22.789  -1.246 -16.141  1.00 35.49     0.174 HD
ATOM     10  HH  ARG D 557     -22.456  -2.343 -15.198  1.00 35.49     0.174 HD
ATOM     11  HH  ARG D 557     -24.985  -1.972 -13.192  1.00 35.49     0.174 HD
ATOM     12  HH  ARG D 557     -23.766  -2.790 -13.424  1.00 35.49     0.174 HD
ATOM     13  HE  ARG D 557     -25.586  -0.443 -14.522  1.00 35.49     0.178 HD
ENDBRANCH   4   5
ENDBRANCH   3   4
ENDBRANCH   2   3
ENDBRANCH   1   2
END_RES ARG D 557
BEGIN_RES GLU D 570
REMARK  3 active torsions:
REMARK  status: ('A' for Active; 'I' for Inactive)
REMARK    5  A    between atoms: CA   and  CB  
REMARK    6  A    between atoms: CB   and  CG  
REMARK    7  A    between atoms: CG   and  CD  
ROOT
ATOM     14  CA  GLU D 570     -18.033  -6.348 -13.375  1.00 32.92     0.160 C 
ENDROOT
BRANCH  14  15
ATOM     15  CB  GLU D 570     -19.500  -6.345 -13.794  1.00 32.92     0.043 C 
BRANCH  15  16
ATOM     16  CG  GLU D 570     -20.441  -5.525 -12.987  1.00 32.92     0.100 C 
BRANCH  16  17
ATOM     17  CD  GLU D 570     -21.649  -5.071 -13.772  1.00 32.92     0.185 C 
ATOM     18  OE1 GLU D 570     -21.513  -4.776 -14.975  1.00 32.92    -0.647 OA
ATOM     19  OE2 GLU D 570     -22.740  -4.994 -13.173  1.00 32.92    -0.647 OA
ENDBRANCH  16  17
ENDBRANCH  15  16
ENDBRANCH  14  15
END_RES GLU D 570
ENDMDL
MODEL 9
REMARK VINA RESULT:      -3.8      6.329      8.829
REMARK  4 active torsions:
REMARK  status: ('A' for Active; 'I' for Inactive)
REMARK    1  A    between atoms: C_2  and  C_3 
REMARK    2  A    between atoms: C_3  and  C_4 
REMARK    3  A    between atoms: C_4  and  O_5 
REMARK    4  A    between atoms: O_5  and  C_6 
ROOT
HETATM    1  C   UNL     1     -22.000  -4.321  -9.791  1.00  0.00     0.178 C 
ENDROOT
BRANCH   1   2
HETATM    2  C   UNL     1     -20.499  -4.125  -9.598  1.00  0.00     0.026 C 
BRANCH   2   3
HETATM    3  C   UNL     1     -20.120  -4.058  -8.121  1.00  0.00    -0.002 C 
HETATM    4  C   UNL     1     -21.305  -3.643  -7.264  1.00  0.00     0.005 C 
ENDBRANCH   2   3
ENDBRANCH   1   2
BRANCH   1   5
HETATM    5  O   UNL     1     -22.514  -3.326 -10.697  1.00  0.00    -0.322 OA
BRANCH   5   6
HETATM    6  C   UNL     1     -23.870  -3.241 -10.707  1.00  0.00     0.254 C 
HETATM    7  O   UNL     1     -24.554  -2.989 -11.698  1.00  0.00    -0.266 OA
HETATM    8  C   UNL     1     -24.469  -3.485  -9.357  1.00  0.00     0.126 C 
ENDBRANCH   5   6
ENDBRANCH   1   5
TORSDOF 4
BEGIN_RES ARG D 557
REMARK  4 active torsions:
REMARK  status: ('A' for Active; 'I' for Inactive)
REMARK    1  A    between atoms: CA   and  CB  
REMARK    2  A    between atoms: CB   and  CG  
REMARK    3  A    between atoms: CG   and  CD  
REMARK    4  A    between atoms: CD   and  NE  
REMARK       I    between atoms: NE   and  CZ  
REMARK       I    between atoms: CZ   and  NH1 
REMARK       I    between atoms: CZ   and  NH2 
ROOT
ATOM      1  CA  ARG D 557     -26.217   2.705 -17.014  1.00 35.49     0.159 C 
ENDROOT
BRANCH   1   2
ATOM      2  CB  ARG D 557     -26.789   1.319 -17.183  1.00 35.49     0.034 C 
BRANCH   2   3
ATOM      3  CG  ARG D 557     -28.181   1.123 -16.760  1.00 35.49     0.027 C 
BRANCH   3   4
ATOM      4  CD  ARG D 557     -28.710  -0.202 -17.157  1.00 35.49     0.116 C 
BRANCH   4   5
ATOM      5  NE  ARG D 557     -27.968  -1.283 -16.562  1.00 35.49    -0.212 N 
ATOM      6  CZ  ARG D 557     -28.193  -2.564 -16.748  1.00 35.49     0.666 C 
ATOM      7  NH1 ARG D 557     -29.169  -3.007 -17.519  1.00 35.49    -0.235 N 
ATOM      8  NH2 ARG D 557     -27.407  -3.406 -16.144  1.00 35.49    -0.235 N 
ATOM      9  HH  ARG D 557     -29.698  -2.471 -17.928  1.00 35.49     0.174 HD
ATOM     10  HH  ARG D 557     -29.267  -3.854 -17.605  1.00 35.49     0.174 HD
ATOM     11  HH  ARG D 557     -26.780  -3.091 -15.659  1.00 35.49     0.174 HD
ATOM     12  HH  ARG D 557     -27.519  -4.241 -16.243  1.00 35.49     0.174 HD
ATOM     13  HE  ARG D 557     -27.366  -1.088 -15.993  1.00 35.49     0.178 HD
ENDBRANCH   4   5
ENDBRANCH   3   4
ENDBRANCH   2   3
ENDBRANCH   1   2
END_RES ARG D 557
BEGIN_RES GLU D 570
REMARK  3 active torsions:
REMARK  status: ('A' for Active; 'I' for Inactive)
REMARK    5  A    between atoms: CA   and  CB  
REMARK    6  A    between atoms: CB   and  CG  
REMARK    7  A    between atoms: CG   and  CD  
ROOT
ATOM     14  CA  GLU D 570     -18.033  -6.348 -13.375  1.00 32.92     0.160 C 
ENDROOT
BRANCH  14  15
ATOM     15  CB  GLU D 570     -19.500  -6.345 -13.794  1.00 32.92     0.043 C 
BRANCH  15  16
ATOM     16  CG  GLU D 570     -20.425  -5.458 -13.042  1.00 32.92     0.100 C 
BRANCH  16  17
ATOM     17  CD  GLU D 570     -21.724  -5.207 -13.772  1.00 32.92     0.185 C 
ATOM     18  OE1 GLU D 570     -22.183  -4.049 -13.808  1.00 32.92    -0.647 OA
ATOM     19  OE2 GLU D 570     -22.297  -6.181 -14.298  1.00 32.92    -0.647 OA
ENDBRANCH  16  17
ENDBRANCH  15  16
ENDBRANCH  14  15
END_RES GLU D 570
ENDMDL
