MODEL 1
REMARK VINA RESULT:      -7.2      0.000      0.000
REMARK  7 active torsions:
REMARK  status: ('A' for Active; 'I' for Inactive)
REMARK    1  A    between atoms: C_2  and  C_3 
REMARK    2  A    between atoms: C_3  and  C_4 
REMARK    3  A    between atoms: C_4  and  O_5 
REMARK    4  A    between atoms: O_5  and  C_6 
REMARK    5  A    between atoms: C_6  and  C_7 
REMARK    6  A    between atoms: C_9  and  O_14 
REMARK    7  A    between atoms: C_10  and  O_13 
ROOT
HETATM    1  C   UNL     1     -21.291  -4.378  -8.797  1.00  0.00    -0.032 A 
HETATM    2  C   UNL     1     -22.546  -3.933  -9.242  1.00  0.00     0.049 A 
HETATM    3  C   UNL     1     -22.775  -3.533 -10.569  1.00  0.00     0.101 A 
HETATM    4  C   UNL     1     -21.710  -3.611 -11.469  1.00  0.00     0.099 A 
HETATM    5  C   UNL     1     -20.460  -4.075 -11.042  1.00  0.00     0.040 A 
HETATM    6  C   UNL     1     -20.247  -4.458  -9.718  1.00  0.00     0.012 A 
ENDROOT
BRANCH   1   7
HETATM    7  C   UNL     1     -21.074  -4.818  -7.371  1.00  0.00     0.206 C 
BRANCH   7   8
HETATM    8  O   UNL     1     -20.713  -6.198  -7.342  1.00  0.00    -0.387 OA
BRANCH   8   9
HETATM    9  C   UNL     1     -20.259  -6.597  -6.055  1.00  0.00     0.168 C 
BRANCH   9  10
HETATM   10  C   UNL     1     -20.939  -5.717  -5.017  1.00  0.00     0.026 C 
BRANCH  10  11
HETATM   11  C   UNL     1     -21.875  -6.536  -4.137  1.00  0.00    -0.002 C 
HETATM   12  C   UNL     1     -21.670  -6.230  -2.666  1.00  0.00     0.005 C 
ENDBRANCH  10  11
ENDBRANCH   9  10
ENDBRANCH   8   9
ENDBRANCH   7   8
ENDBRANCH   1   7
BRANCH   3  13
HETATM   13  O   UNL     1     -24.067  -3.132 -10.751  1.00  0.00    -0.353 OA
HETATM   14  C   UNL     1     -25.026  -3.271  -9.725  1.00  0.00     0.210 C 
ENDBRANCH   3  13
BRANCH   4  15
HETATM   15  O   UNL     1     -21.740  -3.286 -12.794  1.00  0.00    -0.358 OA
HETATM   16  H   UNL     1     -22.647  -3.324 -13.114  1.00  0.00     0.217 HD
ENDBRANCH   4  15
TORSDOF 7
BEGIN_RES ARG D 557
REMARK  4 active torsions:
REMARK  status: ('A' for Active; 'I' for Inactive)
REMARK    1  A    between atoms: CA   and  CB  
REMARK    2  A    between atoms: CB   and  CG  
REMARK    3  A    between atoms: CG   and  CD  
REMARK    4  A    between atoms: CD   and  NE  
REMARK       I    between atoms: NE   and  CZ  
REMARK       I    between atoms: CZ   and  NH1 
REMARK       I    between atoms: CZ   and  NH2 
ROOT
ATOM      1  CA  ARG D 557     -26.217   2.705 -17.014  1.00 35.49     0.159 C 
ENDROOT
BRANCH   1   2
ATOM      2  CB  ARG D 557     -26.789   1.319 -17.183  1.00 35.49     0.034 C 
BRANCH   2   3
ATOM      3  CG  ARG D 557     -25.836   0.203 -17.154  1.00 35.49     0.027 C 
BRANCH   3   4
ATOM      4  CD  ARG D 557     -24.769   0.398 -16.146  1.00 35.49     0.116 C 
BRANCH   4   5
ATOM      5  NE  ARG D 557     -24.933  -0.467 -15.008  1.00 35.49    -0.212 N 
ATOM      6  CZ  ARG D 557     -24.118  -1.436 -14.655  1.00 35.49     0.666 C 
ATOM      7  NH1 ARG D 557     -23.031  -1.734 -15.343  1.00 35.49    -0.235 N 
ATOM      8  NH2 ARG D 557     -24.412  -2.107 -13.580  1.00 35.49    -0.235 N 
ATOM      9  HH  ARG D 557     -22.817  -1.304 -16.053  1.00 35.49     0.174 HD
ATOM     10  HH  ARG D 557     -22.535  -2.374 -15.064  1.00 35.49     0.174 HD
ATOM     11  HH  ARG D 557     -25.116  -1.887 -13.151  1.00 35.49     0.174 HD
ATOM     12  HH  ARG D 557     -23.908  -2.736 -13.318  1.00 35.49     0.174 HD
ATOM     13  HE  ARG D 557     -25.645  -0.393 -14.549  1.00 35.49     0.178 HD
ENDBRANCH   4   5
ENDBRANCH   3   4
ENDBRANCH   2   3
ENDBRANCH   1   2
END_RES ARG D 557
BEGIN_RES GLU D 570
REMARK  3 active torsions:
REMARK  status: ('A' for Active; 'I' for Inactive)
REMARK    5  A    between atoms: CA   and  CB  
REMARK    6  A    between atoms: CB   and  CG  
REMARK    7  A    between atoms: CG   and  CD  
ROOT
ATOM     14  CA  GLU D 570     -18.033  -6.348 -13.375  1.00 32.92     0.160 C 
ENDROOT
BRANCH  14  15
ATOM     15  CB  GLU D 570     -19.500  -6.345 -13.794  1.00 32.92     0.043 C 
BRANCH  15  16
ATOM     16  CG  GLU D 570     -19.810  -5.972 -15.198  1.00 32.92     0.100 C 
BRANCH  16  17
ATOM     17  CD  GLU D 570     -21.233  -5.499 -15.382  1.00 32.92     0.185 C 
ATOM     18  OE1 GLU D 570     -21.556  -4.953 -16.455  1.00 32.92    -0.647 OA
ATOM     19  OE2 GLU D 570     -22.030  -5.661 -14.437  1.00 32.92    -0.647 OA
ENDBRANCH  16  17
ENDBRANCH  15  16
ENDBRANCH  14  15
END_RES GLU D 570
ENDMDL
MODEL 2
REMARK VINA RESULT:      -6.9      8.477     11.123
REMARK  7 active torsions:
REMARK  status: ('A' for Active; 'I' for Inactive)
REMARK    1  A    between atoms: C_2  and  C_3 
REMARK    2  A    between atoms: C_3  and  C_4 
REMARK    3  A    between atoms: C_4  and  O_5 
REMARK    4  A    between atoms: O_5  and  C_6 
REMARK    5  A    between atoms: C_6  and  C_7 
REMARK    6  A    between atoms: C_9  and  O_14 
REMARK    7  A    between atoms: C_10  and  O_13 
ROOT
HETATM    1  C   UNL     1     -35.204  -2.652 -10.905  1.00  0.00    -0.032 A 
HETATM    2  C   UNL     1     -35.493  -4.025 -10.889  1.00  0.00     0.049 A 
HETATM    3  C   UNL     1     -34.528  -5.002 -11.184  1.00  0.00     0.101 A 
HETATM    4  C   UNL     1     -33.232  -4.572 -11.477  1.00  0.00     0.099 A 
HETATM    5  C   UNL     1     -32.925  -3.206 -11.474  1.00  0.00     0.040 A 
HETATM    6  C   UNL     1     -33.899  -2.250 -11.189  1.00  0.00     0.012 A 
ENDROOT
BRANCH   1   7
HETATM    7  C   UNL     1     -36.254  -1.623 -10.568  1.00  0.00     0.206 C 
BRANCH   7   8
HETATM    8  O   UNL     1     -35.837  -0.861  -9.437  1.00  0.00    -0.387 OA
BRANCH   8   9
HETATM    9  C   UNL     1     -36.894  -0.061  -8.922  1.00  0.00     0.168 C 
BRANCH   9  10
HETATM   10  C   UNL     1     -36.438   0.532  -7.597  1.00  0.00     0.026 C 
BRANCH  10  11
HETATM   11  C   UNL     1     -37.602   0.644  -6.620  1.00  0.00    -0.002 C 
HETATM   12  C   UNL     1     -37.120   0.780  -5.189  1.00  0.00     0.005 C 
ENDBRANCH  10  11
ENDBRANCH   9  10
ENDBRANCH   8   9
ENDBRANCH   7   8
ENDBRANCH   1   7
BRANCH   3  13
HETATM   13  O   UNL     1     -35.054  -6.259 -11.114  1.00  0.00    -0.353 OA
HETATM   14  C   UNL     1     -34.770  -7.111 -10.025  1.00  0.00     0.210 C 
ENDBRANCH   3  13
BRANCH   4  15
HETATM   15  O   UNL     1     -32.159  -5.364 -11.770  1.00  0.00    -0.358 OA
HETATM   16  H   UNL     1     -31.824  -5.141 -12.645  1.00  0.00     0.217 HD
ENDBRANCH   4  15
TORSDOF 7
BEGIN_RES ARG D 557
REMARK  4 active torsions:
REMARK  status: ('A' for Active; 'I' for Inactive)
REMARK    1  A    between atoms: CA   and  CB  
REMARK    2  A    between atoms: CB   and  CG  
REMARK    3  A    between atoms: CG   and  CD  
REMARK    4  A    between atoms: CD   and  NE  
REMARK       I    between atoms: NE   and  CZ  
REMARK       I    between atoms: CZ   and  NH1 
REMARK       I    between atoms: CZ   and  NH2 
ROOT
ATOM      1  CA  ARG D 557     -26.217   2.705 -17.014  1.00 35.49     0.159 C 
ENDROOT
BRANCH   1   2
ATOM      2  CB  ARG D 557     -26.789   1.319 -17.183  1.00 35.49     0.034 C 
BRANCH   2   3
ATOM      3  CG  ARG D 557     -25.836   0.203 -17.156  1.00 35.49     0.027 C 
BRANCH   3   4
ATOM      4  CD  ARG D 557     -24.748   0.414 -16.174  1.00 35.49     0.116 C 
BRANCH   4   5
ATOM      5  NE  ARG D 557     -24.891  -0.430 -15.017  1.00 35.49    -0.212 N 
ATOM      6  CZ  ARG D 557     -24.078  -1.403 -14.670  1.00 35.49     0.666 C 
ATOM      7  NH1 ARG D 557     -23.015  -1.726 -15.383  1.00 35.49    -0.235 N 
ATOM      8  NH2 ARG D 557     -24.350  -2.052 -13.576  1.00 35.49    -0.235 N 
ATOM      9  HH  ARG D 557     -22.815  -1.311 -16.106  1.00 35.49     0.174 HD
ATOM     10  HH  ARG D 557     -22.519  -2.368 -15.107  1.00 35.49     0.174 HD
ATOM     11  HH  ARG D 557     -25.039  -1.817 -13.132  1.00 35.49     0.174 HD
ATOM     12  HH  ARG D 557     -23.846  -2.684 -13.318  1.00 35.49     0.174 HD
ATOM     13  HE  ARG D 557     -25.589  -0.339 -14.540  1.00 35.49     0.178 HD
ENDBRANCH   4   5
ENDBRANCH   3   4
ENDBRANCH   2   3
ENDBRANCH   1   2
END_RES ARG D 557
BEGIN_RES GLU D 570
REMARK  3 active torsions:
REMARK  status: ('A' for Active; 'I' for Inactive)
REMARK    5  A    between atoms: CA   and  CB  
REMARK    6  A    between atoms: CB   and  CG  
REMARK    7  A    between atoms: CG   and  CD  
ROOT
ATOM     14  CA  GLU D 570     -18.033  -6.348 -13.375  1.00 32.92     0.160 C 
ENDROOT
BRANCH  14  15
ATOM     15  CB  GLU D 570     -19.500  -6.345 -13.794  1.00 32.92     0.043 C 
BRANCH  15  16
ATOM     16  CG  GLU D 570     -20.439  -5.517 -12.994  1.00 32.92     0.100 C 
BRANCH  16  17
ATOM     17  CD  GLU D 570     -21.747  -5.258 -13.703  1.00 32.92     0.185 C 
ATOM     18  OE1 GLU D 570     -22.218  -6.140 -14.446  1.00 32.92    -0.647 OA
ATOM     19  OE2 GLU D 570     -22.299  -4.153 -13.527  1.00 32.92    -0.647 OA
ENDBRANCH  16  17
ENDBRANCH  15  16
ENDBRANCH  14  15
END_RES GLU D 570
ENDMDL
MODEL 3
REMARK VINA RESULT:      -6.8      7.954     11.318
REMARK  7 active torsions:
REMARK  status: ('A' for Active; 'I' for Inactive)
REMARK    1  A    between atoms: C_2  and  C_3 
REMARK    2  A    between atoms: C_3  and  C_4 
REMARK    3  A    between atoms: C_4  and  O_5 
REMARK    4  A    between atoms: O_5  and  C_6 
REMARK    5  A    between atoms: C_6  and  C_7 
REMARK    6  A    between atoms: C_9  and  O_14 
REMARK    7  A    between atoms: C_10  and  O_13 
ROOT
HETATM    1  C   UNL     1     -35.116  -3.014 -10.872  1.00  0.00    -0.032 A 
HETATM    2  C   UNL     1     -35.318  -4.403 -10.896  1.00  0.00     0.049 A 
HETATM    3  C   UNL     1     -34.304  -5.305 -11.258  1.00  0.00     0.101 A 
HETATM    4  C   UNL     1     -33.048  -4.784 -11.578  1.00  0.00     0.099 A 
HETATM    5  C   UNL     1     -32.828  -3.401 -11.535  1.00  0.00     0.040 A 
HETATM    6  C   UNL     1     -33.850  -2.520 -11.184  1.00  0.00     0.012 A 
ENDROOT
BRANCH   1   7
HETATM    7  C   UNL     1     -36.216  -2.067 -10.464  1.00  0.00     0.206 C 
BRANCH   7   8
HETATM    8  O   UNL     1     -35.733  -0.725 -10.496  1.00  0.00    -0.387 OA
BRANCH   8   9
HETATM    9  C   UNL     1     -36.609   0.134 -11.215  1.00  0.00     0.168 C 
BRANCH   9  10
HETATM   10  C   UNL     1     -36.323  -0.030 -12.699  1.00  0.00     0.026 C 
BRANCH  10  11
HETATM   11  C   UNL     1     -34.938   0.505 -13.050  1.00  0.00    -0.002 C 
HETATM   12  C   UNL     1     -34.857   0.937 -14.500  1.00  0.00     0.005 C 
ENDBRANCH  10  11
ENDBRANCH   9  10
ENDBRANCH   8   9
ENDBRANCH   7   8
ENDBRANCH   1   7
BRANCH   3  13
HETATM   13  O   UNL     1     -34.748  -6.595 -11.217  1.00  0.00    -0.353 OA
HETATM   14  C   UNL     1     -34.766  -7.322 -10.007  1.00  0.00     0.210 C 
ENDBRANCH   3  13
BRANCH   4  15
HETATM   15  O   UNL     1     -31.940  -5.495 -11.935  1.00  0.00    -0.358 OA
HETATM   16  H   UNL     1     -31.380  -5.627 -11.162  1.00  0.00     0.217 HD
ENDBRANCH   4  15
TORSDOF 7
BEGIN_RES ARG D 557
REMARK  4 active torsions:
REMARK  status: ('A' for Active; 'I' for Inactive)
REMARK    1  A    between atoms: CA   and  CB  
REMARK    2  A    between atoms: CB   and  CG  
REMARK    3  A    between atoms: CG   and  CD  
REMARK    4  A    between atoms: CD   and  NE  
REMARK       I    between atoms: NE   and  CZ  
REMARK       I    between atoms: CZ   and  NH1 
REMARK       I    between atoms: CZ   and  NH2 
ROOT
ATOM      1  CA  ARG D 557     -26.217   2.705 -17.014  1.00 35.49     0.159 C 
ENDROOT
BRANCH   1   2
ATOM      2  CB  ARG D 557     -26.789   1.319 -17.183  1.00 35.49     0.034 C 
BRANCH   2   3
ATOM      3  CG  ARG D 557     -25.865   0.195 -16.989  1.00 35.49     0.027 C 
BRANCH   3   4
ATOM      4  CD  ARG D 557     -26.281  -0.691 -15.877  1.00 35.49     0.116 C 
BRANCH   4   5
ATOM      5  NE  ARG D 557     -25.220  -0.904 -14.928  1.00 35.49    -0.212 N 
ATOM      6  CZ  ARG D 557     -24.916  -2.050 -14.360  1.00 35.49     0.666 C 
ATOM      7  NH1 ARG D 557     -25.588  -3.161 -14.600  1.00 35.49    -0.235 N 
ATOM      8  NH2 ARG D 557     -23.907  -2.064 -13.538  1.00 35.49    -0.235 N 
ATOM      9  HH  ARG D 557     -26.254  -3.175 -15.139  1.00 35.49     0.174 HD
ATOM     10  HH  ARG D 557     -25.343  -3.879 -14.202  1.00 35.49     0.174 HD
ATOM     11  HH  ARG D 557     -23.487  -1.333 -13.408  1.00 35.49     0.174 HD
ATOM     12  HH  ARG D 557     -23.679  -2.785 -13.155  1.00 35.49     0.174 HD
ATOM     13  HE  ARG D 557     -24.781  -0.227 -14.660  1.00 35.49     0.178 HD
ENDBRANCH   4   5
ENDBRANCH   3   4
ENDBRANCH   2   3
ENDBRANCH   1   2
END_RES ARG D 557
BEGIN_RES GLU D 570
REMARK  3 active torsions:
REMARK  status: ('A' for Active; 'I' for Inactive)
REMARK    5  A    between atoms: CA   and  CB  
REMARK    6  A    between atoms: CB   and  CG  
REMARK    7  A    between atoms: CG   and  CD  
ROOT
ATOM     14  CA  GLU D 570     -18.033  -6.348 -13.375  1.00 32.92     0.160 C 
ENDROOT
BRANCH  14  15
ATOM     15  CB  GLU D 570     -19.500  -6.345 -13.794  1.00 32.92     0.043 C 
BRANCH  15  16
ATOM     16  CG  GLU D 570     -20.447  -5.556 -12.965  1.00 32.92     0.100 C 
BRANCH  16  17
ATOM     17  CD  GLU D 570     -21.689  -5.142 -13.720  1.00 32.92     0.185 C 
ATOM     18  OE1 GLU D 570     -22.720  -4.859 -13.081  1.00 32.92    -0.647 OA
ATOM     19  OE2 GLU D 570     -21.634  -5.117 -14.965  1.00 32.92    -0.647 OA
ENDBRANCH  16  17
ENDBRANCH  15  16
ENDBRANCH  14  15
END_RES GLU D 570
ENDMDL
MODEL 4
REMARK VINA RESULT:      -6.7      2.694      3.880
REMARK  7 active torsions:
REMARK  status: ('A' for Active; 'I' for Inactive)
REMARK    1  A    between atoms: C_2  and  C_3 
REMARK    2  A    between atoms: C_3  and  C_4 
REMARK    3  A    between atoms: C_4  and  O_5 
REMARK    4  A    between atoms: O_5  and  C_6 
REMARK    5  A    between atoms: C_6  and  C_7 
REMARK    6  A    between atoms: C_9  and  O_14 
REMARK    7  A    between atoms: C_10  and  O_13 
ROOT
HETATM    1  C   UNL     1     -23.887  -3.747 -11.408  1.00  0.00    -0.032 A 
HETATM    2  C   UNL     1     -24.634  -3.061 -12.379  1.00  0.00     0.049 A 
HETATM    3  C   UNL     1     -24.156  -2.842 -13.682  1.00  0.00     0.101 A 
HETATM    4  C   UNL     1     -22.900  -3.355 -14.011  1.00  0.00     0.099 A 
HETATM    5  C   UNL     1     -22.154  -4.061 -13.059  1.00  0.00     0.040 A 
HETATM    6  C   UNL     1     -22.640  -4.258 -11.767  1.00  0.00     0.012 A 
ENDROOT
BRANCH   1   7
HETATM    7  C   UNL     1     -24.428  -3.983 -10.021  1.00  0.00     0.206 C 
BRANCH   7   8
HETATM    8  O   UNL     1     -23.590  -3.343  -9.060  1.00  0.00    -0.387 OA
BRANCH   8   9
HETATM    9  C   UNL     1     -23.018  -4.278  -8.154  1.00  0.00     0.168 C 
BRANCH   9  10
HETATM   10  C   UNL     1     -21.708  -3.700  -7.641  1.00  0.00     0.026 C 
BRANCH  10  11
HETATM   11  C   UNL     1     -20.530  -4.197  -8.472  1.00  0.00    -0.002 C 
HETATM   12  C   UNL     1     -19.339  -4.547  -7.602  1.00  0.00     0.005 C 
ENDBRANCH  10  11
ENDBRANCH   9  10
ENDBRANCH   8   9
ENDBRANCH   7   8
ENDBRANCH   1   7
BRANCH   3  13
HETATM   13  O   UNL     1     -25.058  -2.144 -14.431  1.00  0.00    -0.353 OA
HETATM   14  C   UNL     1     -24.722  -0.898 -15.002  1.00  0.00     0.210 C 
ENDBRANCH   3  13
BRANCH   4  15
HETATM   15  O   UNL     1     -22.276  -3.262 -15.222  1.00  0.00    -0.358 OA
HETATM   16  H   UNL     1     -21.406  -3.669 -15.168  1.00  0.00     0.217 HD
ENDBRANCH   4  15
TORSDOF 7
BEGIN_RES ARG D 557
REMARK  4 active torsions:
REMARK  status: ('A' for Active; 'I' for Inactive)
REMARK    1  A    between atoms: CA   and  CB  
REMARK    2  A    between atoms: CB   and  CG  
REMARK    3  A    between atoms: CG   and  CD  
REMARK    4  A    between atoms: CD   and  NE  
REMARK       I    between atoms: NE   and  CZ  
REMARK       I    between atoms: CZ   and  NH1 
REMARK       I    between atoms: CZ   and  NH2 
ROOT
ATOM      1  CA  ARG D 557     -26.217   2.705 -17.014  1.00 35.49     0.159 C 
ENDROOT
BRANCH   1   2
ATOM      2  CB  ARG D 557     -26.789   1.319 -17.183  1.00 35.49     0.034 C 
BRANCH   2   3
ATOM      3  CG  ARG D 557     -28.220   1.229 -17.499  1.00 35.49     0.027 C 
BRANCH   3   4
ATOM      4  CD  ARG D 557     -28.931   0.270 -16.623  1.00 35.49     0.116 C 
BRANCH   4   5
ATOM      5  NE  ARG D 557     -28.113  -0.864 -16.283  1.00 35.49    -0.212 N 
ATOM      6  CZ  ARG D 557     -28.303  -2.098 -16.693  1.00 35.49     0.666 C 
ATOM      7  NH1 ARG D 557     -29.310  -2.439 -17.476  1.00 35.49    -0.235 N 
ATOM      8  NH2 ARG D 557     -27.448  -2.999 -16.302  1.00 35.49    -0.235 N 
ATOM      9  HH  ARG D 557     -29.883  -1.862 -17.747  1.00 35.49     0.174 HD
ATOM     10  HH  ARG D 557     -29.381  -3.259 -17.714  1.00 35.49     0.174 HD
ATOM     11  HH  ARG D 557     -26.804  -2.749 -15.802  1.00 35.49     0.174 HD
ATOM     12  HH  ARG D 557     -27.535  -3.805 -16.549  1.00 35.49     0.174 HD
ATOM     13  HE  ARG D 557     -27.484  -0.749 -15.723  1.00 35.49     0.178 HD
ENDBRANCH   4   5
ENDBRANCH   3   4
ENDBRANCH   2   3
ENDBRANCH   1   2
END_RES ARG D 557
BEGIN_RES GLU D 570
REMARK  3 active torsions:
REMARK  status: ('A' for Active; 'I' for Inactive)
REMARK    5  A    between atoms: CA   and  CB  
REMARK    6  A    between atoms: CB   and  CG  
REMARK    7  A    between atoms: CG   and  CD  
ROOT
ATOM     14  CA  GLU D 570     -18.033  -6.348 -13.375  1.00 32.92     0.160 C 
ENDROOT
BRANCH  14  15
ATOM     15  CB  GLU D 570     -19.500  -6.345 -13.794  1.00 32.92     0.043 C 
BRANCH  15  16
ATOM     16  CG  GLU D 570     -19.814  -5.928 -15.185  1.00 32.92     0.100 C 
BRANCH  16  17
ATOM     17  CD  GLU D 570     -21.059  -6.588 -15.731  1.00 32.92     0.185 C 
ATOM     18  OE1 GLU D 570     -21.905  -5.888 -16.321  1.00 32.92    -0.647 OA
ATOM     19  OE2 GLU D 570     -21.197  -7.814 -15.553  1.00 32.92    -0.647 OA
ENDBRANCH  16  17
ENDBRANCH  15  16
ENDBRANCH  14  15
END_RES GLU D 570
ENDMDL
MODEL 5
REMARK VINA RESULT:      -6.7      2.295      3.173
REMARK  7 active torsions:
REMARK  status: ('A' for Active; 'I' for Inactive)
REMARK    1  A    between atoms: C_2  and  C_3 
REMARK    2  A    between atoms: C_3  and  C_4 
REMARK    3  A    between atoms: C_4  and  O_5 
REMARK    4  A    between atoms: O_5  and  C_6 
REMARK    5  A    between atoms: C_6  and  C_7 
REMARK    6  A    between atoms: C_9  and  O_14 
REMARK    7  A    between atoms: C_10  and  O_13 
ROOT
HETATM    1  C   UNL     1     -21.734  -4.062  -9.533  1.00  0.00    -0.032 A 
HETATM    2  C   UNL     1     -22.205  -3.436 -10.698  1.00  0.00     0.049 A 
HETATM    3  C   UNL     1     -23.562  -3.134 -10.894  1.00  0.00     0.101 A 
HETATM    4  C   UNL     1     -24.457  -3.453  -9.871  1.00  0.00     0.099 A 
HETATM    5  C   UNL     1     -23.997  -4.056  -8.694  1.00  0.00     0.040 A 
HETATM    6  C   UNL     1     -22.647  -4.360  -8.522  1.00  0.00     0.012 A 
ENDROOT
BRANCH   1   7
HETATM    7  C   UNL     1     -20.269  -4.362  -9.339  1.00  0.00     0.206 C 
BRANCH   7   8
HETATM    8  O   UNL     1     -19.809  -3.758  -8.132  1.00  0.00    -0.387 OA
BRANCH   8   9
HETATM    9  C   UNL     1     -19.179  -4.703  -7.276  1.00  0.00     0.168 C 
BRANCH   9  10
HETATM   10  C   UNL     1     -19.971  -4.770  -5.979  1.00  0.00     0.026 C 
BRANCH  10  11
HETATM   11  C   UNL     1     -20.489  -6.182  -5.728  1.00  0.00    -0.002 C 
HETATM   12  C   UNL     1     -21.955  -6.180  -5.342  1.00  0.00     0.005 C 
ENDBRANCH  10  11
ENDBRANCH   9  10
ENDBRANCH   8   9
ENDBRANCH   7   8
ENDBRANCH   1   7
BRANCH   3  13
HETATM   13  O   UNL     1     -23.770  -2.541 -12.106  1.00  0.00    -0.353 OA
HETATM   14  C   UNL     1     -24.750  -3.027 -12.998  1.00  0.00     0.210 C 
ENDBRANCH   3  13
BRANCH   4  15
HETATM   15  O   UNL     1     -25.803  -3.223  -9.867  1.00  0.00    -0.358 OA
HETATM   16  H   UNL     1     -26.006  -2.510  -9.253  1.00  0.00     0.217 HD
ENDBRANCH   4  15
TORSDOF 7
BEGIN_RES ARG D 557
REMARK  4 active torsions:
REMARK  status: ('A' for Active; 'I' for Inactive)
REMARK    1  A    between atoms: CA   and  CB  
REMARK    2  A    between atoms: CB   and  CG  
REMARK    3  A    between atoms: CG   and  CD  
REMARK    4  A    between atoms: CD   and  NE  
REMARK       I    between atoms: NE   and  CZ  
REMARK       I    between atoms: CZ   and  NH1 
REMARK       I    between atoms: CZ   and  NH2 
ROOT
ATOM      1  CA  ARG D 557     -26.217   2.705 -17.014  1.00 35.49     0.159 C 
ENDROOT
BRANCH   1   2
ATOM      2  CB  ARG D 557     -26.789   1.319 -17.183  1.00 35.49     0.034 C 
BRANCH   2   3
ATOM      3  CG  ARG D 557     -28.186   1.127 -16.776  1.00 35.49     0.027 C 
BRANCH   3   4
ATOM      4  CD  ARG D 557     -28.711  -0.201 -17.169  1.00 35.49     0.116 C 
BRANCH   4   5
ATOM      5  NE  ARG D 557     -27.966  -1.277 -16.571  1.00 35.49    -0.212 N 
ATOM      6  CZ  ARG D 557     -28.194  -2.560 -16.746  1.00 35.49     0.666 C 
ATOM      7  NH1 ARG D 557     -29.176  -3.008 -17.505  1.00 35.49    -0.235 N 
ATOM      8  NH2 ARG D 557     -27.403  -3.398 -16.141  1.00 35.49    -0.235 N 
ATOM      9  HH  ARG D 557     -29.707  -2.474 -17.914  1.00 35.49     0.174 HD
ATOM     10  HH  ARG D 557     -29.275  -3.856 -17.584  1.00 35.49     0.174 HD
ATOM     11  HH  ARG D 557     -26.773  -3.080 -15.663  1.00 35.49     0.174 HD
ATOM     12  HH  ARG D 557     -27.517  -4.233 -16.233  1.00 35.49     0.174 HD
ATOM     13  HE  ARG D 557     -27.359  -1.079 -16.008  1.00 35.49     0.178 HD
ENDBRANCH   4   5
ENDBRANCH   3   4
ENDBRANCH   2   3
ENDBRANCH   1   2
END_RES ARG D 557
BEGIN_RES GLU D 570
REMARK  3 active torsions:
REMARK  status: ('A' for Active; 'I' for Inactive)
REMARK    5  A    between atoms: CA   and  CB  
REMARK    6  A    between atoms: CB   and  CG  
REMARK    7  A    between atoms: CG   and  CD  
ROOT
ATOM     14  CA  GLU D 570     -18.033  -6.348 -13.375  1.00 32.92     0.160 C 
ENDROOT
BRANCH  14  15
ATOM     15  CB  GLU D 570     -19.500  -6.345 -13.794  1.00 32.92     0.043 C 
BRANCH  15  16
ATOM     16  CG  GLU D 570     -20.425  -5.459 -13.041  1.00 32.92     0.100 C 
BRANCH  16  17
ATOM     17  CD  GLU D 570     -21.732  -5.224 -13.761  1.00 32.92     0.185 C 
ATOM     18  OE1 GLU D 570     -22.775  -5.732 -13.305  1.00 32.92    -0.647 OA
ATOM     19  OE2 GLU D 570     -21.711  -4.538 -14.803  1.00 32.92    -0.647 OA
ENDBRANCH  16  17
ENDBRANCH  15  16
ENDBRANCH  14  15
END_RES GLU D 570
ENDMDL
MODEL 6
REMARK VINA RESULT:      -6.7      1.968      2.332
REMARK  7 active torsions:
REMARK  status: ('A' for Active; 'I' for Inactive)
REMARK    1  A    between atoms: C_2  and  C_3 
REMARK    2  A    between atoms: C_3  and  C_4 
REMARK    3  A    between atoms: C_4  and  O_5 
REMARK    4  A    between atoms: O_5  and  C_6 
REMARK    5  A    between atoms: C_6  and  C_7 
REMARK    6  A    between atoms: C_9  and  O_14 
REMARK    7  A    between atoms: C_10  and  O_13 
ROOT
HETATM    1  C   UNL     1     -21.340  -4.321  -8.839  1.00  0.00    -0.032 A 
HETATM    2  C   UNL     1     -22.600  -3.868  -9.261  1.00  0.00     0.049 A 
HETATM    3  C   UNL     1     -22.853  -3.471 -10.584  1.00  0.00     0.101 A 
HETATM    4  C   UNL     1     -21.807  -3.562 -11.505  1.00  0.00     0.099 A 
HETATM    5  C   UNL     1     -20.552  -4.034 -11.102  1.00  0.00     0.040 A 
HETATM    6  C   UNL     1     -20.316  -4.413  -9.781  1.00  0.00     0.012 A 
ENDROOT
BRANCH   1   7
HETATM    7  C   UNL     1     -21.097  -4.757  -7.416  1.00  0.00     0.206 C 
BRANCH   7   8
HETATM    8  O   UNL     1     -20.780  -6.147  -7.385  1.00  0.00    -0.387 OA
BRANCH   8   9
HETATM    9  C   UNL     1     -20.230  -6.535  -6.132  1.00  0.00     0.168 C 
BRANCH   9  10
HETATM   10  C   UNL     1     -20.868  -5.680  -5.048  1.00  0.00     0.026 C 
BRANCH  10  11
HETATM   11  C   UNL     1     -21.785  -6.518  -4.163  1.00  0.00    -0.002 C 
HETATM   12  C   UNL     1     -21.600  -6.185  -2.695  1.00  0.00     0.005 C 
ENDBRANCH  10  11
ENDBRANCH   9  10
ENDBRANCH   8   9
ENDBRANCH   7   8
ENDBRANCH   1   7
BRANCH   3  13
HETATM   13  O   UNL     1     -24.145  -3.061 -10.742  1.00  0.00    -0.353 OA
HETATM   14  C   UNL     1     -25.085  -3.189  -9.696  1.00  0.00     0.210 C 
ENDBRANCH   3  13
BRANCH   4  15
HETATM   15  O   UNL     1     -21.861  -3.242 -12.831  1.00  0.00    -0.358 OA
HETATM   16  H   UNL     1     -20.971  -3.080 -13.160  1.00  0.00     0.217 HD
ENDBRANCH   4  15
TORSDOF 7
BEGIN_RES ARG D 557
REMARK  4 active torsions:
REMARK  status: ('A' for Active; 'I' for Inactive)
REMARK    1  A    between atoms: CA   and  CB  
REMARK    2  A    between atoms: CB   and  CG  
REMARK    3  A    between atoms: CG   and  CD  
REMARK    4  A    between atoms: CD   and  NE  
REMARK       I    between atoms: NE   and  CZ  
REMARK       I    between atoms: CZ   and  NH1 
REMARK       I    between atoms: CZ   and  NH2 
ROOT
ATOM      1  CA  ARG D 557     -26.217   2.705 -17.014  1.00 35.49     0.159 C 
ENDROOT
BRANCH   1   2
ATOM      2  CB  ARG D 557     -26.789   1.319 -17.183  1.00 35.49     0.034 C 
BRANCH   2   3
ATOM      3  CG  ARG D 557     -28.230   1.227 -17.448  1.00 35.49     0.027 C 
BRANCH   3   4
ATOM      4  CD  ARG D 557     -28.917   0.306 -16.514  1.00 35.49     0.116 C 
BRANCH   4   5
ATOM      5  NE  ARG D 557     -29.283  -0.934 -17.146  1.00 35.49    -0.212 N 
ATOM      6  CZ  ARG D 557     -28.641  -2.075 -17.027  1.00 35.49     0.666 C 
ATOM      7  NH1 ARG D 557     -27.547  -2.201 -16.300  1.00 35.49    -0.235 N 
ATOM      8  NH2 ARG D 557     -29.128  -3.106 -17.655  1.00 35.49    -0.235 N 
ATOM      9  HH  ARG D 557     -27.210  -1.537 -15.876  1.00 35.49     0.174 HD
ATOM     10  HH  ARG D 557     -27.172  -2.971 -16.258  1.00 35.49     0.174 HD
ATOM     11  HH  ARG D 557     -29.840  -2.997 -18.111  1.00 35.49     0.174 HD
ATOM     12  HH  ARG D 557     -28.744  -3.860 -17.600  1.00 35.49     0.174 HD
ATOM     13  HE  ARG D 557     -29.935  -0.928 -17.691  1.00 35.49     0.178 HD
ENDBRANCH   4   5
ENDBRANCH   3   4
ENDBRANCH   2   3
ENDBRANCH   1   2
END_RES ARG D 557
BEGIN_RES GLU D 570
REMARK  3 active torsions:
REMARK  status: ('A' for Active; 'I' for Inactive)
REMARK    5  A    between atoms: CA   and  CB  
REMARK    6  A    between atoms: CB   and  CG  
REMARK    7  A    between atoms: CG   and  CD  
ROOT
ATOM     14  CA  GLU D 570     -18.033  -6.348 -13.375  1.00 32.92     0.160 C 
ENDROOT
BRANCH  14  15
ATOM     15  CB  GLU D 570     -19.500  -6.345 -13.794  1.00 32.92     0.043 C 
BRANCH  15  16
ATOM     16  CG  GLU D 570     -19.806  -6.027 -15.213  1.00 32.92     0.100 C 
BRANCH  16  17
ATOM     17  CD  GLU D 570     -21.230  -5.565 -15.419  1.00 32.92     0.185 C 
ATOM     18  OE1 GLU D 570     -21.554  -5.074 -16.518  1.00 32.92    -0.647 OA
ATOM     19  OE2 GLU D 570     -22.026  -5.681 -14.466  1.00 32.92    -0.647 OA
ENDBRANCH  16  17
ENDBRANCH  15  16
ENDBRANCH  14  15
END_RES GLU D 570
ENDMDL
MODEL 7
REMARK VINA RESULT:      -6.6      3.139      5.880
REMARK  7 active torsions:
REMARK  status: ('A' for Active; 'I' for Inactive)
REMARK    1  A    between atoms: C_2  and  C_3 
REMARK    2  A    between atoms: C_3  and  C_4 
REMARK    3  A    between atoms: C_4  and  O_5 
REMARK    4  A    between atoms: O_5  and  C_6 
REMARK    5  A    between atoms: C_6  and  C_7 
REMARK    6  A    between atoms: C_9  and  O_14 
REMARK    7  A    between atoms: C_10  and  O_13 
ROOT
HETATM    1  C   UNL     1     -23.072  -3.193 -12.232  1.00  0.00    -0.032 A 
HETATM    2  C   UNL     1     -22.063  -3.544 -11.321  1.00  0.00     0.049 A 
HETATM    3  C   UNL     1     -22.326  -3.781  -9.961  1.00  0.00     0.101 A 
HETATM    4  C   UNL     1     -23.649  -3.682  -9.524  1.00  0.00     0.099 A 
HETATM    5  C   UNL     1     -24.667  -3.356 -10.429  1.00  0.00     0.040 A 
HETATM    6  C   UNL     1     -24.386  -3.114 -11.773  1.00  0.00     0.012 A 
ENDROOT
BRANCH   1   7
HETATM    7  C   UNL     1     -22.767  -2.961 -13.690  1.00  0.00     0.206 C 
BRANCH   7   8
HETATM    8  O   UNL     1     -23.594  -3.798 -14.496  1.00  0.00    -0.387 OA
BRANCH   8   9
HETATM    9  C   UNL     1     -22.940  -5.013 -14.839  1.00  0.00     0.168 C 
BRANCH   9  10
HETATM   10  C   UNL     1     -23.756  -6.167 -14.277  1.00  0.00     0.026 C 
BRANCH  10  11
HETATM   11  C   UNL     1     -24.734  -6.701 -15.317  1.00  0.00    -0.002 C 
HETATM   12  C   UNL     1     -24.014  -7.232 -16.541  1.00  0.00     0.005 C 
ENDBRANCH  10  11
ENDBRANCH   9  10
ENDBRANCH   8   9
ENDBRANCH   7   8
ENDBRANCH   1   7
BRANCH   3  13
HETATM   13  O   UNL     1     -21.185  -4.092  -9.281  1.00  0.00    -0.353 OA
HETATM   14  C   UNL     1     -20.034  -4.550  -9.958  1.00  0.00     0.210 C 
ENDBRANCH   3  13
BRANCH   4  15
HETATM   15  O   UNL     1     -24.103  -3.891  -8.255  1.00  0.00    -0.358 OA
HETATM   16  H   UNL     1     -24.609  -3.126  -7.964  1.00  0.00     0.217 HD
ENDBRANCH   4  15
TORSDOF 7
BEGIN_RES ARG D 557
REMARK  4 active torsions:
REMARK  status: ('A' for Active; 'I' for Inactive)
REMARK    1  A    between atoms: CA   and  CB  
REMARK    2  A    between atoms: CB   and  CG  
REMARK    3  A    between atoms: CG   and  CD  
REMARK    4  A    between atoms: CD   and  NE  
REMARK       I    between atoms: NE   and  CZ  
REMARK       I    between atoms: CZ   and  NH1 
REMARK       I    between atoms: CZ   and  NH2 
ROOT
ATOM      1  CA  ARG D 557     -26.217   2.705 -17.014  1.00 35.49     0.159 C 
ENDROOT
BRANCH   1   2
ATOM      2  CB  ARG D 557     -26.789   1.319 -17.183  1.00 35.49     0.034 C 
BRANCH   2   3
ATOM      3  CG  ARG D 557     -28.215   1.151 -16.880  1.00 35.49     0.027 C 
BRANCH   3   4
ATOM      4  CD  ARG D 557     -28.569  -0.257 -16.588  1.00 35.49     0.116 C 
BRANCH   4   5
ATOM      5  NE  ARG D 557     -27.514  -0.948 -15.895  1.00 35.49    -0.212 N 
ATOM      6  CZ  ARG D 557     -27.263  -2.236 -15.968  1.00 35.49     0.666 C 
ATOM      7  NH1 ARG D 557     -27.990  -3.060 -16.699  1.00 35.49    -0.235 N 
ATOM      8  NH2 ARG D 557     -26.250  -2.690 -15.287  1.00 35.49    -0.235 N 
ATOM      9  HH  ARG D 557     -28.659  -2.783 -17.157  1.00 35.49     0.174 HD
ATOM     10  HH  ARG D 557     -27.777  -3.890 -16.710  1.00 35.49     0.174 HD
ATOM     11  HH  ARG D 557     -25.794  -2.133 -14.829  1.00 35.49     0.174 HD
ATOM     12  HH  ARG D 557     -26.055  -3.514 -15.312  1.00 35.49     0.174 HD
ATOM     13  HE  ARG D 557     -27.041  -0.506 -15.344  1.00 35.49     0.178 HD
ENDBRANCH   4   5
ENDBRANCH   3   4
ENDBRANCH   2   3
ENDBRANCH   1   2
END_RES ARG D 557
BEGIN_RES GLU D 570
REMARK  3 active torsions:
REMARK  status: ('A' for Active; 'I' for Inactive)
REMARK    5  A    between atoms: CA   and  CB  
REMARK    6  A    between atoms: CB   and  CG  
REMARK    7  A    between atoms: CG   and  CD  
ROOT
ATOM     14  CA  GLU D 570     -18.033  -6.348 -13.375  1.00 32.92     0.160 C 
ENDROOT
BRANCH  14  15
ATOM     15  CB  GLU D 570     -19.500  -6.345 -13.794  1.00 32.92     0.043 C 
BRANCH  15  16
ATOM     16  CG  GLU D 570     -20.100  -7.644 -14.196  1.00 32.92     0.100 C 
BRANCH  16  17
ATOM     17  CD  GLU D 570     -20.469  -7.694 -15.660  1.00 32.92     0.185 C 
ATOM     18  OE1 GLU D 570     -20.491  -6.635 -16.316  1.00 32.92    -0.647 OA
ATOM     19  OE2 GLU D 570     -20.755  -8.803 -16.153  1.00 32.92    -0.647 OA
ENDBRANCH  16  17
ENDBRANCH  15  16
ENDBRANCH  14  15
END_RES GLU D 570
ENDMDL
MODEL 8
REMARK VINA RESULT:      -6.4      2.739      4.328
REMARK  7 active torsions:
REMARK  status: ('A' for Active; 'I' for Inactive)
REMARK    1  A    between atoms: C_2  and  C_3 
REMARK    2  A    between atoms: C_3  and  C_4 
REMARK    3  A    between atoms: C_4  and  O_5 
REMARK    4  A    between atoms: O_5  and  C_6 
REMARK    5  A    between atoms: C_6  and  C_7 
REMARK    6  A    between atoms: C_9  and  O_14 
REMARK    7  A    between atoms: C_10  and  O_13 
ROOT
HETATM    1  C   UNL     1     -22.632  -3.770 -12.668  1.00  0.00    -0.032 A 
HETATM    2  C   UNL     1     -23.460  -2.733 -13.126  1.00  0.00     0.049 A 
HETATM    3  C   UNL     1     -24.478  -2.943 -14.071  1.00  0.00     0.101 A 
HETATM    4  C   UNL     1     -24.674  -4.243 -14.541  1.00  0.00     0.099 A 
HETATM    5  C   UNL     1     -23.871  -5.291 -14.074  1.00  0.00     0.040 A 
HETATM    6  C   UNL     1     -22.858  -5.061 -13.144  1.00  0.00     0.012 A 
ENDROOT
BRANCH   1   7
HETATM    7  C   UNL     1     -21.557  -3.522 -11.640  1.00  0.00     0.206 C 
BRANCH   7   8
HETATM    8  O   UNL     1     -22.149  -3.350 -10.354  1.00  0.00    -0.387 OA
BRANCH   8   9
HETATM    9  C   UNL     1     -21.764  -4.380  -9.453  1.00  0.00     0.168 C 
BRANCH   9  10
HETATM   10  C   UNL     1     -22.129  -3.940  -8.044  1.00  0.00     0.026 C 
BRANCH  10  11
HETATM   11  C   UNL     1     -20.889  -3.856  -7.161  1.00  0.00    -0.002 C 
HETATM   12  C   UNL     1     -19.634  -4.236  -7.921  1.00  0.00     0.005 C 
ENDBRANCH  10  11
ENDBRANCH   9  10
ENDBRANCH   8   9
ENDBRANCH   7   8
ENDBRANCH   1   7
BRANCH   3  13
HETATM   13  O   UNL     1     -25.132  -1.782 -14.364  1.00  0.00    -0.353 OA
HETATM   14  C   UNL     1     -24.502  -0.754 -15.099  1.00  0.00     0.210 C 
ENDBRANCH   3  13
BRANCH   4  15
HETATM   15  O   UNL     1     -25.617  -4.648 -15.441  1.00  0.00    -0.358 OA
HETATM   16  H   UNL     1     -26.145  -3.891 -15.717  1.00  0.00     0.217 HD
ENDBRANCH   4  15
TORSDOF 7
BEGIN_RES ARG D 557
REMARK  4 active torsions:
REMARK  status: ('A' for Active; 'I' for Inactive)
REMARK    1  A    between atoms: CA   and  CB  
REMARK    2  A    between atoms: CB   and  CG  
REMARK    3  A    between atoms: CG   and  CD  
REMARK    4  A    between atoms: CD   and  NE  
REMARK       I    between atoms: NE   and  CZ  
REMARK       I    between atoms: CZ   and  NH1 
REMARK       I    between atoms: CZ   and  NH2 
ROOT
ATOM      1  CA  ARG D 557     -26.217   2.705 -17.014  1.00 35.49     0.159 C 
ENDROOT
BRANCH   1   2
ATOM      2  CB  ARG D 557     -26.789   1.319 -17.183  1.00 35.49     0.034 C 
BRANCH   2   3
ATOM      3  CG  ARG D 557     -28.242   1.222 -17.371  1.00 35.49     0.027 C 
BRANCH   3   4
ATOM      4  CD  ARG D 557     -28.867   0.250 -16.445  1.00 35.49     0.116 C 
BRANCH   4   5
ATOM      5  NE  ARG D 557     -29.249  -0.966 -17.113  1.00 35.49    -0.212 N 
ATOM      6  CZ  ARG D 557     -28.628  -2.121 -17.022  1.00 35.49     0.666 C 
ATOM      7  NH1 ARG D 557     -27.541  -2.286 -16.291  1.00 35.49    -0.235 N 
ATOM      8  NH2 ARG D 557     -29.129  -3.125 -17.681  1.00 35.49    -0.235 N 
ATOM      9  HH  ARG D 557     -27.196  -1.639 -15.848  1.00 35.49     0.174 HD
ATOM     10  HH  ARG D 557     -27.180  -3.062 -16.268  1.00 35.49     0.174 HD
ATOM     11  HH  ARG D 557     -29.836  -2.991 -18.138  1.00 35.49     0.174 HD
ATOM     12  HH  ARG D 557     -28.758  -3.887 -17.644  1.00 35.49     0.174 HD
ATOM     13  HE  ARG D 557     -29.898  -0.933 -17.662  1.00 35.49     0.178 HD
ENDBRANCH   4   5
ENDBRANCH   3   4
ENDBRANCH   2   3
ENDBRANCH   1   2
END_RES ARG D 557
BEGIN_RES GLU D 570
REMARK  3 active torsions:
REMARK  status: ('A' for Active; 'I' for Inactive)
REMARK    5  A    between atoms: CA   and  CB  
REMARK    6  A    between atoms: CB   and  CG  
REMARK    7  A    between atoms: CG   and  CD  
ROOT
ATOM     14  CA  GLU D 570     -18.033  -6.348 -13.375  1.00 32.92     0.160 C 
ENDROOT
BRANCH  14  15
ATOM     15  CB  GLU D 570     -19.500  -6.345 -13.794  1.00 32.92     0.043 C 
BRANCH  15  16
ATOM     16  CG  GLU D 570     -19.798  -6.188 -15.241  1.00 32.92     0.100 C 
BRANCH  16  17
ATOM     17  CD  GLU D 570     -20.781  -7.214 -15.755  1.00 32.92     0.185 C 
ATOM     18  OE1 GLU D 570     -20.640  -8.406 -15.423  1.00 32.92    -0.647 OA
ATOM     19  OE2 GLU D 570     -21.692  -6.823 -16.512  1.00 32.92    -0.647 OA
ENDBRANCH  16  17
ENDBRANCH  15  16
ENDBRANCH  14  15
END_RES GLU D 570
ENDMDL
MODEL 9
REMARK VINA RESULT:      -6.4      4.640      7.015
REMARK  7 active torsions:
REMARK  status: ('A' for Active; 'I' for Inactive)
REMARK    1  A    between atoms: C_2  and  C_3 
REMARK    2  A    between atoms: C_3  and  C_4 
REMARK    3  A    between atoms: C_4  and  O_5 
REMARK    4  A    between atoms: O_5  and  C_6 
REMARK    5  A    between atoms: C_6  and  C_7 
REMARK    6  A    between atoms: C_9  and  O_14 
REMARK    7  A    between atoms: C_10  and  O_13 
ROOT
HETATM    1  C   UNL     1     -24.109  -5.548 -14.514  1.00  0.00    -0.032 A 
HETATM    2  C   UNL     1     -24.768  -4.325 -14.719  1.00  0.00     0.049 A 
HETATM    3  C   UNL     1     -24.540  -3.201 -13.908  1.00  0.00     0.101 A 
HETATM    4  C   UNL     1     -23.601  -3.317 -12.880  1.00  0.00     0.099 A 
HETATM    5  C   UNL     1     -22.920  -4.524 -12.680  1.00  0.00     0.040 A 
HETATM    6  C   UNL     1     -23.168  -5.633 -13.488  1.00  0.00     0.012 A 
ENDROOT
BRANCH   1   7
HETATM    7  C   UNL     1     -24.360  -6.735 -15.408  1.00  0.00     0.206 C 
BRANCH   7   8
HETATM    8  O   UNL     1     -25.656  -7.270 -15.148  1.00  0.00    -0.387 OA
BRANCH   8   9
HETATM    9  C   UNL     1     -26.617  -6.805 -16.087  1.00  0.00     0.168 C 
BRANCH   9  10
HETATM   10  C   UNL     1     -27.997  -7.221 -15.600  1.00  0.00     0.026 C 
BRANCH  10  11
HETATM   11  C   UNL     1     -28.870  -6.002 -15.327  1.00  0.00    -0.002 C 
HETATM   12  C   UNL     1     -29.933  -5.826 -16.393  1.00  0.00     0.005 C 
ENDBRANCH  10  11
ENDBRANCH   9  10
ENDBRANCH   8   9
ENDBRANCH   7   8
ENDBRANCH   1   7
BRANCH   3  13
HETATM   13  O   UNL     1     -25.306  -2.142 -14.298  1.00  0.00    -0.353 OA
HETATM   14  C   UNL     1     -24.740  -1.046 -14.985  1.00  0.00     0.210 C 
ENDBRANCH   3  13
BRANCH   4  15
HETATM   15  O   UNL     1     -23.231  -2.338 -12.004  1.00  0.00    -0.358 OA
HETATM   16  H   UNL     1     -22.272  -2.330 -11.916  1.00  0.00     0.217 HD
ENDBRANCH   4  15
TORSDOF 7
BEGIN_RES ARG D 557
REMARK  4 active torsions:
REMARK  status: ('A' for Active; 'I' for Inactive)
REMARK    1  A    between atoms: CA   and  CB  
REMARK    2  A    between atoms: CB   and  CG  
REMARK    3  A    between atoms: CG   and  CD  
REMARK    4  A    between atoms: CD   and  NE  
REMARK       I    between atoms: NE   and  CZ  
REMARK       I    between atoms: CZ   and  NH1 
REMARK       I    between atoms: CZ   and  NH2 
ROOT
ATOM      1  CA  ARG D 557     -26.217   2.705 -17.014  1.00 35.49     0.159 C 
ENDROOT
BRANCH   1   2
ATOM      2  CB  ARG D 557     -26.789   1.319 -17.183  1.00 35.49     0.034 C 
BRANCH   2   3
ATOM      3  CG  ARG D 557     -28.232   1.226 -17.436  1.00 35.49     0.027 C 
BRANCH   3   4
ATOM      4  CD  ARG D 557     -28.911   0.301 -16.500  1.00 35.49     0.116 C 
BRANCH   4   5
ATOM      5  NE  ARG D 557     -28.124  -0.874 -16.233  1.00 35.49    -0.212 N 
ATOM      6  CZ  ARG D 557     -28.354  -2.077 -16.708  1.00 35.49     0.666 C 
ATOM      7  NH1 ARG D 557     -29.379  -2.344 -17.497  1.00 35.49    -0.235 N 
ATOM      8  NH2 ARG D 557     -27.523  -3.023 -16.378  1.00 35.49    -0.235 N 
ATOM      9  HH  ARG D 557     -29.937  -1.737 -17.729  1.00 35.49     0.174 HD
ATOM     10  HH  ARG D 557     -29.477  -3.147 -17.779  1.00 35.49     0.174 HD
ATOM     11  HH  ARG D 557     -26.867  -2.820 -15.873  1.00 35.49     0.174 HD
ATOM     12  HH  ARG D 557     -27.637  -3.811 -16.668  1.00 35.49     0.174 HD
ATOM     13  HE  ARG D 557     -27.485  -0.809 -15.675  1.00 35.49     0.178 HD
ENDBRANCH   4   5
ENDBRANCH   3   4
ENDBRANCH   2   3
ENDBRANCH   1   2
END_RES ARG D 557
BEGIN_RES GLU D 570
REMARK  3 active torsions:
REMARK  status: ('A' for Active; 'I' for Inactive)
REMARK    5  A    between atoms: CA   and  CB  
REMARK    6  A    between atoms: CB   and  CG  
REMARK    7  A    between atoms: CG   and  CD  
ROOT
ATOM     14  CA  GLU D 570     -18.033  -6.348 -13.375  1.00 32.92     0.160 C 
ENDROOT
BRANCH  14  15
ATOM     15  CB  GLU D 570     -19.500  -6.345 -13.794  1.00 32.92     0.043 C 
BRANCH  15  16
ATOM     16  CG  GLU D 570     -19.805  -6.041 -15.216  1.00 32.92     0.100 C 
BRANCH  16  17
ATOM     17  CD  GLU D 570     -20.643  -7.109 -15.880  1.00 32.92     0.185 C 
ATOM     18  OE1 GLU D 570     -20.722  -8.233 -15.349  1.00 32.92    -0.647 OA
ATOM     19  OE2 GLU D 570     -21.212  -6.823 -16.952  1.00 32.92    -0.647 OA
ENDBRANCH  16  17
ENDBRANCH  15  16
ENDBRANCH  14  15
END_RES GLU D 570
ENDMDL
