MODEL 1
REMARK VINA RESULT:      -8.1      0.000      0.000
REMARK  32 active torsions:
REMARK  status: ('A' for Active; 'I' for Inactive)
REMARK    1  A    between atoms: C_2  and  C_3 
REMARK    2  A    between atoms: C_3  and  C_4 
REMARK    3  A    between atoms: C_4  and  C_5 
REMARK    4  A    between atoms: C_5  and  C_6 
REMARK    5  A    between atoms: C_6  and  C_7 
REMARK    6  A    between atoms: C_7  and  C_8 
REMARK    7  A    between atoms: C_7  and  O_36 
REMARK    8  A    between atoms: C_8  and  C_9 
REMARK    9  A    between atoms: C_10  and  C_11 
REMARK   10  A    between atoms: C_11  and  C_12 
REMARK   11  A    between atoms: C_12  and  C_13 
REMARK   12  A    between atoms: C_13  and  C_14 
REMARK   13  A    between atoms: C_14  and  C_15 
REMARK   14  A    between atoms: C_15  and  C_16 
REMARK   15  A    between atoms: C_16  and  C_17 
REMARK   16  A    between atoms: C_17  and  C_18 
REMARK   17  A    between atoms: C_18  and  O_20 
REMARK   18  A    between atoms: O_20  and  C_21 
REMARK   19  A    between atoms: C_21  and  C_22 
REMARK   20  A    between atoms: C_22  and  C_23 
REMARK   21  A    between atoms: C_22  and  O_35 
REMARK   22  A    between atoms: C_23  and  O_24 
REMARK   23  A    between atoms: O_24  and  C_25 
REMARK   24  A    between atoms: C_25  and  C_26 
REMARK   25  A    between atoms: C_26  and  C_27 
REMARK   26  A    between atoms: C_26  and  O_34 
REMARK   27  A    between atoms: C_27  and  O_28 
REMARK   28  A    between atoms: O_28  and  C_29 
REMARK   29  A    between atoms: C_29  and  C_30 
REMARK   30  A    between atoms: C_30  and  C_31 
REMARK   31  A    between atoms: C_30  and  O_33 
REMARK   32  A    between atoms: C_31  and  O_32 
ROOT
HETATM    1  C   UNL     1     -24.154  -3.478 -10.418  1.00  0.00     0.258 C 
HETATM    2  O   UNL     1     -25.323  -3.224 -10.164  1.00  0.00    -0.265 OA
ENDROOT
BRANCH   1   3
HETATM    3  C   UNL     1     -23.345  -4.367  -9.415  1.00  0.00     0.111 C 
BRANCH   3   4
HETATM    4  C   UNL     1     -22.322  -4.083  -8.296  1.00  0.00     0.010 C 
BRANCH   4   5
HETATM    5  C   UNL     1     -20.835  -4.428  -8.463  1.00  0.00     0.000 C 
BRANCH   5   6
HETATM    6  C   UNL     1     -20.348  -5.575  -7.590  1.00  0.00     0.000 C 
BRANCH   6   7
HETATM    7  C   UNL     1     -19.995  -5.123  -6.169  1.00  0.00     0.000 C 
BRANCH   7   8
HETATM    8  C   UNL     1     -21.034  -5.551  -5.119  1.00  0.00     0.004 C 
BRANCH   8   9
HETATM    9  C   UNL     1     -21.458  -7.024  -5.203  1.00  0.00     0.027 C 
BRANCH   9  10
HETATM   10  C   UNL     1     -21.259  -7.667  -3.869  1.00  0.00    -0.031 C 
HETATM   11  C   UNL     1     -21.021  -7.108  -2.680  1.00  0.00    -0.028 C 
BRANCH  11  12
HETATM   12  C   UNL     1     -20.806  -7.896  -1.405  1.00  0.00     0.058 C 
BRANCH  12  13
HETATM   13  C   UNL     1     -21.731  -7.759  -0.121  1.00  0.00     0.121 C 
BRANCH  13  14
HETATM   14  C   UNL     1     -21.802  -9.010   0.738  1.00  0.00     0.032 C 
BRANCH  14  15
HETATM   15  C   UNL     1     -21.739 -10.263  -0.088  1.00  0.00     0.002 C 
BRANCH  15  16
HETATM   16  C   UNL     1     -23.083 -10.972  -0.032  1.00  0.00     0.000 C 
BRANCH  16  17
HETATM   17  C   UNL     1     -23.680 -11.013  -1.415  1.00  0.00    -0.000 C 
BRANCH  17  18
HETATM   18  C   UNL     1     -22.583 -10.892  -2.449  1.00  0.00    -0.005 C 
HETATM   19  C   UNL     1     -22.610 -12.130  -3.317  1.00  0.00     0.005 C 
ENDBRANCH  17  18
ENDBRANCH  16  17
ENDBRANCH  15  16
ENDBRANCH  14  15
ENDBRANCH  13  14
BRANCH  13  20
HETATM   20  O   UNL     1     -23.099  -7.410  -0.259  1.00  0.00    -0.395 OA
HETATM   21  H   UNL     1     -23.549  -8.041  -0.841  1.00  0.00     0.210 HD
ENDBRANCH  13  20
ENDBRANCH  12  13
ENDBRANCH  11  12
ENDBRANCH   9  10
ENDBRANCH   8   9
ENDBRANCH   7   8
ENDBRANCH   6   7
ENDBRANCH   5   6
ENDBRANCH   4   5
ENDBRANCH   3   4
ENDBRANCH   1   3
BRANCH   1  22
HETATM   22  O   UNL     1     -23.523  -2.882 -11.459  1.00  0.00    -0.319 OA
BRANCH  22  23
HETATM   23  C   UNL     1     -24.162  -2.791 -12.796  1.00  0.00     0.212 C 
BRANCH  23  24
HETATM   24  C   UNL     1     -23.220  -2.872 -14.063  1.00  0.00     0.166 C 
BRANCH  24  25
HETATM   25  C   UNL     1     -22.932  -4.325 -14.561  1.00  0.00     0.201 C 
BRANCH  25  26
HETATM   26  O   UNL     1     -24.136  -4.969 -15.088  1.00  0.00    -0.386 OA
BRANCH  26  27
HETATM   27  C   UNL     1     -24.101  -6.395 -14.878  1.00  0.00     0.201 C 
BRANCH  27  28
HETATM   28  C   UNL     1     -25.108  -7.172 -15.750  1.00  0.00     0.165 C 
BRANCH  28  29
HETATM   29  C   UNL     1     -25.988  -6.386 -16.754  1.00  0.00     0.201 C 
BRANCH  29  30
HETATM   30  O   UNL     1     -27.286  -5.912 -16.425  1.00  0.00    -0.386 OA
BRANCH  30  31
HETATM   31  C   UNL     1     -28.454  -6.674 -16.684  1.00  0.00     0.201 C 
BRANCH  31  32
HETATM   32  C   UNL     1     -29.134  -6.637 -18.063  1.00  0.00     0.165 C 
BRANCH  32  33
HETATM   33  C   UNL     1     -30.161  -7.708 -18.463  1.00  0.00     0.198 C 
BRANCH  33  34
HETATM   34  O   UNL     1     -29.609  -8.787 -19.212  1.00  0.00    -0.398 OA
HETATM   35  H   UNL     1     -28.639  -8.684 -19.179  1.00  0.00     0.209 HD
ENDBRANCH  33  34
ENDBRANCH  32  33
BRANCH  32  36
HETATM   36  O   UNL     1     -29.816  -5.368 -18.152  1.00  0.00    -0.391 OA
HETATM   37  H   UNL     1     -29.382  -4.776 -17.514  1.00  0.00     0.210 HD
ENDBRANCH  32  36
ENDBRANCH  31  32
ENDBRANCH  30  31
ENDBRANCH  29  30
ENDBRANCH  28  29
BRANCH  28  38
HETATM   38  O   UNL     1     -24.357  -8.149 -16.509  1.00  0.00    -0.391 OA
HETATM   39  H   UNL     1     -23.647  -7.665 -16.966  1.00  0.00     0.210 HD
ENDBRANCH  28  38
ENDBRANCH  27  28
ENDBRANCH  26  27
ENDBRANCH  25  26
ENDBRANCH  24  25
BRANCH  24  40
HETATM   40  O   UNL     1     -23.764  -2.115 -15.147  1.00  0.00    -0.391 OA
HETATM   41  H   UNL     1     -24.642  -1.789 -14.886  1.00  0.00     0.210 HD
ENDBRANCH  24  40
ENDBRANCH  23  24
ENDBRANCH  22  23
ENDBRANCH   1  22
TORSDOF 32
BEGIN_RES ARG D 557
REMARK  4 active torsions:
REMARK  status: ('A' for Active; 'I' for Inactive)
REMARK    1  A    between atoms: CA   and  CB  
REMARK    2  A    between atoms: CB   and  CG  
REMARK    3  A    between atoms: CG   and  CD  
REMARK    4  A    between atoms: CD   and  NE  
REMARK       I    between atoms: NE   and  CZ  
REMARK       I    between atoms: CZ   and  NH1 
REMARK       I    between atoms: CZ   and  NH2 
ROOT
ATOM      1  CA  ARG D 557     -26.217   2.705 -17.014  1.00 35.49     0.159 C 
ENDROOT
BRANCH   1   2
ATOM      2  CB  ARG D 557     -26.789   1.319 -17.183  1.00 35.49     0.034 C 
BRANCH   2   3
ATOM      3  CG  ARG D 557     -28.220   1.156 -16.901  1.00 35.49     0.027 C 
BRANCH   3   4
ATOM      4  CD  ARG D 557     -28.624  -0.267 -16.834  1.00 35.49     0.116 C 
BRANCH   4   5
ATOM      5  NE  ARG D 557     -27.658  -1.073 -16.135  1.00 35.49    -0.212 N 
ATOM      6  CZ  ARG D 557     -27.548  -2.380 -16.212  1.00 35.49     0.666 C 
ATOM      7  NH1 ARG D 557     -28.352  -3.117 -16.956  1.00 35.49    -0.235 N 
ATOM      8  NH2 ARG D 557     -26.599  -2.944 -15.524  1.00 35.49    -0.235 N 
ATOM      9  HH  ARG D 557     -28.983  -2.766 -17.419  1.00 35.49     0.174 HD
ATOM     10  HH  ARG D 557     -28.232  -3.965 -16.969  1.00 35.49     0.174 HD
ATOM     11  HH  ARG D 557     -26.090  -2.443 -15.058  1.00 35.49     0.174 HD
ATOM     12  HH  ARG D 557     -26.494  -3.785 -15.551  1.00 35.49     0.174 HD
ATOM     13  HE  ARG D 557     -27.146  -0.687 -15.576  1.00 35.49     0.178 HD
ENDBRANCH   4   5
ENDBRANCH   3   4
ENDBRANCH   2   3
ENDBRANCH   1   2
END_RES ARG D 557
BEGIN_RES GLU D 570
REMARK  3 active torsions:
REMARK  status: ('A' for Active; 'I' for Inactive)
REMARK    5  A    between atoms: CA   and  CB  
REMARK    6  A    between atoms: CB   and  CG  
REMARK    7  A    between atoms: CG   and  CD  
ROOT
ATOM     14  CA  GLU D 570     -18.033  -6.348 -13.375  1.00 32.92     0.160 C 
ENDROOT
BRANCH  14  15
ATOM     15  CB  GLU D 570     -19.500  -6.345 -13.794  1.00 32.92     0.043 C 
BRANCH  15  16
ATOM     16  CG  GLU D 570     -20.099  -7.643 -14.200  1.00 32.92     0.100 C 
BRANCH  16  17
ATOM     17  CD  GLU D 570     -20.591  -7.643 -15.629  1.00 32.92     0.185 C 
ATOM     18  OE1 GLU D 570     -20.839  -6.556 -16.184  1.00 32.92    -0.647 OA
ATOM     19  OE2 GLU D 570     -20.746  -8.744 -16.193  1.00 32.92    -0.647 OA
ENDBRANCH  16  17
ENDBRANCH  15  16
ENDBRANCH  14  15
END_RES GLU D 570
ENDMDL
MODEL 2
REMARK VINA RESULT:      -7.8      1.460      2.318
REMARK  32 active torsions:
REMARK  status: ('A' for Active; 'I' for Inactive)
REMARK    1  A    between atoms: C_2  and  C_3 
REMARK    2  A    between atoms: C_3  and  C_4 
REMARK    3  A    between atoms: C_4  and  C_5 
REMARK    4  A    between atoms: C_5  and  C_6 
REMARK    5  A    between atoms: C_6  and  C_7 
REMARK    6  A    between atoms: C_7  and  C_8 
REMARK    7  A    between atoms: C_7  and  O_36 
REMARK    8  A    between atoms: C_8  and  C_9 
REMARK    9  A    between atoms: C_10  and  C_11 
REMARK   10  A    between atoms: C_11  and  C_12 
REMARK   11  A    between atoms: C_12  and  C_13 
REMARK   12  A    between atoms: C_13  and  C_14 
REMARK   13  A    between atoms: C_14  and  C_15 
REMARK   14  A    between atoms: C_15  and  C_16 
REMARK   15  A    between atoms: C_16  and  C_17 
REMARK   16  A    between atoms: C_17  and  C_18 
REMARK   17  A    between atoms: C_18  and  O_20 
REMARK   18  A    between atoms: O_20  and  C_21 
REMARK   19  A    between atoms: C_21  and  C_22 
REMARK   20  A    between atoms: C_22  and  C_23 
REMARK   21  A    between atoms: C_22  and  O_35 
REMARK   22  A    between atoms: C_23  and  O_24 
REMARK   23  A    between atoms: O_24  and  C_25 
REMARK   24  A    between atoms: C_25  and  C_26 
REMARK   25  A    between atoms: C_26  and  C_27 
REMARK   26  A    between atoms: C_26  and  O_34 
REMARK   27  A    between atoms: C_27  and  O_28 
REMARK   28  A    between atoms: O_28  and  C_29 
REMARK   29  A    between atoms: C_29  and  C_30 
REMARK   30  A    between atoms: C_30  and  C_31 
REMARK   31  A    between atoms: C_30  and  O_33 
REMARK   32  A    between atoms: C_31  and  O_32 
ROOT
HETATM    1  C   UNL     1     -23.963  -3.340 -11.647  1.00  0.00     0.258 C 
HETATM    2  O   UNL     1     -24.738  -2.929 -10.794  1.00  0.00    -0.265 OA
ENDROOT
BRANCH   1   3
HETATM    3  C   UNL     1     -22.641  -4.039 -11.185  1.00  0.00     0.111 C 
BRANCH   3   4
HETATM    4  C   UNL     1     -21.200  -3.562 -10.910  1.00  0.00     0.010 C 
BRANCH   4   5
HETATM    5  C   UNL     1     -20.370  -4.140  -9.755  1.00  0.00     0.000 C 
BRANCH   5   6
HETATM    6  C   UNL     1     -21.143  -5.051  -8.813  1.00  0.00     0.000 C 
BRANCH   6   7
HETATM    7  C   UNL     1     -21.994  -4.271  -7.806  1.00  0.00     0.000 C 
BRANCH   7   8
HETATM    8  C   UNL     1     -21.182  -3.720  -6.622  1.00  0.00     0.004 C 
BRANCH   8   9
HETATM    9  C   UNL     1     -20.005  -4.605  -6.190  1.00  0.00     0.027 C 
BRANCH   9  10
HETATM   10  C   UNL     1     -20.436  -5.470  -5.049  1.00  0.00    -0.031 C 
HETATM   11  C   UNL     1     -21.208  -6.559  -5.050  1.00  0.00    -0.028 C 
BRANCH  11  12
HETATM   12  C   UNL     1     -21.590  -7.323  -3.800  1.00  0.00     0.058 C 
BRANCH  12  13
HETATM   13  C   UNL     1     -21.528  -6.705  -2.339  1.00  0.00     0.121 C 
BRANCH  13  14
HETATM   14  C   UNL     1     -21.231  -7.715  -1.243  1.00  0.00     0.032 C 
BRANCH  14  15
HETATM   15  C   UNL     1     -21.085  -9.108  -1.786  1.00  0.00     0.002 C 
BRANCH  15  16
HETATM   16  C   UNL     1     -22.407  -9.847  -1.641  1.00  0.00     0.000 C 
BRANCH  16  17
HETATM   17  C   UNL     1     -22.902  -9.703  -0.225  1.00  0.00    -0.000 C 
BRANCH  17  18
HETATM   18  C   UNL     1     -24.049 -10.658   0.016  1.00  0.00    -0.005 C 
HETATM   19  C   UNL     1     -23.918 -11.811  -0.954  1.00  0.00     0.005 C 
ENDBRANCH  17  18
ENDBRANCH  16  17
ENDBRANCH  15  16
ENDBRANCH  14  15
ENDBRANCH  13  14
BRANCH  13  20
HETATM   20  O   UNL     1     -22.644  -6.007  -1.809  1.00  0.00    -0.395 OA
HETATM   21  H   UNL     1     -22.641  -6.057  -0.841  1.00  0.00     0.210 HD
ENDBRANCH  13  20
ENDBRANCH  12  13
ENDBRANCH  11  12
ENDBRANCH   9  10
ENDBRANCH   8   9
ENDBRANCH   7   8
ENDBRANCH   6   7
ENDBRANCH   5   6
ENDBRANCH   4   5
ENDBRANCH   3   4
ENDBRANCH   1   3
BRANCH   1  22
HETATM   22  O   UNL     1     -24.162  -3.063 -12.959  1.00  0.00    -0.319 OA
BRANCH  22  23
HETATM   23  C   UNL     1     -23.050  -3.138 -13.938  1.00  0.00     0.212 C 
BRANCH  23  24
HETATM   24  C   UNL     1     -22.617  -4.572 -14.444  1.00  0.00     0.166 C 
BRANCH  24  25
HETATM   25  C   UNL     1     -23.734  -5.660 -14.329  1.00  0.00     0.201 C 
BRANCH  25  26
HETATM   26  O   UNL     1     -24.755  -5.505 -15.365  1.00  0.00    -0.386 OA
BRANCH  26  27
HETATM   27  C   UNL     1     -25.316  -6.778 -15.741  1.00  0.00     0.201 C 
BRANCH  27  28
HETATM   28  C   UNL     1     -26.669  -6.664 -16.472  1.00  0.00     0.165 C 
BRANCH  28  29
HETATM   29  C   UNL     1     -27.972  -6.667 -15.636  1.00  0.00     0.201 C 
BRANCH  29  30
HETATM   30  O   UNL     1     -28.989  -5.689 -15.800  1.00  0.00    -0.386 OA
BRANCH  30  31
HETATM   31  C   UNL     1     -30.142  -5.927 -16.591  1.00  0.00     0.201 C 
BRANCH  31  32
HETATM   32  C   UNL     1     -31.300  -4.914 -16.627  1.00  0.00     0.165 C 
BRANCH  32  33
HETATM   33  C   UNL     1     -31.279  -3.731 -17.607  1.00  0.00     0.198 C 
BRANCH  33  34
HETATM   34  O   UNL     1     -32.497  -2.991 -17.646  1.00  0.00    -0.398 OA
HETATM   35  H   UNL     1     -32.841  -2.971 -16.733  1.00  0.00     0.209 HD
ENDBRANCH  33  34
ENDBRANCH  32  33
BRANCH  32  36
HETATM   36  O   UNL     1     -32.495  -5.666 -16.924  1.00  0.00    -0.391 OA
HETATM   37  H   UNL     1     -32.211  -6.451 -17.423  1.00  0.00     0.210 HD
ENDBRANCH  32  36
ENDBRANCH  31  32
ENDBRANCH  30  31
ENDBRANCH  29  30
ENDBRANCH  28  29
BRANCH  28  38
HETATM   38  O   UNL     1     -26.647  -5.432 -17.231  1.00  0.00    -0.391 OA
HETATM   39  H   UNL     1     -27.468  -4.955 -17.016  1.00  0.00     0.210 HD
ENDBRANCH  28  38
ENDBRANCH  27  28
ENDBRANCH  26  27
ENDBRANCH  25  26
ENDBRANCH  24  25
BRANCH  24  40
HETATM   40  O   UNL     1     -22.170  -4.517 -15.801  1.00  0.00    -0.391 OA
HETATM   41  H   UNL     1     -22.949  -4.515 -16.383  1.00  0.00     0.210 HD
ENDBRANCH  24  40
ENDBRANCH  23  24
ENDBRANCH  22  23
ENDBRANCH   1  22
TORSDOF 32
BEGIN_RES ARG D 557
REMARK  4 active torsions:
REMARK  status: ('A' for Active; 'I' for Inactive)
REMARK    1  A    between atoms: CA   and  CB  
REMARK    2  A    between atoms: CB   and  CG  
REMARK    3  A    between atoms: CG   and  CD  
REMARK    4  A    between atoms: CD   and  NE  
REMARK       I    between atoms: NE   and  CZ  
REMARK       I    between atoms: CZ   and  NH1 
REMARK       I    between atoms: CZ   and  NH2 
ROOT
ATOM      1  CA  ARG D 557     -26.217   2.705 -17.014  1.00 35.49     0.159 C 
ENDROOT
BRANCH   1   2
ATOM      2  CB  ARG D 557     -26.789   1.319 -17.183  1.00 35.49     0.034 C 
BRANCH   2   3
ATOM      3  CG  ARG D 557     -28.225   1.160 -16.921  1.00 35.49     0.027 C 
BRANCH   3   4
ATOM      4  CD  ARG D 557     -28.585  -0.235 -16.579  1.00 35.49     0.116 C 
BRANCH   4   5
ATOM      5  NE  ARG D 557     -27.498  -0.936 -15.948  1.00 35.49    -0.212 N 
ATOM      6  CZ  ARG D 557     -27.263  -2.227 -16.035  1.00 35.49     0.666 C 
ATOM      7  NH1 ARG D 557     -28.039  -3.043 -16.725  1.00 35.49    -0.235 N 
ATOM      8  NH2 ARG D 557     -26.218  -2.690 -15.415  1.00 35.49    -0.235 N 
ATOM      9  HH  ARG D 557     -28.731  -2.760 -17.143  1.00 35.49     0.174 HD
ATOM     10  HH  ARG D 557     -27.835  -3.875 -16.748  1.00 35.49     0.174 HD
ATOM     11  HH  ARG D 557     -25.731  -2.138 -14.983  1.00 35.49     0.174 HD
ATOM     12  HH  ARG D 557     -26.032  -3.516 -15.451  1.00 35.49     0.174 HD
ATOM     13  HE  ARG D 557     -26.990  -0.499 -15.425  1.00 35.49     0.178 HD
ENDBRANCH   4   5
ENDBRANCH   3   4
ENDBRANCH   2   3
ENDBRANCH   1   2
END_RES ARG D 557
BEGIN_RES GLU D 570
REMARK  3 active torsions:
REMARK  status: ('A' for Active; 'I' for Inactive)
REMARK    5  A    between atoms: CA   and  CB  
REMARK    6  A    between atoms: CB   and  CG  
REMARK    7  A    between atoms: CG   and  CD  
ROOT
ATOM     14  CA  GLU D 570     -18.033  -6.348 -13.375  1.00 32.92     0.160 C 
ENDROOT
BRANCH  14  15
ATOM     15  CB  GLU D 570     -19.500  -6.345 -13.794  1.00 32.92     0.043 C 
BRANCH  15  16
ATOM     16  CG  GLU D 570     -20.090  -7.637 -14.232  1.00 32.92     0.100 C 
BRANCH  16  17
ATOM     17  CD  GLU D 570     -20.611  -7.596 -15.649  1.00 32.92     0.185 C 
ATOM     18  OE1 GLU D 570     -21.222  -8.585 -16.098  1.00 32.92    -0.647 OA
ATOM     19  OE2 GLU D 570     -20.392  -6.571 -16.324  1.00 32.92    -0.647 OA
ENDBRANCH  16  17
ENDBRANCH  15  16
ENDBRANCH  14  15
END_RES GLU D 570
ENDMDL
MODEL 3
REMARK VINA RESULT:      -7.7      1.562      1.858
REMARK  32 active torsions:
REMARK  status: ('A' for Active; 'I' for Inactive)
REMARK    1  A    between atoms: C_2  and  C_3 
REMARK    2  A    between atoms: C_3  and  C_4 
REMARK    3  A    between atoms: C_4  and  C_5 
REMARK    4  A    between atoms: C_5  and  C_6 
REMARK    5  A    between atoms: C_6  and  C_7 
REMARK    6  A    between atoms: C_7  and  C_8 
REMARK    7  A    between atoms: C_7  and  O_36 
REMARK    8  A    between atoms: C_8  and  C_9 
REMARK    9  A    between atoms: C_10  and  C_11 
REMARK   10  A    between atoms: C_11  and  C_12 
REMARK   11  A    between atoms: C_12  and  C_13 
REMARK   12  A    between atoms: C_13  and  C_14 
REMARK   13  A    between atoms: C_14  and  C_15 
REMARK   14  A    between atoms: C_15  and  C_16 
REMARK   15  A    between atoms: C_16  and  C_17 
REMARK   16  A    between atoms: C_17  and  C_18 
REMARK   17  A    between atoms: C_18  and  O_20 
REMARK   18  A    between atoms: O_20  and  C_21 
REMARK   19  A    between atoms: C_21  and  C_22 
REMARK   20  A    between atoms: C_22  and  C_23 
REMARK   21  A    between atoms: C_22  and  O_35 
REMARK   22  A    between atoms: C_23  and  O_24 
REMARK   23  A    between atoms: O_24  and  C_25 
REMARK   24  A    between atoms: C_25  and  C_26 
REMARK   25  A    between atoms: C_26  and  C_27 
REMARK   26  A    between atoms: C_26  and  O_34 
REMARK   27  A    between atoms: C_27  and  O_28 
REMARK   28  A    between atoms: O_28  and  C_29 
REMARK   29  A    between atoms: C_29  and  C_30 
REMARK   30  A    between atoms: C_30  and  C_31 
REMARK   31  A    between atoms: C_30  and  O_33 
REMARK   32  A    between atoms: C_31  and  O_32 
ROOT
HETATM    1  C   UNL     1     -24.559  -3.607 -10.074  1.00  0.00     0.258 C 
HETATM    2  O   UNL     1     -25.599  -3.041  -9.766  1.00  0.00    -0.265 OA
ENDROOT
BRANCH   1   3
HETATM    3  C   UNL     1     -23.596  -4.079  -8.933  1.00  0.00     0.111 C 
BRANCH   3   4
HETATM    4  C   UNL     1     -22.067  -4.084  -8.736  1.00  0.00     0.010 C 
BRANCH   4   5
HETATM    5  C   UNL     1     -21.434  -4.406  -7.375  1.00  0.00     0.000 C 
BRANCH   5   6
HETATM    6  C   UNL     1     -21.161  -5.884  -7.137  1.00  0.00     0.000 C 
BRANCH   6   7
HETATM    7  C   UNL     1     -20.232  -6.126  -5.944  1.00  0.00     0.000 C 
BRANCH   7   8
HETATM    8  C   UNL     1     -20.898  -6.914  -4.804  1.00  0.00     0.004 C 
BRANCH   8   9
HETATM    9  C   UNL     1     -21.407  -6.049  -3.643  1.00  0.00     0.027 C 
BRANCH   9  10
HETATM   10  C   UNL     1     -21.769  -6.935  -2.494  1.00  0.00    -0.031 C 
HETATM   11  C   UNL     1     -22.193  -6.613  -1.270  1.00  0.00    -0.028 C 
BRANCH  11  12
HETATM   12  C   UNL     1     -22.493  -7.628  -0.187  1.00  0.00     0.058 C 
BRANCH  12  13
HETATM   13  C   UNL     1     -21.444  -8.703   0.326  1.00  0.00     0.121 C 
BRANCH  13  14
HETATM   14  C   UNL     1     -21.875 -10.146   0.125  1.00  0.00     0.032 C 
BRANCH  14  15
HETATM   15  C   UNL     1     -23.258 -10.244  -0.455  1.00  0.00     0.002 C 
BRANCH  15  16
HETATM   16  C   UNL     1     -23.214 -11.081  -1.724  1.00  0.00     0.000 C 
BRANCH  16  17
HETATM   17  C   UNL     1     -21.935 -10.791  -2.466  1.00  0.00    -0.000 C 
BRANCH  17  18
HETATM   18  C   UNL     1     -22.250 -10.362  -3.881  1.00  0.00    -0.005 C 
HETATM   19  C   UNL     1     -21.314 -11.092  -4.818  1.00  0.00     0.005 C 
ENDBRANCH  17  18
ENDBRANCH  16  17
ENDBRANCH  15  16
ENDBRANCH  14  15
ENDBRANCH  13  14
BRANCH  13  20
HETATM   20  O   UNL     1     -21.021  -8.702   1.680  1.00  0.00    -0.395 OA
HETATM   21  H   UNL     1     -21.736  -9.013   2.255  1.00  0.00     0.210 HD
ENDBRANCH  13  20
ENDBRANCH  12  13
ENDBRANCH  11  12
ENDBRANCH   9  10
ENDBRANCH   8   9
ENDBRANCH   7   8
ENDBRANCH   6   7
ENDBRANCH   5   6
ENDBRANCH   4   5
ENDBRANCH   3   4
ENDBRANCH   1   3
BRANCH   1  22
HETATM   22  O   UNL     1     -24.168  -3.687 -11.370  1.00  0.00    -0.319 OA
BRANCH  22  23
HETATM   23  C   UNL     1     -23.642  -4.954 -11.937  1.00  0.00     0.212 C 
BRANCH  23  24
HETATM   24  C   UNL     1     -22.443  -4.853 -12.962  1.00  0.00     0.166 C 
BRANCH  24  25
HETATM   25  C   UNL     1     -22.873  -4.913 -14.464  1.00  0.00     0.201 C 
BRANCH  25  26
HETATM   26  O   UNL     1     -24.252  -5.376 -14.619  1.00  0.00    -0.386 OA
BRANCH  26  27
HETATM   27  C   UNL     1     -24.298  -6.695 -15.199  1.00  0.00     0.201 C 
BRANCH  27  28
HETATM   28  C   UNL     1     -25.472  -6.897 -16.178  1.00  0.00     0.165 C 
BRANCH  28  29
HETATM   29  C   UNL     1     -26.615  -5.853 -16.198  1.00  0.00     0.201 C 
BRANCH  29  30
HETATM   30  O   UNL     1     -27.577  -5.790 -17.242  1.00  0.00    -0.386 OA
BRANCH  30  31
HETATM   31  C   UNL     1     -28.869  -5.242 -17.043  1.00  0.00     0.201 C 
BRANCH  31  32
HETATM   32  C   UNL     1     -30.125  -5.969 -17.558  1.00  0.00     0.165 C 
BRANCH  32  33
HETATM   33  C   UNL     1     -30.060  -7.444 -17.983  1.00  0.00     0.198 C 
BRANCH  33  34
HETATM   34  O   UNL     1     -29.217  -8.247 -17.160  1.00  0.00    -0.398 OA
HETATM   35  H   UNL     1     -28.613  -7.635 -16.698  1.00  0.00     0.209 HD
ENDBRANCH  33  34
ENDBRANCH  32  33
BRANCH  32  36
HETATM   36  O   UNL     1     -31.106  -5.893 -16.504  1.00  0.00    -0.391 OA
HETATM   37  H   UNL     1     -30.894  -6.604 -15.876  1.00  0.00     0.210 HD
ENDBRANCH  32  36
ENDBRANCH  31  32
ENDBRANCH  30  31
ENDBRANCH  29  30
ENDBRANCH  28  29
BRANCH  28  38
HETATM   38  O   UNL     1     -24.916  -6.952 -17.513  1.00  0.00    -0.391 OA
HETATM   39  H   UNL     1     -24.555  -6.068 -17.703  1.00  0.00     0.210 HD
ENDBRANCH  28  38
ENDBRANCH  27  28
ENDBRANCH  26  27
ENDBRANCH  25  26
ENDBRANCH  24  25
BRANCH  24  40
HETATM   40  O   UNL     1     -21.692  -3.655 -12.748  1.00  0.00    -0.391 OA
HETATM   41  H   UNL     1     -21.032  -3.824 -12.055  1.00  0.00     0.210 HD
ENDBRANCH  24  40
ENDBRANCH  23  24
ENDBRANCH  22  23
ENDBRANCH   1  22
TORSDOF 32
BEGIN_RES ARG D 557
REMARK  4 active torsions:
REMARK  status: ('A' for Active; 'I' for Inactive)
REMARK    1  A    between atoms: CA   and  CB  
REMARK    2  A    between atoms: CB   and  CG  
REMARK    3  A    between atoms: CG   and  CD  
REMARK    4  A    between atoms: CD   and  NE  
REMARK       I    between atoms: NE   and  CZ  
REMARK       I    between atoms: CZ   and  NH1 
REMARK       I    between atoms: CZ   and  NH2 
ROOT
ATOM      1  CA  ARG D 557     -26.217   2.705 -17.014  1.00 35.49     0.159 C 
ENDROOT
BRANCH   1   2
ATOM      2  CB  ARG D 557     -26.789   1.319 -17.183  1.00 35.49     0.034 C 
BRANCH   2   3
ATOM      3  CG  ARG D 557     -25.845   0.199 -17.087  1.00 35.49     0.027 C 
BRANCH   3   4
ATOM      4  CD  ARG D 557     -26.147  -0.697 -15.947  1.00 35.49     0.116 C 
BRANCH   4   5
ATOM      5  NE  ARG D 557     -25.043  -0.798 -15.029  1.00 35.49    -0.212 N 
ATOM      6  CZ  ARG D 557     -24.837  -1.780 -14.180  1.00 35.49     0.666 C 
ATOM      7  NH1 ARG D 557     -25.661  -2.805 -14.068  1.00 35.49    -0.235 N 
ATOM      8  NH2 ARG D 557     -23.770  -1.718 -13.438  1.00 35.49    -0.235 N 
ATOM      9  HH  ARG D 557     -26.368  -2.868 -14.548  1.00 35.49     0.174 HD
ATOM     10  HH  ARG D 557     -25.474  -3.417 -13.499  1.00 35.49     0.174 HD
ATOM     11  HH  ARG D 557     -23.252  -1.048 -13.537  1.00 35.49     0.174 HD
ATOM     12  HH  ARG D 557     -23.601  -2.335 -12.881  1.00 35.49     0.174 HD
ATOM     13  HE  ARG D 557     -24.501  -0.144 -14.983  1.00 35.49     0.178 HD
ENDBRANCH   4   5
ENDBRANCH   3   4
ENDBRANCH   2   3
ENDBRANCH   1   2
END_RES ARG D 557
BEGIN_RES GLU D 570
REMARK  3 active torsions:
REMARK  status: ('A' for Active; 'I' for Inactive)
REMARK    5  A    between atoms: CA   and  CB  
REMARK    6  A    between atoms: CB   and  CG  
REMARK    7  A    between atoms: CG   and  CD  
ROOT
ATOM     14  CA  GLU D 570     -18.033  -6.348 -13.375  1.00 32.92     0.160 C 
ENDROOT
BRANCH  14  15
ATOM     15  CB  GLU D 570     -19.500  -6.345 -13.794  1.00 32.92     0.043 C 
BRANCH  15  16
ATOM     16  CG  GLU D 570     -20.078  -7.628 -14.271  1.00 32.92     0.100 C 
BRANCH  16  17
ATOM     17  CD  GLU D 570     -20.669  -7.528 -15.658  1.00 32.92     0.185 C 
ATOM     18  OE1 GLU D 570     -20.437  -6.514 -16.344  1.00 32.92    -0.647 OA
ATOM     19  OE2 GLU D 570     -21.386  -8.467 -16.057  1.00 32.92    -0.647 OA
ENDBRANCH  16  17
ENDBRANCH  15  16
ENDBRANCH  14  15
END_RES GLU D 570
ENDMDL
MODEL 4
REMARK VINA RESULT:      -7.4      1.804      2.273
REMARK  32 active torsions:
REMARK  status: ('A' for Active; 'I' for Inactive)
REMARK    1  A    between atoms: C_2  and  C_3 
REMARK    2  A    between atoms: C_3  and  C_4 
REMARK    3  A    between atoms: C_4  and  C_5 
REMARK    4  A    between atoms: C_5  and  C_6 
REMARK    5  A    between atoms: C_6  and  C_7 
REMARK    6  A    between atoms: C_7  and  C_8 
REMARK    7  A    between atoms: C_7  and  O_36 
REMARK    8  A    between atoms: C_8  and  C_9 
REMARK    9  A    between atoms: C_10  and  C_11 
REMARK   10  A    between atoms: C_11  and  C_12 
REMARK   11  A    between atoms: C_12  and  C_13 
REMARK   12  A    between atoms: C_13  and  C_14 
REMARK   13  A    between atoms: C_14  and  C_15 
REMARK   14  A    between atoms: C_15  and  C_16 
REMARK   15  A    between atoms: C_16  and  C_17 
REMARK   16  A    between atoms: C_17  and  C_18 
REMARK   17  A    between atoms: C_18  and  O_20 
REMARK   18  A    between atoms: O_20  and  C_21 
REMARK   19  A    between atoms: C_21  and  C_22 
REMARK   20  A    between atoms: C_22  and  C_23 
REMARK   21  A    between atoms: C_22  and  O_35 
REMARK   22  A    between atoms: C_23  and  O_24 
REMARK   23  A    between atoms: O_24  and  C_25 
REMARK   24  A    between atoms: C_25  and  C_26 
REMARK   25  A    between atoms: C_26  and  C_27 
REMARK   26  A    between atoms: C_26  and  O_34 
REMARK   27  A    between atoms: C_27  and  O_28 
REMARK   28  A    between atoms: O_28  and  C_29 
REMARK   29  A    between atoms: C_29  and  C_30 
REMARK   30  A    between atoms: C_30  and  C_31 
REMARK   31  A    between atoms: C_30  and  O_33 
REMARK   32  A    between atoms: C_31  and  O_32 
ROOT
HETATM    1  C   UNL     1     -24.569  -3.541 -10.147  1.00  0.00     0.258 C 
HETATM    2  O   UNL     1     -25.582  -2.965  -9.773  1.00  0.00    -0.265 OA
ENDROOT
BRANCH   1   3
HETATM    3  C   UNL     1     -23.465  -3.878  -9.089  1.00  0.00     0.111 C 
BRANCH   3   4
HETATM    4  C   UNL     1     -21.928  -3.755  -9.048  1.00  0.00     0.010 C 
BRANCH   4   5
HETATM    5  C   UNL     1     -21.158  -3.765  -7.720  1.00  0.00     0.000 C 
BRANCH   5   6
HETATM    6  C   UNL     1     -21.763  -4.654  -6.644  1.00  0.00     0.000 C 
BRANCH   6   7
HETATM    7  C   UNL     1     -20.702  -5.281  -5.733  1.00  0.00     0.000 C 
BRANCH   7   8
HETATM    8  C   UNL     1     -20.447  -6.768  -6.031  1.00  0.00     0.004 C 
BRANCH   8   9
HETATM    9  C   UNL     1     -20.318  -7.655  -4.785  1.00  0.00     0.027 C 
BRANCH   9  10
HETATM   10  C   UNL     1     -21.318  -7.214  -3.765  1.00  0.00    -0.031 C 
HETATM   11  C   UNL     1     -21.206  -7.142  -2.437  1.00  0.00    -0.028 C 
BRANCH  11  12
HETATM   12  C   UNL     1     -22.326  -6.702  -1.517  1.00  0.00     0.058 C 
BRANCH  12  13
HETATM   13  C   UNL     1     -22.492  -7.218  -0.026  1.00  0.00     0.121 C 
BRANCH  13  14
HETATM   14  C   UNL     1     -21.457  -8.245   0.402  1.00  0.00     0.032 C 
BRANCH  14  15
HETATM   15  C   UNL     1     -22.012  -9.641   0.391  1.00  0.00     0.002 C 
BRANCH  15  16
HETATM   16  C   UNL     1     -20.871 -10.636   0.243  1.00  0.00     0.000 C 
BRANCH  16  17
HETATM   17  C   UNL     1     -21.343 -12.000   0.676  1.00  0.00    -0.000 C 
BRANCH  17  18
HETATM   18  C   UNL     1     -22.836 -12.115   0.466  1.00  0.00    -0.005 C 
HETATM   19  C   UNL     1     -23.353 -13.242   1.332  1.00  0.00     0.005 C 
ENDBRANCH  17  18
ENDBRANCH  16  17
ENDBRANCH  15  16
ENDBRANCH  14  15
ENDBRANCH  13  14
BRANCH  13  20
HETATM   20  O   UNL     1     -23.706  -7.823   0.392  1.00  0.00    -0.395 OA
HETATM   21  H   UNL     1     -24.244  -7.188   0.886  1.00  0.00     0.210 HD
ENDBRANCH  13  20
ENDBRANCH  12  13
ENDBRANCH  11  12
ENDBRANCH   9  10
ENDBRANCH   8   9
ENDBRANCH   7   8
ENDBRANCH   6   7
ENDBRANCH   5   6
ENDBRANCH   4   5
ENDBRANCH   3   4
ENDBRANCH   1   3
BRANCH   1  22
HETATM   22  O   UNL     1     -24.333  -3.747 -11.466  1.00  0.00    -0.319 OA
BRANCH  22  23
HETATM   23  C   UNL     1     -23.728  -5.013 -11.950  1.00  0.00     0.212 C 
BRANCH  23  24
HETATM   24  C   UNL     1     -22.674  -4.917 -13.125  1.00  0.00     0.166 C 
BRANCH  24  25
HETATM   25  C   UNL     1     -23.253  -5.249 -14.538  1.00  0.00     0.201 C 
BRANCH  25  26
HETATM   26  O   UNL     1     -24.572  -5.876 -14.454  1.00  0.00    -0.386 OA
BRANCH  26  27
HETATM   27  C   UNL     1     -25.087  -6.191 -15.763  1.00  0.00     0.201 C 
BRANCH  27  28
HETATM   28  C   UNL     1     -26.624  -6.298 -15.812  1.00  0.00     0.165 C 
BRANCH  28  29
HETATM   29  C   UNL     1     -27.350  -6.004 -17.148  1.00  0.00     0.201 C 
BRANCH  29  30
HETATM   30  O   UNL     1     -28.574  -6.629 -17.508  1.00  0.00    -0.386 OA
BRANCH  30  31
HETATM   31  C   UNL     1     -29.744  -5.883 -17.800  1.00  0.00     0.201 C 
BRANCH  31  32
HETATM   32  C   UNL     1     -30.356  -4.931 -16.757  1.00  0.00     0.165 C 
BRANCH  32  33
HETATM   33  C   UNL     1     -31.813  -4.460 -16.883  1.00  0.00     0.198 C 
BRANCH  33  34
HETATM   34  O   UNL     1     -32.765  -5.520 -16.899  1.00  0.00    -0.398 OA
HETATM   35  H   UNL     1     -32.370  -6.259 -16.396  1.00  0.00     0.209 HD
ENDBRANCH  33  34
ENDBRANCH  32  33
BRANCH  32  36
HETATM   36  O   UNL     1     -30.253  -5.597 -15.481  1.00  0.00    -0.391 OA
HETATM   37  H   UNL     1     -29.724  -6.399 -15.630  1.00  0.00     0.210 HD
ENDBRANCH  32  36
ENDBRANCH  31  32
ENDBRANCH  30  31
ENDBRANCH  29  30
ENDBRANCH  28  29
BRANCH  28  38
HETATM   38  O   UNL     1     -26.975  -7.645 -15.418  1.00  0.00    -0.391 OA
HETATM   39  H   UNL     1     -26.788  -7.717 -14.466  1.00  0.00     0.210 HD
ENDBRANCH  28  38
ENDBRANCH  27  28
ENDBRANCH  26  27
ENDBRANCH  25  26
ENDBRANCH  24  25
BRANCH  24  40
HETATM   40  O   UNL     1     -22.080  -3.616 -13.168  1.00  0.00    -0.391 OA
HETATM   41  H   UNL     1     -22.253  -3.227 -14.042  1.00  0.00     0.210 HD
ENDBRANCH  24  40
ENDBRANCH  23  24
ENDBRANCH  22  23
ENDBRANCH   1  22
TORSDOF 32
BEGIN_RES ARG D 557
REMARK  4 active torsions:
REMARK  status: ('A' for Active; 'I' for Inactive)
REMARK    1  A    between atoms: CA   and  CB  
REMARK    2  A    between atoms: CB   and  CG  
REMARK    3  A    between atoms: CG   and  CD  
REMARK    4  A    between atoms: CD   and  NE  
REMARK       I    between atoms: NE   and  CZ  
REMARK       I    between atoms: CZ   and  NH1 
REMARK       I    between atoms: CZ   and  NH2 
ROOT
ATOM      1  CA  ARG D 557     -26.217   2.705 -17.014  1.00 35.49     0.159 C 
ENDROOT
BRANCH   1   2
ATOM      2  CB  ARG D 557     -26.789   1.319 -17.183  1.00 35.49     0.034 C 
BRANCH   2   3
ATOM      3  CG  ARG D 557     -25.833   0.205 -17.178  1.00 35.49     0.027 C 
BRANCH   3   4
ATOM      4  CD  ARG D 557     -25.335  -0.105 -15.818  1.00 35.49     0.116 C 
BRANCH   4   5
ATOM      5  NE  ARG D 557     -25.901  -1.321 -15.297  1.00 35.49    -0.212 N 
ATOM      6  CZ  ARG D 557     -25.378  -2.067 -14.349  1.00 35.49     0.666 C 
ATOM      7  NH1 ARG D 557     -24.231  -1.772 -13.766  1.00 35.49    -0.235 N 
ATOM      8  NH2 ARG D 557     -26.041  -3.126 -13.985  1.00 35.49    -0.235 N 
ATOM      9  HH  ARG D 557     -23.779  -1.078 -13.988  1.00 35.49     0.174 HD
ATOM     10  HH  ARG D 557     -23.941  -2.294 -13.152  1.00 35.49     0.174 HD
ATOM     11  HH  ARG D 557     -26.783  -3.288 -14.374  1.00 35.49     0.174 HD
ATOM     12  HH  ARG D 557     -25.738  -3.630 -13.374  1.00 35.49     0.174 HD
ATOM     13  HE  ARG D 557     -26.604  -1.625 -15.666  1.00 35.49     0.178 HD
ENDBRANCH   4   5
ENDBRANCH   3   4
ENDBRANCH   2   3
ENDBRANCH   1   2
END_RES ARG D 557
BEGIN_RES GLU D 570
REMARK  3 active torsions:
REMARK  status: ('A' for Active; 'I' for Inactive)
REMARK    5  A    between atoms: CA   and  CB  
REMARK    6  A    between atoms: CB   and  CG  
REMARK    7  A    between atoms: CG   and  CD  
ROOT
ATOM     14  CA  GLU D 570     -18.033  -6.348 -13.375  1.00 32.92     0.160 C 
ENDROOT
BRANCH  14  15
ATOM     15  CB  GLU D 570     -19.500  -6.345 -13.794  1.00 32.92     0.043 C 
BRANCH  15  16
ATOM     16  CG  GLU D 570     -19.796  -6.287 -15.249  1.00 32.92     0.100 C 
BRANCH  16  17
ATOM     17  CD  GLU D 570     -20.626  -7.455 -15.728  1.00 32.92     0.185 C 
ATOM     18  OE1 GLU D 570     -21.451  -7.275 -16.645  1.00 32.92    -0.647 OA
ATOM     19  OE2 GLU D 570     -20.462  -8.557 -15.170  1.00 32.92    -0.647 OA
ENDBRANCH  16  17
ENDBRANCH  15  16
ENDBRANCH  14  15
END_RES GLU D 570
ENDMDL
MODEL 5
REMARK VINA RESULT:      -7.4      1.810      2.628
REMARK  32 active torsions:
REMARK  status: ('A' for Active; 'I' for Inactive)
REMARK    1  A    between atoms: C_2  and  C_3 
REMARK    2  A    between atoms: C_3  and  C_4 
REMARK    3  A    between atoms: C_4  and  C_5 
REMARK    4  A    between atoms: C_5  and  C_6 
REMARK    5  A    between atoms: C_6  and  C_7 
REMARK    6  A    between atoms: C_7  and  C_8 
REMARK    7  A    between atoms: C_7  and  O_36 
REMARK    8  A    between atoms: C_8  and  C_9 
REMARK    9  A    between atoms: C_10  and  C_11 
REMARK   10  A    between atoms: C_11  and  C_12 
REMARK   11  A    between atoms: C_12  and  C_13 
REMARK   12  A    between atoms: C_13  and  C_14 
REMARK   13  A    between atoms: C_14  and  C_15 
REMARK   14  A    between atoms: C_15  and  C_16 
REMARK   15  A    between atoms: C_16  and  C_17 
REMARK   16  A    between atoms: C_17  and  C_18 
REMARK   17  A    between atoms: C_18  and  O_20 
REMARK   18  A    between atoms: O_20  and  C_21 
REMARK   19  A    between atoms: C_21  and  C_22 
REMARK   20  A    between atoms: C_22  and  C_23 
REMARK   21  A    between atoms: C_22  and  O_35 
REMARK   22  A    between atoms: C_23  and  O_24 
REMARK   23  A    between atoms: O_24  and  C_25 
REMARK   24  A    between atoms: C_25  and  C_26 
REMARK   25  A    between atoms: C_26  and  C_27 
REMARK   26  A    between atoms: C_26  and  O_34 
REMARK   27  A    between atoms: C_27  and  O_28 
REMARK   28  A    between atoms: O_28  and  C_29 
REMARK   29  A    between atoms: C_29  and  C_30 
REMARK   30  A    between atoms: C_30  and  C_31 
REMARK   31  A    between atoms: C_30  and  O_33 
REMARK   32  A    between atoms: C_31  and  O_32 
ROOT
HETATM    1  C   UNL     1     -24.145  -3.810 -10.705  1.00  0.00     0.258 C 
HETATM    2  O   UNL     1     -25.121  -3.149 -11.032  1.00  0.00    -0.265 OA
ENDROOT
BRANCH   1   3
HETATM    3  C   UNL     1     -23.390  -3.431  -9.387  1.00  0.00     0.111 C 
BRANCH   3   4
HETATM    4  C   UNL     1     -22.333  -4.124  -8.504  1.00  0.00     0.010 C 
BRANCH   4   5
HETATM    5  C   UNL     1     -20.897  -4.351  -8.999  1.00  0.00     0.000 C 
BRANCH   5   6
HETATM    6  C   UNL     1     -19.820  -4.099  -7.954  1.00  0.00     0.000 C 
BRANCH   6   7
HETATM    7  C   UNL     1     -19.685  -5.255  -6.957  1.00  0.00     0.000 C 
BRANCH   7   8
HETATM    8  C   UNL     1     -20.340  -4.964  -5.596  1.00  0.00     0.004 C 
BRANCH   8   9
HETATM    9  C   UNL     1     -21.491  -5.909  -5.227  1.00  0.00     0.027 C 
BRANCH   9  10
HETATM   10  C   UNL     1     -20.996  -6.924  -4.248  1.00  0.00    -0.031 C 
HETATM   11  C   UNL     1     -20.372  -8.084  -4.465  1.00  0.00    -0.028 C 
BRANCH  11  12
HETATM   12  C   UNL     1     -19.953  -9.036  -3.365  1.00  0.00     0.058 C 
BRANCH  12  13
HETATM   13  C   UNL     1     -20.709 -10.394  -3.044  1.00  0.00     0.121 C 
BRANCH  13  14
HETATM   14  C   UNL     1     -22.038 -10.218  -2.328  1.00  0.00     0.032 C 
BRANCH  14  15
HETATM   15  C   UNL     1     -21.910 -10.425  -0.845  1.00  0.00     0.002 C 
BRANCH  15  16
HETATM   16  C   UNL     1     -23.266 -10.218  -0.188  1.00  0.00     0.000 C 
BRANCH  16  17
HETATM   17  C   UNL     1     -23.441  -8.756   0.137  1.00  0.00    -0.000 C 
BRANCH  17  18
HETATM   18  C   UNL     1     -22.102  -8.056   0.081  1.00  0.00    -0.005 C 
HETATM   19  C   UNL     1     -22.244  -6.827  -0.788  1.00  0.00     0.005 C 
ENDBRANCH  17  18
ENDBRANCH  16  17
ENDBRANCH  15  16
ENDBRANCH  14  15
ENDBRANCH  13  14
BRANCH  13  20
HETATM   20  O   UNL     1     -20.078 -11.398  -2.264  1.00  0.00    -0.395 OA
HETATM   21  H   UNL     1     -20.537 -11.502  -1.418  1.00  0.00     0.210 HD
ENDBRANCH  13  20
ENDBRANCH  12  13
ENDBRANCH  11  12
ENDBRANCH   9  10
ENDBRANCH   8   9
ENDBRANCH   7   8
ENDBRANCH   6   7
ENDBRANCH   5   6
ENDBRANCH   4   5
ENDBRANCH   3   4
ENDBRANCH   1   3
BRANCH   1  22
HETATM   22  O   UNL     1     -23.630  -4.749 -11.536  1.00  0.00    -0.319 OA
BRANCH  22  23
HETATM   23  C   UNL     1     -22.553  -4.415 -12.501  1.00  0.00     0.212 C 
BRANCH  23  24
HETATM   24  C   UNL     1     -22.590  -5.127 -13.913  1.00  0.00     0.166 C 
BRANCH  24  25
HETATM   25  C   UNL     1     -23.834  -6.047 -14.138  1.00  0.00     0.201 C 
BRANCH  25  26
HETATM   26  O   UNL     1     -24.643  -5.603 -15.273  1.00  0.00    -0.386 OA
BRANCH  26  27
HETATM   27  C   UNL     1     -25.381  -6.698 -15.850  1.00  0.00     0.201 C 
BRANCH  27  28
HETATM   28  C   UNL     1     -26.831  -6.335 -16.227  1.00  0.00     0.165 C 
BRANCH  28  29
HETATM   29  C   UNL     1     -27.161  -6.021 -17.707  1.00  0.00     0.201 C 
BRANCH  29  30
HETATM   30  O   UNL     1     -28.452  -6.225 -18.263  1.00  0.00    -0.386 OA
BRANCH  30  31
HETATM   31  C   UNL     1     -29.462  -5.231 -18.208  1.00  0.00     0.201 C 
BRANCH  31  32
HETATM   32  C   UNL     1     -30.457  -5.178 -17.036  1.00  0.00     0.165 C 
BRANCH  32  33
HETATM   33  C   UNL     1     -31.657  -4.219 -17.067  1.00  0.00     0.198 C 
BRANCH  33  34
HETATM   34  O   UNL     1     -32.569  -4.398 -15.986  1.00  0.00    -0.398 OA
HETATM   35  H   UNL     1     -33.356  -3.859 -16.192  1.00  0.00     0.209 HD
ENDBRANCH  33  34
ENDBRANCH  32  33
BRANCH  32  36
HETATM   36  O   UNL     1     -31.003  -6.507 -16.898  1.00  0.00    -0.391 OA
HETATM   37  H   UNL     1     -30.297  -7.123 -17.156  1.00  0.00     0.210 HD
ENDBRANCH  32  36
ENDBRANCH  31  32
ENDBRANCH  30  31
ENDBRANCH  29  30
ENDBRANCH  28  29
BRANCH  28  38
HETATM   38  O   UNL     1     -27.672  -7.443 -15.824  1.00  0.00    -0.391 OA
HETATM   39  H   UNL     1     -28.107  -7.178 -14.995  1.00  0.00     0.210 HD
ENDBRANCH  28  38
ENDBRANCH  27  28
ENDBRANCH  26  27
ENDBRANCH  25  26
ENDBRANCH  24  25
BRANCH  24  40
HETATM   40  O   UNL     1     -22.538  -4.162 -14.967  1.00  0.00    -0.391 OA
HETATM   41  H   UNL     1     -21.605  -4.008 -15.198  1.00  0.00     0.210 HD
ENDBRANCH  24  40
ENDBRANCH  23  24
ENDBRANCH  22  23
ENDBRANCH   1  22
TORSDOF 32
BEGIN_RES ARG D 557
REMARK  4 active torsions:
REMARK  status: ('A' for Active; 'I' for Inactive)
REMARK    1  A    between atoms: CA   and  CB  
REMARK    2  A    between atoms: CB   and  CG  
REMARK    3  A    between atoms: CG   and  CD  
REMARK    4  A    between atoms: CD   and  NE  
REMARK       I    between atoms: NE   and  CZ  
REMARK       I    between atoms: CZ   and  NH1 
REMARK       I    between atoms: CZ   and  NH2 
ROOT
ATOM      1  CA  ARG D 557     -26.217   2.705 -17.014  1.00 35.49     0.159 C 
ENDROOT
BRANCH   1   2
ATOM      2  CB  ARG D 557     -26.789   1.319 -17.183  1.00 35.49     0.034 C 
BRANCH   2   3
ATOM      3  CG  ARG D 557     -25.831   0.207 -17.200  1.00 35.49     0.027 C 
BRANCH   3   4
ATOM      4  CD  ARG D 557     -25.293  -0.095 -15.854  1.00 35.49     0.116 C 
BRANCH   4   5
ATOM      5  NE  ARG D 557     -25.836  -1.312 -15.312  1.00 35.49    -0.212 N 
ATOM      6  CZ  ARG D 557     -25.276  -2.059 -14.388  1.00 35.49     0.666 C 
ATOM      7  NH1 ARG D 557     -24.105  -1.765 -13.852  1.00 35.49    -0.235 N 
ATOM      8  NH2 ARG D 557     -25.922  -3.120 -14.000  1.00 35.49    -0.235 N 
ATOM      9  HH  ARG D 557     -23.664  -1.071 -14.091  1.00 35.49     0.174 HD
ATOM     10  HH  ARG D 557     -23.790  -2.288 -13.251  1.00 35.49     0.174 HD
ATOM     11  HH  ARG D 557     -26.679  -3.281 -14.358  1.00 35.49     0.174 HD
ATOM     12  HH  ARG D 557     -25.594  -3.624 -13.402  1.00 35.49     0.174 HD
ATOM     13  HE  ARG D 557     -26.554  -1.615 -15.653  1.00 35.49     0.178 HD
ENDBRANCH   4   5
ENDBRANCH   3   4
ENDBRANCH   2   3
ENDBRANCH   1   2
END_RES ARG D 557
BEGIN_RES GLU D 570
REMARK  3 active torsions:
REMARK  status: ('A' for Active; 'I' for Inactive)
REMARK    5  A    between atoms: CA   and  CB  
REMARK    6  A    between atoms: CB   and  CG  
REMARK    7  A    between atoms: CG   and  CD  
ROOT
ATOM     14  CA  GLU D 570     -18.033  -6.348 -13.375  1.00 32.92     0.160 C 
ENDROOT
BRANCH  14  15
ATOM     15  CB  GLU D 570     -19.500  -6.345 -13.794  1.00 32.92     0.043 C 
BRANCH  15  16
ATOM     16  CG  GLU D 570     -20.073  -7.623 -14.290  1.00 32.92     0.100 C 
BRANCH  16  17
ATOM     17  CD  GLU D 570     -20.616  -7.520 -15.696  1.00 32.92     0.185 C 
ATOM     18  OE1 GLU D 570     -20.555  -6.426 -16.289  1.00 32.92    -0.647 OA
ATOM     19  OE2 GLU D 570     -21.123  -8.539 -16.203  1.00 32.92    -0.647 OA
ENDBRANCH  16  17
ENDBRANCH  15  16
ENDBRANCH  14  15
END_RES GLU D 570
ENDMDL
MODEL 6
REMARK VINA RESULT:      -7.3      3.120      6.583
REMARK  32 active torsions:
REMARK  status: ('A' for Active; 'I' for Inactive)
REMARK    1  A    between atoms: C_2  and  C_3 
REMARK    2  A    between atoms: C_3  and  C_4 
REMARK    3  A    between atoms: C_4  and  C_5 
REMARK    4  A    between atoms: C_5  and  C_6 
REMARK    5  A    between atoms: C_6  and  C_7 
REMARK    6  A    between atoms: C_7  and  C_8 
REMARK    7  A    between atoms: C_7  and  O_36 
REMARK    8  A    between atoms: C_8  and  C_9 
REMARK    9  A    between atoms: C_10  and  C_11 
REMARK   10  A    between atoms: C_11  and  C_12 
REMARK   11  A    between atoms: C_12  and  C_13 
REMARK   12  A    between atoms: C_13  and  C_14 
REMARK   13  A    between atoms: C_14  and  C_15 
REMARK   14  A    between atoms: C_15  and  C_16 
REMARK   15  A    between atoms: C_16  and  C_17 
REMARK   16  A    between atoms: C_17  and  C_18 
REMARK   17  A    between atoms: C_18  and  O_20 
REMARK   18  A    between atoms: O_20  and  C_21 
REMARK   19  A    between atoms: C_21  and  C_22 
REMARK   20  A    between atoms: C_22  and  C_23 
REMARK   21  A    between atoms: C_22  and  O_35 
REMARK   22  A    between atoms: C_23  and  O_24 
REMARK   23  A    between atoms: O_24  and  C_25 
REMARK   24  A    between atoms: C_25  and  C_26 
REMARK   25  A    between atoms: C_26  and  C_27 
REMARK   26  A    between atoms: C_26  and  O_34 
REMARK   27  A    between atoms: C_27  and  O_28 
REMARK   28  A    between atoms: O_28  and  C_29 
REMARK   29  A    between atoms: C_29  and  C_30 
REMARK   30  A    between atoms: C_30  and  C_31 
REMARK   31  A    between atoms: C_30  and  O_33 
REMARK   32  A    between atoms: C_31  and  O_32 
ROOT
HETATM    1  C   UNL     1     -21.690  -6.270  -4.271  1.00  0.00     0.258 C 
HETATM    2  O   UNL     1     -22.797  -6.270  -4.792  1.00  0.00    -0.265 OA
ENDROOT
BRANCH   1   3
HETATM    3  C   UNL     1     -21.560  -6.754  -2.788  1.00  0.00     0.111 C 
BRANCH   3   4
HETATM    4  C   UNL     1     -22.213  -6.346  -1.452  1.00  0.00     0.010 C 
BRANCH   4   5
HETATM    5  C   UNL     1     -22.598  -7.391  -0.395  1.00  0.00     0.000 C 
BRANCH   5   6
HETATM    6  C   UNL     1     -21.454  -8.288   0.055  1.00  0.00     0.000 C 
BRANCH   6   7
HETATM    7  C   UNL     1     -21.878  -9.753   0.202  1.00  0.00     0.000 C 
BRANCH   7   8
HETATM    8  C   UNL     1     -23.322 -10.017  -0.257  1.00  0.00     0.004 C 
BRANCH   8   9
HETATM    9  C   UNL     1     -23.453 -11.045  -1.389  1.00  0.00     0.027 C 
BRANCH   9  10
HETATM   10  C   UNL     1     -22.245 -10.964  -2.266  1.00  0.00    -0.031 C 
HETATM   11  C   UNL     1     -22.071 -10.318  -3.420  1.00  0.00    -0.028 C 
BRANCH  11  12
HETATM   12  C   UNL     1     -20.788 -10.352  -4.223  1.00  0.00     0.058 C 
BRANCH  12  13
HETATM   13  C   UNL     1     -19.608  -9.305  -4.039  1.00  0.00     0.121 C 
BRANCH  13  14
HETATM   14  C   UNL     1     -18.463  -9.472  -5.024  1.00  0.00     0.032 C 
BRANCH  14  15
HETATM   15  C   UNL     1     -17.464 -10.493  -4.558  1.00  0.00     0.002 C 
BRANCH  15  16
HETATM   16  C   UNL     1     -16.058  -9.996  -4.857  1.00  0.00     0.000 C 
BRANCH  16  17
HETATM   17  C   UNL     1     -15.082 -11.129  -4.669  1.00  0.00    -0.000 C 
BRANCH  17  18
HETATM   18  C   UNL     1     -15.449 -12.277  -5.583  1.00  0.00    -0.005 C 
HETATM   19  C   UNL     1     -14.890 -11.988  -6.957  1.00  0.00     0.005 C 
ENDBRANCH  17  18
ENDBRANCH  16  17
ENDBRANCH  15  16
ENDBRANCH  14  15
ENDBRANCH  13  14
BRANCH  13  20
HETATM   20  O   UNL     1     -18.927  -9.205  -2.799  1.00  0.00    -0.395 OA
HETATM   21  H   UNL     1     -18.243  -9.888  -2.736  1.00  0.00     0.210 HD
ENDBRANCH  13  20
ENDBRANCH  12  13
ENDBRANCH  11  12
ENDBRANCH   9  10
ENDBRANCH   8   9
ENDBRANCH   7   8
ENDBRANCH   6   7
ENDBRANCH   5   6
ENDBRANCH   4   5
ENDBRANCH   3   4
ENDBRANCH   1   3
BRANCH   1  22
HETATM   22  O   UNL     1     -20.624  -5.720  -4.902  1.00  0.00    -0.319 OA
BRANCH  22  23
HETATM   23  C   UNL     1     -20.803  -4.783  -6.039  1.00  0.00     0.212 C 
BRANCH  23  24
HETATM   24  C   UNL     1     -20.594  -5.355  -7.498  1.00  0.00     0.166 C 
BRANCH  24  25
HETATM   25  C   UNL     1     -19.937  -4.348  -8.497  1.00  0.00     0.201 C 
BRANCH  25  26
HETATM   26  O   UNL     1     -20.906  -3.826  -9.462  1.00  0.00    -0.386 OA
BRANCH  26  27
HETATM   27  C   UNL     1     -22.132  -4.584  -9.434  1.00  0.00     0.201 C 
BRANCH  27  28
HETATM   28  C   UNL     1     -23.384  -3.722  -9.178  1.00  0.00     0.165 C 
BRANCH  28  29
HETATM   29  C   UNL     1     -24.567  -3.810 -10.174  1.00  0.00     0.201 C 
BRANCH  29  30
HETATM   30  O   UNL     1     -24.669  -2.971 -11.316  1.00  0.00    -0.386 OA
BRANCH  30  31
HETATM   31  C   UNL     1     -23.925  -3.214 -12.498  1.00  0.00     0.201 C 
BRANCH  31  32
HETATM   32  C   UNL     1     -24.511  -2.887 -13.883  1.00  0.00     0.165 C 
BRANCH  32  33
HETATM   33  C   UNL     1     -24.022  -1.665 -14.675  1.00  0.00     0.198 C 
BRANCH  33  34
HETATM   34  O   UNL     1     -24.959  -0.591 -14.719  1.00  0.00    -0.398 OA
HETATM   35  H   UNL     1     -24.460   0.224 -14.523  1.00  0.00     0.209 HD
ENDBRANCH  33  34
ENDBRANCH  32  33
BRANCH  32  36
HETATM   36  O   UNL     1     -24.261  -4.037 -14.718  1.00  0.00    -0.391 OA
HETATM   37  H   UNL     1     -25.102  -4.250 -15.155  1.00  0.00     0.210 HD
ENDBRANCH  32  36
ENDBRANCH  31  32
ENDBRANCH  30  31
ENDBRANCH  29  30
ENDBRANCH  28  29
BRANCH  28  38
HETATM   38  O   UNL     1     -23.894  -4.080  -7.872  1.00  0.00    -0.391 OA
HETATM   39  H   UNL     1     -24.511  -3.374  -7.608  1.00  0.00     0.210 HD
ENDBRANCH  28  38
ENDBRANCH  27  28
ENDBRANCH  26  27
ENDBRANCH  25  26
ENDBRANCH  24  25
BRANCH  24  40
HETATM   40  O   UNL     1     -19.806  -6.548  -7.466  1.00  0.00    -0.391 OA
HETATM   41  H   UNL     1     -19.345  -6.591  -6.610  1.00  0.00     0.210 HD
ENDBRANCH  24  40
ENDBRANCH  23  24
ENDBRANCH  22  23
ENDBRANCH   1  22
TORSDOF 32
BEGIN_RES ARG D 557
REMARK  4 active torsions:
REMARK  status: ('A' for Active; 'I' for Inactive)
REMARK    1  A    between atoms: CA   and  CB  
REMARK    2  A    between atoms: CB   and  CG  
REMARK    3  A    between atoms: CG   and  CD  
REMARK    4  A    between atoms: CD   and  NE  
REMARK       I    between atoms: NE   and  CZ  
REMARK       I    between atoms: CZ   and  NH1 
REMARK       I    between atoms: CZ   and  NH2 
ROOT
ATOM      1  CA  ARG D 557     -26.217   2.705 -17.014  1.00 35.49     0.159 C 
ENDROOT
BRANCH   1   2
ATOM      2  CB  ARG D 557     -26.789   1.319 -17.183  1.00 35.49     0.034 C 
BRANCH   2   3
ATOM      3  CG  ARG D 557     -28.227   1.227 -17.461  1.00 35.49     0.027 C 
BRANCH   3   4
ATOM      4  CD  ARG D 557     -28.927   0.318 -16.525  1.00 35.49     0.116 C 
BRANCH   4   5
ATOM      5  NE  ARG D 557     -29.232  -0.952 -17.129  1.00 35.49    -0.212 N 
ATOM      6  CZ  ARG D 557     -28.546  -2.062 -16.973  1.00 35.49     0.666 C 
ATOM      7  NH1 ARG D 557     -27.457  -2.123 -16.230  1.00 35.49    -0.235 N 
ATOM      8  NH2 ARG D 557     -28.982  -3.127 -17.580  1.00 35.49    -0.235 N 
ATOM      9  HH  ARG D 557     -27.153  -1.435 -15.820  1.00 35.49     0.174 HD
ATOM     10  HH  ARG D 557     -27.051  -2.875 -16.163  1.00 35.49     0.174 HD
ATOM     11  HH  ARG D 557     -29.692  -3.060 -18.048  1.00 35.49     0.174 HD
ATOM     12  HH  ARG D 557     -28.567  -3.863 -17.500  1.00 35.49     0.174 HD
ATOM     13  HE  ARG D 557     -29.877  -0.986 -17.682  1.00 35.49     0.178 HD
ENDBRANCH   4   5
ENDBRANCH   3   4
ENDBRANCH   2   3
ENDBRANCH   1   2
END_RES ARG D 557
BEGIN_RES GLU D 570
REMARK  3 active torsions:
REMARK  status: ('A' for Active; 'I' for Inactive)
REMARK    5  A    between atoms: CA   and  CB  
REMARK    6  A    between atoms: CB   and  CG  
REMARK    7  A    between atoms: CG   and  CD  
ROOT
ATOM     14  CA  GLU D 570     -18.033  -6.348 -13.375  1.00 32.92     0.160 C 
ENDROOT
BRANCH  14  15
ATOM     15  CB  GLU D 570     -19.500  -6.345 -13.794  1.00 32.92     0.043 C 
BRANCH  15  16
ATOM     16  CG  GLU D 570     -19.813  -5.933 -15.187  1.00 32.92     0.100 C 
BRANCH  16  17
ATOM     17  CD  GLU D 570     -21.272  -5.594 -15.387  1.00 32.92     0.185 C 
ATOM     18  OE1 GLU D 570     -22.134  -6.458 -15.135  1.00 32.92    -0.647 OA
ATOM     19  OE2 GLU D 570     -21.554  -4.459 -15.817  1.00 32.92    -0.647 OA
ENDBRANCH  16  17
ENDBRANCH  15  16
ENDBRANCH  14  15
END_RES GLU D 570
ENDMDL
MODEL 7
REMARK VINA RESULT:      -7.3      1.985      4.376
REMARK  32 active torsions:
REMARK  status: ('A' for Active; 'I' for Inactive)
REMARK    1  A    between atoms: C_2  and  C_3 
REMARK    2  A    between atoms: C_3  and  C_4 
REMARK    3  A    between atoms: C_4  and  C_5 
REMARK    4  A    between atoms: C_5  and  C_6 
REMARK    5  A    between atoms: C_6  and  C_7 
REMARK    6  A    between atoms: C_7  and  C_8 
REMARK    7  A    between atoms: C_7  and  O_36 
REMARK    8  A    between atoms: C_8  and  C_9 
REMARK    9  A    between atoms: C_10  and  C_11 
REMARK   10  A    between atoms: C_11  and  C_12 
REMARK   11  A    between atoms: C_12  and  C_13 
REMARK   12  A    between atoms: C_13  and  C_14 
REMARK   13  A    between atoms: C_14  and  C_15 
REMARK   14  A    between atoms: C_15  and  C_16 
REMARK   15  A    between atoms: C_16  and  C_17 
REMARK   16  A    between atoms: C_17  and  C_18 
REMARK   17  A    between atoms: C_18  and  O_20 
REMARK   18  A    between atoms: O_20  and  C_21 
REMARK   19  A    between atoms: C_21  and  C_22 
REMARK   20  A    between atoms: C_22  and  C_23 
REMARK   21  A    between atoms: C_22  and  O_35 
REMARK   22  A    between atoms: C_23  and  O_24 
REMARK   23  A    between atoms: O_24  and  C_25 
REMARK   24  A    between atoms: C_25  and  C_26 
REMARK   25  A    between atoms: C_26  and  C_27 
REMARK   26  A    between atoms: C_26  and  O_34 
REMARK   27  A    between atoms: C_27  and  O_28 
REMARK   28  A    between atoms: O_28  and  C_29 
REMARK   29  A    between atoms: C_29  and  C_30 
REMARK   30  A    between atoms: C_30  and  C_31 
REMARK   31  A    between atoms: C_30  and  O_33 
REMARK   32  A    between atoms: C_31  and  O_32 
ROOT
HETATM    1  C   UNL     1     -20.616  -5.137  -7.136  1.00  0.00     0.258 C 
HETATM    2  O   UNL     1     -20.801  -4.055  -6.595  1.00  0.00    -0.265 OA
ENDROOT
BRANCH   1   3
HETATM    3  C   UNL     1     -20.252  -6.370  -6.242  1.00  0.00     0.111 C 
BRANCH   3   4
HETATM    4  C   UNL     1     -20.936  -7.097  -5.066  1.00  0.00     0.010 C 
BRANCH   4   5
HETATM    5  C   UNL     1     -21.778  -6.336  -4.033  1.00  0.00     0.000 C 
BRANCH   5   6
HETATM    6  C   UNL     1     -21.321  -6.510  -2.592  1.00  0.00     0.000 C 
BRANCH   6   7
HETATM    7  C   UNL     1     -22.227  -7.456  -1.797  1.00  0.00     0.000 C 
BRANCH   7   8
HETATM    8  C   UNL     1     -22.336  -7.087  -0.308  1.00  0.00     0.004 C 
BRANCH   8   9
HETATM    9  C   UNL     1     -22.502  -8.286   0.636  1.00  0.00     0.027 C 
BRANCH   9  10
HETATM   10  C   UNL     1     -22.685  -9.527  -0.177  1.00  0.00    -0.031 C 
HETATM   11  C   UNL     1     -23.704 -10.388  -0.200  1.00  0.00    -0.028 C 
BRANCH  11  12
HETATM   12  C   UNL     1     -23.738 -11.634  -1.061  1.00  0.00     0.058 C 
BRANCH  12  13
HETATM   13  C   UNL     1     -22.693 -11.930  -2.219  1.00  0.00     0.121 C 
BRANCH  13  14
HETATM   14  C   UNL     1     -22.671 -10.889  -3.325  1.00  0.00     0.032 C 
BRANCH  14  15
HETATM   15  C   UNL     1     -21.271 -10.554  -3.755  1.00  0.00     0.002 C 
BRANCH  15  16
HETATM   16  C   UNL     1     -20.309 -10.847  -2.613  1.00  0.00     0.000 C 
BRANCH  16  17
HETATM   17  C   UNL     1     -19.499  -9.611  -2.318  1.00  0.00    -0.000 C 
BRANCH  17  18
HETATM   18  C   UNL     1     -18.506  -9.372  -3.433  1.00  0.00    -0.005 C 
HETATM   19  C   UNL     1     -17.495 -10.497  -3.417  1.00  0.00     0.005 C 
ENDBRANCH  17  18
ENDBRANCH  16  17
ENDBRANCH  15  16
ENDBRANCH  14  15
ENDBRANCH  13  14
BRANCH  13  20
HETATM   20  O   UNL     1     -22.760 -13.144  -2.949  1.00  0.00    -0.395 OA
HETATM   21  H   UNL     1     -23.680 -13.434  -3.035  1.00  0.00     0.210 HD
ENDBRANCH  13  20
ENDBRANCH  12  13
ENDBRANCH  11  12
ENDBRANCH   9  10
ENDBRANCH   8   9
ENDBRANCH   7   8
ENDBRANCH   6   7
ENDBRANCH   5   6
ENDBRANCH   4   5
ENDBRANCH   3   4
ENDBRANCH   1   3
BRANCH   1  22
HETATM   22  O   UNL     1     -20.573  -5.241  -8.487  1.00  0.00    -0.319 OA
BRANCH  22  23
HETATM   23  C   UNL     1     -20.406  -4.042  -9.345  1.00  0.00     0.212 C 
BRANCH  23  24
HETATM   24  C   UNL     1     -20.964  -4.117 -10.822  1.00  0.00     0.166 C 
BRANCH  24  25
HETATM   25  C   UNL     1     -22.509  -3.903 -10.939  1.00  0.00     0.201 C 
BRANCH  25  26
HETATM   26  O   UNL     1     -22.836  -2.626 -11.574  1.00  0.00    -0.386 OA
BRANCH  26  27
HETATM   27  C   UNL     1     -23.668  -2.817 -12.735  1.00  0.00     0.201 C 
BRANCH  27  28
HETATM   28  C   UNL     1     -22.870  -3.008 -14.041  1.00  0.00     0.165 C 
BRANCH  28  29
HETATM   29  C   UNL     1     -22.490  -4.443 -14.480  1.00  0.00     0.201 C 
BRANCH  29  30
HETATM   30  O   UNL     1     -23.280  -5.202 -15.384  1.00  0.00    -0.386 OA
BRANCH  30  31
HETATM   31  C   UNL     1     -24.162  -6.220 -14.942  1.00  0.00     0.201 C 
BRANCH  31  32
HETATM   32  C   UNL     1     -24.938  -7.088 -15.949  1.00  0.00     0.165 C 
BRANCH  32  33
HETATM   33  C   UNL     1     -26.178  -6.536 -16.670  1.00  0.00     0.198 C 
BRANCH  33  34
HETATM   34  O   UNL     1     -26.891  -5.553 -15.925  1.00  0.00    -0.398 OA
HETATM   35  H   UNL     1     -27.746  -5.954 -15.679  1.00  0.00     0.209 HD
ENDBRANCH  33  34
ENDBRANCH  32  33
BRANCH  32  36
HETATM   36  O   UNL     1     -24.000  -7.460 -16.980  1.00  0.00    -0.391 OA
HETATM   37  H   UNL     1     -23.928  -6.696 -17.576  1.00  0.00     0.210 HD
ENDBRANCH  32  36
ENDBRANCH  31  32
ENDBRANCH  30  31
ENDBRANCH  29  30
ENDBRANCH  28  29
BRANCH  28  38
HETATM   38  O   UNL     1     -23.650  -2.423 -15.111  1.00  0.00    -0.391 OA
HETATM   39  H   UNL     1     -23.067  -1.794 -15.572  1.00  0.00     0.210 HD
ENDBRANCH  28  38
ENDBRANCH  27  28
ENDBRANCH  26  27
ENDBRANCH  25  26
ENDBRANCH  24  25
BRANCH  24  40
HETATM   40  O   UNL     1     -20.305  -3.166 -11.662  1.00  0.00    -0.391 OA
HETATM   41  H   UNL     1     -19.345  -3.254 -11.533  1.00  0.00     0.210 HD
ENDBRANCH  24  40
ENDBRANCH  23  24
ENDBRANCH  22  23
ENDBRANCH   1  22
TORSDOF 32
BEGIN_RES ARG D 557
REMARK  4 active torsions:
REMARK  status: ('A' for Active; 'I' for Inactive)
REMARK    1  A    between atoms: CA   and  CB  
REMARK    2  A    between atoms: CB   and  CG  
REMARK    3  A    between atoms: CG   and  CD  
REMARK    4  A    between atoms: CD   and  NE  
REMARK       I    between atoms: NE   and  CZ  
REMARK       I    between atoms: CZ   and  NH1 
REMARK       I    between atoms: CZ   and  NH2 
ROOT
ATOM      1  CA  ARG D 557     -26.217   2.705 -17.014  1.00 35.49     0.159 C 
ENDROOT
BRANCH   1   2
ATOM      2  CB  ARG D 557     -26.789   1.319 -17.183  1.00 35.49     0.034 C 
BRANCH   2   3
ATOM      3  CG  ARG D 557     -28.245   1.184 -17.051  1.00 35.49     0.027 C 
BRANCH   3   4
ATOM      4  CD  ARG D 557     -28.661  -0.212 -16.788  1.00 35.49     0.116 C 
BRANCH   4   5
ATOM      5  NE  ARG D 557     -27.648  -0.957 -16.087  1.00 35.49    -0.212 N 
ATOM      6  CZ  ARG D 557     -27.481  -2.260 -16.134  1.00 35.49     0.666 C 
ATOM      7  NH1 ARG D 557     -28.265  -3.049 -16.846  1.00 35.49    -0.235 N 
ATOM      8  NH2 ARG D 557     -26.496  -2.764 -15.450  1.00 35.49    -0.235 N 
ATOM      9  HH  ARG D 557     -28.918  -2.739 -17.305  1.00 35.49     0.174 HD
ATOM     10  HH  ARG D 557     -28.106  -3.891 -16.841  1.00 35.49     0.174 HD
ATOM     11  HH  ARG D 557     -26.002  -2.229 -15.006  1.00 35.49     0.174 HD
ATOM     12  HH  ARG D 557     -26.355  -3.600 -15.459  1.00 35.49     0.174 HD
ATOM     13  HE  ARG D 557     -27.144  -0.535 -15.547  1.00 35.49     0.178 HD
ENDBRANCH   4   5
ENDBRANCH   3   4
ENDBRANCH   2   3
ENDBRANCH   1   2
END_RES ARG D 557
BEGIN_RES GLU D 570
REMARK  3 active torsions:
REMARK  status: ('A' for Active; 'I' for Inactive)
REMARK    5  A    between atoms: CA   and  CB  
REMARK    6  A    between atoms: CB   and  CG  
REMARK    7  A    between atoms: CG   and  CD  
ROOT
ATOM     14  CA  GLU D 570     -18.033  -6.348 -13.375  1.00 32.92     0.160 C 
ENDROOT
BRANCH  14  15
ATOM     15  CB  GLU D 570     -19.500  -6.345 -13.794  1.00 32.92     0.043 C 
BRANCH  15  16
ATOM     16  CG  GLU D 570     -20.078  -7.628 -14.270  1.00 32.92     0.100 C 
BRANCH  16  17
ATOM     17  CD  GLU D 570     -20.689  -7.524 -15.649  1.00 32.92     0.185 C 
ATOM     18  OE1 GLU D 570     -21.460  -8.421 -16.038  1.00 32.92    -0.647 OA
ATOM     19  OE2 GLU D 570     -20.378  -6.542 -16.353  1.00 32.92    -0.647 OA
ENDBRANCH  16  17
ENDBRANCH  15  16
ENDBRANCH  14  15
END_RES GLU D 570
ENDMDL
MODEL 8
REMARK VINA RESULT:      -7.2      2.297      5.082
REMARK  32 active torsions:
REMARK  status: ('A' for Active; 'I' for Inactive)
REMARK    1  A    between atoms: C_2  and  C_3 
REMARK    2  A    between atoms: C_3  and  C_4 
REMARK    3  A    between atoms: C_4  and  C_5 
REMARK    4  A    between atoms: C_5  and  C_6 
REMARK    5  A    between atoms: C_6  and  C_7 
REMARK    6  A    between atoms: C_7  and  C_8 
REMARK    7  A    between atoms: C_7  and  O_36 
REMARK    8  A    between atoms: C_8  and  C_9 
REMARK    9  A    between atoms: C_10  and  C_11 
REMARK   10  A    between atoms: C_11  and  C_12 
REMARK   11  A    between atoms: C_12  and  C_13 
REMARK   12  A    between atoms: C_13  and  C_14 
REMARK   13  A    between atoms: C_14  and  C_15 
REMARK   14  A    between atoms: C_15  and  C_16 
REMARK   15  A    between atoms: C_16  and  C_17 
REMARK   16  A    between atoms: C_17  and  C_18 
REMARK   17  A    between atoms: C_18  and  O_20 
REMARK   18  A    between atoms: O_20  and  C_21 
REMARK   19  A    between atoms: C_21  and  C_22 
REMARK   20  A    between atoms: C_22  and  C_23 
REMARK   21  A    between atoms: C_22  and  O_35 
REMARK   22  A    between atoms: C_23  and  O_24 
REMARK   23  A    between atoms: O_24  and  C_25 
REMARK   24  A    between atoms: C_25  and  C_26 
REMARK   25  A    between atoms: C_26  and  C_27 
REMARK   26  A    between atoms: C_26  and  O_34 
REMARK   27  A    between atoms: C_27  and  O_28 
REMARK   28  A    between atoms: O_28  and  C_29 
REMARK   29  A    between atoms: C_29  and  C_30 
REMARK   30  A    between atoms: C_30  and  C_31 
REMARK   31  A    between atoms: C_30  and  O_33 
REMARK   32  A    between atoms: C_31  and  O_32 
ROOT
HETATM    1  C   UNL     1     -21.576  -6.251  -5.618  1.00  0.00     0.258 C 
HETATM    2  O   UNL     1     -21.039  -7.070  -6.351  1.00  0.00    -0.265 OA
ENDROOT
BRANCH   1   3
HETATM    3  C   UNL     1     -22.015  -6.702  -4.184  1.00  0.00     0.111 C 
BRANCH   3   4
HETATM    4  C   UNL     1     -21.573  -6.343  -2.751  1.00  0.00     0.010 C 
BRANCH   4   5
HETATM    5  C   UNL     1     -22.065  -7.143  -1.536  1.00  0.00     0.000 C 
BRANCH   5   6
HETATM    6  C   UNL     1     -20.977  -7.914  -0.804  1.00  0.00     0.000 C 
BRANCH   6   7
HETATM    7  C   UNL     1     -21.540  -9.052   0.056  1.00  0.00     0.000 C 
BRANCH   7   8
HETATM    8  C   UNL     1     -23.068  -9.193  -0.048  1.00  0.00     0.004 C 
BRANCH   8   9
HETATM    9  C   UNL     1     -23.554 -10.603  -0.410  1.00  0.00     0.027 C 
BRANCH   9  10
HETATM   10  C   UNL     1     -22.767 -11.108  -1.576  1.00  0.00    -0.031 C 
HETATM   11  C   UNL     1     -22.809 -10.738  -2.858  1.00  0.00    -0.028 C 
BRANCH  11  12
HETATM   12  C   UNL     1     -21.966 -11.367  -3.947  1.00  0.00     0.058 C 
BRANCH  12  13
HETATM   13  C   UNL     1     -20.766 -10.621  -4.670  1.00  0.00     0.121 C 
BRANCH  13  14
HETATM   14  C   UNL     1     -20.002  -9.654  -3.782  1.00  0.00     0.032 C 
BRANCH  14  15
HETATM   15  C   UNL     1     -18.516  -9.771  -3.970  1.00  0.00     0.002 C 
BRANCH  15  16
HETATM   16  C   UNL     1     -17.892 -10.348  -2.708  1.00  0.00     0.000 C 
BRANCH  16  17
HETATM   17  C   UNL     1     -18.836 -11.357  -2.105  1.00  0.00    -0.000 C 
BRANCH  17  18
HETATM   18  C   UNL     1     -18.407 -11.677  -0.691  1.00  0.00    -0.005 C 
HETATM   19  C   UNL     1     -19.623 -12.136   0.082  1.00  0.00     0.005 C 
ENDBRANCH  17  18
ENDBRANCH  16  17
ENDBRANCH  15  16
ENDBRANCH  14  15
ENDBRANCH  13  14
BRANCH  13  20
HETATM   20  O   UNL     1     -21.003  -9.840  -5.830  1.00  0.00    -0.395 OA
HETATM   21  H   UNL     1     -20.364  -9.115  -5.883  1.00  0.00     0.210 HD
ENDBRANCH  13  20
ENDBRANCH  12  13
ENDBRANCH  11  12
ENDBRANCH   9  10
ENDBRANCH   8   9
ENDBRANCH   7   8
ENDBRANCH   6   7
ENDBRANCH   5   6
ENDBRANCH   4   5
ENDBRANCH   3   4
ENDBRANCH   1   3
BRANCH   1  22
HETATM   22  O   UNL     1     -21.925  -5.026  -6.082  1.00  0.00    -0.319 OA
BRANCH  22  23
HETATM   23  C   UNL     1     -21.121  -4.341  -7.124  1.00  0.00     0.212 C 
BRANCH  23  24
HETATM   24  C   UNL     1     -21.481  -4.635  -8.636  1.00  0.00     0.166 C 
BRANCH  24  25
HETATM   25  C   UNL     1     -22.904  -4.152  -9.064  1.00  0.00     0.201 C 
BRANCH  25  26
HETATM   26  O   UNL     1     -22.859  -3.316 -10.264  1.00  0.00    -0.386 OA
BRANCH  26  27
HETATM   27  C   UNL     1     -23.546  -3.942 -11.365  1.00  0.00     0.201 C 
BRANCH  27  28
HETATM   28  C   UNL     1     -22.624  -4.283 -12.554  1.00  0.00     0.165 C 
BRANCH  28  29
HETATM   29  C   UNL     1     -22.995  -3.753 -13.961  1.00  0.00     0.201 C 
BRANCH  29  30
HETATM   30  O   UNL     1     -23.978  -4.373 -14.777  1.00  0.00    -0.386 OA
BRANCH  30  31
HETATM   31  C   UNL     1     -24.240  -5.766 -14.715  1.00  0.00     0.201 C 
BRANCH  31  32
HETATM   32  C   UNL     1     -25.024  -6.474 -15.834  1.00  0.00     0.165 C 
BRANCH  32  33
HETATM   33  C   UNL     1     -24.296  -7.315 -16.893  1.00  0.00     0.198 C 
BRANCH  33  34
HETATM   34  O   UNL     1     -24.031  -8.655 -16.488  1.00  0.00    -0.398 OA
HETATM   35  H   UNL     1     -23.583  -9.091 -17.237  1.00  0.00     0.209 HD
ENDBRANCH  33  34
ENDBRANCH  32  33
BRANCH  32  36
HETATM   36  O   UNL     1     -25.957  -7.362 -15.183  1.00  0.00    -0.391 OA
HETATM   37  H   UNL     1     -26.479  -6.814 -14.572  1.00  0.00     0.210 HD
ENDBRANCH  32  36
ENDBRANCH  31  32
ENDBRANCH  30  31
ENDBRANCH  29  30
ENDBRANCH  28  29
BRANCH  28  38
HETATM   38  O   UNL     1     -21.306  -3.775 -12.236  1.00  0.00    -0.391 OA
HETATM   39  H   UNL     1     -20.677  -4.493 -12.424  1.00  0.00     0.210 HD
ENDBRANCH  28  38
ENDBRANCH  27  28
ENDBRANCH  26  27
ENDBRANCH  25  26
ENDBRANCH  24  25
BRANCH  24  40
HETATM   40  O   UNL     1     -20.515  -4.046  -9.510  1.00  0.00    -0.391 OA
HETATM   41  H   UNL     1     -20.094  -3.301  -9.047  1.00  0.00     0.210 HD
ENDBRANCH  24  40
ENDBRANCH  23  24
ENDBRANCH  22  23
ENDBRANCH   1  22
TORSDOF 32
BEGIN_RES ARG D 557
REMARK  4 active torsions:
REMARK  status: ('A' for Active; 'I' for Inactive)
REMARK    1  A    between atoms: CA   and  CB  
REMARK    2  A    between atoms: CB   and  CG  
REMARK    3  A    between atoms: CG   and  CD  
REMARK    4  A    between atoms: CD   and  NE  
REMARK       I    between atoms: NE   and  CZ  
REMARK       I    between atoms: CZ   and  NH1 
REMARK       I    between atoms: CZ   and  NH2 
ROOT
ATOM      1  CA  ARG D 557     -26.217   2.705 -17.014  1.00 35.49     0.159 C 
ENDROOT
BRANCH   1   2
ATOM      2  CB  ARG D 557     -26.789   1.319 -17.183  1.00 35.49     0.034 C 
BRANCH   2   3
ATOM      3  CG  ARG D 557     -28.222   1.158 -16.910  1.00 35.49     0.027 C 
BRANCH   3   4
ATOM      4  CD  ARG D 557     -28.620  -0.264 -16.800  1.00 35.49     0.116 C 
BRANCH   4   5
ATOM      5  NE  ARG D 557     -27.632  -1.052 -16.110  1.00 35.49    -0.212 N 
ATOM      6  CZ  ARG D 557     -27.501  -2.357 -16.185  1.00 35.49     0.666 C 
ATOM      7  NH1 ARG D 557     -28.302  -3.109 -16.918  1.00 35.49    -0.235 N 
ATOM      8  NH2 ARG D 557     -26.534  -2.903 -15.507  1.00 35.49    -0.235 N 
ATOM      9  HH  ARG D 557     -28.943  -2.771 -17.374  1.00 35.49     0.174 HD
ATOM     10  HH  ARG D 557     -28.167  -3.955 -16.930  1.00 35.49     0.174 HD
ATOM     11  HH  ARG D 557     -26.028  -2.392 -15.049  1.00 35.49     0.174 HD
ATOM     12  HH  ARG D 557     -26.416  -3.743 -15.533  1.00 35.49     0.174 HD
ATOM     13  HE  ARG D 557     -27.120  -0.656 -15.559  1.00 35.49     0.178 HD
ENDBRANCH   4   5
ENDBRANCH   3   4
ENDBRANCH   2   3
ENDBRANCH   1   2
END_RES ARG D 557
BEGIN_RES GLU D 570
REMARK  3 active torsions:
REMARK  status: ('A' for Active; 'I' for Inactive)
REMARK    5  A    between atoms: CA   and  CB  
REMARK    6  A    between atoms: CB   and  CG  
REMARK    7  A    between atoms: CG   and  CD  
ROOT
ATOM     14  CA  GLU D 570     -18.033  -6.348 -13.375  1.00 32.92     0.160 C 
ENDROOT
BRANCH  14  15
ATOM     15  CB  GLU D 570     -19.500  -6.345 -13.794  1.00 32.92     0.043 C 
BRANCH  15  16
ATOM     16  CG  GLU D 570     -20.087  -7.634 -14.242  1.00 32.92     0.100 C 
BRANCH  16  17
ATOM     17  CD  GLU D 570     -20.771  -7.535 -15.586  1.00 32.92     0.185 C 
ATOM     18  OE1 GLU D 570     -21.067  -8.582 -16.193  1.00 32.92    -0.647 OA
ATOM     19  OE2 GLU D 570     -20.997  -6.398 -16.044  1.00 32.92    -0.647 OA
ENDBRANCH  16  17
ENDBRANCH  15  16
ENDBRANCH  14  15
END_RES GLU D 570
ENDMDL
MODEL 9
REMARK VINA RESULT:      -7.2      2.111      4.500
REMARK  32 active torsions:
REMARK  status: ('A' for Active; 'I' for Inactive)
REMARK    1  A    between atoms: C_2  and  C_3 
REMARK    2  A    between atoms: C_3  and  C_4 
REMARK    3  A    between atoms: C_4  and  C_5 
REMARK    4  A    between atoms: C_5  and  C_6 
REMARK    5  A    between atoms: C_6  and  C_7 
REMARK    6  A    between atoms: C_7  and  C_8 
REMARK    7  A    between atoms: C_7  and  O_36 
REMARK    8  A    between atoms: C_8  and  C_9 
REMARK    9  A    between atoms: C_10  and  C_11 
REMARK   10  A    between atoms: C_11  and  C_12 
REMARK   11  A    between atoms: C_12  and  C_13 
REMARK   12  A    between atoms: C_13  and  C_14 
REMARK   13  A    between atoms: C_14  and  C_15 
REMARK   14  A    between atoms: C_15  and  C_16 
REMARK   15  A    between atoms: C_16  and  C_17 
REMARK   16  A    between atoms: C_17  and  C_18 
REMARK   17  A    between atoms: C_18  and  O_20 
REMARK   18  A    between atoms: O_20  and  C_21 
REMARK   19  A    between atoms: C_21  and  C_22 
REMARK   20  A    between atoms: C_22  and  C_23 
REMARK   21  A    between atoms: C_22  and  O_35 
REMARK   22  A    between atoms: C_23  and  O_24 
REMARK   23  A    between atoms: O_24  and  C_25 
REMARK   24  A    between atoms: C_25  and  C_26 
REMARK   25  A    between atoms: C_26  and  C_27 
REMARK   26  A    between atoms: C_26  and  O_34 
REMARK   27  A    between atoms: C_27  and  O_28 
REMARK   28  A    between atoms: O_28  and  C_29 
REMARK   29  A    between atoms: C_29  and  C_30 
REMARK   30  A    between atoms: C_30  and  C_31 
REMARK   31  A    between atoms: C_30  and  O_33 
REMARK   32  A    between atoms: C_31  and  O_32 
ROOT
HETATM    1  C   UNL     1     -21.620  -5.413  -6.590  1.00  0.00     0.258 C 
HETATM    2  O   UNL     1     -22.707  -5.271  -6.047  1.00  0.00    -0.265 OA
ENDROOT
BRANCH   1   3
HETATM    3  C   UNL     1     -20.595  -6.416  -5.962  1.00  0.00     0.111 C 
BRANCH   3   4
HETATM    4  C   UNL     1     -20.678  -7.859  -5.425  1.00  0.00     0.010 C 
BRANCH   4   5
HETATM    5  C   UNL     1     -20.191  -8.219  -4.015  1.00  0.00     0.000 C 
BRANCH   5   6
HETATM    6  C   UNL     1     -18.933  -9.075  -3.978  1.00  0.00     0.000 C 
BRANCH   6   7
HETATM    7  C   UNL     1     -18.769  -9.822  -2.650  1.00  0.00     0.000 C 
BRANCH   7   8
HETATM    8  C   UNL     1     -18.399 -11.304  -2.828  1.00  0.00     0.004 C 
BRANCH   8   9
HETATM    9  C   UNL     1     -19.550 -12.195  -3.316  1.00  0.00     0.027 C 
BRANCH   9  10
HETATM   10  C   UNL     1     -20.837 -11.683  -2.752  1.00  0.00    -0.031 C 
HETATM   11  C   UNL     1     -21.989 -11.412  -3.368  1.00  0.00    -0.028 C 
BRANCH  11  12
HETATM   12  C   UNL     1     -23.213 -10.863  -2.666  1.00  0.00     0.058 C 
BRANCH  12  13
HETATM   13  C   UNL     1     -23.870 -11.538  -1.388  1.00  0.00     0.121 C 
BRANCH  13  14
HETATM   14  C   UNL     1     -23.295 -11.066  -0.063  1.00  0.00     0.032 C 
BRANCH  14  15
HETATM   15  C   UNL     1     -23.148  -9.571  -0.015  1.00  0.00     0.002 C 
BRANCH  15  16
HETATM   16  C   UNL     1     -21.703  -9.216   0.298  1.00  0.00     0.000 C 
BRANCH  16  17
HETATM   17  C   UNL     1     -21.282  -8.050  -0.559  1.00  0.00    -0.000 C 
BRANCH  17  18
HETATM   18  C   UNL     1     -22.434  -7.082  -0.706  1.00  0.00    -0.005 C 
HETATM   19  C   UNL     1     -22.196  -6.244  -1.943  1.00  0.00     0.005 C 
ENDBRANCH  17  18
ENDBRANCH  16  17
ENDBRANCH  15  16
ENDBRANCH  14  15
ENDBRANCH  13  14
BRANCH  13  20
HETATM   20  O   UNL     1     -23.855 -12.949  -1.236  1.00  0.00    -0.395 OA
HETATM   21  H   UNL     1     -23.041 -13.229  -0.792  1.00  0.00     0.210 HD
ENDBRANCH  13  20
ENDBRANCH  12  13
ENDBRANCH  11  12
ENDBRANCH   9  10
ENDBRANCH   8   9
ENDBRANCH   7   8
ENDBRANCH   6   7
ENDBRANCH   5   6
ENDBRANCH   4   5
ENDBRANCH   3   4
ENDBRANCH   1   3
BRANCH   1  22
HETATM   22  O   UNL     1     -21.247  -4.614  -7.619  1.00  0.00    -0.319 OA
BRANCH  22  23
HETATM   23  C   UNL     1     -21.927  -4.688  -8.936  1.00  0.00     0.212 C 
BRANCH  23  24
HETATM   24  C   UNL     1     -23.103  -3.666  -9.209  1.00  0.00     0.166 C 
BRANCH  24  25
HETATM   25  C   UNL     1     -23.661  -3.703 -10.669  1.00  0.00     0.201 C 
BRANCH  25  26
HETATM   26  O   UNL     1     -22.946  -2.780 -11.550  1.00  0.00    -0.386 OA
BRANCH  26  27
HETATM   27  C   UNL     1     -23.665  -2.569 -12.781  1.00  0.00     0.201 C 
BRANCH  27  28
HETATM   28  C   UNL     1     -22.858  -2.946 -14.040  1.00  0.00     0.165 C 
BRANCH  28  29
HETATM   29  C   UNL     1     -22.724  -4.442 -14.419  1.00  0.00     0.201 C 
BRANCH  29  30
HETATM   30  O   UNL     1     -23.628  -5.433 -13.954  1.00  0.00    -0.386 OA
BRANCH  30  31
HETATM   31  C   UNL     1     -23.879  -6.624 -14.681  1.00  0.00     0.201 C 
BRANCH  31  32
HETATM   32  C   UNL     1     -24.904  -6.650 -15.829  1.00  0.00     0.165 C 
BRANCH  32  33
HETATM   33  C   UNL     1     -24.500  -7.125 -17.233  1.00  0.00     0.198 C 
BRANCH  33  34
HETATM   34  O   UNL     1     -23.194  -6.715 -17.630  1.00  0.00    -0.398 OA
HETATM   35  H   UNL     1     -22.819  -7.446 -18.156  1.00  0.00     0.209 HD
ENDBRANCH  33  34
ENDBRANCH  32  33
BRANCH  32  36
HETATM   36  O   UNL     1     -25.979  -7.513 -15.402  1.00  0.00    -0.391 OA
HETATM   37  H   UNL     1     -25.723  -7.863 -14.532  1.00  0.00     0.210 HD
ENDBRANCH  32  36
ENDBRANCH  31  32
ENDBRANCH  30  31
ENDBRANCH  29  30
ENDBRANCH  28  29
BRANCH  28  38
HETATM   38  O   UNL     1     -23.472  -2.271 -15.164  1.00  0.00    -0.391 OA
HETATM   39  H   UNL     1     -24.274  -1.836 -14.826  1.00  0.00     0.210 HD
ENDBRANCH  28  38
ENDBRANCH  27  28
ENDBRANCH  26  27
ENDBRANCH  25  26
ENDBRANCH  24  25
BRANCH  24  40
HETATM   40  O   UNL     1     -24.184  -3.884  -8.300  1.00  0.00    -0.391 OA
HETATM   41  H   UNL     1     -24.683  -4.666  -8.595  1.00  0.00     0.210 HD
ENDBRANCH  24  40
ENDBRANCH  23  24
ENDBRANCH  22  23
ENDBRANCH   1  22
TORSDOF 32
BEGIN_RES ARG D 557
REMARK  4 active torsions:
REMARK  status: ('A' for Active; 'I' for Inactive)
REMARK    1  A    between atoms: CA   and  CB  
REMARK    2  A    between atoms: CB   and  CG  
REMARK    3  A    between atoms: CG   and  CD  
REMARK    4  A    between atoms: CD   and  NE  
REMARK       I    between atoms: NE   and  CZ  
REMARK       I    between atoms: CZ   and  NH1 
REMARK       I    between atoms: CZ   and  NH2 
ROOT
ATOM      1  CA  ARG D 557     -26.217   2.705 -17.014  1.00 35.49     0.159 C 
ENDROOT
BRANCH   1   2
ATOM      2  CB  ARG D 557     -26.789   1.319 -17.183  1.00 35.49     0.034 C 
BRANCH   2   3
ATOM      3  CG  ARG D 557     -28.240   1.223 -17.384  1.00 35.49     0.027 C 
BRANCH   3   4
ATOM      4  CD  ARG D 557     -28.876   0.260 -16.455  1.00 35.49     0.116 C 
BRANCH   4   5
ATOM      5  NE  ARG D 557     -29.253  -0.961 -17.116  1.00 35.49    -0.212 N 
ATOM      6  CZ  ARG D 557     -28.622  -2.110 -17.025  1.00 35.49     0.666 C 
ATOM      7  NH1 ARG D 557     -27.528  -2.263 -16.302  1.00 35.49    -0.235 N 
ATOM      8  NH2 ARG D 557     -29.119  -3.121 -17.677  1.00 35.49    -0.235 N 
ATOM      9  HH  ARG D 557     -27.185  -1.612 -15.864  1.00 35.49     0.174 HD
ATOM     10  HH  ARG D 557     -27.161  -3.037 -16.279  1.00 35.49     0.174 HD
ATOM     11  HH  ARG D 557     -29.831  -2.995 -18.129  1.00 35.49     0.174 HD
ATOM     12  HH  ARG D 557     -28.742  -3.880 -17.639  1.00 35.49     0.174 HD
ATOM     13  HE  ARG D 557     -29.906  -0.936 -17.660  1.00 35.49     0.178 HD
ENDBRANCH   4   5
ENDBRANCH   3   4
ENDBRANCH   2   3
ENDBRANCH   1   2
END_RES ARG D 557
BEGIN_RES GLU D 570
REMARK  3 active torsions:
REMARK  status: ('A' for Active; 'I' for Inactive)
REMARK    5  A    between atoms: CA   and  CB  
REMARK    6  A    between atoms: CB   and  CG  
REMARK    7  A    between atoms: CG   and  CD  
ROOT
ATOM     14  CA  GLU D 570     -18.033  -6.348 -13.375  1.00 32.92     0.160 C 
ENDROOT
BRANCH  14  15
ATOM     15  CB  GLU D 570     -19.500  -6.345 -13.794  1.00 32.92     0.043 C 
BRANCH  15  16
ATOM     16  CG  GLU D 570     -20.080  -7.629 -14.264  1.00 32.92     0.100 C 
BRANCH  16  17
ATOM     17  CD  GLU D 570     -20.658  -7.540 -15.657  1.00 32.92     0.185 C 
ATOM     18  OE1 GLU D 570     -21.257  -8.526 -16.129  1.00 32.92    -0.647 OA
ATOM     19  OE2 GLU D 570     -20.495  -6.479 -16.291  1.00 32.92    -0.647 OA
ENDBRANCH  16  17
ENDBRANCH  15  16
ENDBRANCH  14  15
END_RES GLU D 570
ENDMDL
