MODEL 1
REMARK VINA RESULT:      -6.1      0.000      0.000
REMARK  3 active torsions:
REMARK  status: ('A' for Active; 'I' for Inactive)
REMARK    1  A    between atoms: C_2  and  C_9 
REMARK    2  A    between atoms: C_5  and  O_8 
REMARK    3  A    between atoms: C_9  and  O_10 
ROOT
HETATM    1  C   UNL     1     -24.663  -3.009 -12.450  1.00  0.00     0.092 A 
HETATM    2  C   UNL     1     -23.920  -3.425 -11.412  1.00  0.00     0.080 A 
HETATM    3  O   UNL     1     -22.639  -3.941 -11.565  1.00  0.00    -0.322 OA
HETATM    4  C   UNL     1     -22.118  -4.035 -12.837  1.00  0.00     0.182 A 
HETATM    5  C   UNL     1     -22.745  -3.663 -13.958  1.00  0.00     0.138 A 
HETATM    6  C   UNL     1     -24.118  -3.092 -13.822  1.00  0.00     0.209 A 
HETATM    7  O   UNL     1     -24.788  -2.715 -14.778  1.00  0.00    -0.285 OA
ENDROOT
BRANCH   2   8
HETATM    8  C   UNL     1     -24.415  -3.394  -9.998  1.00  0.00     0.229 C 
BRANCH   8   9
HETATM    9  O   UNL     1     -25.834  -3.313  -9.979  1.00  0.00    -0.394 OA
HETATM   10  H   UNL     1     -26.114  -3.116 -10.890  1.00  0.00     0.209 HD
ENDBRANCH   8   9
ENDBRANCH   2   8
BRANCH   5  11
HETATM   11  O   UNL     1     -22.188  -3.785 -15.215  1.00  0.00    -0.355 OA
HETATM   12  H   UNL     1     -22.840  -4.183 -15.815  1.00  0.00     0.218 HD
ENDBRANCH   5  11
TORSDOF 3
BEGIN_RES ARG D 557
REMARK  4 active torsions:
REMARK  status: ('A' for Active; 'I' for Inactive)
REMARK    1  A    between atoms: CA   and  CB  
REMARK    2  A    between atoms: CB   and  CG  
REMARK    3  A    between atoms: CG   and  CD  
REMARK    4  A    between atoms: CD   and  NE  
REMARK       I    between atoms: NE   and  CZ  
REMARK       I    between atoms: CZ   and  NH1 
REMARK       I    between atoms: CZ   and  NH2 
ROOT
ATOM      1  CA  ARG D 557     -26.217   2.705 -17.014  1.00 35.49     0.159 C 
ENDROOT
BRANCH   1   2
ATOM      2  CB  ARG D 557     -26.789   1.319 -17.183  1.00 35.49     0.034 C 
BRANCH   2   3
ATOM      3  CG  ARG D 557     -28.232   1.226 -17.436  1.00 35.49     0.027 C 
BRANCH   3   4
ATOM      4  CD  ARG D 557     -28.910   0.298 -16.502  1.00 35.49     0.116 C 
BRANCH   4   5
ATOM      5  NE  ARG D 557     -29.255  -0.949 -17.133  1.00 35.49    -0.212 N 
ATOM      6  CZ  ARG D 557     -28.597  -2.080 -17.009  1.00 35.49     0.666 C 
ATOM      7  NH1 ARG D 557     -27.503  -2.188 -16.277  1.00 35.49    -0.235 N 
ATOM      8  NH2 ARG D 557     -29.066  -3.119 -17.637  1.00 35.49    -0.235 N 
ATOM      9  HH  ARG D 557     -27.178  -1.518 -15.854  1.00 35.49     0.174 HD
ATOM     10  HH  ARG D 557     -27.117  -2.952 -16.232  1.00 35.49     0.174 HD
ATOM     11  HH  ARG D 557     -29.778  -3.022 -18.095  1.00 35.49     0.174 HD
ATOM     12  HH  ARG D 557     -28.671  -3.867 -17.578  1.00 35.49     0.174 HD
ATOM     13  HE  ARG D 557     -29.905  -0.954 -17.680  1.00 35.49     0.178 HD
ENDBRANCH   4   5
ENDBRANCH   3   4
ENDBRANCH   2   3
ENDBRANCH   1   2
END_RES ARG D 557
BEGIN_RES GLU D 570
REMARK  3 active torsions:
REMARK  status: ('A' for Active; 'I' for Inactive)
REMARK    5  A    between atoms: CA   and  CB  
REMARK    6  A    between atoms: CB   and  CG  
REMARK    7  A    between atoms: CG   and  CD  
ROOT
ATOM     14  CA  GLU D 570     -18.033  -6.348 -13.375  1.00 32.92     0.160 C 
ENDROOT
BRANCH  14  15
ATOM     15  CB  GLU D 570     -19.500  -6.345 -13.794  1.00 32.92     0.043 C 
BRANCH  15  16
ATOM     16  CG  GLU D 570     -19.796  -6.391 -15.249  1.00 32.92     0.100 C 
BRANCH  16  17
ATOM     17  CD  GLU D 570     -20.975  -7.276 -15.583  1.00 32.92     0.185 C 
ATOM     18  OE1 GLU D 570     -20.783  -8.492 -15.776  1.00 32.92    -0.647 OA
ATOM     19  OE2 GLU D 570     -22.099  -6.744 -15.670  1.00 32.92    -0.647 OA
ENDBRANCH  16  17
ENDBRANCH  15  16
ENDBRANCH  14  15
END_RES GLU D 570
ENDMDL
MODEL 2
REMARK VINA RESULT:      -6.0      2.196      2.976
REMARK  3 active torsions:
REMARK  status: ('A' for Active; 'I' for Inactive)
REMARK    1  A    between atoms: C_2  and  C_9 
REMARK    2  A    between atoms: C_5  and  O_8 
REMARK    3  A    between atoms: C_9  and  O_10 
ROOT
HETATM    1  C   UNL     1     -24.031  -3.747  -9.379  1.00  0.00     0.092 A 
HETATM    2  C   UNL     1     -22.827  -3.932  -8.815  1.00  0.00     0.080 A 
HETATM    3  O   UNL     1     -21.637  -3.738  -9.505  1.00  0.00    -0.322 OA
HETATM    4  C   UNL     1     -21.701  -3.348 -10.824  1.00  0.00     0.182 A 
HETATM    5  C   UNL     1     -22.827  -3.131 -11.512  1.00  0.00     0.138 A 
HETATM    6  C   UNL     1     -24.121  -3.319 -10.791  1.00  0.00     0.209 A 
HETATM    7  O   UNL     1     -25.216  -3.146 -11.317  1.00  0.00    -0.285 OA
ENDROOT
BRANCH   2   8
HETATM    8  C   UNL     1     -22.658  -4.389  -7.397  1.00  0.00     0.229 C 
BRANCH   8   9
HETATM    9  O   UNL     1     -23.919  -4.421  -6.742  1.00  0.00    -0.394 OA
HETATM   10  H   UNL     1     -24.059  -3.537  -6.363  1.00  0.00     0.209 HD
ENDBRANCH   8   9
ENDBRANCH   2   8
BRANCH   5  11
HETATM   11  O   UNL     1     -22.845  -2.750 -12.839  1.00  0.00    -0.355 OA
HETATM   12  H   UNL     1     -23.767  -2.665 -13.133  1.00  0.00     0.218 HD
ENDBRANCH   5  11
TORSDOF 3
BEGIN_RES ARG D 557
REMARK  4 active torsions:
REMARK  status: ('A' for Active; 'I' for Inactive)
REMARK    1  A    between atoms: CA   and  CB  
REMARK    2  A    between atoms: CB   and  CG  
REMARK    3  A    between atoms: CG   and  CD  
REMARK    4  A    between atoms: CD   and  NE  
REMARK       I    between atoms: NE   and  CZ  
REMARK       I    between atoms: CZ   and  NH1 
REMARK       I    between atoms: CZ   and  NH2 
ROOT
ATOM      1  CA  ARG D 557     -26.217   2.705 -17.014  1.00 35.49     0.159 C 
ENDROOT
BRANCH   1   2
ATOM      2  CB  ARG D 557     -26.789   1.319 -17.183  1.00 35.49     0.034 C 
BRANCH   2   3
ATOM      3  CG  ARG D 557     -25.972   0.203 -16.691  1.00 35.49     0.027 C 
BRANCH   3   4
ATOM      4  CD  ARG D 557     -26.791  -0.867 -16.076  1.00 35.49     0.116 C 
BRANCH   4   5
ATOM      5  NE  ARG D 557     -26.025  -1.684 -15.171  1.00 35.49    -0.212 N 
ATOM      6  CZ  ARG D 557     -26.125  -2.988 -15.042  1.00 35.49     0.666 C 
ATOM      7  NH1 ARG D 557     -26.980  -3.707 -15.746  1.00 35.49    -0.235 N 
ATOM      8  NH2 ARG D 557     -25.335  -3.568 -14.186  1.00 35.49    -0.235 N 
ATOM      9  HH  ARG D 557     -27.508  -3.346 -16.316  1.00 35.49     0.174 HD
ATOM     10  HH  ARG D 557     -26.998  -4.554 -15.620  1.00 35.49     0.174 HD
ATOM     11  HH  ARG D 557     -24.788  -3.079 -13.751  1.00 35.49     0.174 HD
ATOM     12  HH  ARG D 557     -25.368  -4.408 -14.077  1.00 35.49     0.174 HD
ATOM     13  HE  ARG D 557     -25.501  -1.293 -14.628  1.00 35.49     0.178 HD
ENDBRANCH   4   5
ENDBRANCH   3   4
ENDBRANCH   2   3
ENDBRANCH   1   2
END_RES ARG D 557
BEGIN_RES GLU D 570
REMARK  3 active torsions:
REMARK  status: ('A' for Active; 'I' for Inactive)
REMARK    5  A    between atoms: CA   and  CB  
REMARK    6  A    between atoms: CB   and  CG  
REMARK    7  A    between atoms: CG   and  CD  
ROOT
ATOM     14  CA  GLU D 570     -18.033  -6.348 -13.375  1.00 32.92     0.160 C 
ENDROOT
BRANCH  14  15
ATOM     15  CB  GLU D 570     -19.500  -6.345 -13.794  1.00 32.92     0.043 C 
BRANCH  15  16
ATOM     16  CG  GLU D 570     -19.799  -6.159 -15.237  1.00 32.92     0.100 C 
BRANCH  16  17
ATOM     17  CD  GLU D 570     -21.088  -5.409 -15.480  1.00 32.92     0.185 C 
ATOM     18  OE1 GLU D 570     -21.482  -5.246 -16.651  1.00 32.92    -0.647 OA
ATOM     19  OE2 GLU D 570     -21.702  -4.966 -14.490  1.00 32.92    -0.647 OA
ENDBRANCH  16  17
ENDBRANCH  15  16
ENDBRANCH  14  15
END_RES GLU D 570
ENDMDL
MODEL 3
REMARK VINA RESULT:      -6.0      1.464      3.481
REMARK  3 active torsions:
REMARK  status: ('A' for Active; 'I' for Inactive)
REMARK    1  A    between atoms: C_2  and  C_9 
REMARK    2  A    between atoms: C_5  and  O_8 
REMARK    3  A    between atoms: C_9  and  O_10 
ROOT
HETATM    1  C   UNL     1     -22.499  -3.322 -11.251  1.00  0.00     0.092 A 
HETATM    2  C   UNL     1     -23.670  -3.044 -11.847  1.00  0.00     0.080 A 
HETATM    3  O   UNL     1     -24.885  -3.100 -11.177  1.00  0.00    -0.322 OA
HETATM    4  C   UNL     1     -24.885  -3.465  -9.849  1.00  0.00     0.182 A 
HETATM    5  C   UNL     1     -23.798  -3.772  -9.132  1.00  0.00     0.138 A 
HETATM    6  C   UNL     1     -22.476  -3.706  -9.824  1.00  0.00     0.209 A 
HETATM    7  O   UNL     1     -21.412  -3.963  -9.269  1.00  0.00    -0.285 OA
ENDROOT
BRANCH   2   8
HETATM    8  C   UNL     1     -23.773  -2.672 -13.296  1.00  0.00     0.229 C 
BRANCH   8   9
HETATM    9  O   UNL     1     -23.939  -3.840 -14.089  1.00  0.00    -0.394 OA
HETATM   10  H   UNL     1     -24.895  -3.942 -14.238  1.00  0.00     0.209 HD
ENDBRANCH   8   9
ENDBRANCH   2   8
BRANCH   5  11
HETATM   11  O   UNL     1     -23.844  -4.143  -7.803  1.00  0.00    -0.355 OA
HETATM   12  H   UNL     1     -24.770  -4.158  -7.510  1.00  0.00     0.218 HD
ENDBRANCH   5  11
TORSDOF 3
BEGIN_RES ARG D 557
REMARK  4 active torsions:
REMARK  status: ('A' for Active; 'I' for Inactive)
REMARK    1  A    between atoms: CA   and  CB  
REMARK    2  A    between atoms: CB   and  CG  
REMARK    3  A    between atoms: CG   and  CD  
REMARK    4  A    between atoms: CD   and  NE  
REMARK       I    between atoms: NE   and  CZ  
REMARK       I    between atoms: CZ   and  NH1 
REMARK       I    between atoms: CZ   and  NH2 
ROOT
ATOM      1  CA  ARG D 557     -26.217   2.705 -17.014  1.00 35.49     0.159 C 
ENDROOT
BRANCH   1   2
ATOM      2  CB  ARG D 557     -26.789   1.319 -17.183  1.00 35.49     0.034 C 
BRANCH   2   3
ATOM      3  CG  ARG D 557     -28.230   1.166 -16.948  1.00 35.49     0.027 C 
BRANCH   3   4
ATOM      4  CD  ARG D 557     -28.632  -0.253 -16.816  1.00 35.49     0.116 C 
BRANCH   4   5
ATOM      5  NE  ARG D 557     -27.651  -1.031 -16.106  1.00 35.49    -0.212 N 
ATOM      6  CZ  ARG D 557     -27.512  -2.336 -16.172  1.00 35.49     0.666 C 
ATOM      7  NH1 ARG D 557     -28.296  -3.097 -16.914  1.00 35.49    -0.235 N 
ATOM      8  NH2 ARG D 557     -26.553  -2.874 -15.475  1.00 35.49    -0.235 N 
ATOM      9  HH  ARG D 557     -28.932  -2.764 -17.382  1.00 35.49     0.174 HD
ATOM     10  HH  ARG D 557     -28.155  -3.942 -16.920  1.00 35.49     0.174 HD
ATOM     11  HH  ARG D 557     -26.057  -2.357 -15.011  1.00 35.49     0.174 HD
ATOM     12  HH  ARG D 557     -26.429  -3.712 -15.496  1.00 35.49     0.174 HD
ATOM     13  HE  ARG D 557     -27.151  -0.630 -15.548  1.00 35.49     0.178 HD
ENDBRANCH   4   5
ENDBRANCH   3   4
ENDBRANCH   2   3
ENDBRANCH   1   2
END_RES ARG D 557
BEGIN_RES GLU D 570
REMARK  3 active torsions:
REMARK  status: ('A' for Active; 'I' for Inactive)
REMARK    5  A    between atoms: CA   and  CB  
REMARK    6  A    between atoms: CB   and  CG  
REMARK    7  A    between atoms: CG   and  CD  
ROOT
ATOM     14  CA  GLU D 570     -18.033  -6.348 -13.375  1.00 32.92     0.160 C 
ENDROOT
BRANCH  14  15
ATOM     15  CB  GLU D 570     -19.500  -6.345 -13.794  1.00 32.92     0.043 C 
BRANCH  15  16
ATOM     16  CG  GLU D 570     -19.826  -5.811 -15.142  1.00 32.92     0.100 C 
BRANCH  16  17
ATOM     17  CD  GLU D 570     -21.299  -5.529 -15.324  1.00 32.92     0.185 C 
ATOM     18  OE1 GLU D 570     -22.129  -6.237 -14.722  1.00 32.92    -0.647 OA
ATOM     19  OE2 GLU D 570     -21.627  -4.602 -16.089  1.00 32.92    -0.647 OA
ENDBRANCH  16  17
ENDBRANCH  15  16
ENDBRANCH  14  15
END_RES GLU D 570
ENDMDL
MODEL 4
REMARK VINA RESULT:      -5.7      0.999      2.868
REMARK  3 active torsions:
REMARK  status: ('A' for Active; 'I' for Inactive)
REMARK    1  A    between atoms: C_2  and  C_9 
REMARK    2  A    between atoms: C_5  and  O_8 
REMARK    3  A    between atoms: C_9  and  O_10 
ROOT
HETATM    1  C   UNL     1     -24.416  -2.970 -12.351  1.00  0.00     0.092 A 
HETATM    2  C   UNL     1     -23.289  -2.919 -13.079  1.00  0.00     0.080 A 
HETATM    3  O   UNL     1     -22.033  -3.154 -12.536  1.00  0.00    -0.322 OA
HETATM    4  C   UNL     1     -21.944  -3.443 -11.192  1.00  0.00     0.182 A 
HETATM    5  C   UNL     1     -22.979  -3.523 -10.349  1.00  0.00     0.138 A 
HETATM    6  C   UNL     1     -24.343  -3.288 -10.910  1.00  0.00     0.209 A 
HETATM    7  O   UNL     1     -25.366  -3.338 -10.234  1.00  0.00    -0.285 OA
ENDROOT
BRANCH   2   8
HETATM    8  C   UNL     1     -23.284  -2.578 -14.539  1.00  0.00     0.229 C 
BRANCH   8   9
HETATM    9  O   UNL     1     -22.229  -3.267 -15.197  1.00  0.00    -0.394 OA
HETATM   10  H   UNL     1     -22.145  -2.869 -16.081  1.00  0.00     0.209 HD
ENDBRANCH   8   9
ENDBRANCH   2   8
BRANCH   5  11
HETATM   11  O   UNL     1     -22.843  -3.806  -9.005  1.00  0.00    -0.355 OA
HETATM   12  H   UNL     1     -21.946  -4.139  -8.839  1.00  0.00     0.218 HD
ENDBRANCH   5  11
TORSDOF 3
BEGIN_RES ARG D 557
REMARK  4 active torsions:
REMARK  status: ('A' for Active; 'I' for Inactive)
REMARK    1  A    between atoms: CA   and  CB  
REMARK    2  A    between atoms: CB   and  CG  
REMARK    3  A    between atoms: CG   and  CD  
REMARK    4  A    between atoms: CD   and  NE  
REMARK       I    between atoms: NE   and  CZ  
REMARK       I    between atoms: CZ   and  NH1 
REMARK       I    between atoms: CZ   and  NH2 
ROOT
ATOM      1  CA  ARG D 557     -26.217   2.705 -17.014  1.00 35.49     0.159 C 
ENDROOT
BRANCH   1   2
ATOM      2  CB  ARG D 557     -26.789   1.319 -17.183  1.00 35.49     0.034 C 
BRANCH   2   3
ATOM      3  CG  ARG D 557     -28.231   1.226 -17.443  1.00 35.49     0.027 C 
BRANCH   3   4
ATOM      4  CD  ARG D 557     -28.915   0.305 -16.507  1.00 35.49     0.116 C 
BRANCH   4   5
ATOM      5  NE  ARG D 557     -29.290  -0.931 -17.140  1.00 35.49    -0.212 N 
ATOM      6  CZ  ARG D 557     -28.652  -2.075 -17.030  1.00 35.49     0.666 C 
ATOM      7  NH1 ARG D 557     -27.553  -2.208 -16.311  1.00 35.49    -0.235 N 
ATOM      8  NH2 ARG D 557     -29.148  -3.102 -17.658  1.00 35.49    -0.235 N 
ATOM      9  HH  ARG D 557     -27.210  -1.546 -15.888  1.00 35.49     0.174 HD
ATOM     10  HH  ARG D 557     -27.181  -2.979 -16.274  1.00 35.49     0.174 HD
ATOM     11  HH  ARG D 557     -29.863  -2.988 -18.108  1.00 35.49     0.174 HD
ATOM     12  HH  ARG D 557     -28.766  -3.857 -17.607  1.00 35.49     0.174 HD
ATOM     13  HE  ARG D 557     -29.946  -0.920 -17.681  1.00 35.49     0.178 HD
ENDBRANCH   4   5
ENDBRANCH   3   4
ENDBRANCH   2   3
ENDBRANCH   1   2
END_RES ARG D 557
BEGIN_RES GLU D 570
REMARK  3 active torsions:
REMARK  status: ('A' for Active; 'I' for Inactive)
REMARK    5  A    between atoms: CA   and  CB  
REMARK    6  A    between atoms: CB   and  CG  
REMARK    7  A    between atoms: CG   and  CD  
ROOT
ATOM     14  CA  GLU D 570     -18.033  -6.348 -13.375  1.00 32.92     0.160 C 
ENDROOT
BRANCH  14  15
ATOM     15  CB  GLU D 570     -19.500  -6.345 -13.794  1.00 32.92     0.043 C 
BRANCH  15  16
ATOM     16  CG  GLU D 570     -19.814  -5.928 -15.185  1.00 32.92     0.100 C 
BRANCH  16  17
ATOM     17  CD  GLU D 570     -21.055  -6.593 -15.734  1.00 32.92     0.185 C 
ATOM     18  OE1 GLU D 570     -21.924  -5.890 -16.286  1.00 32.92    -0.647 OA
ATOM     19  OE2 GLU D 570     -21.167  -7.827 -15.595  1.00 32.92    -0.647 OA
ENDBRANCH  16  17
ENDBRANCH  15  16
ENDBRANCH  14  15
END_RES GLU D 570
ENDMDL
MODEL 5
REMARK VINA RESULT:      -5.7      2.892      3.892
REMARK  3 active torsions:
REMARK  status: ('A' for Active; 'I' for Inactive)
REMARK    1  A    between atoms: C_2  and  C_9 
REMARK    2  A    between atoms: C_5  and  O_8 
REMARK    3  A    between atoms: C_9  and  O_10 
ROOT
HETATM    1  C   UNL     1     -22.854  -4.042  -9.125  1.00  0.00     0.092 A 
HETATM    2  C   UNL     1     -21.682  -4.572  -8.740  1.00  0.00     0.080 A 
HETATM    3  O   UNL     1     -20.569  -4.615  -9.569  1.00  0.00    -0.322 OA
HETATM    4  C   UNL     1     -20.679  -4.099 -10.841  1.00  0.00     0.182 A 
HETATM    5  C   UNL     1     -21.782  -3.546 -11.358  1.00  0.00     0.138 A 
HETATM    6  C   UNL     1     -22.990  -3.475 -10.483  1.00  0.00     0.209 A 
HETATM    7  O   UNL     1     -24.056  -2.987 -10.846  1.00  0.00    -0.285 OA
ENDROOT
BRANCH   2   8
HETATM    8  C   UNL     1     -21.477  -5.188  -7.388  1.00  0.00     0.229 C 
BRANCH   8   9
HETATM    9  O   UNL     1     -20.482  -6.200  -7.459  1.00  0.00    -0.394 OA
HETATM   10  H   UNL     1     -19.875  -5.945  -8.174  1.00  0.00     0.209 HD
ENDBRANCH   8   9
ENDBRANCH   2   8
BRANCH   5  11
HETATM   11  O   UNL     1     -21.852  -3.049 -12.644  1.00  0.00    -0.355 OA
HETATM   12  H   UNL     1     -22.781  -3.023 -12.924  1.00  0.00     0.218 HD
ENDBRANCH   5  11
TORSDOF 3
BEGIN_RES ARG D 557
REMARK  4 active torsions:
REMARK  status: ('A' for Active; 'I' for Inactive)
REMARK    1  A    between atoms: CA   and  CB  
REMARK    2  A    between atoms: CB   and  CG  
REMARK    3  A    between atoms: CG   and  CD  
REMARK    4  A    between atoms: CD   and  NE  
REMARK       I    between atoms: NE   and  CZ  
REMARK       I    between atoms: CZ   and  NH1 
REMARK       I    between atoms: CZ   and  NH2 
ROOT
ATOM      1  CA  ARG D 557     -26.217   2.705 -17.014  1.00 35.49     0.159 C 
ENDROOT
BRANCH   1   2
ATOM      2  CB  ARG D 557     -26.789   1.319 -17.183  1.00 35.49     0.034 C 
BRANCH   2   3
ATOM      3  CG  ARG D 557     -25.835   0.204 -17.167  1.00 35.49     0.027 C 
BRANCH   3   4
ATOM      4  CD  ARG D 557     -24.775   0.382 -16.147  1.00 35.49     0.116 C 
BRANCH   4   5
ATOM      5  NE  ARG D 557     -24.959  -0.489 -15.017  1.00 35.49    -0.212 N 
ATOM      6  CZ  ARG D 557     -24.148  -1.457 -14.654  1.00 35.49     0.666 C 
ATOM      7  NH1 ARG D 557     -23.048  -1.750 -15.323  1.00 35.49    -0.235 N 
ATOM      8  NH2 ARG D 557     -24.460  -2.134 -13.587  1.00 35.49    -0.235 N 
ATOM      9  HH  ARG D 557     -22.822  -1.316 -16.027  1.00 35.49     0.174 HD
ATOM     10  HH  ARG D 557     -22.556  -2.391 -15.038  1.00 35.49     0.174 HD
ATOM     11  HH  ARG D 557     -25.173  -1.918 -13.170  1.00 35.49     0.174 HD
ATOM     12  HH  ARG D 557     -23.960  -2.764 -13.320  1.00 35.49     0.174 HD
ATOM     13  HE  ARG D 557     -25.679  -0.418 -14.571  1.00 35.49     0.178 HD
ENDBRANCH   4   5
ENDBRANCH   3   4
ENDBRANCH   2   3
ENDBRANCH   1   2
END_RES ARG D 557
BEGIN_RES GLU D 570
REMARK  3 active torsions:
REMARK  status: ('A' for Active; 'I' for Inactive)
REMARK    5  A    between atoms: CA   and  CB  
REMARK    6  A    between atoms: CB   and  CG  
REMARK    7  A    between atoms: CG   and  CD  
ROOT
ATOM     14  CA  GLU D 570     -18.033  -6.348 -13.375  1.00 32.92     0.160 C 
ENDROOT
BRANCH  14  15
ATOM     15  CB  GLU D 570     -19.500  -6.345 -13.794  1.00 32.92     0.043 C 
BRANCH  15  16
ATOM     16  CG  GLU D 570     -19.810  -5.967 -15.197  1.00 32.92     0.100 C 
BRANCH  16  17
ATOM     17  CD  GLU D 570     -21.198  -5.391 -15.359  1.00 32.92     0.185 C 
ATOM     18  OE1 GLU D 570     -21.948  -5.332 -14.366  1.00 32.92    -0.647 OA
ATOM     19  OE2 GLU D 570     -21.544  -5.011 -16.495  1.00 32.92    -0.647 OA
ENDBRANCH  16  17
ENDBRANCH  15  16
ENDBRANCH  14  15
END_RES GLU D 570
ENDMDL
MODEL 6
REMARK VINA RESULT:      -5.7      1.681      2.178
REMARK  3 active torsions:
REMARK  status: ('A' for Active; 'I' for Inactive)
REMARK    1  A    between atoms: C_2  and  C_9 
REMARK    2  A    between atoms: C_5  and  O_8 
REMARK    3  A    between atoms: C_9  and  O_10 
ROOT
HETATM    1  C   UNL     1     -23.888  -3.600  -9.924  1.00  0.00     0.092 A 
HETATM    2  C   UNL     1     -22.728  -3.844  -9.293  1.00  0.00     0.080 A 
HETATM    3  O   UNL     1     -21.497  -3.783  -9.934  1.00  0.00    -0.322 OA
HETATM    4  C   UNL     1     -21.472  -3.467 -11.275  1.00  0.00     0.182 A 
HETATM    5  C   UNL     1     -22.546  -3.204 -12.027  1.00  0.00     0.138 A 
HETATM    6  C   UNL     1     -23.881  -3.249 -11.359  1.00  0.00     0.209 A 
HETATM    7  O   UNL     1     -24.935  -3.024 -11.946  1.00  0.00    -0.285 OA
ENDROOT
BRANCH   2   8
HETATM    8  C   UNL     1     -22.659  -4.229  -7.846  1.00  0.00     0.229 C 
BRANCH   8   9
HETATM    9  O   UNL     1     -23.958  -4.201  -7.271  1.00  0.00    -0.394 OA
HETATM   10  H   UNL     1     -24.062  -3.326  -6.858  1.00  0.00     0.209 HD
ENDBRANCH   8   9
ENDBRANCH   2   8
BRANCH   5  11
HETATM   11  O   UNL     1     -22.476  -2.901 -13.372  1.00  0.00    -0.355 OA
HETATM   12  H   UNL     1     -23.376  -2.792 -13.720  1.00  0.00     0.218 HD
ENDBRANCH   5  11
TORSDOF 3
BEGIN_RES ARG D 557
REMARK  4 active torsions:
REMARK  status: ('A' for Active; 'I' for Inactive)
REMARK    1  A    between atoms: CA   and  CB  
REMARK    2  A    between atoms: CB   and  CG  
REMARK    3  A    between atoms: CG   and  CD  
REMARK    4  A    between atoms: CD   and  NE  
REMARK       I    between atoms: NE   and  CZ  
REMARK       I    between atoms: CZ   and  NH1 
REMARK       I    between atoms: CZ   and  NH2 
ROOT
ATOM      1  CA  ARG D 557     -26.217   2.705 -17.014  1.00 35.49     0.159 C 
ENDROOT
BRANCH   1   2
ATOM      2  CB  ARG D 557     -26.789   1.319 -17.183  1.00 35.49     0.034 C 
BRANCH   2   3
ATOM      3  CG  ARG D 557     -28.153   1.102 -16.686  1.00 35.49     0.027 C 
BRANCH   3   4
ATOM      4  CD  ARG D 557     -28.790  -0.092 -17.287  1.00 35.49     0.116 C 
BRANCH   4   5
ATOM      5  NE  ARG D 557     -28.170  -1.315 -16.850  1.00 35.49    -0.212 N 
ATOM      6  CZ  ARG D 557     -28.650  -2.526 -17.029  1.00 35.49     0.666 C 
ATOM      7  NH1 ARG D 557     -29.799  -2.750 -17.640  1.00 35.49    -0.235 N 
ATOM      8  NH2 ARG D 557     -27.942  -3.523 -16.585  1.00 35.49    -0.235 N 
ATOM      9  HH  ARG D 557     -30.279  -2.109 -17.942  1.00 35.49     0.174 HD
ATOM     10  HH  ARG D 557     -30.060  -3.561 -17.731  1.00 35.49     0.174 HD
ATOM     11  HH  ARG D 557     -27.201  -3.349 -16.201  1.00 35.49     0.174 HD
ATOM     12  HH  ARG D 557     -28.217  -4.319 -16.685  1.00 35.49     0.174 HD
ATOM     13  HE  ARG D 557     -27.461  -1.259 -16.383  1.00 35.49     0.178 HD
ENDBRANCH   4   5
ENDBRANCH   3   4
ENDBRANCH   2   3
ENDBRANCH   1   2
END_RES ARG D 557
BEGIN_RES GLU D 570
REMARK  3 active torsions:
REMARK  status: ('A' for Active; 'I' for Inactive)
REMARK    5  A    between atoms: CA   and  CB  
REMARK    6  A    between atoms: CB   and  CG  
REMARK    7  A    between atoms: CG   and  CD  
ROOT
ATOM     14  CA  GLU D 570     -18.033  -6.348 -13.375  1.00 32.92     0.160 C 
ENDROOT
BRANCH  14  15
ATOM     15  CB  GLU D 570     -19.500  -6.345 -13.794  1.00 32.92     0.043 C 
BRANCH  15  16
ATOM     16  CG  GLU D 570     -19.803  -6.070 -15.222  1.00 32.92     0.100 C 
BRANCH  16  17
ATOM     17  CD  GLU D 570     -21.195  -5.521 -15.434  1.00 32.92     0.185 C 
ATOM     18  OE1 GLU D 570     -22.035  -5.632 -14.520  1.00 32.92    -0.647 OA
ATOM     19  OE2 GLU D 570     -21.453  -4.990 -16.532  1.00 32.92    -0.647 OA
ENDBRANCH  16  17
ENDBRANCH  15  16
ENDBRANCH  14  15
END_RES GLU D 570
ENDMDL
MODEL 7
REMARK VINA RESULT:      -5.3      2.942      4.617
REMARK  3 active torsions:
REMARK  status: ('A' for Active; 'I' for Inactive)
REMARK    1  A    between atoms: C_2  and  C_9 
REMARK    2  A    between atoms: C_5  and  O_8 
REMARK    3  A    between atoms: C_9  and  O_10 
ROOT
HETATM    1  C   UNL     1     -23.418  -4.177  -8.305  1.00  0.00     0.092 A 
HETATM    2  C   UNL     1     -23.274  -3.837  -9.595  1.00  0.00     0.080 A 
HETATM    3  O   UNL     1     -22.039  -3.807 -10.230  1.00  0.00    -0.322 OA
HETATM    4  C   UNL     1     -20.918  -4.132  -9.498  1.00  0.00     0.182 A 
HETATM    5  C   UNL     1     -20.913  -4.485  -8.208  1.00  0.00     0.138 A 
HETATM    6  C   UNL     1     -22.229  -4.539  -7.505  1.00  0.00     0.209 A 
HETATM    7  O   UNL     1     -22.349  -4.852  -6.324  1.00  0.00    -0.285 OA
ENDROOT
BRANCH   2   8
HETATM    8  C   UNL     1     -24.430  -3.434 -10.461  1.00  0.00     0.229 C 
BRANCH   8   9
HETATM    9  O   UNL     1     -25.596  -3.259  -9.667  1.00  0.00    -0.394 OA
HETATM   10  H   UNL     1     -26.356  -3.328 -10.270  1.00  0.00     0.209 HD
ENDBRANCH   8   9
ENDBRANCH   2   8
BRANCH   5  11
HETATM   11  O   UNL     1     -19.763  -4.794  -7.510  1.00  0.00    -0.355 OA
HETATM   12  H   UNL     1     -19.992  -5.367  -6.759  1.00  0.00     0.218 HD
ENDBRANCH   5  11
TORSDOF 3
BEGIN_RES ARG D 557
REMARK  4 active torsions:
REMARK  status: ('A' for Active; 'I' for Inactive)
REMARK    1  A    between atoms: CA   and  CB  
REMARK    2  A    between atoms: CB   and  CG  
REMARK    3  A    between atoms: CG   and  CD  
REMARK    4  A    between atoms: CD   and  NE  
REMARK       I    between atoms: NE   and  CZ  
REMARK       I    between atoms: CZ   and  NH1 
REMARK       I    between atoms: CZ   and  NH2 
ROOT
ATOM      1  CA  ARG D 557     -26.217   2.705 -17.014  1.00 35.49     0.159 C 
ENDROOT
BRANCH   1   2
ATOM      2  CB  ARG D 557     -26.789   1.319 -17.183  1.00 35.49     0.034 C 
BRANCH   2   3
ATOM      3  CG  ARG D 557     -25.853   0.197 -17.044  1.00 35.49     0.027 C 
BRANCH   3   4
ATOM      4  CD  ARG D 557     -26.214  -0.704 -15.925  1.00 35.49     0.116 C 
BRANCH   4   5
ATOM      5  NE  ARG D 557     -25.165  -0.796 -14.944  1.00 35.49    -0.212 N 
ATOM      6  CZ  ARG D 557     -24.751  -1.901 -14.364  1.00 35.49     0.666 C 
ATOM      7  NH1 ARG D 557     -25.285  -3.080 -14.622  1.00 35.49    -0.235 N 
ATOM      8  NH2 ARG D 557     -23.773  -1.801 -13.512  1.00 35.49    -0.235 N 
ATOM      9  HH  ARG D 557     -25.929  -3.170 -15.181  1.00 35.49     0.174 HD
ATOM     10  HH  ARG D 557     -24.972  -3.767 -14.216  1.00 35.49     0.174 HD
ATOM     11  HH  ARG D 557     -23.442  -1.027 -13.371  1.00 35.49     0.174 HD
ATOM     12  HH  ARG D 557     -23.476  -2.492 -13.121  1.00 35.49     0.174 HD
ATOM     13  HE  ARG D 557     -24.815  -0.074 -14.664  1.00 35.49     0.178 HD
ENDBRANCH   4   5
ENDBRANCH   3   4
ENDBRANCH   2   3
ENDBRANCH   1   2
END_RES ARG D 557
BEGIN_RES GLU D 570
REMARK  3 active torsions:
REMARK  status: ('A' for Active; 'I' for Inactive)
REMARK    5  A    between atoms: CA   and  CB  
REMARK    6  A    between atoms: CB   and  CG  
REMARK    7  A    between atoms: CG   and  CD  
ROOT
ATOM     14  CA  GLU D 570     -18.033  -6.348 -13.375  1.00 32.92     0.160 C 
ENDROOT
BRANCH  14  15
ATOM     15  CB  GLU D 570     -19.500  -6.345 -13.794  1.00 32.92     0.043 C 
BRANCH  15  16
ATOM     16  CG  GLU D 570     -20.440  -5.523 -12.989  1.00 32.92     0.100 C 
BRANCH  16  17
ATOM     17  CD  GLU D 570     -21.768  -5.303 -13.676  1.00 32.92     0.185 C 
ATOM     18  OE1 GLU D 570     -22.380  -4.236 -13.481  1.00 32.92    -0.647 OA
ATOM     19  OE2 GLU D 570     -22.207  -6.214 -14.405  1.00 32.92    -0.647 OA
ENDBRANCH  16  17
ENDBRANCH  15  16
ENDBRANCH  14  15
END_RES GLU D 570
ENDMDL
MODEL 8
REMARK VINA RESULT:      -5.2      1.630      3.392
REMARK  3 active torsions:
REMARK  status: ('A' for Active; 'I' for Inactive)
REMARK    1  A    between atoms: C_2  and  C_9 
REMARK    2  A    between atoms: C_5  and  O_8 
REMARK    3  A    between atoms: C_9  and  O_10 
ROOT
HETATM    1  C   UNL     1     -22.162  -4.065  -9.458  1.00  0.00     0.092 A 
HETATM    2  C   UNL     1     -21.834  -3.755 -10.723  1.00  0.00     0.080 A 
HETATM    3  O   UNL     1     -22.764  -3.303 -11.650  1.00  0.00    -0.322 OA
HETATM    4  C   UNL     1     -24.077  -3.177 -11.254  1.00  0.00     0.182 A 
HETATM    5  C   UNL     1     -24.545  -3.452 -10.032  1.00  0.00     0.138 A 
HETATM    6  C   UNL     1     -23.564  -3.927  -9.010  1.00  0.00     0.209 A 
HETATM    7  O   UNL     1     -23.876  -4.207  -7.857  1.00  0.00    -0.285 OA
ENDROOT
BRANCH   2   8
HETATM    8  C   UNL     1     -20.439  -3.894 -11.254  1.00  0.00     0.229 C 
BRANCH   8   9
HETATM    9  O   UNL     1     -19.758  -4.938 -10.571  1.00  0.00    -0.394 OA
HETATM   10  H   UNL     1     -19.179  -5.366 -11.224  1.00  0.00     0.209 HD
ENDBRANCH   8   9
ENDBRANCH   2   8
BRANCH   5  11
HETATM   11  O   UNL     1     -25.873  -3.321  -9.680  1.00  0.00    -0.355 OA
HETATM   12  H   UNL     1     -25.929  -2.921  -8.796  1.00  0.00     0.218 HD
ENDBRANCH   5  11
TORSDOF 3
BEGIN_RES ARG D 557
REMARK  4 active torsions:
REMARK  status: ('A' for Active; 'I' for Inactive)
REMARK    1  A    between atoms: CA   and  CB  
REMARK    2  A    between atoms: CB   and  CG  
REMARK    3  A    between atoms: CG   and  CD  
REMARK    4  A    between atoms: CD   and  NE  
REMARK       I    between atoms: NE   and  CZ  
REMARK       I    between atoms: CZ   and  NH1 
REMARK       I    between atoms: CZ   and  NH2 
ROOT
ATOM      1  CA  ARG D 557     -26.217   2.705 -17.014  1.00 35.49     0.159 C 
ENDROOT
BRANCH   1   2
ATOM      2  CB  ARG D 557     -26.789   1.319 -17.183  1.00 35.49     0.034 C 
BRANCH   2   3
ATOM      3  CG  ARG D 557     -28.233   1.226 -17.429  1.00 35.49     0.027 C 
BRANCH   3   4
ATOM      4  CD  ARG D 557     -28.906   0.297 -16.492  1.00 35.49     0.116 C 
BRANCH   4   5
ATOM      5  NE  ARG D 557     -29.290  -0.934 -17.131  1.00 35.49    -0.212 N 
ATOM      6  CZ  ARG D 557     -28.657  -2.081 -17.031  1.00 35.49     0.666 C 
ATOM      7  NH1 ARG D 557     -27.554  -2.223 -16.318  1.00 35.49    -0.235 N 
ATOM      8  NH2 ARG D 557     -29.160  -3.102 -17.662  1.00 35.49    -0.235 N 
ATOM      9  HH  ARG D 557     -27.207  -1.565 -15.893  1.00 35.49     0.174 HD
ATOM     10  HH  ARG D 557     -27.186  -2.996 -16.288  1.00 35.49     0.174 HD
ATOM     11  HH  ARG D 557     -29.877  -2.982 -18.109  1.00 35.49     0.174 HD
ATOM     12  HH  ARG D 557     -28.781  -3.859 -17.618  1.00 35.49     0.174 HD
ATOM     13  HE  ARG D 557     -29.949  -0.917 -17.668  1.00 35.49     0.178 HD
ENDBRANCH   4   5
ENDBRANCH   3   4
ENDBRANCH   2   3
ENDBRANCH   1   2
END_RES ARG D 557
BEGIN_RES GLU D 570
REMARK  3 active torsions:
REMARK  status: ('A' for Active; 'I' for Inactive)
REMARK    5  A    between atoms: CA   and  CB  
REMARK    6  A    between atoms: CB   and  CG  
REMARK    7  A    between atoms: CG   and  CD  
ROOT
ATOM     14  CA  GLU D 570     -18.033  -6.348 -13.375  1.00 32.92     0.160 C 
ENDROOT
BRANCH  14  15
ATOM     15  CB  GLU D 570     -19.500  -6.345 -13.794  1.00 32.92     0.043 C 
BRANCH  15  16
ATOM     16  CG  GLU D 570     -20.091  -7.637 -14.228  1.00 32.92     0.100 C 
BRANCH  16  17
ATOM     17  CD  GLU D 570     -20.662  -7.585 -15.626  1.00 32.92     0.185 C 
ATOM     18  OE1 GLU D 570     -21.097  -8.632 -16.141  1.00 32.92    -0.647 OA
ATOM     19  OE2 GLU D 570     -20.658  -6.488 -16.218  1.00 32.92    -0.647 OA
ENDBRANCH  16  17
ENDBRANCH  15  16
ENDBRANCH  14  15
END_RES GLU D 570
ENDMDL
MODEL 9
REMARK VINA RESULT:      -5.1      2.692      4.083
REMARK  3 active torsions:
REMARK  status: ('A' for Active; 'I' for Inactive)
REMARK    1  A    between atoms: C_2  and  C_9 
REMARK    2  A    between atoms: C_5  and  O_8 
REMARK    3  A    between atoms: C_9  and  O_10 
ROOT
HETATM    1  C   UNL     1     -22.504  -3.864 -10.274  1.00  0.00     0.092 A 
HETATM    2  C   UNL     1     -23.481  -3.783  -9.356  1.00  0.00     0.080 A 
HETATM    3  O   UNL     1     -23.293  -4.138  -8.027  1.00  0.00    -0.322 OA
HETATM    4  C   UNL     1     -22.054  -4.599  -7.640  1.00  0.00     0.182 A 
HETATM    5  C   UNL     1     -20.994  -4.733  -8.444  1.00  0.00     0.138 A 
HETATM    6  C   UNL     1     -21.164  -4.346  -9.877  1.00  0.00     0.209 A 
HETATM    7  O   UNL     1     -20.264  -4.423 -10.706  1.00  0.00    -0.285 OA
ENDROOT
BRANCH   2   8
HETATM    8  C   UNL     1     -24.870  -3.327  -9.690  1.00  0.00     0.229 C 
BRANCH   8   9
HETATM    9  O   UNL     1     -25.014  -3.193 -11.098  1.00  0.00    -0.394 OA
HETATM   10  H   UNL     1     -25.928  -3.449 -11.310  1.00  0.00     0.209 HD
ENDBRANCH   8   9
ENDBRANCH   2   8
BRANCH   5  11
HETATM   11  O   UNL     1     -19.772  -5.209  -8.016  1.00  0.00    -0.355 OA
HETATM   12  H   UNL     1     -19.513  -5.964  -8.571  1.00  0.00     0.218 HD
ENDBRANCH   5  11
TORSDOF 3
BEGIN_RES ARG D 557
REMARK  4 active torsions:
REMARK  status: ('A' for Active; 'I' for Inactive)
REMARK    1  A    between atoms: CA   and  CB  
REMARK    2  A    between atoms: CB   and  CG  
REMARK    3  A    between atoms: CG   and  CD  
REMARK    4  A    between atoms: CD   and  NE  
REMARK       I    between atoms: NE   and  CZ  
REMARK       I    between atoms: CZ   and  NH1 
REMARK       I    between atoms: CZ   and  NH2 
ROOT
ATOM      1  CA  ARG D 557     -26.217   2.705 -17.014  1.00 35.49     0.159 C 
ENDROOT
BRANCH   1   2
ATOM      2  CB  ARG D 557     -26.789   1.319 -17.183  1.00 35.49     0.034 C 
BRANCH   2   3
ATOM      3  CG  ARG D 557     -25.857   0.196 -17.024  1.00 35.49     0.027 C 
BRANCH   3   4
ATOM      4  CD  ARG D 557     -26.206  -0.668 -15.873  1.00 35.49     0.116 C 
BRANCH   4   5
ATOM      5  NE  ARG D 557     -25.083  -0.887 -15.000  1.00 35.49    -0.212 N 
ATOM      6  CZ  ARG D 557     -24.877  -1.960 -14.268  1.00 35.49     0.666 C 
ATOM      7  NH1 ARG D 557     -25.717  -2.978 -14.249  1.00 35.49    -0.235 N 
ATOM      8  NH2 ARG D 557     -23.792  -1.997 -13.550  1.00 35.49    -0.235 N 
ATOM      9  HH  ARG D 557     -26.436  -2.975 -14.716  1.00 35.49     0.174 HD
ATOM     10  HH  ARG D 557     -25.529  -3.652 -13.755  1.00 35.49     0.174 HD
ATOM     11  HH  ARG D 557     -23.264  -1.328 -13.588  1.00 35.49     0.174 HD
ATOM     12  HH  ARG D 557     -23.623  -2.674 -13.069  1.00 35.49     0.174 HD
ATOM     13  HE  ARG D 557     -24.529  -0.251 -14.895  1.00 35.49     0.178 HD
ENDBRANCH   4   5
ENDBRANCH   3   4
ENDBRANCH   2   3
ENDBRANCH   1   2
END_RES ARG D 557
BEGIN_RES GLU D 570
REMARK  3 active torsions:
REMARK  status: ('A' for Active; 'I' for Inactive)
REMARK    5  A    between atoms: CA   and  CB  
REMARK    6  A    between atoms: CB   and  CG  
REMARK    7  A    between atoms: CG   and  CD  
ROOT
ATOM     14  CA  GLU D 570     -18.033  -6.348 -13.375  1.00 32.92     0.160 C 
ENDROOT
BRANCH  14  15
ATOM     15  CB  GLU D 570     -19.500  -6.345 -13.794  1.00 32.92     0.043 C 
BRANCH  15  16
ATOM     16  CG  GLU D 570     -20.113  -7.651 -14.149  1.00 32.92     0.100 C 
BRANCH  16  17
ATOM     17  CD  GLU D 570     -20.929  -7.593 -15.419  1.00 32.92     0.185 C 
ATOM     18  OE1 GLU D 570     -20.980  -8.600 -16.152  1.00 32.92    -0.647 OA
ATOM     19  OE2 GLU D 570     -21.510  -6.524 -15.693  1.00 32.92    -0.647 OA
ENDBRANCH  16  17
ENDBRANCH  15  16
ENDBRANCH  14  15
END_RES GLU D 570
ENDMDL
