MODEL 1
REMARK VINA RESULT:      -6.5      0.000      0.000
REMARK  7 active torsions:
REMARK  status: ('A' for Active; 'I' for Inactive)
REMARK    1  A    between atoms: CG_1  and  CB_2 
REMARK    2  A    between atoms: CG_1  and  CD_8 
REMARK    3  A    between atoms: CB_2  and  CA_3 
REMARK    4  A    between atoms: CA_3  and  C_4 
REMARK    5  A    between atoms: CA_3  and  N_7 
REMARK    6  A    between atoms: C_4  and  OXT_6 
REMARK    7  A    between atoms: CD_8  and  NE_9 
REMARK       I    between atoms: NE_9  and  CZ_11 
REMARK       I    between atoms: CZ_11  and  NH2_13 
ROOT
ATOM      1  CG  ARG A   1     -22.109  -3.878 -12.318  1.00  0.00     0.022 C 
ENDROOT
BRANCH   1   2
ATOM      2  CB  ARG A   1     -22.744  -2.604 -12.877  1.00  0.00     0.048 C 
BRANCH   2   3
ATOM      3  CA  ARG A   1     -23.524  -2.836 -14.176  1.00  0.00     0.314 C 
BRANCH   3   4
ATOM      4  C   ARG A   1     -24.981  -2.348 -14.067  1.00  0.00     0.173 C 
ATOM      5  O   ARG A   1     -25.880  -2.995 -13.546  1.00  0.00    -0.648 OA
BRANCH   4   6
ATOM      6  OXT ARG A   1     -25.187  -1.114 -14.580  1.00  0.00    -0.775 OA
ATOM      7  HXT ARG A   1     -24.884  -1.006 -15.501  1.00  0.00     0.167 HD
ENDBRANCH   4   6
ENDBRANCH   3   4
BRANCH   3   8
ATOM      8  N   ARG A   1     -22.845  -2.105 -15.270  1.00  0.00     0.093 N 
ATOM      9  H1  ARG A   1     -23.527  -1.983 -16.027  1.00  0.00     0.314 HD
ATOM     10  H2  ARG A   1     -22.144  -2.723 -15.685  1.00  0.00     0.314 HD
ENDBRANCH   3   8
ENDBRANCH   2   3
ENDBRANCH   1   2
BRANCH   1  11
ATOM     11  CD  ARG A   1     -22.654  -4.220 -10.930  1.00  0.00     0.122 C 
BRANCH  11  12
ATOM     12  NE  ARG A   1     -24.067  -3.862 -10.907  1.00  0.00    -0.367 N 
ATOM     13  CZ  ARG A   1     -24.622  -3.658  -9.770  1.00  0.00     0.143 C 
ATOM     14  NH1 ARG A   1     -24.087  -3.751  -8.535  1.00  0.00    -0.376 N 
ATOM     15  NH2 ARG A   1     -25.905  -3.245  -9.732  1.00  0.00    -0.274 NA
ATOM     16 HH11 ARG A   1     -23.198  -4.225  -8.465  1.00  0.00     0.158 HD
ATOM     17 HH12 ARG A   1     -24.716  -3.972  -7.778  1.00  0.00     0.158 HD
ATOM     18 HH21 ARG A   1     -26.354  -3.317 -10.639  1.00  0.00     0.127 HD
ATOM     19 HH22 ARG A   1     -26.483  -3.564  -8.971  1.00  0.00     0.127 HD
ATOM     20  HE  ARG A   1     -24.600  -3.775 -11.773  1.00  0.00     0.162 HD
ENDBRANCH  11  12
ENDBRANCH   1  11
TORSDOF 7
BEGIN_RES ARG D 557
REMARK  4 active torsions:
REMARK  status: ('A' for Active; 'I' for Inactive)
REMARK    1  A    between atoms: CA   and  CB  
REMARK    2  A    between atoms: CB   and  CG  
REMARK    3  A    between atoms: CG   and  CD  
REMARK    4  A    between atoms: CD   and  NE  
REMARK       I    between atoms: NE   and  CZ  
REMARK       I    between atoms: CZ   and  NH1 
REMARK       I    between atoms: CZ   and  NH2 
ROOT
ATOM      1  CA  ARG D 557     -26.217   2.705 -17.014  1.00 35.49     0.159 C 
ENDROOT
BRANCH   1   2
ATOM      2  CB  ARG D 557     -26.789   1.319 -17.183  1.00 35.49     0.034 C 
BRANCH   2   3
ATOM      3  CG  ARG D 557     -28.234   1.226 -17.426  1.00 35.49     0.027 C 
BRANCH   3   4
ATOM      4  CD  ARG D 557     -28.904   0.290 -16.494  1.00 35.49     0.116 C 
BRANCH   4   5
ATOM      5  NE  ARG D 557     -29.276  -0.942 -17.136  1.00 35.49    -0.212 N 
ATOM      6  CZ  ARG D 557     -28.644  -2.089 -17.023  1.00 35.49     0.666 C 
ATOM      7  NH1 ARG D 557     -27.554  -2.229 -16.291  1.00 35.49    -0.235 N 
ATOM      8  NH2 ARG D 557     -29.136  -3.111 -17.661  1.00 35.49    -0.235 N 
ATOM      9  HH  ARG D 557     -27.214  -1.570 -15.861  1.00 35.49     0.174 HD
ATOM     10  HH  ARG D 557     -27.186  -3.002 -16.252  1.00 35.49     0.174 HD
ATOM     11  HH  ARG D 557     -29.845  -2.993 -18.119  1.00 35.49     0.174 HD
ATOM     12  HH  ARG D 557     -28.758  -3.869 -17.608  1.00 35.49     0.174 HD
ATOM     13  HE  ARG D 557     -29.926  -0.926 -17.685  1.00 35.49     0.178 HD
ENDBRANCH   4   5
ENDBRANCH   3   4
ENDBRANCH   2   3
ENDBRANCH   1   2
END_RES ARG D 557
BEGIN_RES GLU D 570
REMARK  3 active torsions:
REMARK  status: ('A' for Active; 'I' for Inactive)
REMARK    5  A    between atoms: CA   and  CB  
REMARK    6  A    between atoms: CB   and  CG  
REMARK    7  A    between atoms: CG   and  CD  
ROOT
ATOM     14  CA  GLU D 570     -18.033  -6.348 -13.375  1.00 32.92     0.160 C 
ENDROOT
BRANCH  14  15
ATOM     15  CB  GLU D 570     -19.500  -6.345 -13.794  1.00 32.92     0.043 C 
BRANCH  15  16
ATOM     16  CG  GLU D 570     -19.810  -5.971 -15.198  1.00 32.92     0.100 C 
BRANCH  16  17
ATOM     17  CD  GLU D 570     -21.279  -5.702 -15.426  1.00 32.92     0.185 C 
ATOM     18  OE1 GLU D 570     -22.122  -6.376 -14.802  1.00 32.92    -0.647 OA
ATOM     19  OE2 GLU D 570     -21.591  -4.820 -16.250  1.00 32.92    -0.647 OA
ENDBRANCH  16  17
ENDBRANCH  15  16
ENDBRANCH  14  15
END_RES GLU D 570
ENDMDL
MODEL 2
REMARK VINA RESULT:      -6.5      1.910      3.732
REMARK  7 active torsions:
REMARK  status: ('A' for Active; 'I' for Inactive)
REMARK    1  A    between atoms: CG_1  and  CB_2 
REMARK    2  A    between atoms: CG_1  and  CD_8 
REMARK    3  A    between atoms: CB_2  and  CA_3 
REMARK    4  A    between atoms: CA_3  and  C_4 
REMARK    5  A    between atoms: CA_3  and  N_7 
REMARK    6  A    between atoms: C_4  and  OXT_6 
REMARK    7  A    between atoms: CD_8  and  NE_9 
REMARK       I    between atoms: NE_9  and  CZ_11 
REMARK       I    between atoms: CZ_11  and  NH2_13 
ROOT
ATOM      1  CG  ARG A   1     -23.561  -4.368 -12.813  1.00  0.00     0.022 C 
ENDROOT
BRANCH   1   2
ATOM      2  CB  ARG A   1     -23.390  -4.906 -11.391  1.00  0.00     0.048 C 
BRANCH   2   3
ATOM      3  CA  ARG A   1     -23.143  -3.806 -10.353  1.00  0.00     0.314 C 
BRANCH   3   4
ATOM      4  C   ARG A   1     -24.386  -3.550  -9.479  1.00  0.00     0.173 C 
ATOM      5  O   ARG A   1     -25.447  -3.119  -9.912  1.00  0.00    -0.648 OA
BRANCH   4   6
ATOM      6  OXT ARG A   1     -24.216  -3.869  -8.177  1.00  0.00    -0.775 OA
ATOM      7  HXT ARG A   1     -25.025  -4.182  -7.731  1.00  0.00     0.167 HD
ENDBRANCH   4   6
ENDBRANCH   3   4
BRANCH   3   8
ATOM      8  N   ARG A   1     -22.015  -4.218  -9.488  1.00  0.00     0.093 N 
ATOM      9  H1  ARG A   1     -21.514  -4.970  -9.974  1.00  0.00     0.314 HD
ATOM     10  H2  ARG A   1     -22.395  -4.686  -8.662  1.00  0.00     0.314 HD
ENDBRANCH   3   8
ENDBRANCH   2   3
ENDBRANCH   1   2
BRANCH   1  11
ATOM     11  CD  ARG A   1     -23.041  -2.936 -12.942  1.00  0.00     0.122 C 
BRANCH  11  12
ATOM     12  NE  ARG A   1     -24.139  -2.106 -13.423  1.00  0.00    -0.367 N 
ATOM     13  CZ  ARG A   1     -24.034  -1.577 -14.585  1.00  0.00     0.143 C 
ATOM     14  NH1 ARG A   1     -23.012  -1.651 -15.463  1.00  0.00    -0.376 N 
ATOM     15  NH2 ARG A   1     -25.074  -0.876 -15.083  1.00  0.00    -0.274 NA
ATOM     16 HH11 ARG A   1     -22.135  -1.997 -15.103  1.00  0.00     0.158 HD
ATOM     17 HH12 ARG A   1     -22.902  -0.880 -16.105  1.00  0.00     0.158 HD
ATOM     18 HH21 ARG A   1     -25.779  -0.691 -14.377  1.00  0.00     0.127 HD
ATOM     19 HH22 ARG A   1     -24.871  -0.080 -15.667  1.00  0.00     0.127 HD
ATOM     20  HE  ARG A   1     -24.968  -1.950 -12.850  1.00  0.00     0.162 HD
ENDBRANCH  11  12
ENDBRANCH   1  11
TORSDOF 7
BEGIN_RES ARG D 557
REMARK  4 active torsions:
REMARK  status: ('A' for Active; 'I' for Inactive)
REMARK    1  A    between atoms: CA   and  CB  
REMARK    2  A    between atoms: CB   and  CG  
REMARK    3  A    between atoms: CG   and  CD  
REMARK    4  A    between atoms: CD   and  NE  
REMARK       I    between atoms: NE   and  CZ  
REMARK       I    between atoms: CZ   and  NH1 
REMARK       I    between atoms: CZ   and  NH2 
ROOT
ATOM      1  CA  ARG D 557     -26.217   2.705 -17.014  1.00 35.49     0.159 C 
ENDROOT
BRANCH   1   2
ATOM      2  CB  ARG D 557     -26.789   1.319 -17.183  1.00 35.49     0.034 C 
BRANCH   2   3
ATOM      3  CG  ARG D 557     -28.205   1.142 -16.840  1.00 35.49     0.027 C 
BRANCH   3   4
ATOM      4  CD  ARG D 557     -28.685  -0.232 -17.113  1.00 35.49     0.116 C 
BRANCH   4   5
ATOM      5  NE  ARG D 557     -27.874  -1.228 -16.465  1.00 35.49    -0.212 N 
ATOM      6  CZ  ARG D 557     -27.988  -2.529 -16.616  1.00 35.49     0.666 C 
ATOM      7  NH1 ARG D 557     -28.903  -3.074 -17.396  1.00 35.49    -0.235 N 
ATOM      8  NH2 ARG D 557     -27.152  -3.285 -15.966  1.00 35.49    -0.235 N 
ATOM      9  HH  ARG D 557     -29.463  -2.596 -17.835  1.00 35.49     0.174 HD
ATOM     10  HH  ARG D 557     -28.929  -3.929 -17.458  1.00 35.49     0.174 HD
ATOM     11  HH  ARG D 557     -26.567  -2.904 -15.476  1.00 35.49     0.174 HD
ATOM     12  HH  ARG D 557     -27.192  -4.128 -16.041  1.00 35.49     0.174 HD
ATOM     13  HE  ARG D 557     -27.306  -0.968 -15.889  1.00 35.49     0.178 HD
ENDBRANCH   4   5
ENDBRANCH   3   4
ENDBRANCH   2   3
ENDBRANCH   1   2
END_RES ARG D 557
BEGIN_RES GLU D 570
REMARK  3 active torsions:
REMARK  status: ('A' for Active; 'I' for Inactive)
REMARK    5  A    between atoms: CA   and  CB  
REMARK    6  A    between atoms: CB   and  CG  
REMARK    7  A    between atoms: CG   and  CD  
ROOT
ATOM     14  CA  GLU D 570     -18.033  -6.348 -13.375  1.00 32.92     0.160 C 
ENDROOT
BRANCH  14  15
ATOM     15  CB  GLU D 570     -19.500  -6.345 -13.794  1.00 32.92     0.043 C 
BRANCH  15  16
ATOM     16  CG  GLU D 570     -19.814  -5.923 -15.183  1.00 32.92     0.100 C 
BRANCH  16  17
ATOM     17  CD  GLU D 570     -21.287  -5.663 -15.402  1.00 32.92     0.185 C 
ATOM     18  OE1 GLU D 570     -21.649  -4.545 -15.816  1.00 32.92    -0.647 OA
ATOM     19  OE2 GLU D 570     -22.087  -6.582 -15.140  1.00 32.92    -0.647 OA
ENDBRANCH  16  17
ENDBRANCH  15  16
ENDBRANCH  14  15
END_RES GLU D 570
ENDMDL
MODEL 3
REMARK VINA RESULT:      -6.4      3.845      7.312
REMARK  7 active torsions:
REMARK  status: ('A' for Active; 'I' for Inactive)
REMARK    1  A    between atoms: CG_1  and  CB_2 
REMARK    2  A    between atoms: CG_1  and  CD_8 
REMARK    3  A    between atoms: CB_2  and  CA_3 
REMARK    4  A    between atoms: CA_3  and  C_4 
REMARK    5  A    between atoms: CA_3  and  N_7 
REMARK    6  A    between atoms: C_4  and  OXT_6 
REMARK    7  A    between atoms: CD_8  and  NE_9 
REMARK       I    between atoms: NE_9  and  CZ_11 
REMARK       I    between atoms: CZ_11  and  NH2_13 
ROOT
ATOM      1  CG  ARG A   1     -29.250  -4.535 -18.493  1.00  0.00     0.022 C 
ENDROOT
BRANCH   1   2
ATOM      2  CB  ARG A   1     -28.321  -5.592 -17.894  1.00  0.00     0.048 C 
BRANCH   2   3
ATOM      3  CA  ARG A   1     -29.023  -6.522 -16.899  1.00  0.00     0.314 C 
BRANCH   3   4
ATOM      4  C   ARG A   1     -30.110  -7.376 -17.577  1.00  0.00     0.173 C 
ATOM      5  O   ARG A   1     -31.311  -7.159 -17.474  1.00  0.00    -0.648 OA
BRANCH   4   6
ATOM      6  OXT ARG A   1     -29.624  -8.387 -18.331  1.00  0.00    -0.775 OA
ATOM      7  HXT ARG A   1     -29.267  -8.109 -19.195  1.00  0.00     0.167 HD
ENDBRANCH   4   6
ENDBRANCH   3   4
BRANCH   3   8
ATOM      8  N   ARG A   1     -28.009  -7.415 -16.292  1.00  0.00     0.093 N 
ATOM      9  H1  ARG A   1     -27.507  -6.871 -15.582  1.00  0.00     0.314 HD
ATOM     10  H2  ARG A   1     -27.288  -7.608 -16.992  1.00  0.00     0.314 HD
ENDBRANCH   3   8
ENDBRANCH   2   3
ENDBRANCH   1   2
BRANCH   1  11
ATOM     11  CD  ARG A   1     -29.777  -3.575 -17.425  1.00  0.00     0.122 C 
BRANCH  11  12
ATOM     12  NE  ARG A   1     -31.088  -3.107 -17.856  1.00  0.00    -0.367 N 
ATOM     13  CZ  ARG A   1     -32.124  -3.600 -17.285  1.00  0.00     0.143 C 
ATOM     14  NH1 ARG A   1     -32.197  -4.543 -16.323  1.00  0.00    -0.376 N 
ATOM     15  NH2 ARG A   1     -33.343  -3.120 -17.611  1.00  0.00    -0.274 NA
ATOM     16 HH11 ARG A   1     -31.358  -5.078 -16.155  1.00  0.00     0.158 HD
ATOM     17 HH12 ARG A   1     -33.037  -5.100 -16.289  1.00  0.00     0.158 HD
ATOM     18 HH21 ARG A   1     -33.309  -2.524 -18.431  1.00  0.00     0.127 HD
ATOM     19 HH22 ARG A   1     -34.119  -3.762 -17.611  1.00  0.00     0.127 HD
ATOM     20  HE  ARG A   1     -31.179  -2.406 -18.592  1.00  0.00     0.162 HD
ENDBRANCH  11  12
ENDBRANCH   1  11
TORSDOF 7
BEGIN_RES ARG D 557
REMARK  4 active torsions:
REMARK  status: ('A' for Active; 'I' for Inactive)
REMARK    1  A    between atoms: CA   and  CB  
REMARK    2  A    between atoms: CB   and  CG  
REMARK    3  A    between atoms: CG   and  CD  
REMARK    4  A    between atoms: CD   and  NE  
REMARK       I    between atoms: NE   and  CZ  
REMARK       I    between atoms: CZ   and  NH1 
REMARK       I    between atoms: CZ   and  NH2 
ROOT
ATOM      1  CA  ARG D 557     -26.217   2.705 -17.014  1.00 35.49     0.159 C 
ENDROOT
BRANCH   1   2
ATOM      2  CB  ARG D 557     -26.789   1.319 -17.183  1.00 35.49     0.034 C 
BRANCH   2   3
ATOM      3  CG  ARG D 557     -25.834   0.204 -17.168  1.00 35.49     0.027 C 
BRANCH   3   4
ATOM      4  CD  ARG D 557     -24.762   0.393 -16.165  1.00 35.49     0.116 C 
BRANCH   4   5
ATOM      5  NE  ARG D 557     -24.936  -0.459 -15.018  1.00 35.49    -0.212 N 
ATOM      6  CZ  ARG D 557     -24.133  -1.434 -14.656  1.00 35.49     0.666 C 
ATOM      7  NH1 ARG D 557     -23.050  -1.753 -15.342  1.00 35.49    -0.235 N 
ATOM      8  NH2 ARG D 557     -24.435  -2.091 -13.574  1.00 35.49    -0.235 N 
ATOM      9  HH  ARG D 557     -22.831  -1.333 -16.056  1.00 35.49     0.174 HD
ATOM     10  HH  ARG D 557     -22.562  -2.397 -15.057  1.00 35.49     0.174 HD
ATOM     11  HH  ARG D 557     -25.135  -1.858 -13.147  1.00 35.49     0.174 HD
ATOM     12  HH  ARG D 557     -23.938  -2.724 -13.307  1.00 35.49     0.174 HD
ATOM     13  HE  ARG D 557     -25.647  -0.371 -14.559  1.00 35.49     0.178 HD
ENDBRANCH   4   5
ENDBRANCH   3   4
ENDBRANCH   2   3
ENDBRANCH   1   2
END_RES ARG D 557
BEGIN_RES GLU D 570
REMARK  3 active torsions:
REMARK  status: ('A' for Active; 'I' for Inactive)
REMARK    5  A    between atoms: CA   and  CB  
REMARK    6  A    between atoms: CB   and  CG  
REMARK    7  A    between atoms: CG   and  CD  
ROOT
ATOM     14  CA  GLU D 570     -18.033  -6.348 -13.375  1.00 32.92     0.160 C 
ENDROOT
BRANCH  14  15
ATOM     15  CB  GLU D 570     -19.500  -6.345 -13.794  1.00 32.92     0.043 C 
BRANCH  15  16
ATOM     16  CG  GLU D 570     -20.439  -5.516 -12.995  1.00 32.92     0.100 C 
BRANCH  16  17
ATOM     17  CD  GLU D 570     -21.592  -4.979 -13.810  1.00 32.92     0.185 C 
ATOM     18  OE1 GLU D 570     -22.417  -4.221 -13.265  1.00 32.92    -0.647 OA
ATOM     19  OE2 GLU D 570     -21.679  -5.333 -15.002  1.00 32.92    -0.647 OA
ENDBRANCH  16  17
ENDBRANCH  15  16
ENDBRANCH  14  15
END_RES GLU D 570
ENDMDL
MODEL 4
REMARK VINA RESULT:      -6.4      1.919      3.653
REMARK  7 active torsions:
REMARK  status: ('A' for Active; 'I' for Inactive)
REMARK    1  A    between atoms: CG_1  and  CB_2 
REMARK    2  A    between atoms: CG_1  and  CD_8 
REMARK    3  A    between atoms: CB_2  and  CA_3 
REMARK    4  A    between atoms: CA_3  and  C_4 
REMARK    5  A    between atoms: CA_3  and  N_7 
REMARK    6  A    between atoms: C_4  and  OXT_6 
REMARK    7  A    between atoms: CD_8  and  NE_9 
REMARK       I    between atoms: NE_9  and  CZ_11 
REMARK       I    between atoms: CZ_11  and  NH2_13 
ROOT
ATOM      1  CG  ARG A   1     -21.400  -4.067 -10.659  1.00  0.00     0.022 C 
ENDROOT
BRANCH   1   2
ATOM      2  CB  ARG A   1     -22.745  -4.619 -10.185  1.00  0.00     0.048 C 
BRANCH   2   3
ATOM      3  CA  ARG A   1     -23.635  -3.560  -9.525  1.00  0.00     0.314 C 
BRANCH   3   4
ATOM      4  C   ARG A   1     -24.936  -3.327 -10.316  1.00  0.00     0.173 C 
ATOM      5  O   ARG A   1     -24.984  -3.225 -11.535  1.00  0.00    -0.648 OA
BRANCH   4   6
ATOM      6  OXT ARG A   1     -26.045  -3.270  -9.545  1.00  0.00    -0.775 OA
ATOM      7  HXT ARG A   1     -26.333  -2.366  -9.321  1.00  0.00     0.167 HD
ENDBRANCH   4   6
ENDBRANCH   3   4
BRANCH   3   8
ATOM      8  N   ARG A   1     -23.971  -4.013  -8.156  1.00  0.00     0.093 N 
ATOM      9  H1  ARG A   1     -24.520  -3.268  -7.712  1.00  0.00     0.314 HD
ATOM     10  H2  ARG A   1     -23.112  -4.032  -7.601  1.00  0.00     0.314 HD
ENDBRANCH   3   8
ENDBRANCH   2   3
ENDBRANCH   1   2
BRANCH   1  11
ATOM     11  CD  ARG A   1     -21.578  -2.906 -11.639  1.00  0.00     0.122 C 
BRANCH  11  12
ATOM     12  NE  ARG A   1     -21.902  -3.472 -12.943  1.00  0.00    -0.367 N 
ATOM     13  CZ  ARG A   1     -22.763  -2.863 -13.670  1.00  0.00     0.143 C 
ATOM     14  NH1 ARG A   1     -23.467  -1.744 -13.397  1.00  0.00    -0.376 N 
ATOM     15  NH2 ARG A   1     -23.014  -3.323 -14.913  1.00  0.00    -0.274 NA
ATOM     16 HH11 ARG A   1     -23.476  -1.444 -12.434  1.00  0.00     0.158 HD
ATOM     17 HH12 ARG A   1     -24.360  -1.641 -13.855  1.00  0.00     0.158 HD
ATOM     18 HH21 ARG A   1     -22.606  -4.239 -15.068  1.00  0.00     0.127 HD
ATOM     19 HH22 ARG A   1     -23.953  -3.235 -15.270  1.00  0.00     0.127 HD
ATOM     20  HE  ARG A   1     -21.455  -4.329 -13.268  1.00  0.00     0.162 HD
ENDBRANCH  11  12
ENDBRANCH   1  11
TORSDOF 7
BEGIN_RES ARG D 557
REMARK  4 active torsions:
REMARK  status: ('A' for Active; 'I' for Inactive)
REMARK    1  A    between atoms: CA   and  CB  
REMARK    2  A    between atoms: CB   and  CG  
REMARK    3  A    between atoms: CG   and  CD  
REMARK    4  A    between atoms: CD   and  NE  
REMARK       I    between atoms: NE   and  CZ  
REMARK       I    between atoms: CZ   and  NH1 
REMARK       I    between atoms: CZ   and  NH2 
ROOT
ATOM      1  CA  ARG D 557     -26.217   2.705 -17.014  1.00 35.49     0.159 C 
ENDROOT
BRANCH   1   2
ATOM      2  CB  ARG D 557     -26.789   1.319 -17.183  1.00 35.49     0.034 C 
BRANCH   2   3
ATOM      3  CG  ARG D 557     -26.117   0.234 -16.457  1.00 35.49     0.027 C 
BRANCH   3   4
ATOM      4  CD  ARG D 557     -27.020  -0.909 -16.189  1.00 35.49     0.116 C 
BRANCH   4   5
ATOM      5  NE  ARG D 557     -26.422  -1.876 -15.307  1.00 35.49    -0.212 N 
ATOM      6  CZ  ARG D 557     -26.632  -3.173 -15.335  1.00 35.49     0.666 C 
ATOM      7  NH1 ARG D 557     -27.454  -3.741 -16.198  1.00 35.49    -0.235 N 
ATOM      8  NH2 ARG D 557     -25.987  -3.904 -14.472  1.00 35.49    -0.235 N 
ATOM      9  HH  ARG D 557     -27.887  -3.279 -16.776  1.00 35.49     0.174 HD
ATOM     10  HH  ARG D 557     -27.549  -4.592 -16.171  1.00 35.49     0.174 HD
ATOM     11  HH  ARG D 557     -25.457  -3.511 -13.931  1.00 35.49     0.174 HD
ATOM     12  HH  ARG D 557     -26.094  -4.745 -14.462  1.00 35.49     0.174 HD
ATOM     13  HE  ARG D 557     -25.934  -1.590 -14.672  1.00 35.49     0.178 HD
ENDBRANCH   4   5
ENDBRANCH   3   4
ENDBRANCH   2   3
ENDBRANCH   1   2
END_RES ARG D 557
BEGIN_RES GLU D 570
REMARK  3 active torsions:
REMARK  status: ('A' for Active; 'I' for Inactive)
REMARK    5  A    between atoms: CA   and  CB  
REMARK    6  A    between atoms: CB   and  CG  
REMARK    7  A    between atoms: CG   and  CD  
ROOT
ATOM     14  CA  GLU D 570     -18.033  -6.348 -13.375  1.00 32.92     0.160 C 
ENDROOT
BRANCH  14  15
ATOM     15  CB  GLU D 570     -19.500  -6.345 -13.794  1.00 32.92     0.043 C 
BRANCH  15  16
ATOM     16  CG  GLU D 570     -19.798  -6.465 -15.245  1.00 32.92     0.100 C 
BRANCH  16  17
ATOM     17  CD  GLU D 570     -21.183  -5.979 -15.604  1.00 32.92     0.185 C 
ATOM     18  OE1 GLU D 570     -22.157  -6.383 -14.941  1.00 32.92    -0.647 OA
ATOM     19  OE2 GLU D 570     -21.296  -5.199 -16.570  1.00 32.92    -0.647 OA
ENDBRANCH  16  17
ENDBRANCH  15  16
ENDBRANCH  14  15
END_RES GLU D 570
ENDMDL
MODEL 5
REMARK VINA RESULT:      -6.2      3.142      6.595
REMARK  7 active torsions:
REMARK  status: ('A' for Active; 'I' for Inactive)
REMARK    1  A    between atoms: CG_1  and  CB_2 
REMARK    2  A    between atoms: CG_1  and  CD_8 
REMARK    3  A    between atoms: CB_2  and  CA_3 
REMARK    4  A    between atoms: CA_3  and  C_4 
REMARK    5  A    between atoms: CA_3  and  N_7 
REMARK    6  A    between atoms: C_4  and  OXT_6 
REMARK    7  A    between atoms: CD_8  and  NE_9 
REMARK       I    between atoms: NE_9  and  CZ_11 
REMARK       I    between atoms: CZ_11  and  NH2_13 
ROOT
ATOM      1  CG  ARG A   1     -29.275  -5.146 -18.164  1.00  0.00     0.022 C 
ENDROOT
BRANCH   1   2
ATOM      2  CB  ARG A   1     -28.512  -6.100 -17.243  1.00  0.00     0.048 C 
BRANCH   2   3
ATOM      3  CA  ARG A   1     -26.993  -5.896 -17.285  1.00  0.00     0.314 C 
BRANCH   3   4
ATOM      4  C   ARG A   1     -26.303  -6.457 -16.027  1.00  0.00     0.173 C 
ATOM      5  O   ARG A   1     -26.714  -7.424 -15.398  1.00  0.00    -0.648 OA
BRANCH   4   6
ATOM      6  OXT ARG A   1     -25.172  -5.802 -15.683  1.00  0.00    -0.775 OA
ATOM      7  HXT ARG A   1     -25.194  -4.843 -15.858  1.00  0.00     0.167 HD
ENDBRANCH   4   6
ENDBRANCH   3   4
BRANCH   3   8
ATOM      8  N   ARG A   1     -26.458  -6.582 -18.483  1.00  0.00     0.093 N 
ATOM      9  H1  ARG A   1     -27.257  -6.830 -19.077  1.00  0.00     0.314 HD
ATOM     10  H2  ARG A   1     -26.088  -7.492 -18.196  1.00  0.00     0.314 HD
ENDBRANCH   3   8
ENDBRANCH   2   3
ENDBRANCH   1   2
BRANCH   1  11
ATOM     11  CD  ARG A   1     -29.514  -3.789 -17.501  1.00  0.00     0.122 C 
BRANCH  11  12
ATOM     12  NE  ARG A   1     -30.810  -3.296 -17.953  1.00  0.00    -0.367 N 
ATOM     13  CZ  ARG A   1     -31.858  -3.685 -17.327  1.00  0.00     0.143 C 
ATOM     14  NH1 ARG A   1     -31.958  -4.536 -16.284  1.00  0.00    -0.376 N 
ATOM     15  NH2 ARG A   1     -33.057  -3.175 -17.676  1.00  0.00    -0.274 NA
ATOM     16 HH11 ARG A   1     -31.143  -5.096 -16.081  1.00  0.00     0.158 HD
ATOM     17 HH12 ARG A   1     -32.824  -5.045 -16.188  1.00  0.00     0.158 HD
ATOM     18 HH21 ARG A   1     -33.010  -2.657 -18.546  1.00  0.00     0.127 HD
ATOM     19 HH22 ARG A   1     -33.864  -3.775 -17.609  1.00  0.00     0.127 HD
ATOM     20  HE  ARG A   1     -30.880  -2.659 -18.746  1.00  0.00     0.162 HD
ENDBRANCH  11  12
ENDBRANCH   1  11
TORSDOF 7
BEGIN_RES ARG D 557
REMARK  4 active torsions:
REMARK  status: ('A' for Active; 'I' for Inactive)
REMARK    1  A    between atoms: CA   and  CB  
REMARK    2  A    between atoms: CB   and  CG  
REMARK    3  A    between atoms: CG   and  CD  
REMARK    4  A    between atoms: CD   and  NE  
REMARK       I    between atoms: NE   and  CZ  
REMARK       I    between atoms: CZ   and  NH1 
REMARK       I    between atoms: CZ   and  NH2 
ROOT
ATOM      1  CA  ARG D 557     -26.217   2.705 -17.014  1.00 35.49     0.159 C 
ENDROOT
BRANCH   1   2
ATOM      2  CB  ARG D 557     -26.789   1.319 -17.183  1.00 35.49     0.034 C 
BRANCH   2   3
ATOM      3  CG  ARG D 557     -25.859   0.196 -17.016  1.00 35.49     0.027 C 
BRANCH   3   4
ATOM      4  CD  ARG D 557     -26.289  -0.739 -15.951  1.00 35.49     0.116 C 
BRANCH   4   5
ATOM      5  NE  ARG D 557     -25.267  -0.937 -14.957  1.00 35.49    -0.212 N 
ATOM      6  CZ  ARG D 557     -25.020  -2.061 -14.323  1.00 35.49     0.666 C 
ATOM      7  NH1 ARG D 557     -25.719  -3.162 -14.531  1.00 35.49    -0.235 N 
ATOM      8  NH2 ARG D 557     -24.039  -2.065 -13.468  1.00 35.49    -0.235 N 
ATOM      9  HH  ARG D 557     -26.368  -3.182 -15.090  1.00 35.49     0.174 HD
ATOM     10  HH  ARG D 557     -25.511  -3.866 -14.090  1.00 35.49     0.174 HD
ATOM     11  HH  ARG D 557     -23.599  -1.342 -13.360  1.00 35.49     0.174 HD
ATOM     12  HH  ARG D 557     -23.846  -2.773 -13.043  1.00 35.49     0.174 HD
ATOM     13  HE  ARG D 557     -24.816  -0.261 -14.709  1.00 35.49     0.178 HD
ENDBRANCH   4   5
ENDBRANCH   3   4
ENDBRANCH   2   3
ENDBRANCH   1   2
END_RES ARG D 557
BEGIN_RES GLU D 570
REMARK  3 active torsions:
REMARK  status: ('A' for Active; 'I' for Inactive)
REMARK    5  A    between atoms: CA   and  CB  
REMARK    6  A    between atoms: CB   and  CG  
REMARK    7  A    between atoms: CG   and  CD  
ROOT
ATOM     14  CA  GLU D 570     -18.033  -6.348 -13.375  1.00 32.92     0.160 C 
ENDROOT
BRANCH  14  15
ATOM     15  CB  GLU D 570     -19.500  -6.345 -13.794  1.00 32.92     0.043 C 
BRANCH  15  16
ATOM     16  CG  GLU D 570     -20.445  -5.547 -12.971  1.00 32.92     0.100 C 
BRANCH  16  17
ATOM     17  CD  GLU D 570     -21.722  -5.206 -13.704  1.00 32.92     0.185 C 
ATOM     18  OE1 GLU D 570     -21.836  -5.528 -14.903  1.00 32.92    -0.647 OA
ATOM     19  OE2 GLU D 570     -22.610  -4.596 -13.078  1.00 32.92    -0.647 OA
ENDBRANCH  16  17
ENDBRANCH  15  16
ENDBRANCH  14  15
END_RES GLU D 570
ENDMDL
MODEL 6
REMARK VINA RESULT:      -6.1      6.904      8.573
REMARK  7 active torsions:
REMARK  status: ('A' for Active; 'I' for Inactive)
REMARK    1  A    between atoms: CG_1  and  CB_2 
REMARK    2  A    between atoms: CG_1  and  CD_8 
REMARK    3  A    between atoms: CB_2  and  CA_3 
REMARK    4  A    between atoms: CA_3  and  C_4 
REMARK    5  A    between atoms: CA_3  and  N_7 
REMARK    6  A    between atoms: C_4  and  OXT_6 
REMARK    7  A    between atoms: CD_8  and  NE_9 
REMARK       I    between atoms: NE_9  and  CZ_11 
REMARK       I    between atoms: CZ_11  and  NH2_13 
ROOT
ATOM      1  CG  ARG A   1     -33.354  -4.314 -11.061  1.00  0.00     0.022 C 
ENDROOT
BRANCH   1   2
ATOM      2  CB  ARG A   1     -33.674  -3.275 -12.136  1.00  0.00     0.048 C 
BRANCH   2   3
ATOM      3  CA  ARG A   1     -34.216  -1.959 -11.565  1.00  0.00     0.314 C 
BRANCH   3   4
ATOM      4  C   ARG A   1     -35.754  -1.899 -11.618  1.00  0.00     0.173 C 
ATOM      5  O   ARG A   1     -36.482  -2.247 -10.697  1.00  0.00    -0.648 OA
BRANCH   4   6
ATOM      6  OXT ARG A   1     -36.245  -1.398 -12.773  1.00  0.00    -0.775 OA
ATOM      7  HXT ARG A   1     -35.910  -0.510 -13.000  1.00  0.00     0.167 HD
ENDBRANCH   4   6
ENDBRANCH   3   4
BRANCH   3   8
ATOM      8  N   ARG A   1     -33.770  -1.837 -10.159  1.00  0.00     0.093 N 
ATOM      9  H1  ARG A   1     -33.143  -2.626  -9.965  1.00  0.00     0.314 HD
ATOM     10  H2  ARG A   1     -34.571  -2.019  -9.549  1.00  0.00     0.314 HD
ENDBRANCH   3   8
ENDBRANCH   2   3
ENDBRANCH   1   2
BRANCH   1  11
ATOM     11  CD  ARG A   1     -34.396  -5.433 -11.027  1.00  0.00     0.122 C 
BRANCH  11  12
ATOM     12  NE  ARG A   1     -33.683  -6.704 -11.023  1.00  0.00    -0.367 N 
ATOM     13  CZ  ARG A   1     -34.145  -7.654 -10.298  1.00  0.00     0.143 C 
ATOM     14  NH1 ARG A   1     -35.221  -7.656  -9.483  1.00  0.00    -0.376 N 
ATOM     15  NH2 ARG A   1     -33.548  -8.864 -10.344  1.00  0.00    -0.274 NA
ATOM     16 HH11 ARG A   1     -35.610  -6.754  -9.252  1.00  0.00     0.158 HD
ATOM     17 HH12 ARG A   1     -35.204  -8.295  -8.702  1.00  0.00     0.158 HD
ATOM     18 HH21 ARG A   1     -32.659  -8.829 -10.833  1.00  0.00     0.127 HD
ATOM     19 HH22 ARG A   1     -33.521  -9.411  -9.499  1.00  0.00     0.127 HD
ATOM     20  HE  ARG A   1     -32.839  -6.834 -11.581  1.00  0.00     0.162 HD
ENDBRANCH  11  12
ENDBRANCH   1  11
TORSDOF 7
BEGIN_RES ARG D 557
REMARK  4 active torsions:
REMARK  status: ('A' for Active; 'I' for Inactive)
REMARK    1  A    between atoms: CA   and  CB  
REMARK    2  A    between atoms: CB   and  CG  
REMARK    3  A    between atoms: CG   and  CD  
REMARK    4  A    between atoms: CD   and  NE  
REMARK       I    between atoms: NE   and  CZ  
REMARK       I    between atoms: CZ   and  NH1 
REMARK       I    between atoms: CZ   and  NH2 
ROOT
ATOM      1  CA  ARG D 557     -26.217   2.705 -17.014  1.00 35.49     0.159 C 
ENDROOT
BRANCH   1   2
ATOM      2  CB  ARG D 557     -26.789   1.319 -17.183  1.00 35.49     0.034 C 
BRANCH   2   3
ATOM      3  CG  ARG D 557     -25.833   0.205 -17.181  1.00 35.49     0.027 C 
BRANCH   3   4
ATOM      4  CD  ARG D 557     -24.743   0.398 -16.197  1.00 35.49     0.116 C 
BRANCH   4   5
ATOM      5  NE  ARG D 557     -24.900  -0.444 -15.041  1.00 35.49    -0.212 N 
ATOM      6  CZ  ARG D 557     -24.084  -1.406 -14.675  1.00 35.49     0.666 C 
ATOM      7  NH1 ARG D 557     -23.003  -1.720 -15.365  1.00 35.49    -0.235 N 
ATOM      8  NH2 ARG D 557     -24.372  -2.055 -13.584  1.00 35.49    -0.235 N 
ATOM      9  HH  ARG D 557     -22.793  -1.305 -16.085  1.00 35.49     0.174 HD
ATOM     10  HH  ARG D 557     -22.506  -2.355 -15.076  1.00 35.49     0.174 HD
ATOM     11  HH  ARG D 557     -25.072  -1.826 -13.155  1.00 35.49     0.174 HD
ATOM     12  HH  ARG D 557     -23.866  -2.680 -13.314  1.00 35.49     0.174 HD
ATOM     13  HE  ARG D 557     -25.609  -0.359 -14.579  1.00 35.49     0.178 HD
ENDBRANCH   4   5
ENDBRANCH   3   4
ENDBRANCH   2   3
ENDBRANCH   1   2
END_RES ARG D 557
BEGIN_RES GLU D 570
REMARK  3 active torsions:
REMARK  status: ('A' for Active; 'I' for Inactive)
REMARK    5  A    between atoms: CA   and  CB  
REMARK    6  A    between atoms: CB   and  CG  
REMARK    7  A    between atoms: CG   and  CD  
ROOT
ATOM     14  CA  GLU D 570     -18.033  -6.348 -13.375  1.00 32.92     0.160 C 
ENDROOT
BRANCH  14  15
ATOM     15  CB  GLU D 570     -19.500  -6.345 -13.794  1.00 32.92     0.043 C 
BRANCH  15  16
ATOM     16  CG  GLU D 570     -20.440  -5.523 -12.989  1.00 32.92     0.100 C 
BRANCH  16  17
ATOM     17  CD  GLU D 570     -21.746  -5.255 -13.700  1.00 32.92     0.185 C 
ATOM     18  OE1 GLU D 570     -22.220  -6.133 -14.446  1.00 32.92    -0.647 OA
ATOM     19  OE2 GLU D 570     -22.293  -4.149 -13.522  1.00 32.92    -0.647 OA
ENDBRANCH  16  17
ENDBRANCH  15  16
ENDBRANCH  14  15
END_RES GLU D 570
ENDMDL
MODEL 7
REMARK VINA RESULT:      -6.0      3.815      6.139
REMARK  7 active torsions:
REMARK  status: ('A' for Active; 'I' for Inactive)
REMARK    1  A    between atoms: CG_1  and  CB_2 
REMARK    2  A    between atoms: CG_1  and  CD_8 
REMARK    3  A    between atoms: CB_2  and  CA_3 
REMARK    4  A    between atoms: CA_3  and  C_4 
REMARK    5  A    between atoms: CA_3  and  N_7 
REMARK    6  A    between atoms: C_4  and  OXT_6 
REMARK    7  A    between atoms: CD_8  and  NE_9 
REMARK       I    between atoms: NE_9  and  CZ_11 
REMARK       I    between atoms: CZ_11  and  NH2_13 
ROOT
ATOM      1  CG  ARG A   1     -28.350  -6.357 -16.318  1.00  0.00     0.022 C 
ENDROOT
BRANCH   1   2
ATOM      2  CB  ARG A   1     -29.378  -5.908 -17.357  1.00  0.00     0.048 C 
BRANCH   2   3
ATOM      3  CA  ARG A   1     -30.518  -5.075 -16.761  1.00  0.00     0.314 C 
BRANCH   3   4
ATOM      4  C   ARG A   1     -30.665  -3.713 -17.464  1.00  0.00     0.173 C 
ATOM      5  O   ARG A   1     -31.733  -3.133 -17.612  1.00  0.00    -0.648 OA
BRANCH   4   6
ATOM      6  OXT ARG A   1     -29.495  -3.186 -17.890  1.00  0.00    -0.775 OA
ATOM      7  HXT ARG A   1     -29.589  -2.507 -18.584  1.00  0.00     0.167 HD
ENDBRANCH   4   6
ENDBRANCH   3   4
BRANCH   3   8
ATOM      8  N   ARG A   1     -31.781  -5.835 -16.902  1.00  0.00     0.093 N 
ATOM      9  H1  ARG A   1     -31.591  -6.802 -16.616  1.00  0.00     0.314 HD
ATOM     10  H2  ARG A   1     -31.996  -5.923 -17.898  1.00  0.00     0.314 HD
ENDBRANCH   3   8
ENDBRANCH   2   3
ENDBRANCH   1   2
BRANCH   1  11
ATOM     11  CD  ARG A   1     -26.962  -5.785 -16.612  1.00  0.00     0.122 C 
BRANCH  11  12
ATOM     12  NE  ARG A   1     -26.082  -6.901 -16.938  1.00  0.00    -0.367 N 
ATOM     13  CZ  ARG A   1     -25.055  -7.098 -16.198  1.00  0.00     0.143 C 
ATOM     14  NH1 ARG A   1     -24.627  -6.390 -15.131  1.00  0.00    -0.376 N 
ATOM     15  NH2 ARG A   1     -24.275  -8.174 -16.432  1.00  0.00    -0.274 NA
ATOM     16 HH11 ARG A   1     -25.041  -5.479 -15.002  1.00  0.00     0.158 HD
ATOM     17 HH12 ARG A   1     -23.638  -6.409 -14.935  1.00  0.00     0.158 HD
ATOM     18 HH21 ARG A   1     -24.501  -8.621 -17.314  1.00  0.00     0.127 HD
ATOM     19 HH22 ARG A   1     -23.285  -8.086 -16.268  1.00  0.00     0.127 HD
ATOM     20  HE  ARG A   1     -26.278  -7.508 -17.734  1.00  0.00     0.162 HD
ENDBRANCH  11  12
ENDBRANCH   1  11
TORSDOF 7
BEGIN_RES ARG D 557
REMARK  4 active torsions:
REMARK  status: ('A' for Active; 'I' for Inactive)
REMARK    1  A    between atoms: CA   and  CB  
REMARK    2  A    between atoms: CB   and  CG  
REMARK    3  A    between atoms: CG   and  CD  
REMARK    4  A    between atoms: CD   and  NE  
REMARK       I    between atoms: NE   and  CZ  
REMARK       I    between atoms: CZ   and  NH1 
REMARK       I    between atoms: CZ   and  NH2 
ROOT
ATOM      1  CA  ARG D 557     -26.217   2.705 -17.014  1.00 35.49     0.159 C 
ENDROOT
BRANCH   1   2
ATOM      2  CB  ARG D 557     -26.789   1.319 -17.183  1.00 35.49     0.034 C 
BRANCH   2   3
ATOM      3  CG  ARG D 557     -25.863   0.195 -17.000  1.00 35.49     0.027 C 
BRANCH   3   4
ATOM      4  CD  ARG D 557     -26.269  -0.696 -15.889  1.00 35.49     0.116 C 
BRANCH   4   5
ATOM      5  NE  ARG D 557     -25.202  -0.909 -14.947  1.00 35.49    -0.212 N 
ATOM      6  CZ  ARG D 557     -24.947  -2.033 -14.316  1.00 35.49     0.666 C 
ATOM      7  NH1 ARG D 557     -25.680  -3.119 -14.479  1.00 35.49    -0.235 N 
ATOM      8  NH2 ARG D 557     -23.924  -2.052 -13.512  1.00 35.49    -0.235 N 
ATOM      9  HH  ARG D 557     -26.356  -3.130 -15.005  1.00 35.49     0.174 HD
ATOM     10  HH  ARG D 557     -25.464  -3.825 -14.043  1.00 35.49     0.174 HD
ATOM     11  HH  ARG D 557     -23.464  -1.338 -13.433  1.00 35.49     0.174 HD
ATOM     12  HH  ARG D 557     -23.726  -2.761 -13.091  1.00 35.49     0.174 HD
ATOM     13  HE  ARG D 557     -24.724  -0.241 -14.727  1.00 35.49     0.178 HD
ENDBRANCH   4   5
ENDBRANCH   3   4
ENDBRANCH   2   3
ENDBRANCH   1   2
END_RES ARG D 557
BEGIN_RES GLU D 570
REMARK  3 active torsions:
REMARK  status: ('A' for Active; 'I' for Inactive)
REMARK    5  A    between atoms: CA   and  CB  
REMARK    6  A    between atoms: CB   and  CG  
REMARK    7  A    between atoms: CG   and  CD  
ROOT
ATOM     14  CA  GLU D 570     -18.033  -6.348 -13.375  1.00 32.92     0.160 C 
ENDROOT
BRANCH  14  15
ATOM     15  CB  GLU D 570     -19.500  -6.345 -13.794  1.00 32.92     0.043 C 
BRANCH  15  16
ATOM     16  CG  GLU D 570     -20.440  -5.524 -12.988  1.00 32.92     0.100 C 
BRANCH  16  17
ATOM     17  CD  GLU D 570     -21.707  -5.176 -13.734  1.00 32.92     0.185 C 
ATOM     18  OE1 GLU D 570     -22.725  -4.864 -13.086  1.00 32.92    -0.647 OA
ATOM     19  OE2 GLU D 570     -21.687  -5.233 -14.980  1.00 32.92    -0.647 OA
ENDBRANCH  16  17
ENDBRANCH  15  16
ENDBRANCH  14  15
END_RES GLU D 570
ENDMDL
MODEL 8
REMARK VINA RESULT:      -6.0      2.562      3.630
REMARK  7 active torsions:
REMARK  status: ('A' for Active; 'I' for Inactive)
REMARK    1  A    between atoms: CG_1  and  CB_2 
REMARK    2  A    between atoms: CG_1  and  CD_8 
REMARK    3  A    between atoms: CB_2  and  CA_3 
REMARK    4  A    between atoms: CA_3  and  C_4 
REMARK    5  A    between atoms: CA_3  and  N_7 
REMARK    6  A    between atoms: C_4  and  OXT_6 
REMARK    7  A    between atoms: CD_8  and  NE_9 
REMARK       I    between atoms: NE_9  and  CZ_11 
REMARK       I    between atoms: CZ_11  and  NH2_13 
ROOT
ATOM      1  CG  ARG A   1     -23.262  -5.168 -13.226  1.00  0.00     0.022 C 
ENDROOT
BRANCH   1   2
ATOM      2  CB  ARG A   1     -22.431  -3.891 -13.095  1.00  0.00     0.048 C 
BRANCH   2   3
ATOM      3  CA  ARG A   1     -23.284  -2.620 -13.002  1.00  0.00     0.314 C 
BRANCH   3   4
ATOM      4  C   ARG A   1     -23.439  -1.930 -14.370  1.00  0.00     0.173 C 
ATOM      5  O   ARG A   1     -22.792  -2.233 -15.364  1.00  0.00    -0.648 OA
BRANCH   4   6
ATOM      6  OXT ARG A   1     -24.382  -0.961 -14.393  1.00  0.00    -0.775 OA
ATOM      7  HXT ARG A   1     -24.363  -0.402 -15.192  1.00  0.00     0.167 HD
ENDBRANCH   4   6
ENDBRANCH   3   4
BRANCH   3   8
ATOM      8  N   ARG A   1     -24.623  -2.988 -12.487  1.00  0.00     0.093 N 
ATOM      9  H1  ARG A   1     -25.290  -2.874 -13.257  1.00  0.00     0.314 HD
ATOM     10  H2  ARG A   1     -24.918  -2.276 -11.814  1.00  0.00     0.314 HD
ENDBRANCH   3   8
ENDBRANCH   2   3
ENDBRANCH   1   2
BRANCH   1  11
ATOM     11  CD  ARG A   1     -23.393  -5.610 -14.684  1.00  0.00     0.122 C 
BRANCH  11  12
ATOM     12  NE  ARG A   1     -24.774  -6.023 -14.901  1.00  0.00    -0.367 N 
ATOM     13  CZ  ARG A   1     -24.996  -6.995 -15.706  1.00  0.00     0.143 C 
ATOM     14  NH1 ARG A   1     -24.116  -7.712 -16.436  1.00  0.00    -0.376 N 
ATOM     15  NH2 ARG A   1     -26.258  -7.447 -15.856  1.00  0.00    -0.274 NA
ATOM     16 HH11 ARG A   1     -23.187  -7.328 -16.523  1.00  0.00     0.158 HD
ATOM     17 HH12 ARG A   1     -24.457  -8.125 -17.291  1.00  0.00     0.158 HD
ATOM     18 HH21 ARG A   1     -26.937  -6.824 -15.431  1.00  0.00     0.127 HD
ATOM     19 HH22 ARG A   1     -26.535  -7.785 -16.764  1.00  0.00     0.127 HD
ATOM     20  HE  ARG A   1     -25.543  -5.552 -14.425  1.00  0.00     0.162 HD
ENDBRANCH  11  12
ENDBRANCH   1  11
TORSDOF 7
BEGIN_RES ARG D 557
REMARK  4 active torsions:
REMARK  status: ('A' for Active; 'I' for Inactive)
REMARK    1  A    between atoms: CA   and  CB  
REMARK    2  A    between atoms: CB   and  CG  
REMARK    3  A    between atoms: CG   and  CD  
REMARK    4  A    between atoms: CD   and  NE  
REMARK       I    between atoms: NE   and  CZ  
REMARK       I    between atoms: CZ   and  NH1 
REMARK       I    between atoms: CZ   and  NH2 
ROOT
ATOM      1  CA  ARG D 557     -26.217   2.705 -17.014  1.00 35.49     0.159 C 
ENDROOT
BRANCH   1   2
ATOM      2  CB  ARG D 557     -26.789   1.319 -17.183  1.00 35.49     0.034 C 
BRANCH   2   3
ATOM      3  CG  ARG D 557     -28.219   1.155 -16.895  1.00 35.49     0.027 C 
BRANCH   3   4
ATOM      4  CD  ARG D 557     -28.617  -0.269 -16.805  1.00 35.49     0.116 C 
BRANCH   4   5
ATOM      5  NE  ARG D 557     -27.644  -1.060 -16.099  1.00 35.49    -0.212 N 
ATOM      6  CZ  ARG D 557     -27.516  -2.366 -16.173  1.00 35.49     0.666 C 
ATOM      7  NH1 ARG D 557     -28.307  -3.115 -16.919  1.00 35.49    -0.235 N 
ATOM      8  NH2 ARG D 557     -26.563  -2.917 -15.479  1.00 35.49    -0.235 N 
ATOM      9  HH  ARG D 557     -28.940  -2.774 -17.386  1.00 35.49     0.174 HD
ATOM     10  HH  ARG D 557     -28.175  -3.961 -16.930  1.00 35.49     0.174 HD
ATOM     11  HH  ARG D 557     -26.062  -2.408 -15.012  1.00 35.49     0.174 HD
ATOM     12  HH  ARG D 557     -26.447  -3.756 -15.505  1.00 35.49     0.174 HD
ATOM     13  HE  ARG D 557     -27.139  -0.667 -15.539  1.00 35.49     0.178 HD
ENDBRANCH   4   5
ENDBRANCH   3   4
ENDBRANCH   2   3
ENDBRANCH   1   2
END_RES ARG D 557
BEGIN_RES GLU D 570
REMARK  3 active torsions:
REMARK  status: ('A' for Active; 'I' for Inactive)
REMARK    5  A    between atoms: CA   and  CB  
REMARK    6  A    between atoms: CB   and  CG  
REMARK    7  A    between atoms: CG   and  CD  
ROOT
ATOM     14  CA  GLU D 570     -18.033  -6.348 -13.375  1.00 32.92     0.160 C 
ENDROOT
BRANCH  14  15
ATOM     15  CB  GLU D 570     -19.500  -6.345 -13.794  1.00 32.92     0.043 C 
BRANCH  15  16
ATOM     16  CG  GLU D 570     -19.797  -6.231 -15.245  1.00 32.92     0.100 C 
BRANCH  16  17
ATOM     17  CD  GLU D 570     -20.580  -7.407 -15.781  1.00 32.92     0.185 C 
ATOM     18  OE1 GLU D 570     -20.558  -8.484 -15.155  1.00 32.92    -0.647 OA
ATOM     19  OE2 GLU D 570     -21.208  -7.254 -16.847  1.00 32.92    -0.647 OA
ENDBRANCH  16  17
ENDBRANCH  15  16
ENDBRANCH  14  15
END_RES GLU D 570
ENDMDL
MODEL 9
REMARK VINA RESULT:      -5.9      2.596      3.641
REMARK  7 active torsions:
REMARK  status: ('A' for Active; 'I' for Inactive)
REMARK    1  A    between atoms: CG_1  and  CB_2 
REMARK    2  A    between atoms: CG_1  and  CD_8 
REMARK    3  A    between atoms: CB_2  and  CA_3 
REMARK    4  A    between atoms: CA_3  and  C_4 
REMARK    5  A    between atoms: CA_3  and  N_7 
REMARK    6  A    between atoms: C_4  and  OXT_6 
REMARK    7  A    between atoms: CD_8  and  NE_9 
REMARK       I    between atoms: NE_9  and  CZ_11 
REMARK       I    between atoms: CZ_11  and  NH2_13 
ROOT
ATOM      1  CG  ARG A   1     -23.421  -5.330 -13.683  1.00  0.00     0.022 C 
ENDROOT
BRANCH   1   2
ATOM      2  CB  ARG A   1     -23.548  -5.694 -15.163  1.00  0.00     0.048 C 
BRANCH   2   3
ATOM      3  CA  ARG A   1     -24.421  -6.929 -15.410  1.00  0.00     0.314 C 
BRANCH   3   4
ATOM      4  C   ARG A   1     -25.902  -6.556 -15.610  1.00  0.00     0.173 C 
ATOM      5  O   ARG A   1     -26.829  -7.344 -15.467  1.00  0.00    -0.648 OA
BRANCH   4   6
ATOM      6  OXT ARG A   1     -26.103  -5.261 -15.939  1.00  0.00    -0.775 OA
ATOM      7  HXT ARG A   1     -26.956  -5.085 -16.377  1.00  0.00     0.167 HD
ENDBRANCH   4   6
ENDBRANCH   3   4
BRANCH   3   8
ATOM      8  N   ARG A   1     -23.925  -7.623 -16.620  1.00  0.00     0.093 N 
ATOM      9  H1  ARG A   1     -24.408  -7.215 -17.428  1.00  0.00     0.314 HD
ATOM     10  H2  ARG A   1     -24.268  -8.587 -16.604  1.00  0.00     0.314 HD
ENDBRANCH   3   8
ENDBRANCH   2   3
ENDBRANCH   1   2
BRANCH   1  11
ATOM     11  CD  ARG A   1     -23.521  -3.820 -13.461  1.00  0.00     0.122 C 
BRANCH  11  12
ATOM     12  NE  ARG A   1     -24.852  -3.397 -13.880  1.00  0.00    -0.367 N 
ATOM     13  CZ  ARG A   1     -24.968  -2.273 -14.483  1.00  0.00     0.143 C 
ATOM     14  NH1 ARG A   1     -24.013  -1.367 -14.782  1.00  0.00    -0.376 N 
ATOM     15  NH2 ARG A   1     -26.177  -1.902 -14.953  1.00  0.00    -0.274 NA
ATOM     16 HH11 ARG A   1     -23.127  -1.477 -14.313  1.00  0.00     0.158 HD
ATOM     17 HH12 ARG A   1     -24.304  -0.404 -14.863  1.00  0.00     0.158 HD
ATOM     18 HH21 ARG A   1     -26.919  -2.500 -14.604  1.00  0.00     0.127 HD
ATOM     19 HH22 ARG A   1     -26.410  -0.922 -14.939  1.00  0.00     0.127 HD
ATOM     20  HE  ARG A   1     -25.669  -3.980 -13.698  1.00  0.00     0.162 HD
ENDBRANCH  11  12
ENDBRANCH   1  11
TORSDOF 7
BEGIN_RES ARG D 557
REMARK  4 active torsions:
REMARK  status: ('A' for Active; 'I' for Inactive)
REMARK    1  A    between atoms: CA   and  CB  
REMARK    2  A    between atoms: CB   and  CG  
REMARK    3  A    between atoms: CG   and  CD  
REMARK    4  A    between atoms: CD   and  NE  
REMARK       I    between atoms: NE   and  CZ  
REMARK       I    between atoms: CZ   and  NH1 
REMARK       I    between atoms: CZ   and  NH2 
ROOT
ATOM      1  CA  ARG D 557     -26.217   2.705 -17.014  1.00 35.49     0.159 C 
ENDROOT
BRANCH   1   2
ATOM      2  CB  ARG D 557     -26.789   1.319 -17.183  1.00 35.49     0.034 C 
BRANCH   2   3
ATOM      3  CG  ARG D 557     -28.140   1.093 -16.656  1.00 35.49     0.027 C 
BRANCH   3   4
ATOM      4  CD  ARG D 557     -28.828  -0.032 -17.330  1.00 35.49     0.116 C 
BRANCH   4   5
ATOM      5  NE  ARG D 557     -28.274  -1.307 -16.958  1.00 35.49    -0.212 N 
ATOM      6  CZ  ARG D 557     -28.848  -2.476 -17.138  1.00 35.49     0.666 C 
ATOM      7  NH1 ARG D 557     -30.043  -2.602 -17.686  1.00 35.49    -0.235 N 
ATOM      8  NH2 ARG D 557     -28.190  -3.532 -16.759  1.00 35.49    -0.235 N 
ATOM      9  HH  ARG D 557     -30.493  -1.920 -17.945  1.00 35.49     0.174 HD
ATOM     10  HH  ARG D 557     -30.366  -3.390 -17.781  1.00 35.49     0.174 HD
ATOM     11  HH  ARG D 557     -27.418  -3.421 -16.415  1.00 35.49     0.174 HD
ATOM     12  HH  ARG D 557     -28.526  -4.304 -16.863  1.00 35.49     0.174 HD
ATOM     13  HE  ARG D 557     -27.538  -1.314 -16.533  1.00 35.49     0.178 HD
ENDBRANCH   4   5
ENDBRANCH   3   4
ENDBRANCH   2   3
ENDBRANCH   1   2
END_RES ARG D 557
BEGIN_RES GLU D 570
REMARK  3 active torsions:
REMARK  status: ('A' for Active; 'I' for Inactive)
REMARK    5  A    between atoms: CA   and  CB  
REMARK    6  A    between atoms: CB   and  CG  
REMARK    7  A    between atoms: CG   and  CD  
ROOT
ATOM     14  CA  GLU D 570     -18.033  -6.348 -13.375  1.00 32.92     0.160 C 
ENDROOT
BRANCH  14  15
ATOM     15  CB  GLU D 570     -19.500  -6.345 -13.794  1.00 32.92     0.043 C 
BRANCH  15  16
ATOM     16  CG  GLU D 570     -19.797  -6.228 -15.245  1.00 32.92     0.100 C 
BRANCH  16  17
ATOM     17  CD  GLU D 570     -20.541  -7.424 -15.792  1.00 32.92     0.185 C 
ATOM     18  OE1 GLU D 570     -21.094  -7.335 -16.905  1.00 32.92    -0.647 OA
ATOM     19  OE2 GLU D 570     -20.586  -8.455 -15.093  1.00 32.92    -0.647 OA
ENDBRANCH  16  17
ENDBRANCH  15  16
ENDBRANCH  14  15
END_RES GLU D 570
ENDMDL
