MODEL 1
REMARK VINA RESULT:      -7.1      0.000      0.000
REMARK  23 active torsions:
REMARK  status: ('A' for Active; 'I' for Inactive)
REMARK    1  A    between atoms: C_2  and  C_3 
REMARK    2  A    between atoms: C_3  and  C_4 
REMARK    3  A    between atoms: C_4  and  C_5 
REMARK    4  A    between atoms: C_5  and  C_6 
REMARK    5  A    between atoms: C_6  and  C_7 
REMARK    6  A    between atoms: C_7  and  C_8 
REMARK    7  A    between atoms: C_8  and  C_9 
REMARK    8  A    between atoms: C_9  and  C_10 
REMARK    9  A    between atoms: C_10  and  C_11 
REMARK   10  A    between atoms: C_11  and  C_12 
REMARK   11  A    between atoms: C_12  and  C_13 
REMARK   12  A    between atoms: C_13  and  C_14 
REMARK   13  A    between atoms: C_14  and  C_15 
REMARK   14  A    between atoms: C_15  and  C_16 
REMARK   15  A    between atoms: C_16  and  C_17 
REMARK   16  A    between atoms: C_17  and  C_18 
REMARK   17  A    between atoms: C_18  and  O_20 
REMARK   18  A    between atoms: O_20  and  C_21 
REMARK   19  A    between atoms: C_21  and  C_22 
REMARK   20  A    between atoms: C_22  and  C_23 
REMARK   21  A    between atoms: C_22  and  C_25 
REMARK   22  A    between atoms: C_25  and  C_26 
REMARK   23  A    between atoms: C_26  and  C_27 
ROOT
HETATM    1  C   UNL     1     -20.919  -4.372  -6.728  1.00  0.00     0.000 C 
ENDROOT
BRANCH   1   2
HETATM    2  C   UNL     1     -20.212  -5.598  -6.170  1.00  0.00     0.000 C 
BRANCH   2   3
HETATM    3  C   UNL     1     -21.213  -6.714  -5.911  1.00  0.00     0.000 C 
BRANCH   3   4
HETATM    4  C   UNL     1     -22.062  -6.382  -4.696  1.00  0.00     0.000 C 
BRANCH   4   5
HETATM    5  C   UNL     1     -21.371  -6.855  -3.429  1.00  0.00     0.000 C 
BRANCH   5   6
HETATM    6  C   UNL     1     -21.900  -6.086  -2.232  1.00  0.00     0.000 C 
BRANCH   6   7
HETATM    7  C   UNL     1     -22.410  -7.051  -1.177  1.00  0.00     0.000 C 
BRANCH   7   8
HETATM    8  C   UNL     1     -21.248  -7.803  -0.552  1.00  0.00     0.000 C 
BRANCH   8   9
HETATM    9  C   UNL     1     -21.765  -8.992   0.239  1.00  0.00     0.000 C 
BRANCH   9  10
HETATM   10  C   UNL     1     -23.285  -8.996   0.247  1.00  0.00     0.000 C 
BRANCH  10  11
HETATM   11  C   UNL     1     -23.810 -10.375  -0.124  1.00  0.00     0.000 C 
BRANCH  11  12
HETATM   12  C   UNL     1     -22.702 -11.210  -0.749  1.00  0.00    -0.000 C 
BRANCH  12  13
HETATM   13  C   UNL     1     -23.007 -11.505  -2.212  1.00  0.00    -0.005 C 
HETATM   14  C   UNL     1     -22.337 -10.486  -3.114  1.00  0.00     0.005 C 
ENDBRANCH  12  13
ENDBRANCH  11  12
ENDBRANCH  10  11
ENDBRANCH   9  10
ENDBRANCH   8   9
ENDBRANCH   7   8
ENDBRANCH   6   7
ENDBRANCH   5   6
ENDBRANCH   4   5
ENDBRANCH   3   4
ENDBRANCH   2   3
ENDBRANCH   1   2
BRANCH   1  15
HETATM   15  C   UNL     1     -21.297  -4.584  -8.192  1.00  0.00     0.000 C 
BRANCH  15  16
HETATM   16  C   UNL     1     -22.760  -4.216  -8.405  1.00  0.00     0.010 C 
BRANCH  16  17
HETATM   17  C   UNL     1     -23.267  -4.584  -9.796  1.00  0.00     0.111 C 
BRANCH  17  18
HETATM   18  C   UNL     1     -24.274  -3.548 -10.260  1.00  0.00     0.258 C 
HETATM   19  O   UNL     1     -24.949  -2.848  -9.537  1.00  0.00    -0.265 OA
BRANCH  18  20
HETATM   20  O   UNL     1     -24.357  -3.584 -11.626  1.00  0.00    -0.321 OA
BRANCH  20  21
HETATM   21  C   UNL     1     -23.481  -4.549 -12.224  1.00  0.00     0.183 C 
BRANCH  21  22
HETATM   22  C   UNL     1     -23.675  -4.649 -13.746  1.00  0.00     0.010 C 
BRANCH  22  23
HETATM   23  C   UNL     1     -22.616  -3.834 -14.528  1.00  0.00     0.002 C 
HETATM   24  C   UNL     1     -22.991  -2.384 -14.801  1.00  0.00     0.005 C 
ENDBRANCH  22  23
BRANCH  22  25
HETATM   25  C   UNL     1     -23.665  -6.131 -14.186  1.00  0.00     0.007 C 
BRANCH  25  26
HETATM   26  C   UNL     1     -24.548  -6.392 -15.410  1.00  0.00     0.000 C 
BRANCH  26  27
HETATM   27  C   UNL     1     -25.811  -5.539 -15.411  1.00  0.00    -0.005 C 
HETATM   28  C   UNL     1     -26.701  -5.920 -16.584  1.00  0.00     0.005 C 
ENDBRANCH  26  27
ENDBRANCH  25  26
ENDBRANCH  22  25
ENDBRANCH  21  22
ENDBRANCH  20  21
ENDBRANCH  18  20
ENDBRANCH  17  18
ENDBRANCH  16  17
ENDBRANCH  15  16
ENDBRANCH   1  15
TORSDOF 23
BEGIN_RES ARG D 557
REMARK  4 active torsions:
REMARK  status: ('A' for Active; 'I' for Inactive)
REMARK    1  A    between atoms: CA   and  CB  
REMARK    2  A    between atoms: CB   and  CG  
REMARK    3  A    between atoms: CG   and  CD  
REMARK    4  A    between atoms: CD   and  NE  
REMARK       I    between atoms: NE   and  CZ  
REMARK       I    between atoms: CZ   and  NH1 
REMARK       I    between atoms: CZ   and  NH2 
ROOT
ATOM      1  CA  ARG D 557     -26.217   2.705 -17.014  1.00 35.49     0.159 C 
ENDROOT
BRANCH   1   2
ATOM      2  CB  ARG D 557     -26.789   1.319 -17.183  1.00 35.49     0.034 C 
BRANCH   2   3
ATOM      3  CG  ARG D 557     -28.236   1.225 -17.415  1.00 35.49     0.027 C 
BRANCH   3   4
ATOM      4  CD  ARG D 557     -28.897   0.286 -16.480  1.00 35.49     0.116 C 
BRANCH   4   5
ATOM      5  NE  ARG D 557     -29.297  -0.934 -17.130  1.00 35.49    -0.212 N 
ATOM      6  CZ  ARG D 557     -28.681  -2.092 -17.038  1.00 35.49     0.666 C 
ATOM      7  NH1 ARG D 557     -27.582  -2.255 -16.324  1.00 35.49    -0.235 N 
ATOM      8  NH2 ARG D 557     -29.197  -3.099 -17.679  1.00 35.49    -0.235 N 
ATOM      9  HH  ARG D 557     -27.226  -1.606 -15.892  1.00 35.49     0.174 HD
ATOM     10  HH  ARG D 557     -27.225  -3.034 -16.299  1.00 35.49     0.174 HD
ATOM     11  HH  ARG D 557     -29.911  -2.966 -18.126  1.00 35.49     0.174 HD
ATOM     12  HH  ARG D 557     -28.830  -3.863 -17.641  1.00 35.49     0.174 HD
ATOM     13  HE  ARG D 557     -29.954  -0.903 -17.669  1.00 35.49     0.178 HD
ENDBRANCH   4   5
ENDBRANCH   3   4
ENDBRANCH   2   3
ENDBRANCH   1   2
END_RES ARG D 557
BEGIN_RES GLU D 570
REMARK  3 active torsions:
REMARK  status: ('A' for Active; 'I' for Inactive)
REMARK    5  A    between atoms: CA   and  CB  
REMARK    6  A    between atoms: CB   and  CG  
REMARK    7  A    between atoms: CG   and  CD  
ROOT
ATOM     14  CA  GLU D 570     -18.033  -6.348 -13.375  1.00 32.92     0.160 C 
ENDROOT
BRANCH  14  15
ATOM     15  CB  GLU D 570     -19.500  -6.345 -13.794  1.00 32.92     0.043 C 
BRANCH  15  16
ATOM     16  CG  GLU D 570     -19.798  -6.198 -15.242  1.00 32.92     0.100 C 
BRANCH  16  17
ATOM     17  CD  GLU D 570     -20.653  -7.319 -15.785  1.00 32.92     0.185 C 
ATOM     18  OE1 GLU D 570     -21.338  -7.118 -16.806  1.00 32.92    -0.647 OA
ATOM     19  OE2 GLU D 570     -20.652  -8.405 -15.172  1.00 32.92    -0.647 OA
ENDBRANCH  16  17
ENDBRANCH  15  16
ENDBRANCH  14  15
END_RES GLU D 570
ENDMDL
MODEL 2
REMARK VINA RESULT:      -6.8      2.459      5.332
REMARK  23 active torsions:
REMARK  status: ('A' for Active; 'I' for Inactive)
REMARK    1  A    between atoms: C_2  and  C_3 
REMARK    2  A    between atoms: C_3  and  C_4 
REMARK    3  A    between atoms: C_4  and  C_5 
REMARK    4  A    between atoms: C_5  and  C_6 
REMARK    5  A    between atoms: C_6  and  C_7 
REMARK    6  A    between atoms: C_7  and  C_8 
REMARK    7  A    between atoms: C_8  and  C_9 
REMARK    8  A    between atoms: C_9  and  C_10 
REMARK    9  A    between atoms: C_10  and  C_11 
REMARK   10  A    between atoms: C_11  and  C_12 
REMARK   11  A    between atoms: C_12  and  C_13 
REMARK   12  A    between atoms: C_13  and  C_14 
REMARK   13  A    between atoms: C_14  and  C_15 
REMARK   14  A    between atoms: C_15  and  C_16 
REMARK   15  A    between atoms: C_16  and  C_17 
REMARK   16  A    between atoms: C_17  and  C_18 
REMARK   17  A    between atoms: C_18  and  O_20 
REMARK   18  A    between atoms: O_20  and  C_21 
REMARK   19  A    between atoms: C_21  and  C_22 
REMARK   20  A    between atoms: C_22  and  C_23 
REMARK   21  A    between atoms: C_22  and  C_25 
REMARK   22  A    between atoms: C_25  and  C_26 
REMARK   23  A    between atoms: C_26  and  C_27 
ROOT
HETATM    1  C   UNL     1     -22.289  -4.641 -13.140  1.00  0.00     0.000 C 
ENDROOT
BRANCH   1   2
HETATM    2  C   UNL     1     -22.254  -4.328 -11.651  1.00  0.00     0.000 C 
BRANCH   2   3
HETATM    3  C   UNL     1     -20.859  -3.884 -11.237  1.00  0.00     0.000 C 
BRANCH   3   4
HETATM    4  C   UNL     1     -20.616  -4.227  -9.777  1.00  0.00     0.000 C 
BRANCH   4   5
HETATM    5  C   UNL     1     -21.911  -4.118  -8.991  1.00  0.00     0.000 C 
BRANCH   5   6
HETATM    6  C   UNL     1     -21.608  -3.879  -7.523  1.00  0.00     0.000 C 
BRANCH   6   7
HETATM    7  C   UNL     1     -22.201  -4.992  -6.680  1.00  0.00     0.000 C 
BRANCH   7   8
HETATM    8  C   UNL     1     -21.160  -5.523  -5.710  1.00  0.00     0.000 C 
BRANCH   8   9
HETATM    9  C   UNL     1     -21.840  -6.284  -4.585  1.00  0.00     0.000 C 
BRANCH   9  10
HETATM   10  C   UNL     1     -21.189  -5.945  -3.253  1.00  0.00     0.000 C 
BRANCH  10  11
HETATM   11  C   UNL     1     -22.085  -6.379  -2.102  1.00  0.00     0.000 C 
BRANCH  11  12
HETATM   12  C   UNL     1     -21.460  -7.553  -1.363  1.00  0.00    -0.000 C 
BRANCH  12  13
HETATM   13  C   UNL     1     -22.466  -8.192  -0.415  1.00  0.00    -0.005 C 
HETATM   14  C   UNL     1     -21.998  -8.070   1.023  1.00  0.00     0.005 C 
ENDBRANCH  12  13
ENDBRANCH  11  12
ENDBRANCH  10  11
ENDBRANCH   9  10
ENDBRANCH   8   9
ENDBRANCH   7   8
ENDBRANCH   6   7
ENDBRANCH   5   6
ENDBRANCH   4   5
ENDBRANCH   3   4
ENDBRANCH   2   3
ENDBRANCH   1   2
BRANCH   1  15
HETATM   15  C   UNL     1     -23.242  -5.798 -13.428  1.00  0.00     0.000 C 
BRANCH  15  16
HETATM   16  C   UNL     1     -23.883  -5.610 -14.797  1.00  0.00     0.010 C 
BRANCH  16  17
HETATM   17  C   UNL     1     -24.287  -6.927 -15.449  1.00  0.00     0.111 C 
BRANCH  17  18
HETATM   18  C   UNL     1     -25.745  -6.862 -15.867  1.00  0.00     0.258 C 
HETATM   19  O   UNL     1     -26.650  -7.495 -15.368  1.00  0.00    -0.265 OA
BRANCH  18  20
HETATM   20  O   UNL     1     -25.864  -6.034 -16.950  1.00  0.00    -0.321 OA
BRANCH  20  21
HETATM   21  C   UNL     1     -25.745  -6.718 -18.205  1.00  0.00     0.183 C 
BRANCH  21  22
HETATM   22  C   UNL     1     -26.700  -6.153 -19.270  1.00  0.00     0.010 C 
BRANCH  22  23
HETATM   23  C   UNL     1     -26.848  -7.099 -20.487  1.00  0.00     0.002 C 
HETATM   24  C   UNL     1     -25.555  -7.750 -20.959  1.00  0.00     0.005 C 
ENDBRANCH  22  23
BRANCH  22  25
HETATM   25  C   UNL     1     -28.078  -5.849 -18.639  1.00  0.00     0.007 C 
BRANCH  25  26
HETATM   26  C   UNL     1     -28.982  -7.083 -18.563  1.00  0.00     0.000 C 
BRANCH  26  27
HETATM   27  C   UNL     1     -29.807  -7.124 -17.281  1.00  0.00    -0.005 C 
HETATM   28  C   UNL     1     -29.645  -5.821 -16.512  1.00  0.00     0.005 C 
ENDBRANCH  26  27
ENDBRANCH  25  26
ENDBRANCH  22  25
ENDBRANCH  21  22
ENDBRANCH  20  21
ENDBRANCH  18  20
ENDBRANCH  17  18
ENDBRANCH  16  17
ENDBRANCH  15  16
ENDBRANCH   1  15
TORSDOF 23
BEGIN_RES ARG D 557
REMARK  4 active torsions:
REMARK  status: ('A' for Active; 'I' for Inactive)
REMARK    1  A    between atoms: CA   and  CB  
REMARK    2  A    between atoms: CB   and  CG  
REMARK    3  A    between atoms: CG   and  CD  
REMARK    4  A    between atoms: CD   and  NE  
REMARK       I    between atoms: NE   and  CZ  
REMARK       I    between atoms: CZ   and  NH1 
REMARK       I    between atoms: CZ   and  NH2 
ROOT
ATOM      1  CA  ARG D 557     -26.217   2.705 -17.014  1.00 35.49     0.159 C 
ENDROOT
BRANCH   1   2
ATOM      2  CB  ARG D 557     -26.789   1.319 -17.183  1.00 35.49     0.034 C 
BRANCH   2   3
ATOM      3  CG  ARG D 557     -25.991   0.206 -16.655  1.00 35.49     0.027 C 
BRANCH   3   4
ATOM      4  CD  ARG D 557     -26.833  -0.894 -16.131  1.00 35.49     0.116 C 
BRANCH   4   5
ATOM      5  NE  ARG D 557     -26.282  -1.476 -14.936  1.00 35.49    -0.212 N 
ATOM      6  CZ  ARG D 557     -26.260  -2.757 -14.645  1.00 35.49     0.666 C 
ATOM      7  NH1 ARG D 557     -26.773  -3.675 -15.444  1.00 35.49    -0.235 N 
ATOM      8  NH2 ARG D 557     -25.699  -3.110 -13.525  1.00 35.49    -0.235 N 
ATOM      9  HH  ARG D 557     -27.145  -3.466 -16.188  1.00 35.49     0.174 HD
ATOM     10  HH  ARG D 557     -26.727  -4.496 -15.204  1.00 35.49     0.174 HD
ATOM     11  HH  ARG D 557     -25.370  -2.496 -13.032  1.00 35.49     0.174 HD
ATOM     12  HH  ARG D 557     -25.662  -3.928 -13.305  1.00 35.49     0.174 HD
ATOM     13  HE  ARG D 557     -25.995  -0.951 -14.331  1.00 35.49     0.178 HD
ENDBRANCH   4   5
ENDBRANCH   3   4
ENDBRANCH   2   3
ENDBRANCH   1   2
END_RES ARG D 557
BEGIN_RES GLU D 570
REMARK  3 active torsions:
REMARK  status: ('A' for Active; 'I' for Inactive)
REMARK    5  A    between atoms: CA   and  CB  
REMARK    6  A    between atoms: CB   and  CG  
REMARK    7  A    between atoms: CG   and  CD  
ROOT
ATOM     14  CA  GLU D 570     -18.033  -6.348 -13.375  1.00 32.92     0.160 C 
ENDROOT
BRANCH  14  15
ATOM     15  CB  GLU D 570     -19.500  -6.345 -13.794  1.00 32.92     0.043 C 
BRANCH  15  16
ATOM     16  CG  GLU D 570     -20.085  -7.633 -14.248  1.00 32.92     0.100 C 
BRANCH  16  17
ATOM     17  CD  GLU D 570     -20.669  -7.557 -15.639  1.00 32.92     0.185 C 
ATOM     18  OE1 GLU D 570     -21.135  -8.591 -16.157  1.00 32.92    -0.647 OA
ATOM     19  OE2 GLU D 570     -20.645  -6.457 -16.224  1.00 32.92    -0.647 OA
ENDBRANCH  16  17
ENDBRANCH  15  16
ENDBRANCH  14  15
END_RES GLU D 570
ENDMDL
MODEL 3
REMARK VINA RESULT:      -6.7      1.442      2.508
REMARK  23 active torsions:
REMARK  status: ('A' for Active; 'I' for Inactive)
REMARK    1  A    between atoms: C_2  and  C_3 
REMARK    2  A    between atoms: C_3  and  C_4 
REMARK    3  A    between atoms: C_4  and  C_5 
REMARK    4  A    between atoms: C_5  and  C_6 
REMARK    5  A    between atoms: C_6  and  C_7 
REMARK    6  A    between atoms: C_7  and  C_8 
REMARK    7  A    between atoms: C_8  and  C_9 
REMARK    8  A    between atoms: C_9  and  C_10 
REMARK    9  A    between atoms: C_10  and  C_11 
REMARK   10  A    between atoms: C_11  and  C_12 
REMARK   11  A    between atoms: C_12  and  C_13 
REMARK   12  A    between atoms: C_13  and  C_14 
REMARK   13  A    between atoms: C_14  and  C_15 
REMARK   14  A    between atoms: C_15  and  C_16 
REMARK   15  A    between atoms: C_16  and  C_17 
REMARK   16  A    between atoms: C_17  and  C_18 
REMARK   17  A    between atoms: C_18  and  O_20 
REMARK   18  A    between atoms: O_20  and  C_21 
REMARK   19  A    between atoms: C_21  and  C_22 
REMARK   20  A    between atoms: C_22  and  C_23 
REMARK   21  A    between atoms: C_22  and  C_25 
REMARK   22  A    between atoms: C_25  and  C_26 
REMARK   23  A    between atoms: C_26  and  C_27 
ROOT
HETATM    1  C   UNL     1     -21.751  -3.941  -6.648  1.00  0.00     0.000 C 
ENDROOT
BRANCH   1   2
HETATM    2  C   UNL     1     -20.449  -4.696  -6.424  1.00  0.00     0.000 C 
BRANCH   2   3
HETATM    3  C   UNL     1     -20.631  -6.172  -6.745  1.00  0.00     0.000 C 
BRANCH   3   4
HETATM    4  C   UNL     1     -20.287  -7.016  -5.530  1.00  0.00     0.000 C 
BRANCH   4   5
HETATM    5  C   UNL     1     -21.497  -7.144  -4.621  1.00  0.00     0.000 C 
BRANCH   5   6
HETATM    6  C   UNL     1     -21.237  -6.430  -3.307  1.00  0.00     0.000 C 
BRANCH   6   7
HETATM    7  C   UNL     1     -22.485  -6.458  -2.444  1.00  0.00     0.000 C 
BRANCH   7   8
HETATM    8  C   UNL     1     -22.102  -6.581  -0.979  1.00  0.00     0.000 C 
BRANCH   8   9
HETATM    9  C   UNL     1     -21.487  -7.945  -0.717  1.00  0.00     0.000 C 
BRANCH   9  10
HETATM   10  C   UNL     1     -22.293  -8.692   0.334  1.00  0.00     0.000 C 
BRANCH  10  11
HETATM   11  C   UNL     1     -22.357 -10.174  -0.006  1.00  0.00     0.000 C 
BRANCH  11  12
HETATM   12  C   UNL     1     -23.017 -10.374  -1.362  1.00  0.00    -0.000 C 
BRANCH  12  13
HETATM   13  C   UNL     1     -22.086 -11.116  -2.311  1.00  0.00    -0.005 C 
HETATM   14  C   UNL     1     -22.394 -10.758  -3.753  1.00  0.00     0.005 C 
ENDBRANCH  12  13
ENDBRANCH  11  12
ENDBRANCH  10  11
ENDBRANCH   9  10
ENDBRANCH   8   9
ENDBRANCH   7   8
ENDBRANCH   6   7
ENDBRANCH   5   6
ENDBRANCH   4   5
ENDBRANCH   3   4
ENDBRANCH   2   3
ENDBRANCH   1   2
BRANCH   1  15
HETATM   15  C   UNL     1     -22.102  -3.895  -8.132  1.00  0.00     0.000 C 
BRANCH  15  16
HETATM   16  C   UNL     1     -23.599  -4.111  -8.315  1.00  0.00     0.010 C 
BRANCH  16  17
HETATM   17  C   UNL     1     -23.975  -4.474  -9.747  1.00  0.00     0.111 C 
BRANCH  17  18
HETATM   18  C   UNL     1     -25.002  -3.485 -10.269  1.00  0.00     0.258 C 
HETATM   19  O   UNL     1     -25.995  -3.121  -9.677  1.00  0.00    -0.265 OA
BRANCH  18  20
HETATM   20  O   UNL     1     -24.671  -3.128 -11.549  1.00  0.00    -0.321 OA
BRANCH  20  21
HETATM   21  C   UNL     1     -24.033  -4.180 -12.286  1.00  0.00     0.183 C 
BRANCH  21  22
HETATM   22  C   UNL     1     -22.700  -3.733 -12.906  1.00  0.00     0.010 C 
BRANCH  22  23
HETATM   23  C   UNL     1     -22.836  -3.391 -14.410  1.00  0.00     0.002 C 
HETATM   24  C   UNL     1     -23.383  -2.003 -14.709  1.00  0.00     0.005 C 
ENDBRANCH  22  23
BRANCH  22  25
HETATM   25  C   UNL     1     -22.125  -2.533 -12.119  1.00  0.00     0.007 C 
BRANCH  25  26
HETATM   26  C   UNL     1     -20.888  -2.902 -11.294  1.00  0.00     0.000 C 
BRANCH  26  27
HETATM   27  C   UNL     1     -20.522  -4.376 -11.420  1.00  0.00    -0.005 C 
HETATM   28  C   UNL     1     -19.773  -4.839 -10.180  1.00  0.00     0.005 C 
ENDBRANCH  26  27
ENDBRANCH  25  26
ENDBRANCH  22  25
ENDBRANCH  21  22
ENDBRANCH  20  21
ENDBRANCH  18  20
ENDBRANCH  17  18
ENDBRANCH  16  17
ENDBRANCH  15  16
ENDBRANCH   1  15
TORSDOF 23
BEGIN_RES ARG D 557
REMARK  4 active torsions:
REMARK  status: ('A' for Active; 'I' for Inactive)
REMARK    1  A    between atoms: CA   and  CB  
REMARK    2  A    between atoms: CB   and  CG  
REMARK    3  A    between atoms: CG   and  CD  
REMARK    4  A    between atoms: CD   and  NE  
REMARK       I    between atoms: NE   and  CZ  
REMARK       I    between atoms: CZ   and  NH1 
REMARK       I    between atoms: CZ   and  NH2 
ROOT
ATOM      1  CA  ARG D 557     -26.217   2.705 -17.014  1.00 35.49     0.159 C 
ENDROOT
BRANCH   1   2
ATOM      2  CB  ARG D 557     -26.789   1.319 -17.183  1.00 35.49     0.034 C 
BRANCH   2   3
ATOM      3  CG  ARG D 557     -28.227   1.228 -17.466  1.00 35.49     0.027 C 
BRANCH   3   4
ATOM      4  CD  ARG D 557     -28.928   0.315 -16.534  1.00 35.49     0.116 C 
BRANCH   4   5
ATOM      5  NE  ARG D 557     -29.285  -0.930 -17.160  1.00 35.49    -0.212 N 
ATOM      6  CZ  ARG D 557     -28.637  -2.067 -17.035  1.00 35.49     0.666 C 
ATOM      7  NH1 ARG D 557     -27.542  -2.182 -16.305  1.00 35.49    -0.235 N 
ATOM      8  NH2 ARG D 557     -29.116  -3.103 -17.659  1.00 35.49    -0.235 N 
ATOM      9  HH  ARG D 557     -27.211  -1.513 -15.884  1.00 35.49     0.174 HD
ATOM     10  HH  ARG D 557     -27.164  -2.949 -16.258  1.00 35.49     0.174 HD
ATOM     11  HH  ARG D 557     -29.828  -3.001 -18.117  1.00 35.49     0.174 HD
ATOM     12  HH  ARG D 557     -28.727  -3.855 -17.598  1.00 35.49     0.174 HD
ATOM     13  HE  ARG D 557     -29.936  -0.930 -17.707  1.00 35.49     0.178 HD
ENDBRANCH   4   5
ENDBRANCH   3   4
ENDBRANCH   2   3
ENDBRANCH   1   2
END_RES ARG D 557
BEGIN_RES GLU D 570
REMARK  3 active torsions:
REMARK  status: ('A' for Active; 'I' for Inactive)
REMARK    5  A    between atoms: CA   and  CB  
REMARK    6  A    between atoms: CB   and  CG  
REMARK    7  A    between atoms: CG   and  CD  
ROOT
ATOM     14  CA  GLU D 570     -18.033  -6.348 -13.375  1.00 32.92     0.160 C 
ENDROOT
BRANCH  14  15
ATOM     15  CB  GLU D 570     -19.500  -6.345 -13.794  1.00 32.92     0.043 C 
BRANCH  15  16
ATOM     16  CG  GLU D 570     -20.119  -7.654 -14.128  1.00 32.92     0.100 C 
BRANCH  16  17
ATOM     17  CD  GLU D 570     -20.916  -7.618 -15.411  1.00 32.92     0.185 C 
ATOM     18  OE1 GLU D 570     -20.721  -8.500 -16.270  1.00 32.92    -0.647 OA
ATOM     19  OE2 GLU D 570     -21.733  -6.689 -15.566  1.00 32.92    -0.647 OA
ENDBRANCH  16  17
ENDBRANCH  15  16
ENDBRANCH  14  15
END_RES GLU D 570
ENDMDL
MODEL 4
REMARK VINA RESULT:      -6.7      2.876     10.720
REMARK  23 active torsions:
REMARK  status: ('A' for Active; 'I' for Inactive)
REMARK    1  A    between atoms: C_2  and  C_3 
REMARK    2  A    between atoms: C_3  and  C_4 
REMARK    3  A    between atoms: C_4  and  C_5 
REMARK    4  A    between atoms: C_5  and  C_6 
REMARK    5  A    between atoms: C_6  and  C_7 
REMARK    6  A    between atoms: C_7  and  C_8 
REMARK    7  A    between atoms: C_8  and  C_9 
REMARK    8  A    between atoms: C_9  and  C_10 
REMARK    9  A    between atoms: C_10  and  C_11 
REMARK   10  A    between atoms: C_11  and  C_12 
REMARK   11  A    between atoms: C_12  and  C_13 
REMARK   12  A    between atoms: C_13  and  C_14 
REMARK   13  A    between atoms: C_14  and  C_15 
REMARK   14  A    between atoms: C_15  and  C_16 
REMARK   15  A    between atoms: C_16  and  C_17 
REMARK   16  A    between atoms: C_17  and  C_18 
REMARK   17  A    between atoms: C_18  and  O_20 
REMARK   18  A    between atoms: O_20  and  C_21 
REMARK   19  A    between atoms: C_21  and  C_22 
REMARK   20  A    between atoms: C_22  and  C_23 
REMARK   21  A    between atoms: C_22  and  C_25 
REMARK   22  A    between atoms: C_25  and  C_26 
REMARK   23  A    between atoms: C_26  and  C_27 
ROOT
HETATM    1  C   UNL     1     -23.024  -5.140 -13.790  1.00  0.00     0.000 C 
ENDROOT
BRANCH   1   2
HETATM    2  C   UNL     1     -24.275  -5.453 -14.597  1.00  0.00     0.000 C 
BRANCH   2   3
HETATM    3  C   UNL     1     -24.207  -6.869 -15.150  1.00  0.00     0.000 C 
BRANCH   3   4
HETATM    4  C   UNL     1     -24.971  -6.953 -16.461  1.00  0.00     0.000 C 
BRANCH   4   5
HETATM    5  C   UNL     1     -26.298  -6.224 -16.342  1.00  0.00     0.000 C 
BRANCH   5   6
HETATM    6  C   UNL     1     -27.315  -7.110 -15.645  1.00  0.00     0.000 C 
BRANCH   6   7
HETATM    7  C   UNL     1     -28.714  -6.560 -15.853  1.00  0.00     0.000 C 
BRANCH   7   8
HETATM    8  C   UNL     1     -29.495  -7.461 -16.795  1.00  0.00     0.000 C 
BRANCH   8   9
HETATM    9  C   UNL     1     -29.754  -6.740 -18.106  1.00  0.00     0.000 C 
BRANCH   9  10
HETATM   10  C   UNL     1     -28.696  -7.116 -19.131  1.00  0.00     0.000 C 
BRANCH  10  11
HETATM   11  C   UNL     1     -27.861  -5.899 -19.499  1.00  0.00     0.000 C 
BRANCH  11  12
HETATM   12  C   UNL     1     -26.496  -6.333 -20.013  1.00  0.00    -0.000 C 
BRANCH  12  13
HETATM   13  C   UNL     1     -26.593  -7.667 -20.741  1.00  0.00    -0.005 C 
HETATM   14  C   UNL     1     -25.238  -8.078 -21.286  1.00  0.00     0.005 C 
ENDBRANCH  12  13
ENDBRANCH  11  12
ENDBRANCH  10  11
ENDBRANCH   9  10
ENDBRANCH   8   9
ENDBRANCH   7   8
ENDBRANCH   6   7
ENDBRANCH   5   6
ENDBRANCH   4   5
ENDBRANCH   3   4
ENDBRANCH   2   3
ENDBRANCH   1   2
BRANCH   1  15
HETATM   15  C   UNL     1     -22.643  -3.669 -13.931  1.00  0.00     0.000 C 
BRANCH  15  16
HETATM   16  C   UNL     1     -22.856  -2.952 -12.604  1.00  0.00     0.010 C 
BRANCH  16  17
HETATM   17  C   UNL     1     -24.315  -2.950 -12.159  1.00  0.00     0.111 C 
BRANCH  17  18
HETATM   18  C   UNL     1     -24.406  -3.401 -10.713  1.00  0.00     0.258 C 
HETATM   19  O   UNL     1     -25.358  -3.234  -9.981  1.00  0.00    -0.265 OA
BRANCH  18  20
HETATM   20  O   UNL     1     -23.213  -3.958 -10.340  1.00  0.00    -0.321 OA
BRANCH  20  21
HETATM   21  C   UNL     1     -23.086  -4.135  -8.923  1.00  0.00     0.183 C 
BRANCH  21  22
HETATM   22  C   UNL     1     -21.636  -4.427  -8.499  1.00  0.00     0.010 C 
BRANCH  22  23
HETATM   23  C   UNL     1     -20.606  -3.874  -9.514  1.00  0.00     0.002 C 
HETATM   24  C   UNL     1     -20.001  -4.912 -10.449  1.00  0.00     0.005 C 
ENDBRANCH  22  23
BRANCH  22  25
HETATM   25  C   UNL     1     -21.373  -3.862  -7.085  1.00  0.00     0.007 C 
BRANCH  25  26
HETATM   26  C   UNL     1     -20.198  -4.548  -6.381  1.00  0.00     0.000 C 
BRANCH  26  27
HETATM   27  C   UNL     1     -20.462  -6.025  -6.112  1.00  0.00    -0.005 C 
HETATM   28  C   UNL     1     -21.633  -6.184  -5.154  1.00  0.00     0.005 C 
ENDBRANCH  26  27
ENDBRANCH  25  26
ENDBRANCH  22  25
ENDBRANCH  21  22
ENDBRANCH  20  21
ENDBRANCH  18  20
ENDBRANCH  17  18
ENDBRANCH  16  17
ENDBRANCH  15  16
ENDBRANCH   1  15
TORSDOF 23
BEGIN_RES ARG D 557
REMARK  4 active torsions:
REMARK  status: ('A' for Active; 'I' for Inactive)
REMARK    1  A    between atoms: CA   and  CB  
REMARK    2  A    between atoms: CB   and  CG  
REMARK    3  A    between atoms: CG   and  CD  
REMARK    4  A    between atoms: CD   and  NE  
REMARK       I    between atoms: NE   and  CZ  
REMARK       I    between atoms: CZ   and  NH1 
REMARK       I    between atoms: CZ   and  NH2 
ROOT
ATOM      1  CA  ARG D 557     -26.217   2.705 -17.014  1.00 35.49     0.159 C 
ENDROOT
BRANCH   1   2
ATOM      2  CB  ARG D 557     -26.789   1.319 -17.183  1.00 35.49     0.034 C 
BRANCH   2   3
ATOM      3  CG  ARG D 557     -28.229   1.165 -16.946  1.00 35.49     0.027 C 
BRANCH   3   4
ATOM      4  CD  ARG D 557     -28.607  -0.237 -16.657  1.00 35.49     0.116 C 
BRANCH   4   5
ATOM      5  NE  ARG D 557     -27.579  -0.938 -15.934  1.00 35.49    -0.212 N 
ATOM      6  CZ  ARG D 557     -27.338  -2.228 -15.999  1.00 35.49     0.666 C 
ATOM      7  NH1 ARG D 557     -28.051  -3.046 -16.751  1.00 35.49    -0.235 N 
ATOM      8  NH2 ARG D 557     -26.350  -2.691 -15.290  1.00 35.49    -0.235 N 
ATOM      9  HH  ARG D 557     -28.705  -2.763 -17.227  1.00 35.49     0.174 HD
ATOM     10  HH  ARG D 557     -27.846  -3.878 -16.755  1.00 35.49     0.174 HD
ATOM     11  HH  ARG D 557     -25.902  -2.138 -14.819  1.00 35.49     0.174 HD
ATOM     12  HH  ARG D 557     -26.161  -3.517 -15.308  1.00 35.49     0.174 HD
ATOM     13  HE  ARG D 557     -27.118  -0.500 -15.370  1.00 35.49     0.178 HD
ENDBRANCH   4   5
ENDBRANCH   3   4
ENDBRANCH   2   3
ENDBRANCH   1   2
END_RES ARG D 557
BEGIN_RES GLU D 570
REMARK  3 active torsions:
REMARK  status: ('A' for Active; 'I' for Inactive)
REMARK    5  A    between atoms: CA   and  CB  
REMARK    6  A    between atoms: CB   and  CG  
REMARK    7  A    between atoms: CG   and  CD  
ROOT
ATOM     14  CA  GLU D 570     -18.033  -6.348 -13.375  1.00 32.92     0.160 C 
ENDROOT
BRANCH  14  15
ATOM     15  CB  GLU D 570     -19.500  -6.345 -13.794  1.00 32.92     0.043 C 
BRANCH  15  16
ATOM     16  CG  GLU D 570     -19.801  -6.118 -15.231  1.00 32.92     0.100 C 
BRANCH  16  17
ATOM     17  CD  GLU D 570     -20.627  -7.225 -15.843  1.00 32.92     0.185 C 
ATOM     18  OE1 GLU D 570     -20.696  -8.323 -15.257  1.00 32.92    -0.647 OA
ATOM     19  OE2 GLU D 570     -21.198  -6.998 -16.928  1.00 32.92    -0.647 OA
ENDBRANCH  16  17
ENDBRANCH  15  16
ENDBRANCH  14  15
END_RES GLU D 570
ENDMDL
MODEL 5
REMARK VINA RESULT:      -6.7      2.461      4.588
REMARK  23 active torsions:
REMARK  status: ('A' for Active; 'I' for Inactive)
REMARK    1  A    between atoms: C_2  and  C_3 
REMARK    2  A    between atoms: C_3  and  C_4 
REMARK    3  A    between atoms: C_4  and  C_5 
REMARK    4  A    between atoms: C_5  and  C_6 
REMARK    5  A    between atoms: C_6  and  C_7 
REMARK    6  A    between atoms: C_7  and  C_8 
REMARK    7  A    between atoms: C_8  and  C_9 
REMARK    8  A    between atoms: C_9  and  C_10 
REMARK    9  A    between atoms: C_10  and  C_11 
REMARK   10  A    between atoms: C_11  and  C_12 
REMARK   11  A    between atoms: C_12  and  C_13 
REMARK   12  A    between atoms: C_13  and  C_14 
REMARK   13  A    between atoms: C_14  and  C_15 
REMARK   14  A    between atoms: C_15  and  C_16 
REMARK   15  A    between atoms: C_16  and  C_17 
REMARK   16  A    between atoms: C_17  and  C_18 
REMARK   17  A    between atoms: C_18  and  O_20 
REMARK   18  A    between atoms: O_20  and  C_21 
REMARK   19  A    between atoms: C_21  and  C_22 
REMARK   20  A    between atoms: C_22  and  C_23 
REMARK   21  A    between atoms: C_22  and  C_25 
REMARK   22  A    between atoms: C_25  and  C_26 
REMARK   23  A    between atoms: C_26  and  C_27 
ROOT
HETATM    1  C   UNL     1     -20.940  -4.056 -11.504  1.00  0.00     0.000 C 
ENDROOT
BRANCH   1   2
HETATM    2  C   UNL     1     -20.599  -4.038 -10.022  1.00  0.00     0.000 C 
BRANCH   2   3
HETATM    3  C   UNL     1     -21.870  -4.034  -9.186  1.00  0.00     0.000 C 
BRANCH   3   4
HETATM    4  C   UNL     1     -21.527  -3.842  -7.719  1.00  0.00     0.000 C 
BRANCH   4   5
HETATM    5  C   UNL     1     -20.022  -3.885  -7.522  1.00  0.00     0.000 C 
BRANCH   5   6
HETATM    6  C   UNL     1     -19.683  -4.710  -6.294  1.00  0.00     0.000 C 
BRANCH   6   7
HETATM    7  C   UNL     1     -20.004  -6.173  -6.544  1.00  0.00     0.000 C 
BRANCH   7   8
HETATM    8  C   UNL     1     -20.587  -6.801  -5.290  1.00  0.00     0.000 C 
BRANCH   8   9
HETATM    9  C   UNL     1     -22.059  -6.449  -5.171  1.00  0.00     0.000 C 
BRANCH   9  10
HETATM   10  C   UNL     1     -22.566  -6.774  -3.775  1.00  0.00     0.000 C 
BRANCH  10  11
HETATM   11  C   UNL     1     -21.570  -6.296  -2.728  1.00  0.00     0.000 C 
BRANCH  11  12
HETATM   12  C   UNL     1     -21.384  -7.359  -1.655  1.00  0.00    -0.000 C 
BRANCH  12  13
HETATM   13  C   UNL     1     -22.424  -7.203  -0.554  1.00  0.00    -0.005 C 
HETATM   14  C   UNL     1     -22.040  -8.020   0.664  1.00  0.00     0.005 C 
ENDBRANCH  12  13
ENDBRANCH  11  12
ENDBRANCH  10  11
ENDBRANCH   9  10
ENDBRANCH   8   9
ENDBRANCH   7   8
ENDBRANCH   6   7
ENDBRANCH   5   6
ENDBRANCH   4   5
ENDBRANCH   3   4
ENDBRANCH   2   3
ENDBRANCH   1   2
BRANCH   1  15
HETATM   15  C   UNL     1     -22.376  -4.525 -11.724  1.00  0.00     0.000 C 
BRANCH  15  16
HETATM   16  C   UNL     1     -22.640  -4.700 -13.214  1.00  0.00     0.010 C 
BRANCH  16  17
HETATM   17  C   UNL     1     -23.398  -5.983 -13.536  1.00  0.00     0.111 C 
BRANCH  17  18
HETATM   18  C   UNL     1     -24.393  -5.719 -14.651  1.00  0.00     0.258 C 
HETATM   19  O   UNL     1     -24.766  -4.625 -15.019  1.00  0.00    -0.265 OA
BRANCH  18  20
HETATM   20  O   UNL     1     -24.865  -6.913 -15.124  1.00  0.00    -0.321 OA
BRANCH  20  21
HETATM   21  C   UNL     1     -26.076  -6.788 -15.882  1.00  0.00     0.183 C 
BRANCH  21  22
HETATM   22  C   UNL     1     -25.820  -6.276 -17.309  1.00  0.00     0.010 C 
BRANCH  22  23
HETATM   23  C   UNL     1     -24.680  -7.051 -18.015  1.00  0.00     0.002 C 
HETATM   24  C   UNL     1     -24.686  -6.964 -19.535  1.00  0.00     0.005 C 
ENDBRANCH  22  23
BRANCH  22  25
HETATM   25  C   UNL     1     -27.124  -6.340 -18.137  1.00  0.00     0.007 C 
BRANCH  25  26
HETATM   26  C   UNL     1     -28.383  -6.326 -17.264  1.00  0.00     0.000 C 
BRANCH  26  27
HETATM   27  C   UNL     1     -29.457  -5.391 -17.806  1.00  0.00    -0.005 C 
HETATM   28  C   UNL     1     -29.035  -3.941 -17.616  1.00  0.00     0.005 C 
ENDBRANCH  26  27
ENDBRANCH  25  26
ENDBRANCH  22  25
ENDBRANCH  21  22
ENDBRANCH  20  21
ENDBRANCH  18  20
ENDBRANCH  17  18
ENDBRANCH  16  17
ENDBRANCH  15  16
ENDBRANCH   1  15
TORSDOF 23
BEGIN_RES ARG D 557
REMARK  4 active torsions:
REMARK  status: ('A' for Active; 'I' for Inactive)
REMARK    1  A    between atoms: CA   and  CB  
REMARK    2  A    between atoms: CB   and  CG  
REMARK    3  A    between atoms: CG   and  CD  
REMARK    4  A    between atoms: CD   and  NE  
REMARK       I    between atoms: NE   and  CZ  
REMARK       I    between atoms: CZ   and  NH1 
REMARK       I    between atoms: CZ   and  NH2 
ROOT
ATOM      1  CA  ARG D 557     -26.217   2.705 -17.014  1.00 35.49     0.159 C 
ENDROOT
BRANCH   1   2
ATOM      2  CB  ARG D 557     -26.789   1.319 -17.183  1.00 35.49     0.034 C 
BRANCH   2   3
ATOM      3  CG  ARG D 557     -25.835   0.204 -17.164  1.00 35.49     0.027 C 
BRANCH   3   4
ATOM      4  CD  ARG D 557     -24.747   0.409 -16.181  1.00 35.49     0.116 C 
BRANCH   4   5
ATOM      5  NE  ARG D 557     -24.922  -0.398 -15.002  1.00 35.49    -0.212 N 
ATOM      6  CZ  ARG D 557     -24.155  -1.400 -14.635  1.00 35.49     0.666 C 
ATOM      7  NH1 ARG D 557     -23.113  -1.792 -15.346  1.00 35.49    -0.235 N 
ATOM      8  NH2 ARG D 557     -24.450  -2.007 -13.523  1.00 35.49    -0.235 N 
ATOM      9  HH  ARG D 557     -22.899  -1.406 -16.080  1.00 35.49     0.174 HD
ATOM     10  HH  ARG D 557     -22.647  -2.450 -15.056  1.00 35.49     0.174 HD
ATOM     11  HH  ARG D 557     -25.124  -1.727 -13.081  1.00 35.49     0.174 HD
ATOM     12  HH  ARG D 557     -23.976  -2.656 -13.252  1.00 35.49     0.174 HD
ATOM     13  HE  ARG D 557     -25.612  -0.261 -14.523  1.00 35.49     0.178 HD
ENDBRANCH   4   5
ENDBRANCH   3   4
ENDBRANCH   2   3
ENDBRANCH   1   2
END_RES ARG D 557
BEGIN_RES GLU D 570
REMARK  3 active torsions:
REMARK  status: ('A' for Active; 'I' for Inactive)
REMARK    5  A    between atoms: CA   and  CB  
REMARK    6  A    between atoms: CB   and  CG  
REMARK    7  A    between atoms: CG   and  CD  
ROOT
ATOM     14  CA  GLU D 570     -18.033  -6.348 -13.375  1.00 32.92     0.160 C 
ENDROOT
BRANCH  14  15
ATOM     15  CB  GLU D 570     -19.500  -6.345 -13.794  1.00 32.92     0.043 C 
BRANCH  15  16
ATOM     16  CG  GLU D 570     -20.067  -7.617 -14.311  1.00 32.92     0.100 C 
BRANCH  16  17
ATOM     17  CD  GLU D 570     -20.797  -7.448 -15.623  1.00 32.92     0.185 C 
ATOM     18  OE1 GLU D 570     -20.796  -6.331 -16.175  1.00 32.92    -0.647 OA
ATOM     19  OE2 GLU D 570     -21.389  -8.438 -16.095  1.00 32.92    -0.647 OA
ENDBRANCH  16  17
ENDBRANCH  15  16
ENDBRANCH  14  15
END_RES GLU D 570
ENDMDL
MODEL 6
REMARK VINA RESULT:      -6.6      2.577     10.939
REMARK  23 active torsions:
REMARK  status: ('A' for Active; 'I' for Inactive)
REMARK    1  A    between atoms: C_2  and  C_3 
REMARK    2  A    between atoms: C_3  and  C_4 
REMARK    3  A    between atoms: C_4  and  C_5 
REMARK    4  A    between atoms: C_5  and  C_6 
REMARK    5  A    between atoms: C_6  and  C_7 
REMARK    6  A    between atoms: C_7  and  C_8 
REMARK    7  A    between atoms: C_8  and  C_9 
REMARK    8  A    between atoms: C_9  and  C_10 
REMARK    9  A    between atoms: C_10  and  C_11 
REMARK   10  A    between atoms: C_11  and  C_12 
REMARK   11  A    between atoms: C_12  and  C_13 
REMARK   12  A    between atoms: C_13  and  C_14 
REMARK   13  A    between atoms: C_14  and  C_15 
REMARK   14  A    between atoms: C_15  and  C_16 
REMARK   15  A    between atoms: C_16  and  C_17 
REMARK   16  A    between atoms: C_17  and  C_18 
REMARK   17  A    between atoms: C_18  and  O_20 
REMARK   18  A    between atoms: O_20  and  C_21 
REMARK   19  A    between atoms: C_21  and  C_22 
REMARK   20  A    between atoms: C_22  and  C_23 
REMARK   21  A    between atoms: C_22  and  C_25 
REMARK   22  A    between atoms: C_25  and  C_26 
REMARK   23  A    between atoms: C_26  and  C_27 
ROOT
HETATM    1  C   UNL     1     -23.531  -3.959  -9.593  1.00  0.00     0.000 C 
ENDROOT
BRANCH   1   2
HETATM    2  C   UNL     1     -23.456  -4.760 -10.884  1.00  0.00     0.000 C 
BRANCH   2   3
HETATM    3  C   UNL     1     -22.171  -4.439 -11.632  1.00  0.00     0.000 C 
BRANCH   3   4
HETATM    4  C   UNL     1     -22.370  -4.647 -13.123  1.00  0.00     0.000 C 
BRANCH   4   5
HETATM    5  C   UNL     1     -23.461  -5.676 -13.368  1.00  0.00     0.000 C 
BRANCH   5   6
HETATM    6  C   UNL     1     -24.178  -5.372 -14.670  1.00  0.00     0.000 C 
BRANCH   6   7
HETATM    7  C   UNL     1     -24.656  -6.660 -15.316  1.00  0.00     0.000 C 
BRANCH   7   8
HETATM    8  C   UNL     1     -26.094  -6.509 -15.780  1.00  0.00     0.000 C 
BRANCH   8   9
HETATM    9  C   UNL     1     -26.137  -6.342 -17.288  1.00  0.00     0.000 C 
BRANCH   9  10
HETATM   10  C   UNL     1     -27.553  -6.028 -17.742  1.00  0.00     0.000 C 
BRANCH  10  11
HETATM   11  C   UNL     1     -28.307  -5.288 -16.647  1.00  0.00     0.000 C 
BRANCH  11  12
HETATM   12  C   UNL     1     -28.618  -3.866 -17.091  1.00  0.00    -0.000 C 
BRANCH  12  13
HETATM   13  C   UNL     1     -30.066  -3.747 -17.544  1.00  0.00    -0.005 C 
HETATM   14  C   UNL     1     -30.930  -4.786 -16.855  1.00  0.00     0.005 C 
ENDBRANCH  12  13
ENDBRANCH  11  12
ENDBRANCH  10  11
ENDBRANCH   9  10
ENDBRANCH   8   9
ENDBRANCH   7   8
ENDBRANCH   6   7
ENDBRANCH   5   6
ENDBRANCH   4   5
ENDBRANCH   3   4
ENDBRANCH   2   3
ENDBRANCH   1   2
BRANCH   1  15
HETATM   15  C   UNL     1     -22.137  -3.730  -9.016  1.00  0.00     0.000 C 
BRANCH  15  16
HETATM   16  C   UNL     1     -22.124  -4.095  -7.537  1.00  0.00     0.010 C 
BRANCH  16  17
HETATM   17  C   UNL     1     -20.716  -4.157  -6.954  1.00  0.00     0.111 C 
BRANCH  17  18
HETATM   18  C   UNL     1     -20.442  -5.555  -6.432  1.00  0.00     0.258 C 
HETATM   19  O   UNL     1     -19.971  -6.468  -7.076  1.00  0.00    -0.265 OA
BRANCH  18  20
HETATM   20  O   UNL     1     -20.886  -5.647  -5.140  1.00  0.00    -0.321 OA
BRANCH  20  21
HETATM   21  C   UNL     1     -21.879  -6.664  -4.951  1.00  0.00     0.183 C 
BRANCH  21  22
HETATM   22  C   UNL     1     -21.475  -7.679  -3.868  1.00  0.00     0.010 C 
BRANCH  22  23
HETATM   23  C   UNL     1     -20.349  -8.629  -4.345  1.00  0.00     0.002 C 
HETATM   24  C   UNL     1     -19.433  -9.146  -3.245  1.00  0.00     0.005 C 
ENDBRANCH  22  23
BRANCH  22  25
HETATM   25  C   UNL     1     -21.061  -6.939  -2.576  1.00  0.00     0.007 C 
BRANCH  25  26
HETATM   26  C   UNL     1     -22.260  -6.400  -1.791  1.00  0.00     0.000 C 
BRANCH  26  27
HETATM   27  C   UNL     1     -22.535  -7.201  -0.523  1.00  0.00    -0.005 C 
HETATM   28  C   UNL     1     -21.362  -8.121  -0.219  1.00  0.00     0.005 C 
ENDBRANCH  26  27
ENDBRANCH  25  26
ENDBRANCH  22  25
ENDBRANCH  21  22
ENDBRANCH  20  21
ENDBRANCH  18  20
ENDBRANCH  17  18
ENDBRANCH  16  17
ENDBRANCH  15  16
ENDBRANCH   1  15
TORSDOF 23
BEGIN_RES ARG D 557
REMARK  4 active torsions:
REMARK  status: ('A' for Active; 'I' for Inactive)
REMARK    1  A    between atoms: CA   and  CB  
REMARK    2  A    between atoms: CB   and  CG  
REMARK    3  A    between atoms: CG   and  CD  
REMARK    4  A    between atoms: CD   and  NE  
REMARK       I    between atoms: NE   and  CZ  
REMARK       I    between atoms: CZ   and  NH1 
REMARK       I    between atoms: CZ   and  NH2 
ROOT
ATOM      1  CA  ARG D 557     -26.217   2.705 -17.014  1.00 35.49     0.159 C 
ENDROOT
BRANCH   1   2
ATOM      2  CB  ARG D 557     -26.789   1.319 -17.183  1.00 35.49     0.034 C 
BRANCH   2   3
ATOM      3  CG  ARG D 557     -25.835   0.203 -17.162  1.00 35.49     0.027 C 
BRANCH   3   4
ATOM      4  CD  ARG D 557     -24.721   0.431 -16.213  1.00 35.49     0.116 C 
BRANCH   4   5
ATOM      5  NE  ARG D 557     -24.850  -0.369 -15.024  1.00 35.49    -0.212 N 
ATOM      6  CZ  ARG D 557     -24.052  -1.351 -14.669  1.00 35.49     0.666 C 
ATOM      7  NH1 ARG D 557     -23.020  -1.727 -15.402  1.00 35.49    -0.235 N 
ATOM      8  NH2 ARG D 557     -24.307  -1.955 -13.544  1.00 35.49    -0.235 N 
ATOM      9  HH  ARG D 557     -22.833  -1.342 -16.144  1.00 35.49     0.174 HD
ATOM     10  HH  ARG D 557     -22.533  -2.372 -15.119  1.00 35.49     0.174 HD
ATOM     11  HH  ARG D 557     -24.975  -1.686 -13.088  1.00 35.49     0.174 HD
ATOM     12  HH  ARG D 557     -23.812  -2.591 -13.280  1.00 35.49     0.174 HD
ATOM     13  HE  ARG D 557     -25.530  -0.243 -14.529  1.00 35.49     0.178 HD
ENDBRANCH   4   5
ENDBRANCH   3   4
ENDBRANCH   2   3
ENDBRANCH   1   2
END_RES ARG D 557
BEGIN_RES GLU D 570
REMARK  3 active torsions:
REMARK  status: ('A' for Active; 'I' for Inactive)
REMARK    5  A    between atoms: CA   and  CB  
REMARK    6  A    between atoms: CB   and  CG  
REMARK    7  A    between atoms: CG   and  CD  
ROOT
ATOM     14  CA  GLU D 570     -18.033  -6.348 -13.375  1.00 32.92     0.160 C 
ENDROOT
BRANCH  14  15
ATOM     15  CB  GLU D 570     -19.500  -6.345 -13.794  1.00 32.92     0.043 C 
BRANCH  15  16
ATOM     16  CG  GLU D 570     -19.805  -6.046 -15.217  1.00 32.92     0.100 C 
BRANCH  16  17
ATOM     17  CD  GLU D 570     -20.779  -7.026 -15.829  1.00 32.92     0.185 C 
ATOM     18  OE1 GLU D 570     -21.532  -6.639 -16.743  1.00 32.92    -0.647 OA
ATOM     19  OE2 GLU D 570     -20.800  -8.188 -15.379  1.00 32.92    -0.647 OA
ENDBRANCH  16  17
ENDBRANCH  15  16
ENDBRANCH  14  15
END_RES GLU D 570
ENDMDL
MODEL 7
REMARK VINA RESULT:      -6.6      3.581     10.967
REMARK  23 active torsions:
REMARK  status: ('A' for Active; 'I' for Inactive)
REMARK    1  A    between atoms: C_2  and  C_3 
REMARK    2  A    between atoms: C_3  and  C_4 
REMARK    3  A    between atoms: C_4  and  C_5 
REMARK    4  A    between atoms: C_5  and  C_6 
REMARK    5  A    between atoms: C_6  and  C_7 
REMARK    6  A    between atoms: C_7  and  C_8 
REMARK    7  A    between atoms: C_8  and  C_9 
REMARK    8  A    between atoms: C_9  and  C_10 
REMARK    9  A    between atoms: C_10  and  C_11 
REMARK   10  A    between atoms: C_11  and  C_12 
REMARK   11  A    between atoms: C_12  and  C_13 
REMARK   12  A    between atoms: C_13  and  C_14 
REMARK   13  A    between atoms: C_14  and  C_15 
REMARK   14  A    between atoms: C_15  and  C_16 
REMARK   15  A    between atoms: C_16  and  C_17 
REMARK   16  A    between atoms: C_17  and  C_18 
REMARK   17  A    between atoms: C_18  and  O_20 
REMARK   18  A    between atoms: O_20  and  C_21 
REMARK   19  A    between atoms: C_21  and  C_22 
REMARK   20  A    between atoms: C_22  and  C_23 
REMARK   21  A    between atoms: C_22  and  C_25 
REMARK   22  A    between atoms: C_25  and  C_26 
REMARK   23  A    between atoms: C_26  and  C_27 
ROOT
HETATM    1  C   UNL     1     -21.185  -6.721  -2.556  1.00  0.00     0.000 C 
ENDROOT
BRANCH   1   2
HETATM    2  C   UNL     1     -21.571  -6.361  -3.983  1.00  0.00     0.000 C 
BRANCH   2   3
HETATM    3  C   UNL     1     -20.684  -7.101  -4.974  1.00  0.00     0.000 C 
BRANCH   3   4
HETATM    4  C   UNL     1     -20.530  -6.284  -6.245  1.00  0.00     0.000 C 
BRANCH   4   5
HETATM    5  C   UNL     1     -20.435  -4.805  -5.910  1.00  0.00     0.000 C 
BRANCH   5   6
HETATM    6  C   UNL     1     -20.773  -3.973  -7.134  1.00  0.00     0.000 C 
BRANCH   6   7
HETATM    7  C   UNL     1     -19.873  -4.362  -8.293  1.00  0.00     0.000 C 
BRANCH   7   8
HETATM    8  C   UNL     1     -20.714  -4.748  -9.498  1.00  0.00     0.000 C 
BRANCH   8   9
HETATM    9  C   UNL     1     -20.140  -4.114 -10.753  1.00  0.00     0.000 C 
BRANCH   9  10
HETATM   10  C   UNL     1     -21.088  -3.051 -11.285  1.00  0.00     0.000 C 
BRANCH  10  11
HETATM   11  C   UNL     1     -22.532  -3.464 -11.045  1.00  0.00     0.000 C 
BRANCH  11  12
HETATM   12  C   UNL     1     -23.434  -2.870 -12.117  1.00  0.00    -0.000 C 
BRANCH  12  13
HETATM   13  C   UNL     1     -23.330  -3.666 -13.411  1.00  0.00    -0.005 C 
HETATM   14  C   UNL     1     -23.429  -5.154 -13.134  1.00  0.00     0.005 C 
ENDBRANCH  12  13
ENDBRANCH  11  12
ENDBRANCH  10  11
ENDBRANCH   9  10
ENDBRANCH   8   9
ENDBRANCH   7   8
ENDBRANCH   6   7
ENDBRANCH   5   6
ENDBRANCH   4   5
ENDBRANCH   3   4
ENDBRANCH   2   3
ENDBRANCH   1   2
BRANCH   1  15
HETATM   15  C   UNL     1     -22.311  -6.371  -1.586  1.00  0.00     0.000 C 
BRANCH  15  16
HETATM   16  C   UNL     1     -22.349  -7.388  -0.452  1.00  0.00     0.010 C 
BRANCH  16  17
HETATM   17  C   UNL     1     -21.477  -8.609  -0.722  1.00  0.00     0.111 C 
BRANCH  17  18
HETATM   18  C   UNL     1     -21.037  -9.221   0.596  1.00  0.00     0.258 C 
HETATM   19  O   UNL     1     -21.070  -8.669   1.675  1.00  0.00    -0.265 OA
BRANCH  18  20
HETATM   20  O   UNL     1     -20.522 -10.467   0.363  1.00  0.00    -0.321 OA
BRANCH  20  21
HETATM   21  C   UNL     1     -21.409 -11.320  -0.374  1.00  0.00     0.183 C 
BRANCH  21  22
HETATM   22  C   UNL     1     -22.583 -11.821   0.483  1.00  0.00     0.010 C 
BRANCH  22  23
HETATM   23  C   UNL     1     -23.951 -11.329  -0.049  1.00  0.00     0.002 C 
HETATM   24  C   UNL     1     -24.072 -11.279  -1.566  1.00  0.00     0.005 C 
ENDBRANCH  22  23
BRANCH  22  25
HETATM   25  C   UNL     1     -22.551 -13.364   0.577  1.00  0.00     0.007 C 
BRANCH  25  26
HETATM   26  C   UNL     1     -22.210 -13.865   1.984  1.00  0.00     0.000 C 
BRANCH  26  27
HETATM   27  C   UNL     1     -23.423 -14.443   2.706  1.00  0.00    -0.005 C 
HETATM   28  C   UNL     1     -22.979 -15.224   3.934  1.00  0.00     0.005 C 
ENDBRANCH  26  27
ENDBRANCH  25  26
ENDBRANCH  22  25
ENDBRANCH  21  22
ENDBRANCH  20  21
ENDBRANCH  18  20
ENDBRANCH  17  18
ENDBRANCH  16  17
ENDBRANCH  15  16
ENDBRANCH   1  15
TORSDOF 23
BEGIN_RES ARG D 557
REMARK  4 active torsions:
REMARK  status: ('A' for Active; 'I' for Inactive)
REMARK    1  A    between atoms: CA   and  CB  
REMARK    2  A    between atoms: CB   and  CG  
REMARK    3  A    between atoms: CG   and  CD  
REMARK    4  A    between atoms: CD   and  NE  
REMARK       I    between atoms: NE   and  CZ  
REMARK       I    between atoms: CZ   and  NH1 
REMARK       I    between atoms: CZ   and  NH2 
ROOT
ATOM      1  CA  ARG D 557     -26.217   2.705 -17.014  1.00 35.49     0.159 C 
ENDROOT
BRANCH   1   2
ATOM      2  CB  ARG D 557     -26.789   1.319 -17.183  1.00 35.49     0.034 C 
BRANCH   2   3
ATOM      3  CG  ARG D 557     -28.228   1.164 -16.939  1.00 35.49     0.027 C 
BRANCH   3   4
ATOM      4  CD  ARG D 557     -28.597  -0.232 -16.608  1.00 35.49     0.116 C 
BRANCH   4   5
ATOM      5  NE  ARG D 557     -27.551  -0.914 -15.893  1.00 35.49    -0.212 N 
ATOM      6  CZ  ARG D 557     -27.290  -2.201 -15.958  1.00 35.49     0.666 C 
ATOM      7  NH1 ARG D 557     -27.995  -3.031 -16.703  1.00 35.49    -0.235 N 
ATOM      8  NH2 ARG D 557     -26.288  -2.645 -15.256  1.00 35.49    -0.235 N 
ATOM      9  HH  ARG D 557     -28.657  -2.760 -17.174  1.00 35.49     0.174 HD
ATOM     10  HH  ARG D 557     -27.776  -3.860 -16.708  1.00 35.49     0.174 HD
ATOM     11  HH  ARG D 557     -25.845  -2.085 -14.790  1.00 35.49     0.174 HD
ATOM     12  HH  ARG D 557     -26.086  -3.469 -15.275  1.00 35.49     0.174 HD
ATOM     13  HE  ARG D 557     -27.093  -0.467 -15.333  1.00 35.49     0.178 HD
ENDBRANCH   4   5
ENDBRANCH   3   4
ENDBRANCH   2   3
ENDBRANCH   1   2
END_RES ARG D 557
BEGIN_RES GLU D 570
REMARK  3 active torsions:
REMARK  status: ('A' for Active; 'I' for Inactive)
REMARK    5  A    between atoms: CA   and  CB  
REMARK    6  A    between atoms: CB   and  CG  
REMARK    7  A    between atoms: CG   and  CD  
ROOT
ATOM     14  CA  GLU D 570     -18.033  -6.348 -13.375  1.00 32.92     0.160 C 
ENDROOT
BRANCH  14  15
ATOM     15  CB  GLU D 570     -19.500  -6.345 -13.794  1.00 32.92     0.043 C 
BRANCH  15  16
ATOM     16  CG  GLU D 570     -19.796  -6.377 -15.250  1.00 32.92     0.100 C 
BRANCH  16  17
ATOM     17  CD  GLU D 570     -20.809  -7.435 -15.622  1.00 32.92     0.185 C 
ATOM     18  OE1 GLU D 570     -20.407  -8.569 -15.946  1.00 32.92    -0.647 OA
ATOM     19  OE2 GLU D 570     -22.015  -7.122 -15.605  1.00 32.92    -0.647 OA
ENDBRANCH  16  17
ENDBRANCH  15  16
ENDBRANCH  14  15
END_RES GLU D 570
ENDMDL
MODEL 8
REMARK VINA RESULT:      -6.6      5.654     10.543
REMARK  23 active torsions:
REMARK  status: ('A' for Active; 'I' for Inactive)
REMARK    1  A    between atoms: C_2  and  C_3 
REMARK    2  A    between atoms: C_3  and  C_4 
REMARK    3  A    between atoms: C_4  and  C_5 
REMARK    4  A    between atoms: C_5  and  C_6 
REMARK    5  A    between atoms: C_6  and  C_7 
REMARK    6  A    between atoms: C_7  and  C_8 
REMARK    7  A    between atoms: C_8  and  C_9 
REMARK    8  A    between atoms: C_9  and  C_10 
REMARK    9  A    between atoms: C_10  and  C_11 
REMARK   10  A    between atoms: C_11  and  C_12 
REMARK   11  A    between atoms: C_12  and  C_13 
REMARK   12  A    between atoms: C_13  and  C_14 
REMARK   13  A    between atoms: C_14  and  C_15 
REMARK   14  A    between atoms: C_15  and  C_16 
REMARK   15  A    between atoms: C_16  and  C_17 
REMARK   16  A    between atoms: C_17  and  C_18 
REMARK   17  A    between atoms: C_18  and  O_20 
REMARK   18  A    between atoms: O_20  and  C_21 
REMARK   19  A    between atoms: C_21  and  C_22 
REMARK   20  A    between atoms: C_22  and  C_23 
REMARK   21  A    between atoms: C_22  and  C_25 
REMARK   22  A    between atoms: C_25  and  C_26 
REMARK   23  A    between atoms: C_26  and  C_27 
ROOT
HETATM    1  C   UNL     1     -30.240  -5.923 -17.622  1.00  0.00     0.000 C 
ENDROOT
BRANCH   1   2
HETATM    2  C   UNL     1     -29.396  -7.094 -17.141  1.00  0.00     0.000 C 
BRANCH   2   3
HETATM    3  C   UNL     1     -28.287  -6.605 -16.222  1.00  0.00     0.000 C 
BRANCH   3   4
HETATM    4  C   UNL     1     -27.156  -6.009 -17.042  1.00  0.00     0.000 C 
BRANCH   4   5
HETATM    5  C   UNL     1     -25.821  -6.563 -16.573  1.00  0.00     0.000 C 
BRANCH   5   6
HETATM    6  C   UNL     1     -25.415  -5.901 -15.268  1.00  0.00     0.000 C 
BRANCH   6   7
HETATM    7  C   UNL     1     -24.016  -6.339 -14.875  1.00  0.00     0.000 C 
BRANCH   7   8
HETATM    8  C   UNL     1     -23.255  -5.173 -14.268  1.00  0.00     0.000 C 
BRANCH   8   9
HETATM    9  C   UNL     1     -23.365  -5.214 -12.754  1.00  0.00     0.000 C 
BRANCH   9  10
HETATM   10  C   UNL     1     -23.769  -3.850 -12.219  1.00  0.00     0.000 C 
BRANCH  10  11
HETATM   11  C   UNL     1     -22.835  -3.427 -11.095  1.00  0.00     0.000 C 
BRANCH  11  12
HETATM   12  C   UNL     1     -21.408  -3.313 -11.612  1.00  0.00    -0.000 C 
BRANCH  12  13
HETATM   13  C   UNL     1     -20.506  -4.338 -10.938  1.00  0.00    -0.005 C 
HETATM   14  C   UNL     1     -20.507  -4.145  -9.433  1.00  0.00     0.005 C 
ENDBRANCH  12  13
ENDBRANCH  11  12
ENDBRANCH  10  11
ENDBRANCH   9  10
ENDBRANCH   8   9
ENDBRANCH   7   8
ENDBRANCH   6   7
ENDBRANCH   5   6
ENDBRANCH   4   5
ENDBRANCH   3   4
ENDBRANCH   2   3
ENDBRANCH   1   2
BRANCH   1  15
HETATM   15  C   UNL     1     -30.843  -5.168 -16.440  1.00  0.00     0.000 C 
BRANCH  15  16
HETATM   16  C   UNL     1     -32.079  -4.402 -16.894  1.00  0.00     0.010 C 
BRANCH  16  17
HETATM   17  C   UNL     1     -33.308  -4.701 -16.043  1.00  0.00     0.111 C 
BRANCH  17  18
HETATM   18  C   UNL     1     -34.141  -3.441 -15.891  1.00  0.00     0.258 C 
HETATM   19  O   UNL     1     -34.412  -2.665 -16.782  1.00  0.00    -0.265 OA
BRANCH  18  20
HETATM   20  O   UNL     1     -34.471  -3.277 -14.573  1.00  0.00    -0.321 OA
BRANCH  20  21
HETATM   21  C   UNL     1     -33.986  -4.331 -13.730  1.00  0.00     0.183 C 
BRANCH  21  22
HETATM   22  C   UNL     1     -33.351  -3.797 -12.436  1.00  0.00     0.010 C 
BRANCH  22  23
HETATM   23  C   UNL     1     -34.131  -2.593 -11.852  1.00  0.00     0.002 C 
HETATM   24  C   UNL     1     -33.735  -2.192 -10.439  1.00  0.00     0.005 C 
ENDBRANCH  22  23
BRANCH  22  25
HETATM   25  C   UNL     1     -33.232  -4.933 -11.394  1.00  0.00     0.007 C 
BRANCH  25  26
HETATM   26  C   UNL     1     -34.465  -5.840 -11.363  1.00  0.00     0.000 C 
BRANCH  26  27
HETATM   27  C   UNL     1     -34.691  -6.470  -9.993  1.00  0.00    -0.005 C 
HETATM   28  C   UNL     1     -34.577  -7.984 -10.086  1.00  0.00     0.005 C 
ENDBRANCH  26  27
ENDBRANCH  25  26
ENDBRANCH  22  25
ENDBRANCH  21  22
ENDBRANCH  20  21
ENDBRANCH  18  20
ENDBRANCH  17  18
ENDBRANCH  16  17
ENDBRANCH  15  16
ENDBRANCH   1  15
TORSDOF 23
BEGIN_RES ARG D 557
REMARK  4 active torsions:
REMARK  status: ('A' for Active; 'I' for Inactive)
REMARK    1  A    between atoms: CA   and  CB  
REMARK    2  A    between atoms: CB   and  CG  
REMARK    3  A    between atoms: CG   and  CD  
REMARK    4  A    between atoms: CD   and  NE  
REMARK       I    between atoms: NE   and  CZ  
REMARK       I    between atoms: CZ   and  NH1 
REMARK       I    between atoms: CZ   and  NH2 
ROOT
ATOM      1  CA  ARG D 557     -26.217   2.705 -17.014  1.00 35.49     0.159 C 
ENDROOT
BRANCH   1   2
ATOM      2  CB  ARG D 557     -26.789   1.319 -17.183  1.00 35.49     0.034 C 
BRANCH   2   3
ATOM      3  CG  ARG D 557     -28.231   1.226 -17.443  1.00 35.49     0.027 C 
BRANCH   3   4
ATOM      4  CD  ARG D 557     -28.896   0.222 -16.582  1.00 35.49     0.116 C 
BRANCH   4   5
ATOM      5  NE  ARG D 557     -27.970  -0.756 -16.075  1.00 35.49    -0.212 N 
ATOM      6  CZ  ARG D 557     -27.914  -2.019 -16.434  1.00 35.49     0.666 C 
ATOM      7  NH1 ARG D 557     -28.741  -2.542 -17.320  1.00 35.49    -0.235 N 
ATOM      8  NH2 ARG D 557     -26.994  -2.759 -15.886  1.00 35.49    -0.235 N 
ATOM      9  HH  ARG D 557     -29.353  -2.073 -17.696  1.00 35.49     0.174 HD
ATOM     10  HH  ARG D 557     -28.655  -3.371 -17.518  1.00 35.49     0.174 HD
ATOM     11  HH  ARG D 557     -26.469  -2.392 -15.322  1.00 35.49     0.174 HD
ATOM     12  HH  ARG D 557     -26.924  -3.577 -16.095  1.00 35.49     0.174 HD
ATOM     13  HE  ARG D 557     -27.448  -0.523 -15.446  1.00 35.49     0.178 HD
ENDBRANCH   4   5
ENDBRANCH   3   4
ENDBRANCH   2   3
ENDBRANCH   1   2
END_RES ARG D 557
BEGIN_RES GLU D 570
REMARK  3 active torsions:
REMARK  status: ('A' for Active; 'I' for Inactive)
REMARK    5  A    between atoms: CA   and  CB  
REMARK    6  A    between atoms: CB   and  CG  
REMARK    7  A    between atoms: CG   and  CD  
ROOT
ATOM     14  CA  GLU D 570     -18.033  -6.348 -13.375  1.00 32.92     0.160 C 
ENDROOT
BRANCH  14  15
ATOM     15  CB  GLU D 570     -19.500  -6.345 -13.794  1.00 32.92     0.043 C 
BRANCH  15  16
ATOM     16  CG  GLU D 570     -19.797  -6.228 -15.245  1.00 32.92     0.100 C 
BRANCH  16  17
ATOM     17  CD  GLU D 570     -20.622  -7.379 -15.773  1.00 32.92     0.185 C 
ATOM     18  OE1 GLU D 570     -21.274  -7.224 -16.823  1.00 32.92    -0.647 OA
ATOM     19  OE2 GLU D 570     -20.629  -8.441 -15.119  1.00 32.92    -0.647 OA
ENDBRANCH  16  17
ENDBRANCH  15  16
ENDBRANCH  14  15
END_RES GLU D 570
ENDMDL
MODEL 9
REMARK VINA RESULT:      -6.6      1.340      2.403
REMARK  23 active torsions:
REMARK  status: ('A' for Active; 'I' for Inactive)
REMARK    1  A    between atoms: C_2  and  C_3 
REMARK    2  A    between atoms: C_3  and  C_4 
REMARK    3  A    between atoms: C_4  and  C_5 
REMARK    4  A    between atoms: C_5  and  C_6 
REMARK    5  A    between atoms: C_6  and  C_7 
REMARK    6  A    between atoms: C_7  and  C_8 
REMARK    7  A    between atoms: C_8  and  C_9 
REMARK    8  A    between atoms: C_9  and  C_10 
REMARK    9  A    between atoms: C_10  and  C_11 
REMARK   10  A    between atoms: C_11  and  C_12 
REMARK   11  A    between atoms: C_12  and  C_13 
REMARK   12  A    between atoms: C_13  and  C_14 
REMARK   13  A    between atoms: C_14  and  C_15 
REMARK   14  A    between atoms: C_15  and  C_16 
REMARK   15  A    between atoms: C_16  and  C_17 
REMARK   16  A    between atoms: C_17  and  C_18 
REMARK   17  A    between atoms: C_18  and  O_20 
REMARK   18  A    between atoms: O_20  and  C_21 
REMARK   19  A    between atoms: C_21  and  C_22 
REMARK   20  A    between atoms: C_22  and  C_23 
REMARK   21  A    between atoms: C_22  and  C_25 
REMARK   22  A    between atoms: C_25  and  C_26 
REMARK   23  A    between atoms: C_26  and  C_27 
ROOT
HETATM    1  C   UNL     1     -20.899  -3.990  -6.850  1.00  0.00     0.000 C 
ENDROOT
BRANCH   1   2
HETATM    2  C   UNL     1     -19.932  -4.985  -6.227  1.00  0.00     0.000 C 
BRANCH   2   3
HETATM    3  C   UNL     1     -20.612  -6.332  -6.031  1.00  0.00     0.000 C 
BRANCH   3   4
HETATM    4  C   UNL     1     -21.704  -6.216  -4.981  1.00  0.00     0.000 C 
BRANCH   4   5
HETATM    5  C   UNL     1     -21.812  -7.510  -4.192  1.00  0.00     0.000 C 
BRANCH   5   6
HETATM    6  C   UNL     1     -20.924  -8.572  -4.813  1.00  0.00     0.000 C 
BRANCH   6   7
HETATM    7  C   UNL     1     -20.841  -9.782  -3.900  1.00  0.00     0.000 C 
BRANCH   7   8
HETATM    8  C   UNL     1     -22.221 -10.385  -3.707  1.00  0.00     0.000 C 
BRANCH   8   9
HETATM    9  C   UNL     1     -22.404 -10.807  -2.259  1.00  0.00     0.000 C 
BRANCH   9  10
HETATM   10  C   UNL     1     -21.119 -10.581  -1.480  1.00  0.00     0.000 C 
BRANCH  10  11
HETATM   11  C   UNL     1     -21.399  -9.766  -0.225  1.00  0.00     0.000 C 
BRANCH  11  12
HETATM   12  C   UNL     1     -22.881  -9.431  -0.136  1.00  0.00    -0.000 C 
BRANCH  12  13
HETATM   13  C   UNL     1     -23.082  -7.981   0.282  1.00  0.00    -0.005 C 
HETATM   14  C   UNL     1     -22.366  -7.045  -0.674  1.00  0.00     0.005 C 
ENDBRANCH  12  13
ENDBRANCH  11  12
ENDBRANCH  10  11
ENDBRANCH   9  10
ENDBRANCH   8   9
ENDBRANCH   7   8
ENDBRANCH   6   7
ENDBRANCH   5   6
ENDBRANCH   4   5
ENDBRANCH   3   4
ENDBRANCH   2   3
ENDBRANCH   1   2
BRANCH   1  15
HETATM   15  C   UNL     1     -21.585  -4.594  -8.073  1.00  0.00     0.000 C 
BRANCH  15  16
HETATM   16  C   UNL     1     -23.035  -4.132  -8.132  1.00  0.00     0.010 C 
BRANCH  16  17
HETATM   17  C   UNL     1     -23.781  -4.675  -9.345  1.00  0.00     0.111 C 
BRANCH  17  18
HETATM   18  C   UNL     1     -24.610  -3.566  -9.970  1.00  0.00     0.258 C 
HETATM   19  O   UNL     1     -25.176  -2.683  -9.364  1.00  0.00    -0.265 OA
BRANCH  18  20
HETATM   20  O   UNL     1     -24.682  -3.768 -11.322  1.00  0.00    -0.321 OA
BRANCH  20  21
HETATM   21  C   UNL     1     -23.655  -4.634 -11.823  1.00  0.00     0.183 C 
BRANCH  21  22
HETATM   22  C   UNL     1     -22.489  -3.853 -12.452  1.00  0.00     0.010 C 
BRANCH  22  23
HETATM   23  C   UNL     1     -21.144  -4.128 -11.735  1.00  0.00     0.002 C 
HETATM   24  C   UNL     1     -20.502  -2.914 -11.079  1.00  0.00     0.005 C 
ENDBRANCH  22  23
BRANCH  22  25
HETATM   25  C   UNL     1     -22.385  -4.175 -13.960  1.00  0.00     0.007 C 
BRANCH  25  26
HETATM   26  C   UNL     1     -23.278  -3.276 -14.821  1.00  0.00     0.000 C 
BRANCH  26  27
HETATM   27  C   UNL     1     -23.513  -1.910 -14.187  1.00  0.00    -0.005 C 
HETATM   28  C   UNL     1     -24.721  -1.237 -14.823  1.00  0.00     0.005 C 
ENDBRANCH  26  27
ENDBRANCH  25  26
ENDBRANCH  22  25
ENDBRANCH  21  22
ENDBRANCH  20  21
ENDBRANCH  18  20
ENDBRANCH  17  18
ENDBRANCH  16  17
ENDBRANCH  15  16
ENDBRANCH   1  15
TORSDOF 23
BEGIN_RES ARG D 557
REMARK  4 active torsions:
REMARK  status: ('A' for Active; 'I' for Inactive)
REMARK    1  A    between atoms: CA   and  CB  
REMARK    2  A    between atoms: CB   and  CG  
REMARK    3  A    between atoms: CG   and  CD  
REMARK    4  A    between atoms: CD   and  NE  
REMARK       I    between atoms: NE   and  CZ  
REMARK       I    between atoms: CZ   and  NH1 
REMARK       I    between atoms: CZ   and  NH2 
ROOT
ATOM      1  CA  ARG D 557     -26.217   2.705 -17.014  1.00 35.49     0.159 C 
ENDROOT
BRANCH   1   2
ATOM      2  CB  ARG D 557     -26.789   1.319 -17.183  1.00 35.49     0.034 C 
BRANCH   2   3
ATOM      3  CG  ARG D 557     -28.239   1.223 -17.389  1.00 35.49     0.027 C 
BRANCH   3   4
ATOM      4  CD  ARG D 557     -28.882   0.277 -16.449  1.00 35.49     0.116 C 
BRANCH   4   5
ATOM      5  NE  ARG D 557     -29.347  -0.913 -17.111  1.00 35.49    -0.212 N 
ATOM      6  CZ  ARG D 557     -28.770  -2.093 -17.066  1.00 35.49     0.666 C 
ATOM      7  NH1 ARG D 557     -27.654  -2.312 -16.394  1.00 35.49    -0.235 N 
ATOM      8  NH2 ARG D 557     -29.344  -3.067 -17.710  1.00 35.49    -0.235 N 
ATOM      9  HH  ARG D 557     -27.261  -1.686 -15.961  1.00 35.49     0.174 HD
ATOM     10  HH  ARG D 557     -27.325  -3.103 -16.399  1.00 35.49     0.174 HD
ATOM     11  HH  ARG D 557     -30.068  -2.898 -18.129  1.00 35.49     0.174 HD
ATOM     12  HH  ARG D 557     -29.003  -3.844 -17.701  1.00 35.49     0.174 HD
ATOM     13  HE  ARG D 557     -30.021  -0.846 -17.625  1.00 35.49     0.178 HD
ENDBRANCH   4   5
ENDBRANCH   3   4
ENDBRANCH   2   3
ENDBRANCH   1   2
END_RES ARG D 557
BEGIN_RES GLU D 570
REMARK  3 active torsions:
REMARK  status: ('A' for Active; 'I' for Inactive)
REMARK    5  A    between atoms: CA   and  CB  
REMARK    6  A    between atoms: CB   and  CG  
REMARK    7  A    between atoms: CG   and  CD  
ROOT
ATOM     14  CA  GLU D 570     -18.033  -6.348 -13.375  1.00 32.92     0.160 C 
ENDROOT
BRANCH  14  15
ATOM     15  CB  GLU D 570     -19.500  -6.345 -13.794  1.00 32.92     0.043 C 
BRANCH  15  16
ATOM     16  CG  GLU D 570     -19.797  -6.248 -15.247  1.00 32.92     0.100 C 
BRANCH  16  17
ATOM     17  CD  GLU D 570     -20.695  -7.359 -15.740  1.00 32.92     0.185 C 
ATOM     18  OE1 GLU D 570     -21.459  -7.139 -16.699  1.00 32.92    -0.647 OA
ATOM     19  OE2 GLU D 570     -20.646  -8.456 -15.150  1.00 32.92    -0.647 OA
ENDBRANCH  16  17
ENDBRANCH  15  16
ENDBRANCH  14  15
END_RES GLU D 570
ENDMDL
