MODEL 1
REMARK VINA RESULT:      -7.5      0.000      0.000
REMARK  6 active torsions:
REMARK  status: ('A' for Active; 'I' for Inactive)
REMARK    1  A    between atoms: C_2  and  O_3 
REMARK    2  A    between atoms: O_3  and  C_4 
REMARK    3  A    between atoms: C_4  and  C_6 
REMARK    4  A    between atoms: C_7  and  C_8 
REMARK    5  A    between atoms: C_10  and  O_15 
REMARK    6  A    between atoms: C_11  and  O_14 
ROOT
HETATM    1  C   UNL     1     -21.040  -4.753  -9.041  1.00  0.00    -0.033 A 
HETATM    2  C   UNL     1     -22.372  -4.491  -9.389  1.00  0.00     0.051 A 
HETATM    3  C   UNL     1     -22.736  -3.984 -10.651  1.00  0.00     0.102 A 
HETATM    4  C   UNL     1     -21.720  -3.724 -11.573  1.00  0.00     0.099 A 
HETATM    5  C   UNL     1     -20.383  -3.958 -11.228  1.00  0.00     0.040 A 
HETATM    6  C   UNL     1     -20.044  -4.459  -9.974  1.00  0.00     0.014 A 
ENDROOT
BRANCH   1   7
HETATM    7  C   UNL     1     -20.648  -5.309  -7.739  1.00  0.00     0.017 C 
HETATM    8  C   UNL     1     -21.491  -5.447  -6.705  1.00  0.00     0.083 C 
BRANCH   8   9
HETATM    9  C   UNL     1     -21.056  -6.172  -5.496  1.00  0.00     0.282 C 
HETATM   10  O   UNL     1     -20.080  -6.898  -5.419  1.00  0.00    -0.260 OA
BRANCH   9  11
HETATM   11  O   UNL     1     -22.009  -5.978  -4.551  1.00  0.00    -0.319 OA
BRANCH  11  12
HETATM   12  C   UNL     1     -21.964  -6.887  -3.444  1.00  0.00     0.174 C 
HETATM   13  C   UNL     1     -22.058  -6.075  -2.165  1.00  0.00     0.034 C 
ENDBRANCH  11  12
ENDBRANCH   9  11
ENDBRANCH   8   9
ENDBRANCH   1   7
BRANCH   3  14
HETATM   14  O   UNL     1     -24.089  -3.846 -10.745  1.00  0.00    -0.353 OA
HETATM   15  C   UNL     1     -24.854  -3.272  -9.708  1.00  0.00     0.210 C 
ENDBRANCH   3  14
BRANCH   4  16
HETATM   16  O   UNL     1     -21.868  -3.251 -12.844  1.00  0.00    -0.358 OA
HETATM   17  H   UNL     1     -21.466  -2.381 -12.927  1.00  0.00     0.217 HD
ENDBRANCH   4  16
TORSDOF 6
BEGIN_RES ARG D 557
REMARK  4 active torsions:
REMARK  status: ('A' for Active; 'I' for Inactive)
REMARK    1  A    between atoms: CA   and  CB  
REMARK    2  A    between atoms: CB   and  CG  
REMARK    3  A    between atoms: CG   and  CD  
REMARK    4  A    between atoms: CD   and  NE  
REMARK       I    between atoms: NE   and  CZ  
REMARK       I    between atoms: CZ   and  NH1 
REMARK       I    between atoms: CZ   and  NH2 
ROOT
ATOM      1  CA  ARG D 557     -26.217   2.705 -17.014  1.00 35.49     0.159 C 
ENDROOT
BRANCH   1   2
ATOM      2  CB  ARG D 557     -26.789   1.319 -17.183  1.00 35.49     0.034 C 
BRANCH   2   3
ATOM      3  CG  ARG D 557     -25.837   0.202 -17.145  1.00 35.49     0.027 C 
BRANCH   3   4
ATOM      4  CD  ARG D 557     -24.781   0.395 -16.125  1.00 35.49     0.116 C 
BRANCH   4   5
ATOM      5  NE  ARG D 557     -24.958  -0.472 -14.990  1.00 35.49    -0.212 N 
ATOM      6  CZ  ARG D 557     -24.154  -1.450 -14.638  1.00 35.49     0.666 C 
ATOM      7  NH1 ARG D 557     -23.068  -1.757 -15.324  1.00 35.49    -0.235 N 
ATOM      8  NH2 ARG D 557     -24.459  -2.122 -13.566  1.00 35.49    -0.235 N 
ATOM      9  HH  ARG D 557     -22.847  -1.327 -16.031  1.00 35.49     0.174 HD
ATOM     10  HH  ARG D 557     -22.580  -2.403 -15.045  1.00 35.49     0.174 HD
ATOM     11  HH  ARG D 557     -25.162  -1.897 -13.139  1.00 35.49     0.174 HD
ATOM     12  HH  ARG D 557     -23.962  -2.758 -13.305  1.00 35.49     0.174 HD
ATOM     13  HE  ARG D 557     -25.671  -0.392 -14.533  1.00 35.49     0.178 HD
ENDBRANCH   4   5
ENDBRANCH   3   4
ENDBRANCH   2   3
ENDBRANCH   1   2
END_RES ARG D 557
BEGIN_RES GLU D 570
REMARK  3 active torsions:
REMARK  status: ('A' for Active; 'I' for Inactive)
REMARK    5  A    between atoms: CA   and  CB  
REMARK    6  A    between atoms: CB   and  CG  
REMARK    7  A    between atoms: CG   and  CD  
ROOT
ATOM     14  CA  GLU D 570     -18.033  -6.348 -13.375  1.00 32.92     0.160 C 
ENDROOT
BRANCH  14  15
ATOM     15  CB  GLU D 570     -19.500  -6.345 -13.794  1.00 32.92     0.043 C 
BRANCH  15  16
ATOM     16  CG  GLU D 570     -19.822  -5.848 -15.157  1.00 32.92     0.100 C 
BRANCH  16  17
ATOM     17  CD  GLU D 570     -21.305  -5.667 -15.383  1.00 32.92     0.185 C 
ATOM     18  OE1 GLU D 570     -21.747  -4.524 -15.610  1.00 32.92    -0.647 OA
ATOM     19  OE2 GLU D 570     -22.034  -6.676 -15.316  1.00 32.92    -0.647 OA
ENDBRANCH  16  17
ENDBRANCH  15  16
ENDBRANCH  14  15
END_RES GLU D 570
ENDMDL
MODEL 2
REMARK VINA RESULT:      -7.1      2.430      6.061
REMARK  6 active torsions:
REMARK  status: ('A' for Active; 'I' for Inactive)
REMARK    1  A    between atoms: C_2  and  O_3 
REMARK    2  A    between atoms: O_3  and  C_4 
REMARK    3  A    between atoms: C_4  and  C_6 
REMARK    4  A    between atoms: C_7  and  C_8 
REMARK    5  A    between atoms: C_10  and  O_15 
REMARK    6  A    between atoms: C_11  and  O_14 
ROOT
HETATM    1  C   UNL     1     -22.747  -4.020 -10.993  1.00  0.00    -0.033 A 
HETATM    2  C   UNL     1     -21.668  -4.179 -10.113  1.00  0.00     0.051 A 
HETATM    3  C   UNL     1     -21.840  -4.295  -8.720  1.00  0.00     0.102 A 
HETATM    4  C   UNL     1     -23.138  -4.233  -8.212  1.00  0.00     0.099 A 
HETATM    5  C   UNL     1     -24.223  -4.050  -9.078  1.00  0.00     0.040 A 
HETATM    6  C   UNL     1     -24.031  -3.936 -10.452  1.00  0.00     0.014 A 
ENDROOT
BRANCH   1   7
HETATM    7  C   UNL     1     -22.584  -3.928 -12.450  1.00  0.00     0.017 C 
HETATM    8  C   UNL     1     -22.835  -4.941 -13.292  1.00  0.00     0.083 C 
BRANCH   8   9
HETATM    9  C   UNL     1     -22.810  -4.707 -14.748  1.00  0.00     0.282 C 
HETATM   10  O   UNL     1     -21.948  -4.091 -15.351  1.00  0.00    -0.260 OA
BRANCH   9  11
HETATM   11  O   UNL     1     -23.975  -5.187 -15.248  1.00  0.00    -0.319 OA
BRANCH  11  12
HETATM   12  C   UNL     1     -24.135  -6.609 -15.163  1.00  0.00     0.174 C 
HETATM   13  C   UNL     1     -25.399  -6.986 -15.914  1.00  0.00     0.034 C 
ENDBRANCH  11  12
ENDBRANCH   9  11
ENDBRANCH   8   9
ENDBRANCH   1   7
BRANCH   3  14
HETATM   14  O   UNL     1     -20.639  -4.468  -8.097  1.00  0.00    -0.353 OA
HETATM   15  C   UNL     1     -20.283  -5.692  -7.491  1.00  0.00     0.210 C 
ENDBRANCH   3  14
BRANCH   4  16
HETATM   16  O   UNL     1     -23.512  -4.341  -6.904  1.00  0.00    -0.358 OA
HETATM   17  H   UNL     1     -24.373  -3.935  -6.766  1.00  0.00     0.217 HD
ENDBRANCH   4  16
TORSDOF 6
BEGIN_RES ARG D 557
REMARK  4 active torsions:
REMARK  status: ('A' for Active; 'I' for Inactive)
REMARK    1  A    between atoms: CA   and  CB  
REMARK    2  A    between atoms: CB   and  CG  
REMARK    3  A    between atoms: CG   and  CD  
REMARK    4  A    between atoms: CD   and  NE  
REMARK       I    between atoms: NE   and  CZ  
REMARK       I    between atoms: CZ   and  NH1 
REMARK       I    between atoms: CZ   and  NH2 
ROOT
ATOM      1  CA  ARG D 557     -26.217   2.705 -17.014  1.00 35.49     0.159 C 
ENDROOT
BRANCH   1   2
ATOM      2  CB  ARG D 557     -26.789   1.319 -17.183  1.00 35.49     0.034 C 
BRANCH   2   3
ATOM      3  CG  ARG D 557     -25.984   0.205 -16.668  1.00 35.49     0.027 C 
BRANCH   3   4
ATOM      4  CD  ARG D 557     -26.817  -0.945 -16.245  1.00 35.49     0.116 C 
BRANCH   4   5
ATOM      5  NE  ARG D 557     -26.341  -1.539 -15.024  1.00 35.49    -0.212 N 
ATOM      6  CZ  ARG D 557     -26.325  -2.824 -14.750  1.00 35.49     0.666 C 
ATOM      7  NH1 ARG D 557     -26.774  -3.735 -15.595  1.00 35.49    -0.235 N 
ATOM      8  NH2 ARG D 557     -25.838  -3.187 -13.599  1.00 35.49    -0.235 N 
ATOM      9  HH  ARG D 557     -27.097  -3.518 -16.358  1.00 35.49     0.174 HD
ATOM     10  HH  ARG D 557     -26.735  -4.559 -15.363  1.00 35.49     0.174 HD
ATOM     11  HH  ARG D 557     -25.549  -2.578 -13.077  1.00 35.49     0.174 HD
ATOM     12  HH  ARG D 557     -25.807  -4.008 -13.389  1.00 35.49     0.174 HD
ATOM     13  HE  ARG D 557     -26.101  -1.020 -14.394  1.00 35.49     0.178 HD
ENDBRANCH   4   5
ENDBRANCH   3   4
ENDBRANCH   2   3
ENDBRANCH   1   2
END_RES ARG D 557
BEGIN_RES GLU D 570
REMARK  3 active torsions:
REMARK  status: ('A' for Active; 'I' for Inactive)
REMARK    5  A    between atoms: CA   and  CB  
REMARK    6  A    between atoms: CB   and  CG  
REMARK    7  A    between atoms: CG   and  CD  
ROOT
ATOM     14  CA  GLU D 570     -18.033  -6.348 -13.375  1.00 32.92     0.160 C 
ENDROOT
BRANCH  14  15
ATOM     15  CB  GLU D 570     -19.500  -6.345 -13.794  1.00 32.92     0.043 C 
BRANCH  15  16
ATOM     16  CG  GLU D 570     -20.102  -7.645 -14.188  1.00 32.92     0.100 C 
BRANCH  16  17
ATOM     17  CD  GLU D 570     -20.618  -7.649 -15.608  1.00 32.92     0.185 C 
ATOM     18  OE1 GLU D 570     -21.265  -8.633 -16.015  1.00 32.92    -0.647 OA
ATOM     19  OE2 GLU D 570     -20.359  -6.664 -16.327  1.00 32.92    -0.647 OA
ENDBRANCH  16  17
ENDBRANCH  15  16
ENDBRANCH  14  15
END_RES GLU D 570
ENDMDL
MODEL 3
REMARK VINA RESULT:      -7.1      5.554      8.387
REMARK  6 active torsions:
REMARK  status: ('A' for Active; 'I' for Inactive)
REMARK    1  A    between atoms: C_2  and  O_3 
REMARK    2  A    between atoms: O_3  and  C_4 
REMARK    3  A    between atoms: C_4  and  C_6 
REMARK    4  A    between atoms: C_7  and  C_8 
REMARK    5  A    between atoms: C_10  and  O_15 
REMARK    6  A    between atoms: C_11  and  O_14 
ROOT
HETATM    1  C   UNL     1     -27.920  -4.700 -16.489  1.00  0.00    -0.033 A 
HETATM    2  C   UNL     1     -29.032  -5.521 -16.722  1.00  0.00     0.051 A 
HETATM    3  C   UNL     1     -30.240  -5.026 -17.249  1.00  0.00     0.102 A 
HETATM    4  C   UNL     1     -30.321  -3.661 -17.532  1.00  0.00     0.099 A 
HETATM    5  C   UNL     1     -29.226  -2.825 -17.282  1.00  0.00     0.040 A 
HETATM    6  C   UNL     1     -28.041  -3.335 -16.759  1.00  0.00     0.014 A 
ENDROOT
BRANCH   1   7
HETATM    7  C   UNL     1     -26.645  -5.209 -15.967  1.00  0.00     0.017 C 
HETATM    8  C   UNL     1     -26.137  -6.409 -16.285  1.00  0.00     0.083 C 
BRANCH   8   9
HETATM    9  C   UNL     1     -24.773  -6.765 -15.851  1.00  0.00     0.282 C 
HETATM   10  O   UNL     1     -24.254  -7.861 -15.977  1.00  0.00    -0.260 OA
BRANCH   9  11
HETATM   11  O   UNL     1     -24.275  -5.695 -15.184  1.00  0.00    -0.319 OA
BRANCH  11  12
HETATM   12  C   UNL     1     -23.632  -5.998 -13.940  1.00  0.00     0.174 C 
HETATM   13  C   UNL     1     -22.653  -4.879 -13.632  1.00  0.00     0.034 C 
ENDBRANCH  11  12
ENDBRANCH   9  11
ENDBRANCH   8   9
ENDBRANCH   1   7
BRANCH   3  14
HETATM   14  O   UNL     1     -31.148  -6.031 -17.404  1.00  0.00    -0.353 OA
HETATM   15  C   UNL     1     -30.776  -7.306 -17.879  1.00  0.00     0.210 C 
ENDBRANCH   3  14
BRANCH   4  16
HETATM   16  O   UNL     1     -31.390  -2.997 -18.059  1.00  0.00    -0.358 OA
HETATM   17  H   UNL     1     -32.125  -3.601 -18.202  1.00  0.00     0.217 HD
ENDBRANCH   4  16
TORSDOF 6
BEGIN_RES ARG D 557
REMARK  4 active torsions:
REMARK  status: ('A' for Active; 'I' for Inactive)
REMARK    1  A    between atoms: CA   and  CB  
REMARK    2  A    between atoms: CB   and  CG  
REMARK    3  A    between atoms: CG   and  CD  
REMARK    4  A    between atoms: CD   and  NE  
REMARK       I    between atoms: NE   and  CZ  
REMARK       I    between atoms: CZ   and  NH1 
REMARK       I    between atoms: CZ   and  NH2 
ROOT
ATOM      1  CA  ARG D 557     -26.217   2.705 -17.014  1.00 35.49     0.159 C 
ENDROOT
BRANCH   1   2
ATOM      2  CB  ARG D 557     -26.789   1.319 -17.183  1.00 35.49     0.034 C 
BRANCH   2   3
ATOM      3  CG  ARG D 557     -25.835   0.204 -17.166  1.00 35.49     0.027 C 
BRANCH   3   4
ATOM      4  CD  ARG D 557     -24.729   0.421 -16.205  1.00 35.49     0.116 C 
BRANCH   4   5
ATOM      5  NE  ARG D 557     -24.865  -0.398 -15.029  1.00 35.49    -0.212 N 
ATOM      6  CZ  ARG D 557     -24.057  -1.372 -14.674  1.00 35.49     0.666 C 
ATOM      7  NH1 ARG D 557     -23.007  -1.720 -15.395  1.00 35.49    -0.235 N 
ATOM      8  NH2 ARG D 557     -24.320  -1.996 -13.563  1.00 35.49    -0.235 N 
ATOM      9  HH  ARG D 557     -22.813  -1.322 -16.129  1.00 35.49     0.174 HD
ATOM     10  HH  ARG D 557     -22.514  -2.362 -15.113  1.00 35.49     0.174 HD
ATOM     11  HH  ARG D 557     -25.001  -1.744 -13.115  1.00 35.49     0.174 HD
ATOM     12  HH  ARG D 557     -23.820  -2.627 -13.299  1.00 35.49     0.174 HD
ATOM     13  HE  ARG D 557     -25.555  -0.290 -14.545  1.00 35.49     0.178 HD
ENDBRANCH   4   5
ENDBRANCH   3   4
ENDBRANCH   2   3
ENDBRANCH   1   2
END_RES ARG D 557
BEGIN_RES GLU D 570
REMARK  3 active torsions:
REMARK  status: ('A' for Active; 'I' for Inactive)
REMARK    5  A    between atoms: CA   and  CB  
REMARK    6  A    between atoms: CB   and  CG  
REMARK    7  A    between atoms: CG   and  CD  
ROOT
ATOM     14  CA  GLU D 570     -18.033  -6.348 -13.375  1.00 32.92     0.160 C 
ENDROOT
BRANCH  14  15
ATOM     15  CB  GLU D 570     -19.500  -6.345 -13.794  1.00 32.92     0.043 C 
BRANCH  15  16
ATOM     16  CG  GLU D 570     -20.091  -7.637 -14.228  1.00 32.92     0.100 C 
BRANCH  16  17
ATOM     17  CD  GLU D 570     -20.628  -7.595 -15.640  1.00 32.92     0.185 C 
ATOM     18  OE1 GLU D 570     -20.856  -6.490 -16.168  1.00 32.92    -0.647 OA
ATOM     19  OE2 GLU D 570     -20.839  -8.680 -16.218  1.00 32.92    -0.647 OA
ENDBRANCH  16  17
ENDBRANCH  15  16
ENDBRANCH  14  15
END_RES GLU D 570
ENDMDL
MODEL 4
REMARK VINA RESULT:      -7.0      3.026      4.293
REMARK  6 active torsions:
REMARK  status: ('A' for Active; 'I' for Inactive)
REMARK    1  A    between atoms: C_2  and  O_3 
REMARK    2  A    between atoms: O_3  and  C_4 
REMARK    3  A    between atoms: C_4  and  C_6 
REMARK    4  A    between atoms: C_7  and  C_8 
REMARK    5  A    between atoms: C_10  and  O_15 
REMARK    6  A    between atoms: C_11  and  O_14 
ROOT
HETATM    1  C   UNL     1     -23.464  -4.237 -11.821  1.00  0.00    -0.033 A 
HETATM    2  C   UNL     1     -23.308  -5.013 -12.977  1.00  0.00     0.051 A 
HETATM    3  C   UNL     1     -23.929  -4.685 -14.197  1.00  0.00     0.102 A 
HETATM    4  C   UNL     1     -24.740  -3.549 -14.236  1.00  0.00     0.099 A 
HETATM    5  C   UNL     1     -24.924  -2.778 -13.082  1.00  0.00     0.040 A 
HETATM    6  C   UNL     1     -24.301  -3.121 -11.885  1.00  0.00     0.014 A 
ENDROOT
BRANCH   1   7
HETATM    7  C   UNL     1     -22.798  -4.551 -10.550  1.00  0.00     0.017 C 
HETATM    8  C   UNL     1     -23.134  -3.994  -9.377  1.00  0.00     0.083 C 
BRANCH   8   9
HETATM    9  C   UNL     1     -22.530  -4.494  -8.128  1.00  0.00     0.282 C 
HETATM   10  O   UNL     1     -23.054  -4.471  -7.028  1.00  0.00    -0.260 OA
BRANCH   9  11
HETATM   11  O   UNL     1     -21.256  -4.855  -8.420  1.00  0.00    -0.319 OA
BRANCH  11  12
HETATM   12  C   UNL     1     -20.559  -5.536  -7.368  1.00  0.00     0.174 C 
HETATM   13  C   UNL     1     -19.238  -4.822  -7.141  1.00  0.00     0.034 C 
ENDBRANCH  11  12
ENDBRANCH   9  11
ENDBRANCH   8   9
ENDBRANCH   1   7
BRANCH   3  14
HETATM   14  O   UNL     1     -23.593  -5.582 -15.168  1.00  0.00    -0.353 OA
HETATM   15  C   UNL     1     -24.401  -6.701 -15.461  1.00  0.00     0.210 C 
ENDBRANCH   3  14
BRANCH   4  16
HETATM   16  O   UNL     1     -25.410  -3.057 -15.318  1.00  0.00    -0.358 OA
HETATM   17  H   UNL     1     -26.351  -2.996 -15.131  1.00  0.00     0.217 HD
ENDBRANCH   4  16
TORSDOF 6
BEGIN_RES ARG D 557
REMARK  4 active torsions:
REMARK  status: ('A' for Active; 'I' for Inactive)
REMARK    1  A    between atoms: CA   and  CB  
REMARK    2  A    between atoms: CB   and  CG  
REMARK    3  A    between atoms: CG   and  CD  
REMARK    4  A    between atoms: CD   and  NE  
REMARK       I    between atoms: NE   and  CZ  
REMARK       I    between atoms: CZ   and  NH1 
REMARK       I    between atoms: CZ   and  NH2 
ROOT
ATOM      1  CA  ARG D 557     -26.217   2.705 -17.014  1.00 35.49     0.159 C 
ENDROOT
BRANCH   1   2
ATOM      2  CB  ARG D 557     -26.789   1.319 -17.183  1.00 35.49     0.034 C 
BRANCH   2   3
ATOM      3  CG  ARG D 557     -28.145   1.097 -16.667  1.00 35.49     0.027 C 
BRANCH   3   4
ATOM      4  CD  ARG D 557     -28.795  -0.085 -17.280  1.00 35.49     0.116 C 
BRANCH   4   5
ATOM      5  NE  ARG D 557     -28.184  -1.318 -16.860  1.00 35.49    -0.212 N 
ATOM      6  CZ  ARG D 557     -28.679  -2.522 -17.044  1.00 35.49     0.666 C 
ATOM      7  NH1 ARG D 557     -29.837  -2.729 -17.643  1.00 35.49    -0.235 N 
ATOM      8  NH2 ARG D 557     -27.977  -3.531 -16.617  1.00 35.49    -0.235 N 
ATOM      9  HH  ARG D 557     -30.315  -2.079 -17.934  1.00 35.49     0.174 HD
ATOM     10  HH  ARG D 557     -30.108  -3.536 -17.737  1.00 35.49     0.174 HD
ATOM     11  HH  ARG D 557     -27.229  -3.368 -16.240  1.00 35.49     0.174 HD
ATOM     12  HH  ARG D 557     -28.262  -4.323 -16.721  1.00 35.49     0.174 HD
ATOM     13  HE  ARG D 557     -27.469  -1.274 -16.402  1.00 35.49     0.178 HD
ENDBRANCH   4   5
ENDBRANCH   3   4
ENDBRANCH   2   3
ENDBRANCH   1   2
END_RES ARG D 557
BEGIN_RES GLU D 570
REMARK  3 active torsions:
REMARK  status: ('A' for Active; 'I' for Inactive)
REMARK    5  A    between atoms: CA   and  CB  
REMARK    6  A    between atoms: CB   and  CG  
REMARK    7  A    between atoms: CG   and  CD  
ROOT
ATOM     14  CA  GLU D 570     -18.033  -6.348 -13.375  1.00 32.92     0.160 C 
ENDROOT
BRANCH  14  15
ATOM     15  CB  GLU D 570     -19.500  -6.345 -13.794  1.00 32.92     0.043 C 
BRANCH  15  16
ATOM     16  CG  GLU D 570     -20.085  -7.633 -14.248  1.00 32.92     0.100 C 
BRANCH  16  17
ATOM     17  CD  GLU D 570     -20.680  -7.554 -15.635  1.00 32.92     0.185 C 
ATOM     18  OE1 GLU D 570     -20.570  -6.494 -16.281  1.00 32.92    -0.647 OA
ATOM     19  OE2 GLU D 570     -21.277  -8.557 -16.073  1.00 32.92    -0.647 OA
ENDBRANCH  16  17
ENDBRANCH  15  16
ENDBRANCH  14  15
END_RES GLU D 570
ENDMDL
MODEL 5
REMARK VINA RESULT:      -6.9      2.052      3.008
REMARK  6 active torsions:
REMARK  status: ('A' for Active; 'I' for Inactive)
REMARK    1  A    between atoms: C_2  and  O_3 
REMARK    2  A    between atoms: O_3  and  C_4 
REMARK    3  A    between atoms: C_4  and  C_6 
REMARK    4  A    between atoms: C_7  and  C_8 
REMARK    5  A    between atoms: C_10  and  O_15 
REMARK    6  A    between atoms: C_11  and  O_14 
ROOT
HETATM    1  C   UNL     1     -22.119  -3.870  -9.691  1.00  0.00    -0.033 A 
HETATM    2  C   UNL     1     -21.857  -3.702 -11.057  1.00  0.00     0.051 A 
HETATM    3  C   UNL     1     -22.867  -3.387 -11.986  1.00  0.00     0.102 A 
HETATM    4  C   UNL     1     -24.175  -3.255 -11.515  1.00  0.00     0.099 A 
HETATM    5  C   UNL     1     -24.454  -3.444 -10.156  1.00  0.00     0.040 A 
HETATM    6  C   UNL     1     -23.440  -3.757  -9.253  1.00  0.00     0.014 A 
ENDROOT
BRANCH   1   7
HETATM    7  C   UNL     1     -21.070  -4.170  -8.706  1.00  0.00     0.017 C 
HETATM    8  C   UNL     1     -21.269  -4.151  -7.380  1.00  0.00     0.083 C 
BRANCH   8   9
HETATM    9  C   UNL     1     -20.209  -4.632  -6.474  1.00  0.00     0.282 C 
HETATM   10  O   UNL     1     -19.030  -4.752  -6.763  1.00  0.00    -0.260 OA
BRANCH   9  11
HETATM   11  O   UNL     1     -20.814  -5.027  -5.327  1.00  0.00    -0.319 OA
BRANCH  11  12
HETATM   12  C   UNL     1     -21.810  -6.045  -5.484  1.00  0.00     0.174 C 
HETATM   13  C   UNL     1     -21.108  -7.391  -5.507  1.00  0.00     0.034 C 
ENDBRANCH  11  12
ENDBRANCH   9  11
ENDBRANCH   8   9
ENDBRANCH   1   7
BRANCH   3  14
HETATM   14  O   UNL     1     -22.347  -3.250 -13.239  1.00  0.00    -0.353 OA
HETATM   15  C   UNL     1     -22.605  -4.188 -14.261  1.00  0.00     0.210 C 
ENDBRANCH   3  14
BRANCH   4  16
HETATM   16  O   UNL     1     -25.281  -2.938 -12.247  1.00  0.00    -0.358 OA
HETATM   17  H   UNL     1     -25.919  -2.464 -11.704  1.00  0.00     0.217 HD
ENDBRANCH   4  16
TORSDOF 6
BEGIN_RES ARG D 557
REMARK  4 active torsions:
REMARK  status: ('A' for Active; 'I' for Inactive)
REMARK    1  A    between atoms: CA   and  CB  
REMARK    2  A    between atoms: CB   and  CG  
REMARK    3  A    between atoms: CG   and  CD  
REMARK    4  A    between atoms: CD   and  NE  
REMARK       I    between atoms: NE   and  CZ  
REMARK       I    between atoms: CZ   and  NH1 
REMARK       I    between atoms: CZ   and  NH2 
ROOT
ATOM      1  CA  ARG D 557     -26.217   2.705 -17.014  1.00 35.49     0.159 C 
ENDROOT
BRANCH   1   2
ATOM      2  CB  ARG D 557     -26.789   1.319 -17.183  1.00 35.49     0.034 C 
BRANCH   2   3
ATOM      3  CG  ARG D 557     -28.209   1.145 -16.852  1.00 35.49     0.027 C 
BRANCH   3   4
ATOM      4  CD  ARG D 557     -28.555  -0.268 -16.577  1.00 35.49     0.116 C 
BRANCH   4   5
ATOM      5  NE  ARG D 557     -27.517  -0.949 -15.848  1.00 35.49    -0.212 N 
ATOM      6  CZ  ARG D 557     -27.248  -2.233 -15.915  1.00 35.49     0.666 C 
ATOM      7  NH1 ARG D 557     -27.937  -3.064 -16.676  1.00 35.49    -0.235 N 
ATOM      8  NH2 ARG D 557     -26.255  -2.677 -15.200  1.00 35.49    -0.235 N 
ATOM      9  HH  ARG D 557     -28.593  -2.794 -17.157  1.00 35.49     0.174 HD
ATOM     10  HH  ARG D 557     -27.714  -3.891 -16.681  1.00 35.49     0.174 HD
ATOM     11  HH  ARG D 557     -25.823  -2.116 -14.724  1.00 35.49     0.174 HD
ATOM     12  HH  ARG D 557     -26.049  -3.499 -15.220  1.00 35.49     0.174 HD
ATOM     13  HE  ARG D 557     -27.071  -0.502 -15.279  1.00 35.49     0.178 HD
ENDBRANCH   4   5
ENDBRANCH   3   4
ENDBRANCH   2   3
ENDBRANCH   1   2
END_RES ARG D 557
BEGIN_RES GLU D 570
REMARK  3 active torsions:
REMARK  status: ('A' for Active; 'I' for Inactive)
REMARK    5  A    between atoms: CA   and  CB  
REMARK    6  A    between atoms: CB   and  CG  
REMARK    7  A    between atoms: CG   and  CD  
ROOT
ATOM     14  CA  GLU D 570     -18.033  -6.348 -13.375  1.00 32.92     0.160 C 
ENDROOT
BRANCH  14  15
ATOM     15  CB  GLU D 570     -19.500  -6.345 -13.794  1.00 32.92     0.043 C 
BRANCH  15  16
ATOM     16  CG  GLU D 570     -20.095  -7.640 -14.213  1.00 32.92     0.100 C 
BRANCH  16  17
ATOM     17  CD  GLU D 570     -20.593  -7.627 -15.639  1.00 32.92     0.185 C 
ATOM     18  OE1 GLU D 570     -20.824  -8.710 -16.210  1.00 32.92    -0.647 OA
ATOM     19  OE2 GLU D 570     -20.737  -6.521 -16.198  1.00 32.92    -0.647 OA
ENDBRANCH  16  17
ENDBRANCH  15  16
ENDBRANCH  14  15
END_RES GLU D 570
ENDMDL
MODEL 6
REMARK VINA RESULT:      -6.8      4.956      9.209
REMARK  6 active torsions:
REMARK  status: ('A' for Active; 'I' for Inactive)
REMARK    1  A    between atoms: C_2  and  O_3 
REMARK    2  A    between atoms: O_3  and  C_4 
REMARK    3  A    between atoms: C_4  and  C_6 
REMARK    4  A    between atoms: C_7  and  C_8 
REMARK    5  A    between atoms: C_10  and  O_15 
REMARK    6  A    between atoms: C_11  and  O_14 
ROOT
HETATM    1  C   UNL     1     -28.134  -4.790 -16.518  1.00  0.00    -0.033 A 
HETATM    2  C   UNL     1     -29.289  -5.569 -16.672  1.00  0.00     0.051 A 
HETATM    3  C   UNL     1     -30.499  -5.038 -17.159  1.00  0.00     0.102 A 
HETATM    4  C   UNL     1     -30.537  -3.681 -17.483  1.00  0.00     0.099 A 
HETATM    5  C   UNL     1     -29.397  -2.886 -17.312  1.00  0.00     0.040 A 
HETATM    6  C   UNL     1     -28.210  -3.431 -16.827  1.00  0.00     0.014 A 
ENDROOT
BRANCH   1   7
HETATM    7  C   UNL     1     -26.858  -5.337 -16.039  1.00  0.00     0.017 C 
HETATM    8  C   UNL     1     -26.321  -6.479 -16.493  1.00  0.00     0.083 C 
BRANCH   8   9
HETATM    9  C   UNL     1     -24.957  -6.862 -16.081  1.00  0.00     0.282 C 
HETATM   10  O   UNL     1     -24.584  -7.025 -14.932  1.00  0.00    -0.260 OA
BRANCH   9  11
HETATM   11  O   UNL     1     -24.191  -6.868 -17.199  1.00  0.00    -0.319 OA
BRANCH  11  12
HETATM   12  C   UNL     1     -24.915  -6.915 -18.435  1.00  0.00     0.174 C 
HETATM   13  C   UNL     1     -23.954  -7.354 -19.526  1.00  0.00     0.034 C 
ENDBRANCH  11  12
ENDBRANCH   9  11
ENDBRANCH   8   9
ENDBRANCH   1   7
BRANCH   3  14
HETATM   14  O   UNL     1     -31.455  -6.007 -17.239  1.00  0.00    -0.353 OA
HETATM   15  C   UNL     1     -31.155  -7.318 -17.668  1.00  0.00     0.210 C 
ENDBRANCH   3  14
BRANCH   4  16
HETATM   16  O   UNL     1     -31.600  -2.988 -17.983  1.00  0.00    -0.358 OA
HETATM   17  H   UNL     1     -31.318  -2.408 -18.697  1.00  0.00     0.217 HD
ENDBRANCH   4  16
TORSDOF 6
BEGIN_RES ARG D 557
REMARK  4 active torsions:
REMARK  status: ('A' for Active; 'I' for Inactive)
REMARK    1  A    between atoms: CA   and  CB  
REMARK    2  A    between atoms: CB   and  CG  
REMARK    3  A    between atoms: CG   and  CD  
REMARK    4  A    between atoms: CD   and  NE  
REMARK       I    between atoms: NE   and  CZ  
REMARK       I    between atoms: CZ   and  NH1 
REMARK       I    between atoms: CZ   and  NH2 
ROOT
ATOM      1  CA  ARG D 557     -26.217   2.705 -17.014  1.00 35.49     0.159 C 
ENDROOT
BRANCH   1   2
ATOM      2  CB  ARG D 557     -26.789   1.319 -17.183  1.00 35.49     0.034 C 
BRANCH   2   3
ATOM      3  CG  ARG D 557     -25.861   0.195 -17.006  1.00 35.49     0.027 C 
BRANCH   3   4
ATOM      4  CD  ARG D 557     -26.177  -0.614 -15.807  1.00 35.49     0.116 C 
BRANCH   4   5
ATOM      5  NE  ARG D 557     -25.010  -0.878 -15.008  1.00 35.49    -0.212 N 
ATOM      6  CZ  ARG D 557     -24.837  -1.916 -14.220  1.00 35.49     0.666 C 
ATOM      7  NH1 ARG D 557     -25.758  -2.849 -14.064  1.00 35.49    -0.235 N 
ATOM      8  NH2 ARG D 557     -23.704  -2.005 -13.585  1.00 35.49    -0.235 N 
ATOM      9  HH  ARG D 557     -26.509  -2.811 -14.474  1.00 35.49     0.174 HD
ATOM     10  HH  ARG D 557     -25.588  -3.504 -13.539  1.00 35.49     0.174 HD
ATOM     11  HH  ARG D 557     -23.126  -1.392 -13.711  1.00 35.49     0.174 HD
ATOM     12  HH  ARG D 557     -23.555  -2.663 -13.071  1.00 35.49     0.174 HD
ATOM     13  HE  ARG D 557     -24.396  -0.290 -14.991  1.00 35.49     0.178 HD
ENDBRANCH   4   5
ENDBRANCH   3   4
ENDBRANCH   2   3
ENDBRANCH   1   2
END_RES ARG D 557
BEGIN_RES GLU D 570
REMARK  3 active torsions:
REMARK  status: ('A' for Active; 'I' for Inactive)
REMARK    5  A    between atoms: CA   and  CB  
REMARK    6  A    between atoms: CB   and  CG  
REMARK    7  A    between atoms: CG   and  CD  
ROOT
ATOM     14  CA  GLU D 570     -18.033  -6.348 -13.375  1.00 32.92     0.160 C 
ENDROOT
BRANCH  14  15
ATOM     15  CB  GLU D 570     -19.500  -6.345 -13.794  1.00 32.92     0.043 C 
BRANCH  15  16
ATOM     16  CG  GLU D 570     -20.445  -5.545 -12.972  1.00 32.92     0.100 C 
BRANCH  16  17
ATOM     17  CD  GLU D 570     -21.702  -5.168 -13.720  1.00 32.92     0.185 C 
ATOM     18  OE1 GLU D 570     -21.685  -5.157 -14.966  1.00 32.92    -0.647 OA
ATOM     19  OE2 GLU D 570     -22.710  -4.863 -13.053  1.00 32.92    -0.647 OA
ENDBRANCH  16  17
ENDBRANCH  15  16
ENDBRANCH  14  15
END_RES GLU D 570
ENDMDL
MODEL 7
REMARK VINA RESULT:      -6.7      5.469     10.247
REMARK  6 active torsions:
REMARK  status: ('A' for Active; 'I' for Inactive)
REMARK    1  A    between atoms: C_2  and  O_3 
REMARK    2  A    between atoms: O_3  and  C_4 
REMARK    3  A    between atoms: C_4  and  C_6 
REMARK    4  A    between atoms: C_7  and  C_8 
REMARK    5  A    between atoms: C_10  and  O_15 
REMARK    6  A    between atoms: C_11  and  O_14 
ROOT
HETATM    1  C   UNL     1     -29.028  -5.936 -18.085  1.00  0.00    -0.033 A 
HETATM    2  C   UNL     1     -29.144  -4.544 -17.970  1.00  0.00     0.051 A 
HETATM    3  C   UNL     1     -30.271  -3.925 -17.397  1.00  0.00     0.102 A 
HETATM    4  C   UNL     1     -31.309  -4.741 -16.945  1.00  0.00     0.099 A 
HETATM    5  C   UNL     1     -31.217  -6.132 -17.076  1.00  0.00     0.040 A 
HETATM    6  C   UNL     1     -30.093  -6.725 -17.647  1.00  0.00     0.014 A 
ENDROOT
BRANCH   1   7
HETATM    7  C   UNL     1     -27.845  -6.596 -18.655  1.00  0.00     0.017 C 
HETATM    8  C   UNL     1     -27.303  -6.261 -19.835  1.00  0.00     0.083 C 
BRANCH   8   9
HETATM    9  C   UNL     1     -26.019  -6.859 -20.247  1.00  0.00     0.282 C 
HETATM   10  O   UNL     1     -25.887  -7.783 -21.031  1.00  0.00    -0.260 OA
BRANCH   9  11
HETATM   11  O   UNL     1     -25.051  -6.278 -19.497  1.00  0.00    -0.319 OA
BRANCH  11  12
HETATM   12  C   UNL     1     -24.100  -7.182 -18.921  1.00  0.00     0.174 C 
HETATM   13  C   UNL     1     -24.296  -7.176 -17.416  1.00  0.00     0.034 C 
ENDBRANCH  11  12
ENDBRANCH   9  11
ENDBRANCH   8   9
ENDBRANCH   1   7
BRANCH   3  14
HETATM   14  O   UNL     1     -30.123  -2.570 -17.379  1.00  0.00    -0.353 OA
HETATM   15  C   UNL     1     -28.893  -1.958 -17.057  1.00  0.00     0.210 C 
ENDBRANCH   3  14
BRANCH   4  16
HETATM   16  O   UNL     1     -32.468  -4.338 -16.348  1.00  0.00    -0.358 OA
HETATM   17  H   UNL     1     -32.989  -3.802 -16.954  1.00  0.00     0.217 HD
ENDBRANCH   4  16
TORSDOF 6
BEGIN_RES ARG D 557
REMARK  4 active torsions:
REMARK  status: ('A' for Active; 'I' for Inactive)
REMARK    1  A    between atoms: CA   and  CB  
REMARK    2  A    between atoms: CB   and  CG  
REMARK    3  A    between atoms: CG   and  CD  
REMARK    4  A    between atoms: CD   and  NE  
REMARK       I    between atoms: NE   and  CZ  
REMARK       I    between atoms: CZ   and  NH1 
REMARK       I    between atoms: CZ   and  NH2 
ROOT
ATOM      1  CA  ARG D 557     -26.217   2.705 -17.014  1.00 35.49     0.159 C 
ENDROOT
BRANCH   1   2
ATOM      2  CB  ARG D 557     -26.789   1.319 -17.183  1.00 35.49     0.034 C 
BRANCH   2   3
ATOM      3  CG  ARG D 557     -25.836   0.203 -17.152  1.00 35.49     0.027 C 
BRANCH   3   4
ATOM      4  CD  ARG D 557     -24.751   0.415 -16.167  1.00 35.49     0.116 C 
BRANCH   4   5
ATOM      5  NE  ARG D 557     -24.890  -0.436 -15.015  1.00 35.49    -0.212 N 
ATOM      6  CZ  ARG D 557     -24.065  -1.399 -14.667  1.00 35.49     0.666 C 
ATOM      7  NH1 ARG D 557     -22.993  -1.705 -15.375  1.00 35.49    -0.235 N 
ATOM      8  NH2 ARG D 557     -24.336  -2.057 -13.577  1.00 35.49    -0.235 N 
ATOM      9  HH  ARG D 557     -22.795  -1.284 -16.094  1.00 35.49     0.174 HD
ATOM     10  HH  ARG D 557     -22.491  -2.341 -15.098  1.00 35.49     0.174 HD
ATOM     11  HH  ARG D 557     -25.031  -1.833 -13.137  1.00 35.49     0.174 HD
ATOM     12  HH  ARG D 557     -23.825  -2.682 -13.319  1.00 35.49     0.174 HD
ATOM     13  HE  ARG D 557     -25.592  -0.357 -14.542  1.00 35.49     0.178 HD
ENDBRANCH   4   5
ENDBRANCH   3   4
ENDBRANCH   2   3
ENDBRANCH   1   2
END_RES ARG D 557
BEGIN_RES GLU D 570
REMARK  3 active torsions:
REMARK  status: ('A' for Active; 'I' for Inactive)
REMARK    5  A    between atoms: CA   and  CB  
REMARK    6  A    between atoms: CB   and  CG  
REMARK    7  A    between atoms: CG   and  CD  
ROOT
ATOM     14  CA  GLU D 570     -18.033  -6.348 -13.375  1.00 32.92     0.160 C 
ENDROOT
BRANCH  14  15
ATOM     15  CB  GLU D 570     -19.500  -6.345 -13.794  1.00 32.92     0.043 C 
BRANCH  15  16
ATOM     16  CG  GLU D 570     -20.439  -5.519 -12.992  1.00 32.92     0.100 C 
BRANCH  16  17
ATOM     17  CD  GLU D 570     -21.733  -5.227 -13.716  1.00 32.92     0.185 C 
ATOM     18  OE1 GLU D 570     -22.168  -6.057 -14.537  1.00 32.92    -0.647 OA
ATOM     19  OE2 GLU D 570     -22.308  -4.148 -13.473  1.00 32.92    -0.647 OA
ENDBRANCH  16  17
ENDBRANCH  15  16
ENDBRANCH  14  15
END_RES GLU D 570
ENDMDL
MODEL 8
REMARK VINA RESULT:      -6.4      1.243      2.236
REMARK  6 active torsions:
REMARK  status: ('A' for Active; 'I' for Inactive)
REMARK    1  A    between atoms: C_2  and  O_3 
REMARK    2  A    between atoms: O_3  and  C_4 
REMARK    3  A    between atoms: C_4  and  C_6 
REMARK    4  A    between atoms: C_7  and  C_8 
REMARK    5  A    between atoms: C_10  and  O_15 
REMARK    6  A    between atoms: C_11  and  O_14 
ROOT
HETATM    1  C   UNL     1     -22.232  -4.417  -9.163  1.00  0.00    -0.033 A 
HETATM    2  C   UNL     1     -22.090  -4.499 -10.555  1.00  0.00     0.051 A 
HETATM    3  C   UNL     1     -23.089  -4.058 -11.443  1.00  0.00     0.102 A 
HETATM    4  C   UNL     1     -24.265  -3.536 -10.901  1.00  0.00     0.099 A 
HETATM    5  C   UNL     1     -24.430  -3.471  -9.512  1.00  0.00     0.040 A 
HETATM    6  C   UNL     1     -23.430  -3.914  -8.651  1.00  0.00     0.014 A 
ENDROOT
BRANCH   1   7
HETATM    7  C   UNL     1     -21.186  -4.846  -8.225  1.00  0.00     0.017 C 
HETATM    8  C   UNL     1     -21.395  -5.714  -7.224  1.00  0.00     0.083 C 
BRANCH   8   9
HETATM    9  C   UNL     1     -20.252  -6.218  -6.440  1.00  0.00     0.282 C 
HETATM   10  O   UNL     1     -19.380  -6.961  -6.857  1.00  0.00    -0.260 OA
BRANCH   9  11
HETATM   11  O   UNL     1     -20.433  -5.806  -5.161  1.00  0.00    -0.319 OA
BRANCH  11  12
HETATM   12  C   UNL     1     -21.621  -6.294  -4.526  1.00  0.00     0.174 C 
HETATM   13  C   UNL     1     -21.435  -6.171  -3.024  1.00  0.00     0.034 C 
ENDBRANCH  11  12
ENDBRANCH   9  11
ENDBRANCH   8   9
ENDBRANCH   1   7
BRANCH   3  14
HETATM   14  O   UNL     1     -22.693  -4.221 -12.737  1.00  0.00    -0.353 OA
HETATM   15  C   UNL     1     -23.136  -5.307 -13.522  1.00  0.00     0.210 C 
ENDBRANCH   3  14
BRANCH   4  16
HETATM   16  O   UNL     1     -25.336  -3.044 -11.588  1.00  0.00    -0.358 OA
HETATM   17  H   UNL     1     -25.043  -2.459 -12.294  1.00  0.00     0.217 HD
ENDBRANCH   4  16
TORSDOF 6
BEGIN_RES ARG D 557
REMARK  4 active torsions:
REMARK  status: ('A' for Active; 'I' for Inactive)
REMARK    1  A    between atoms: CA   and  CB  
REMARK    2  A    between atoms: CB   and  CG  
REMARK    3  A    between atoms: CG   and  CD  
REMARK    4  A    between atoms: CD   and  NE  
REMARK       I    between atoms: NE   and  CZ  
REMARK       I    between atoms: CZ   and  NH1 
REMARK       I    between atoms: CZ   and  NH2 
ROOT
ATOM      1  CA  ARG D 557     -26.217   2.705 -17.014  1.00 35.49     0.159 C 
ENDROOT
BRANCH   1   2
ATOM      2  CB  ARG D 557     -26.789   1.319 -17.183  1.00 35.49     0.034 C 
BRANCH   2   3
ATOM      3  CG  ARG D 557     -25.883   0.194 -16.922  1.00 35.49     0.027 C 
BRANCH   3   4
ATOM      4  CD  ARG D 557     -25.055   0.405 -15.713  1.00 35.49     0.116 C 
BRANCH   4   5
ATOM      5  NE  ARG D 557     -23.903  -0.458 -15.686  1.00 35.49    -0.212 N 
ATOM      6  CZ  ARG D 557     -23.756  -1.518 -14.924  1.00 35.49     0.666 C 
ATOM      7  NH1 ARG D 557     -24.678  -1.906 -14.063  1.00 35.49    -0.235 N 
ATOM      8  NH2 ARG D 557     -22.653  -2.198 -15.048  1.00 35.49    -0.235 N 
ATOM      9  HH  ARG D 557     -25.413  -1.476 -13.966  1.00 35.49     0.174 HD
ATOM     10  HH  ARG D 557     -24.528  -2.608 -13.594  1.00 35.49     0.174 HD
ATOM     11  HH  ARG D 557     -22.078  -1.928 -15.617  1.00 35.49     0.174 HD
ATOM     12  HH  ARG D 557     -22.523  -2.890 -14.576  1.00 35.49     0.174 HD
ATOM     13  HE  ARG D 557     -23.230  -0.240 -16.158  1.00 35.49     0.178 HD
ENDBRANCH   4   5
ENDBRANCH   3   4
ENDBRANCH   2   3
ENDBRANCH   1   2
END_RES ARG D 557
BEGIN_RES GLU D 570
REMARK  3 active torsions:
REMARK  status: ('A' for Active; 'I' for Inactive)
REMARK    5  A    between atoms: CA   and  CB  
REMARK    6  A    between atoms: CB   and  CG  
REMARK    7  A    between atoms: CG   and  CD  
ROOT
ATOM     14  CA  GLU D 570     -18.033  -6.348 -13.375  1.00 32.92     0.160 C 
ENDROOT
BRANCH  14  15
ATOM     15  CB  GLU D 570     -19.500  -6.345 -13.794  1.00 32.92     0.043 C 
BRANCH  15  16
ATOM     16  CG  GLU D 570     -19.798  -6.216 -15.244  1.00 32.92     0.100 C 
BRANCH  16  17
ATOM     17  CD  GLU D 570     -20.717  -7.300 -15.756  1.00 32.92     0.185 C 
ATOM     18  OE1 GLU D 570     -20.641  -8.441 -15.262  1.00 32.92    -0.647 OA
ATOM     19  OE2 GLU D 570     -21.510  -7.009 -16.673  1.00 32.92    -0.647 OA
ENDBRANCH  16  17
ENDBRANCH  15  16
ENDBRANCH  14  15
END_RES GLU D 570
ENDMDL
MODEL 9
REMARK VINA RESULT:      -6.4      5.597      8.604
REMARK  6 active torsions:
REMARK  status: ('A' for Active; 'I' for Inactive)
REMARK    1  A    between atoms: C_2  and  O_3 
REMARK    2  A    between atoms: O_3  and  C_4 
REMARK    3  A    between atoms: C_4  and  C_6 
REMARK    4  A    between atoms: C_7  and  C_8 
REMARK    5  A    between atoms: C_10  and  O_15 
REMARK    6  A    between atoms: C_11  and  O_14 
ROOT
HETATM    1  C   UNL     1     -28.348  -5.759 -17.083  1.00  0.00    -0.033 A 
HETATM    2  C   UNL     1     -28.784  -4.433 -17.205  1.00  0.00     0.051 A 
HETATM    3  C   UNL     1     -30.148  -4.087 -17.241  1.00  0.00     0.102 A 
HETATM    4  C   UNL     1     -31.088  -5.116 -17.166  1.00  0.00     0.099 A 
HETATM    5  C   UNL     1     -30.666  -6.447 -17.068  1.00  0.00     0.040 A 
HETATM    6  C   UNL     1     -29.311  -6.769 -17.036  1.00  0.00     0.014 A 
ENDROOT
BRANCH   1   7
HETATM    7  C   UNL     1     -26.928  -6.132 -17.015  1.00  0.00     0.017 C 
HETATM    8  C   UNL     1     -26.234  -6.208 -15.870  1.00  0.00     0.083 C 
BRANCH   8   9
HETATM    9  C   UNL     1     -24.864  -6.756 -15.880  1.00  0.00     0.282 C 
HETATM   10  O   UNL     1     -24.557  -7.891 -16.199  1.00  0.00    -0.260 OA
BRANCH   9  11
HETATM   11  O   UNL     1     -24.053  -5.807 -15.350  1.00  0.00    -0.319 OA
BRANCH  11  12
HETATM   12  C   UNL     1     -23.634  -6.047 -14.001  1.00  0.00     0.174 C 
HETATM   13  C   UNL     1     -22.618  -4.983 -13.628  1.00  0.00     0.034 C 
ENDBRANCH  11  12
ENDBRANCH   9  11
ENDBRANCH   8   9
ENDBRANCH   1   7
BRANCH   3  14
HETATM   14  O   UNL     1     -30.302  -2.736 -17.335  1.00  0.00    -0.353 OA
HETATM   15  C   UNL     1     -29.214  -1.849 -17.191  1.00  0.00     0.210 C 
ENDBRANCH   3  14
BRANCH   4  16
HETATM   16  O   UNL     1     -32.446  -4.986 -17.167  1.00  0.00    -0.358 OA
HETATM   17  H   UNL     1     -32.696  -4.063 -17.061  1.00  0.00     0.217 HD
ENDBRANCH   4  16
TORSDOF 6
BEGIN_RES ARG D 557
REMARK  4 active torsions:
REMARK  status: ('A' for Active; 'I' for Inactive)
REMARK    1  A    between atoms: CA   and  CB  
REMARK    2  A    between atoms: CB   and  CG  
REMARK    3  A    between atoms: CG   and  CD  
REMARK    4  A    between atoms: CD   and  NE  
REMARK       I    between atoms: NE   and  CZ  
REMARK       I    between atoms: CZ   and  NH1 
REMARK       I    between atoms: CZ   and  NH2 
ROOT
ATOM      1  CA  ARG D 557     -26.217   2.705 -17.014  1.00 35.49     0.159 C 
ENDROOT
BRANCH   1   2
ATOM      2  CB  ARG D 557     -26.789   1.319 -17.183  1.00 35.49     0.034 C 
BRANCH   2   3
ATOM      3  CG  ARG D 557     -25.861   0.195 -17.006  1.00 35.49     0.027 C 
BRANCH   3   4
ATOM      4  CD  ARG D 557     -26.244  -0.679 -15.873  1.00 35.49     0.116 C 
BRANCH   4   5
ATOM      5  NE  ARG D 557     -25.172  -0.839 -14.926  1.00 35.49    -0.212 N 
ATOM      6  CZ  ARG D 557     -24.868  -1.948 -14.290  1.00 35.49     0.666 C 
ATOM      7  NH1 ARG D 557     -25.548  -3.067 -14.452  1.00 35.49    -0.235 N 
ATOM      8  NH2 ARG D 557     -23.848  -1.916 -13.482  1.00 35.49    -0.235 N 
ATOM      9  HH  ARG D 557     -26.221  -3.112 -14.981  1.00 35.49     0.174 HD
ATOM     10  HH  ARG D 557     -25.302  -3.761 -14.013  1.00 35.49     0.174 HD
ATOM     11  HH  ARG D 557     -23.423  -1.181 -13.403  1.00 35.49     0.174 HD
ATOM     12  HH  ARG D 557     -23.619  -2.613 -13.057  1.00 35.49     0.174 HD
ATOM     13  HE  ARG D 557     -24.727  -0.148 -14.706  1.00 35.49     0.178 HD
ENDBRANCH   4   5
ENDBRANCH   3   4
ENDBRANCH   2   3
ENDBRANCH   1   2
END_RES ARG D 557
BEGIN_RES GLU D 570
REMARK  3 active torsions:
REMARK  status: ('A' for Active; 'I' for Inactive)
REMARK    5  A    between atoms: CA   and  CB  
REMARK    6  A    between atoms: CB   and  CG  
REMARK    7  A    between atoms: CG   and  CD  
ROOT
ATOM     14  CA  GLU D 570     -18.033  -6.348 -13.375  1.00 32.92     0.160 C 
ENDROOT
BRANCH  14  15
ATOM     15  CB  GLU D 570     -19.500  -6.345 -13.794  1.00 32.92     0.043 C 
BRANCH  15  16
ATOM     16  CG  GLU D 570     -20.084  -7.633 -14.250  1.00 32.92     0.100 C 
BRANCH  16  17
ATOM     17  CD  GLU D 570     -20.702  -7.545 -15.626  1.00 32.92     0.185 C 
ATOM     18  OE1 GLU D 570     -21.234  -8.560 -16.116  1.00 32.92    -0.647 OA
ATOM     19  OE2 GLU D 570     -20.638  -6.455 -16.227  1.00 32.92    -0.647 OA
ENDBRANCH  16  17
ENDBRANCH  15  16
ENDBRANCH  14  15
END_RES GLU D 570
ENDMDL
