MODEL 1
REMARK VINA RESULT:      -7.5      0.000      0.000
REMARK  19 active torsions:
REMARK  status: ('A' for Active; 'I' for Inactive)
REMARK    1  A    between atoms: C_2  and  C_3 
REMARK    2  A    between atoms: C_3  and  C_4 
REMARK    3  A    between atoms: C_4  and  C_5 
REMARK    4  A    between atoms: C_5  and  C_6 
REMARK    5  A    between atoms: C_5  and  C_8 
REMARK    6  A    between atoms: C_8  and  O_9 
REMARK    7  A    between atoms: O_9  and  C_10 
REMARK    8  A    between atoms: C_10  and  C_12 
REMARK    9  A    between atoms: C_12  and  C_13 
REMARK   10  A    between atoms: C_13  and  C_14 
REMARK   11  A    between atoms: C_14  and  C_15 
REMARK   12  A    between atoms: C_15  and  C_16 
REMARK   13  A    between atoms: C_16  and  O_18 
REMARK   14  A    between atoms: O_18  and  C_19 
REMARK   15  A    between atoms: C_19  and  C_20 
REMARK   16  A    between atoms: C_20  and  C_21 
REMARK   17  A    between atoms: C_20  and  C_23 
REMARK   18  A    between atoms: C_23  and  C_24 
REMARK   19  A    between atoms: C_24  and  C_25 
ROOT
HETATM    1  C   UNL     1     -23.352  -5.922 -13.622  1.00  0.00     0.010 C 
ENDROOT
BRANCH   1   2
HETATM    2  C   UNL     1     -24.257  -5.420 -14.749  1.00  0.00     0.111 C 
BRANCH   2   3
HETATM    3  C   UNL     1     -24.777  -6.564 -15.589  1.00  0.00     0.258 C 
HETATM    4  O   UNL     1     -24.212  -7.639 -15.734  1.00  0.00    -0.265 OA
BRANCH   3   5
HETATM    5  O   UNL     1     -25.919  -6.185 -16.232  1.00  0.00    -0.321 OA
BRANCH   5   6
HETATM    6  C   UNL     1     -27.101  -6.923 -15.877  1.00  0.00     0.183 C 
BRANCH   6   7
HETATM    7  C   UNL     1     -28.415  -6.289 -16.368  1.00  0.00     0.010 C 
BRANCH   7   8
HETATM    8  C   UNL     1     -28.154  -5.203 -17.438  1.00  0.00     0.007 C 
BRANCH   8   9
HETATM    9  C   UNL     1     -28.908  -3.900 -17.149  1.00  0.00     0.000 C 
BRANCH   9  10
HETATM   10  C   UNL     1     -30.220  -3.792 -17.925  1.00  0.00    -0.005 C 
HETATM   11  C   UNL     1     -31.389  -4.243 -17.061  1.00  0.00     0.005 C 
ENDBRANCH   9  10
ENDBRANCH   8   9
ENDBRANCH   7   8
BRANCH   7  12
HETATM   12  C   UNL     1     -29.404  -7.392 -16.814  1.00  0.00     0.002 C 
HETATM   13  C   UNL     1     -29.696  -7.445 -18.308  1.00  0.00     0.005 C 
ENDBRANCH   7  12
ENDBRANCH   6   7
ENDBRANCH   5   6
ENDBRANCH   3   5
ENDBRANCH   2   3
ENDBRANCH   1   2
BRANCH   1  14
HETATM   14  C   UNL     1     -23.008  -4.813 -12.627  1.00  0.00     0.010 C 
BRANCH  14  15
HETATM   15  C   UNL     1     -23.652  -5.073 -11.263  1.00  0.00     0.111 C 
BRANCH  15  16
HETATM   16  C   UNL     1     -24.103  -3.801 -10.596  1.00  0.00     0.258 C 
HETATM   17  O   UNL     1     -25.127  -3.179 -10.848  1.00  0.00    -0.265 OA
BRANCH  16  18
HETATM   18  O   UNL     1     -23.107  -3.346  -9.773  1.00  0.00    -0.321 OA
BRANCH  18  19
HETATM   19  C   UNL     1     -22.887  -4.202  -8.646  1.00  0.00     0.183 C 
BRANCH  19  20
HETATM   20  C   UNL     1     -21.403  -4.453  -8.333  1.00  0.00     0.010 C 
BRANCH  20  21
HETATM   21  C   UNL     1     -20.456  -3.873  -9.410  1.00  0.00     0.002 C 
HETATM   22  C   UNL     1     -19.981  -4.866 -10.464  1.00  0.00     0.005 C 
ENDBRANCH  20  21
BRANCH  20  23
HETATM   23  C   UNL     1     -21.051  -3.913  -6.923  1.00  0.00     0.007 C 
BRANCH  23  24
HETATM   24  C   UNL     1     -20.006  -4.765  -6.191  1.00  0.00     0.000 C 
BRANCH  24  25
HETATM   25  C   UNL     1     -20.458  -6.212  -6.007  1.00  0.00    -0.005 C 
HETATM   26  C   UNL     1     -21.664  -6.282  -5.082  1.00  0.00     0.005 C 
ENDBRANCH  24  25
ENDBRANCH  23  24
ENDBRANCH  20  23
ENDBRANCH  19  20
ENDBRANCH  18  19
ENDBRANCH  16  18
ENDBRANCH  15  16
ENDBRANCH  14  15
ENDBRANCH   1  14
TORSDOF 19
BEGIN_RES ARG D 557
REMARK  4 active torsions:
REMARK  status: ('A' for Active; 'I' for Inactive)
REMARK    1  A    between atoms: CA   and  CB  
REMARK    2  A    between atoms: CB   and  CG  
REMARK    3  A    between atoms: CG   and  CD  
REMARK    4  A    between atoms: CD   and  NE  
REMARK       I    between atoms: NE   and  CZ  
REMARK       I    between atoms: CZ   and  NH1 
REMARK       I    between atoms: CZ   and  NH2 
ROOT
ATOM      1  CA  ARG D 557     -26.217   2.705 -17.014  1.00 35.49     0.159 C 
ENDROOT
BRANCH   1   2
ATOM      2  CB  ARG D 557     -26.789   1.319 -17.183  1.00 35.49     0.034 C 
BRANCH   2   3
ATOM      3  CG  ARG D 557     -25.831   0.207 -17.208  1.00 35.49     0.027 C 
BRANCH   3   4
ATOM      4  CD  ARG D 557     -24.701   0.415 -16.274  1.00 35.49     0.116 C 
BRANCH   4   5
ATOM      5  NE  ARG D 557     -24.838  -0.369 -15.075  1.00 35.49    -0.212 N 
ATOM      6  CZ  ARG D 557     -24.040  -1.342 -14.698  1.00 35.49     0.666 C 
ATOM      7  NH1 ARG D 557     -23.000  -1.725 -15.416  1.00 35.49    -0.235 N 
ATOM      8  NH2 ARG D 557     -24.304  -1.931 -13.567  1.00 35.49    -0.235 N 
ATOM      9  HH  ARG D 557     -22.807  -1.350 -16.162  1.00 35.49     0.174 HD
ATOM     10  HH  ARG D 557     -22.514  -2.365 -15.118  1.00 35.49     0.174 HD
ATOM     11  HH  ARG D 557     -24.977  -1.658 -13.122  1.00 35.49     0.174 HD
ATOM     12  HH  ARG D 557     -23.809  -2.561 -13.289  1.00 35.49     0.174 HD
ATOM     13  HE  ARG D 557     -25.523  -0.238 -14.589  1.00 35.49     0.178 HD
ENDBRANCH   4   5
ENDBRANCH   3   4
ENDBRANCH   2   3
ENDBRANCH   1   2
END_RES ARG D 557
BEGIN_RES GLU D 570
REMARK  3 active torsions:
REMARK  status: ('A' for Active; 'I' for Inactive)
REMARK    5  A    between atoms: CA   and  CB  
REMARK    6  A    between atoms: CB   and  CG  
REMARK    7  A    between atoms: CG   and  CD  
ROOT
ATOM     14  CA  GLU D 570     -18.033  -6.348 -13.375  1.00 32.92     0.160 C 
ENDROOT
BRANCH  14  15
ATOM     15  CB  GLU D 570     -19.500  -6.345 -13.794  1.00 32.92     0.043 C 
BRANCH  15  16
ATOM     16  CG  GLU D 570     -19.803  -6.075 -15.223  1.00 32.92     0.100 C 
BRANCH  16  17
ATOM     17  CD  GLU D 570     -20.641  -7.158 -15.862  1.00 32.92     0.185 C 
ATOM     18  OE1 GLU D 570     -21.261  -6.902 -16.913  1.00 32.92    -0.647 OA
ATOM     19  OE2 GLU D 570     -20.692  -8.268 -15.298  1.00 32.92    -0.647 OA
ENDBRANCH  16  17
ENDBRANCH  15  16
ENDBRANCH  14  15
END_RES GLU D 570
ENDMDL
MODEL 2
REMARK VINA RESULT:      -7.5      0.991      9.005
REMARK  19 active torsions:
REMARK  status: ('A' for Active; 'I' for Inactive)
REMARK    1  A    between atoms: C_2  and  C_3 
REMARK    2  A    between atoms: C_3  and  C_4 
REMARK    3  A    between atoms: C_4  and  C_5 
REMARK    4  A    between atoms: C_5  and  C_6 
REMARK    5  A    between atoms: C_5  and  C_8 
REMARK    6  A    between atoms: C_8  and  O_9 
REMARK    7  A    between atoms: O_9  and  C_10 
REMARK    8  A    between atoms: C_10  and  C_12 
REMARK    9  A    between atoms: C_12  and  C_13 
REMARK   10  A    between atoms: C_13  and  C_14 
REMARK   11  A    between atoms: C_14  and  C_15 
REMARK   12  A    between atoms: C_15  and  C_16 
REMARK   13  A    between atoms: C_16  and  O_18 
REMARK   14  A    between atoms: O_18  and  C_19 
REMARK   15  A    between atoms: C_19  and  C_20 
REMARK   16  A    between atoms: C_20  and  C_21 
REMARK   17  A    between atoms: C_20  and  C_23 
REMARK   18  A    between atoms: C_23  and  C_24 
REMARK   19  A    between atoms: C_24  and  C_25 
ROOT
HETATM    1  C   UNL     1     -23.155  -4.784 -12.587  1.00  0.00     0.010 C 
ENDROOT
BRANCH   1   2
HETATM    2  C   UNL     1     -23.594  -5.132 -11.163  1.00  0.00     0.111 C 
BRANCH   2   3
HETATM    3  C   UNL     1     -24.217  -3.940 -10.473  1.00  0.00     0.258 C 
HETATM    4  O   UNL     1     -24.975  -3.140 -11.004  1.00  0.00    -0.265 OA
BRANCH   3   5
HETATM    5  O   UNL     1     -23.736  -3.838  -9.201  1.00  0.00    -0.321 OA
BRANCH   5   6
HETATM    6  C   UNL     1     -22.593  -4.659  -8.906  1.00  0.00     0.183 C 
BRANCH   6   7
HETATM    7  C   UNL     1     -21.354  -3.874  -8.437  1.00  0.00     0.010 C 
BRANCH   7   8
HETATM    8  C   UNL     1     -21.322  -3.735  -6.897  1.00  0.00     0.007 C 
BRANCH   8   9
HETATM    9  C   UNL     1     -20.235  -4.601  -6.250  1.00  0.00     0.000 C 
BRANCH   9  10
HETATM   10  C   UNL     1     -20.799  -5.599  -5.240  1.00  0.00    -0.005 C 
HETATM   11  C   UNL     1     -20.880  -6.990  -5.853  1.00  0.00     0.005 C 
ENDBRANCH   9  10
ENDBRANCH   8   9
ENDBRANCH   7   8
BRANCH   7  12
HETATM   12  C   UNL     1     -20.072  -4.491  -9.042  1.00  0.00     0.002 C 
HETATM   13  C   UNL     1     -20.078  -4.661 -10.557  1.00  0.00     0.005 C 
ENDBRANCH   7  12
ENDBRANCH   6   7
ENDBRANCH   5   6
ENDBRANCH   3   5
ENDBRANCH   2   3
ENDBRANCH   1   2
BRANCH   1  14
HETATM   14  C   UNL     1     -23.343  -5.959 -13.548  1.00  0.00     0.010 C 
BRANCH  14  15
HETATM   15  C   UNL     1     -24.264  -5.583 -14.711  1.00  0.00     0.111 C 
BRANCH  15  16
HETATM   16  C   UNL     1     -24.856  -6.793 -15.382  1.00  0.00     0.258 C 
HETATM   17  O   UNL     1     -24.230  -7.698 -15.920  1.00  0.00    -0.265 OA
BRANCH  16  18
HETATM   18  O   UNL     1     -26.217  -6.650 -15.449  1.00  0.00    -0.321 OA
BRANCH  18  19
HETATM   19  C   UNL     1     -26.620  -5.626 -16.366  1.00  0.00     0.183 C 
BRANCH  19  20
HETATM   20  C   UNL     1     -27.675  -4.662 -15.800  1.00  0.00     0.010 C 
BRANCH  20  21
HETATM   21  C   UNL     1     -27.380  -3.182 -16.143  1.00  0.00     0.002 C 
HETATM   22  C   UNL     1     -28.475  -2.460 -16.916  1.00  0.00     0.005 C 
ENDBRANCH  20  21
BRANCH  20  23
HETATM   23  C   UNL     1     -29.092  -5.078 -16.271  1.00  0.00     0.007 C 
BRANCH  23  24
HETATM   24  C   UNL     1     -29.077  -5.993 -17.502  1.00  0.00     0.000 C 
BRANCH  24  25
HETATM   25  C   UNL     1     -30.438  -6.633 -17.771  1.00  0.00    -0.005 C 
HETATM   26  C   UNL     1     -30.288  -7.852 -18.669  1.00  0.00     0.005 C 
ENDBRANCH  24  25
ENDBRANCH  23  24
ENDBRANCH  20  23
ENDBRANCH  19  20
ENDBRANCH  18  19
ENDBRANCH  16  18
ENDBRANCH  15  16
ENDBRANCH  14  15
ENDBRANCH   1  14
TORSDOF 19
BEGIN_RES ARG D 557
REMARK  4 active torsions:
REMARK  status: ('A' for Active; 'I' for Inactive)
REMARK    1  A    between atoms: CA   and  CB  
REMARK    2  A    between atoms: CB   and  CG  
REMARK    3  A    between atoms: CG   and  CD  
REMARK    4  A    between atoms: CD   and  NE  
REMARK       I    between atoms: NE   and  CZ  
REMARK       I    between atoms: CZ   and  NH1 
REMARK       I    between atoms: CZ   and  NH2 
ROOT
ATOM      1  CA  ARG D 557     -26.217   2.705 -17.014  1.00 35.49     0.159 C 
ENDROOT
BRANCH   1   2
ATOM      2  CB  ARG D 557     -26.789   1.319 -17.183  1.00 35.49     0.034 C 
BRANCH   2   3
ATOM      3  CG  ARG D 557     -25.829   0.209 -17.226  1.00 35.49     0.027 C 
BRANCH   3   4
ATOM      4  CD  ARG D 557     -24.714   0.389 -16.269  1.00 35.49     0.116 C 
BRANCH   4   5
ATOM      5  NE  ARG D 557     -24.882  -0.411 -15.084  1.00 35.49    -0.212 N 
ATOM      6  CZ  ARG D 557     -24.085  -1.380 -14.693  1.00 35.49     0.666 C 
ATOM      7  NH1 ARG D 557     -23.017  -1.740 -15.380  1.00 35.49    -0.235 N 
ATOM      8  NH2 ARG D 557     -24.379  -1.986 -13.579  1.00 35.49    -0.235 N 
ATOM      9  HH  ARG D 557     -22.803  -1.354 -16.114  1.00 35.49     0.174 HD
ATOM     10  HH  ARG D 557     -22.532  -2.378 -15.074  1.00 35.49     0.174 HD
ATOM     11  HH  ARG D 557     -25.070  -1.727 -13.153  1.00 35.49     0.174 HD
ATOM     12  HH  ARG D 557     -23.886  -2.613 -13.292  1.00 35.49     0.174 HD
ATOM     13  HE  ARG D 557     -25.585  -0.295 -14.620  1.00 35.49     0.178 HD
ENDBRANCH   4   5
ENDBRANCH   3   4
ENDBRANCH   2   3
ENDBRANCH   1   2
END_RES ARG D 557
BEGIN_RES GLU D 570
REMARK  3 active torsions:
REMARK  status: ('A' for Active; 'I' for Inactive)
REMARK    5  A    between atoms: CA   and  CB  
REMARK    6  A    between atoms: CB   and  CG  
REMARK    7  A    between atoms: CG   and  CD  
ROOT
ATOM     14  CA  GLU D 570     -18.033  -6.348 -13.375  1.00 32.92     0.160 C 
ENDROOT
BRANCH  14  15
ATOM     15  CB  GLU D 570     -19.500  -6.345 -13.794  1.00 32.92     0.043 C 
BRANCH  15  16
ATOM     16  CG  GLU D 570     -19.879  -7.176 -14.966  1.00 32.92     0.100 C 
BRANCH  16  17
ATOM     17  CD  GLU D 570     -20.676  -6.412 -15.997  1.00 32.92     0.185 C 
ATOM     18  OE1 GLU D 570     -21.176  -7.031 -16.956  1.00 32.92    -0.647 OA
ATOM     19  OE2 GLU D 570     -20.787  -5.179 -15.854  1.00 32.92    -0.647 OA
ENDBRANCH  16  17
ENDBRANCH  15  16
ENDBRANCH  14  15
END_RES GLU D 570
ENDMDL
MODEL 3
REMARK VINA RESULT:      -7.4      1.394      2.270
REMARK  19 active torsions:
REMARK  status: ('A' for Active; 'I' for Inactive)
REMARK    1  A    between atoms: C_2  and  C_3 
REMARK    2  A    between atoms: C_3  and  C_4 
REMARK    3  A    between atoms: C_4  and  C_5 
REMARK    4  A    between atoms: C_5  and  C_6 
REMARK    5  A    between atoms: C_5  and  C_8 
REMARK    6  A    between atoms: C_8  and  O_9 
REMARK    7  A    between atoms: O_9  and  C_10 
REMARK    8  A    between atoms: C_10  and  C_12 
REMARK    9  A    between atoms: C_12  and  C_13 
REMARK   10  A    between atoms: C_13  and  C_14 
REMARK   11  A    between atoms: C_14  and  C_15 
REMARK   12  A    between atoms: C_15  and  C_16 
REMARK   13  A    between atoms: C_16  and  O_18 
REMARK   14  A    between atoms: O_18  and  C_19 
REMARK   15  A    between atoms: C_19  and  C_20 
REMARK   16  A    between atoms: C_20  and  C_21 
REMARK   17  A    between atoms: C_20  and  C_23 
REMARK   18  A    between atoms: C_23  and  C_24 
REMARK   19  A    between atoms: C_24  and  C_25 
ROOT
HETATM    1  C   UNL     1     -23.420  -6.097 -13.600  1.00  0.00     0.010 C 
ENDROOT
BRANCH   1   2
HETATM    2  C   UNL     1     -23.813  -5.648 -15.009  1.00  0.00     0.111 C 
BRANCH   2   3
HETATM    3  C   UNL     1     -25.113  -6.285 -15.447  1.00  0.00     0.258 C 
HETATM    4  O   UNL     1     -25.328  -7.488 -15.476  1.00  0.00    -0.265 OA
BRANCH   3   5
HETATM    5  O   UNL     1     -25.973  -5.323 -15.889  1.00  0.00    -0.321 OA
BRANCH   5   6
HETATM    6  C   UNL     1     -27.278  -5.792 -16.272  1.00  0.00     0.183 C 
BRANCH   6   7
HETATM    7  C   UNL     1     -27.838  -5.136 -17.547  1.00  0.00     0.010 C 
BRANCH   7   8
HETATM    8  C   UNL     1     -27.848  -6.126 -18.736  1.00  0.00     0.007 C 
BRANCH   8   9
HETATM    9  C   UNL     1     -26.437  -6.477 -19.221  1.00  0.00     0.000 C 
BRANCH   9  10
HETATM   10  C   UNL     1     -26.436  -7.178 -20.578  1.00  0.00    -0.005 C 
HETATM   11  C   UNL     1     -25.012  -7.362 -21.082  1.00  0.00     0.005 C 
ENDBRANCH   9  10
ENDBRANCH   8   9
ENDBRANCH   7   8
BRANCH   7  12
HETATM   12  C   UNL     1     -29.210  -4.486 -17.254  1.00  0.00     0.002 C 
HETATM   13  C   UNL     1     -29.254  -2.967 -17.363  1.00  0.00     0.005 C 
ENDBRANCH   7  12
ENDBRANCH   6   7
ENDBRANCH   5   6
ENDBRANCH   3   5
ENDBRANCH   2   3
ENDBRANCH   1   2
BRANCH   1  14
HETATM   14  C   UNL     1     -23.067  -4.912 -12.700  1.00  0.00     0.010 C 
BRANCH  14  15
HETATM   15  C   UNL     1     -23.638  -5.096 -11.292  1.00  0.00     0.111 C 
BRANCH  15  16
HETATM   16  C   UNL     1     -24.108  -3.797 -10.694  1.00  0.00     0.258 C 
HETATM   17  O   UNL     1     -25.138  -3.201 -10.984  1.00  0.00    -0.265 OA
BRANCH  16  18
HETATM   18  O   UNL     1     -23.123  -3.289  -9.889  1.00  0.00    -0.321 OA
BRANCH  18  19
HETATM   19  C   UNL     1     -22.917  -4.071  -8.707  1.00  0.00     0.183 C 
BRANCH  19  20
HETATM   20  C   UNL     1     -21.438  -4.355  -8.397  1.00  0.00     0.010 C 
BRANCH  20  21
HETATM   21  C   UNL     1     -20.485  -3.851  -9.507  1.00  0.00     0.002 C 
HETATM   22  C   UNL     1     -20.002  -4.915 -10.484  1.00  0.00     0.005 C 
ENDBRANCH  20  21
BRANCH  20  23
HETATM   23  C   UNL     1     -21.055  -3.765  -7.015  1.00  0.00     0.007 C 
BRANCH  23  24
HETATM   24  C   UNL     1     -20.142  -4.685  -6.196  1.00  0.00     0.000 C 
BRANCH  24  25
HETATM   25  C   UNL     1     -20.927  -5.663  -5.325  1.00  0.00    -0.005 C 
HETATM   26  C   UNL     1     -20.313  -7.055  -5.395  1.00  0.00     0.005 C 
ENDBRANCH  24  25
ENDBRANCH  23  24
ENDBRANCH  20  23
ENDBRANCH  19  20
ENDBRANCH  18  19
ENDBRANCH  16  18
ENDBRANCH  15  16
ENDBRANCH  14  15
ENDBRANCH   1  14
TORSDOF 19
BEGIN_RES ARG D 557
REMARK  4 active torsions:
REMARK  status: ('A' for Active; 'I' for Inactive)
REMARK    1  A    between atoms: CA   and  CB  
REMARK    2  A    between atoms: CB   and  CG  
REMARK    3  A    between atoms: CG   and  CD  
REMARK    4  A    between atoms: CD   and  NE  
REMARK       I    between atoms: NE   and  CZ  
REMARK       I    between atoms: CZ   and  NH1 
REMARK       I    between atoms: CZ   and  NH2 
ROOT
ATOM      1  CA  ARG D 557     -26.217   2.705 -17.014  1.00 35.49     0.159 C 
ENDROOT
BRANCH   1   2
ATOM      2  CB  ARG D 557     -26.789   1.319 -17.183  1.00 35.49     0.034 C 
BRANCH   2   3
ATOM      3  CG  ARG D 557     -25.851   0.197 -17.054  1.00 35.49     0.027 C 
BRANCH   3   4
ATOM      4  CD  ARG D 557     -26.178  -0.682 -15.908  1.00 35.49     0.116 C 
BRANCH   4   5
ATOM      5  NE  ARG D 557     -25.055  -0.865 -15.027  1.00 35.49    -0.212 N 
ATOM      6  CZ  ARG D 557     -24.877  -1.878 -14.209  1.00 35.49     0.666 C 
ATOM      7  NH1 ARG D 557     -25.751  -2.861 -14.097  1.00 35.49    -0.235 N 
ATOM      8  NH2 ARG D 557     -23.787  -1.891 -13.498  1.00 35.49    -0.235 N 
ATOM      9  HH  ARG D 557     -26.474  -2.874 -14.557  1.00 35.49     0.174 HD
ATOM     10  HH  ARG D 557     -25.580  -3.497 -13.549  1.00 35.49     0.174 HD
ATOM     11  HH  ARG D 557     -23.237  -1.247 -13.596  1.00 35.49     0.174 HD
ATOM     12  HH  ARG D 557     -23.635  -2.531 -12.962  1.00 35.49     0.174 HD
ATOM     13  HE  ARG D 557     -24.478  -0.242 -14.981  1.00 35.49     0.178 HD
ENDBRANCH   4   5
ENDBRANCH   3   4
ENDBRANCH   2   3
ENDBRANCH   1   2
END_RES ARG D 557
BEGIN_RES GLU D 570
REMARK  3 active torsions:
REMARK  status: ('A' for Active; 'I' for Inactive)
REMARK    5  A    between atoms: CA   and  CB  
REMARK    6  A    between atoms: CB   and  CG  
REMARK    7  A    between atoms: CG   and  CD  
ROOT
ATOM     14  CA  GLU D 570     -18.033  -6.348 -13.375  1.00 32.92     0.160 C 
ENDROOT
BRANCH  14  15
ATOM     15  CB  GLU D 570     -19.500  -6.345 -13.794  1.00 32.92     0.043 C 
BRANCH  15  16
ATOM     16  CG  GLU D 570     -19.798  -6.208 -15.243  1.00 32.92     0.100 C 
BRANCH  16  17
ATOM     17  CD  GLU D 570     -20.612  -7.358 -15.789  1.00 32.92     0.185 C 
ATOM     18  OE1 GLU D 570     -20.596  -8.449 -15.188  1.00 32.92    -0.647 OA
ATOM     19  OE2 GLU D 570     -21.260  -7.169 -16.837  1.00 32.92    -0.647 OA
ENDBRANCH  16  17
ENDBRANCH  15  16
ENDBRANCH  14  15
END_RES GLU D 570
ENDMDL
MODEL 4
REMARK VINA RESULT:      -7.2      2.218      2.970
REMARK  19 active torsions:
REMARK  status: ('A' for Active; 'I' for Inactive)
REMARK    1  A    between atoms: C_2  and  C_3 
REMARK    2  A    between atoms: C_3  and  C_4 
REMARK    3  A    between atoms: C_4  and  C_5 
REMARK    4  A    between atoms: C_5  and  C_6 
REMARK    5  A    between atoms: C_5  and  C_8 
REMARK    6  A    between atoms: C_8  and  O_9 
REMARK    7  A    between atoms: O_9  and  C_10 
REMARK    8  A    between atoms: C_10  and  C_12 
REMARK    9  A    between atoms: C_12  and  C_13 
REMARK   10  A    between atoms: C_13  and  C_14 
REMARK   11  A    between atoms: C_14  and  C_15 
REMARK   12  A    between atoms: C_15  and  C_16 
REMARK   13  A    between atoms: C_16  and  O_18 
REMARK   14  A    between atoms: O_18  and  C_19 
REMARK   15  A    between atoms: C_19  and  C_20 
REMARK   16  A    between atoms: C_20  and  C_21 
REMARK   17  A    between atoms: C_20  and  C_23 
REMARK   18  A    between atoms: C_23  and  C_24 
REMARK   19  A    between atoms: C_24  and  C_25 
ROOT
HETATM    1  C   UNL     1     -24.123  -5.360 -14.257  1.00  0.00     0.010 C 
ENDROOT
BRANCH   1   2
HETATM    2  C   UNL     1     -24.239  -6.468 -15.306  1.00  0.00     0.111 C 
BRANCH   2   3
HETATM    3  C   UNL     1     -25.668  -6.643 -15.767  1.00  0.00     0.258 C 
HETATM    4  O   UNL     1     -26.469  -7.430 -15.282  1.00  0.00    -0.265 OA
BRANCH   3   5
HETATM    5  O   UNL     1     -25.901  -5.860 -16.860  1.00  0.00    -0.321 OA
BRANCH   5   6
HETATM    6  C   UNL     1     -25.578  -6.458 -18.127  1.00  0.00     0.183 C 
BRANCH   6   7
HETATM    7  C   UNL     1     -26.796  -6.716 -19.034  1.00  0.00     0.010 C 
BRANCH   7   8
HETATM    8  C   UNL     1     -27.981  -5.792 -18.667  1.00  0.00     0.007 C 
BRANCH   8   9
HETATM    9  C   UNL     1     -29.177  -6.567 -18.103  1.00  0.00     0.000 C 
BRANCH   9  10
HETATM   10  C   UNL     1     -29.660  -6.015 -16.762  1.00  0.00    -0.005 C 
HETATM   11  C   UNL     1     -31.085  -5.494 -16.883  1.00  0.00     0.005 C 
ENDBRANCH   9  10
ENDBRANCH   8   9
ENDBRANCH   7   8
BRANCH   7  12
HETATM   12  C   UNL     1     -26.376  -6.645 -20.521  1.00  0.00     0.002 C 
HETATM   13  C   UNL     1     -25.552  -7.822 -21.026  1.00  0.00     0.005 C 
ENDBRANCH   7  12
ENDBRANCH   6   7
ENDBRANCH   5   6
ENDBRANCH   3   5
ENDBRANCH   2   3
ENDBRANCH   1   2
BRANCH   1  14
HETATM   14  C   UNL     1     -22.916  -4.455 -14.511  1.00  0.00     0.010 C 
BRANCH  14  15
HETATM   15  C   UNL     1     -23.218  -3.006 -14.123  1.00  0.00     0.111 C 
BRANCH  15  16
HETATM   16  C   UNL     1     -24.454  -2.891 -13.271  1.00  0.00     0.258 C 
HETATM   17  O   UNL     1     -25.610  -2.876 -13.675  1.00  0.00    -0.265 OA
BRANCH  16  18
HETATM   18  O   UNL     1     -24.086  -2.636 -11.976  1.00  0.00    -0.321 OA
BRANCH  18  19
HETATM   19  C   UNL     1     -24.174  -3.794 -11.138  1.00  0.00     0.183 C 
BRANCH  19  20
HETATM   20  C   UNL     1     -22.901  -4.072 -10.322  1.00  0.00     0.010 C 
BRANCH  20  21
HETATM   21  C   UNL     1     -21.663  -3.324 -10.870  1.00  0.00     0.002 C 
HETATM   22  C   UNL     1     -20.446  -4.196 -11.153  1.00  0.00     0.005 C 
ENDBRANCH  20  21
BRANCH  20  23
HETATM   23  C   UNL     1     -23.140  -3.748  -8.825  1.00  0.00     0.007 C 
BRANCH  23  24
HETATM   24  C   UNL     1     -22.251  -4.565  -7.879  1.00  0.00     0.000 C 
BRANCH  24  25
HETATM   25  C   UNL     1     -21.176  -3.713  -7.207  1.00  0.00    -0.005 C 
HETATM   26  C   UNL     1     -19.792  -4.290  -7.472  1.00  0.00     0.005 C 
ENDBRANCH  24  25
ENDBRANCH  23  24
ENDBRANCH  20  23
ENDBRANCH  19  20
ENDBRANCH  18  19
ENDBRANCH  16  18
ENDBRANCH  15  16
ENDBRANCH  14  15
ENDBRANCH   1  14
TORSDOF 19
BEGIN_RES ARG D 557
REMARK  4 active torsions:
REMARK  status: ('A' for Active; 'I' for Inactive)
REMARK    1  A    between atoms: CA   and  CB  
REMARK    2  A    between atoms: CB   and  CG  
REMARK    3  A    between atoms: CG   and  CD  
REMARK    4  A    between atoms: CD   and  NE  
REMARK       I    between atoms: NE   and  CZ  
REMARK       I    between atoms: CZ   and  NH1 
REMARK       I    between atoms: CZ   and  NH2 
ROOT
ATOM      1  CA  ARG D 557     -26.217   2.705 -17.014  1.00 35.49     0.159 C 
ENDROOT
BRANCH   1   2
ATOM      2  CB  ARG D 557     -26.789   1.319 -17.183  1.00 35.49     0.034 C 
BRANCH   2   3
ATOM      3  CG  ARG D 557     -28.235   1.225 -17.419  1.00 35.49     0.027 C 
BRANCH   3   4
ATOM      4  CD  ARG D 557     -28.886   0.225 -16.543  1.00 35.49     0.116 C 
BRANCH   4   5
ATOM      5  NE  ARG D 557     -28.009  -0.869 -16.223  1.00 35.49    -0.212 N 
ATOM      6  CZ  ARG D 557     -28.150  -2.111 -16.630  1.00 35.49     0.666 C 
ATOM      7  NH1 ARG D 557     -29.157  -2.498 -17.390  1.00 35.49    -0.235 N 
ATOM      8  NH2 ARG D 557     -27.245  -2.971 -16.260  1.00 35.49    -0.235 N 
ATOM      9  HH  ARG D 557     -29.763  -1.949 -17.647  1.00 35.49     0.174 HD
ATOM     10  HH  ARG D 557     -29.196  -3.320 -17.627  1.00 35.49     0.174 HD
ATOM     11  HH  ARG D 557     -26.602  -2.691 -15.775  1.00 35.49     0.174 HD
ATOM     12  HH  ARG D 557     -27.300  -3.780 -16.506  1.00 35.49     0.174 HD
ATOM     13  HE  ARG D 557     -27.372  -0.725 -15.678  1.00 35.49     0.178 HD
ENDBRANCH   4   5
ENDBRANCH   3   4
ENDBRANCH   2   3
ENDBRANCH   1   2
END_RES ARG D 557
BEGIN_RES GLU D 570
REMARK  3 active torsions:
REMARK  status: ('A' for Active; 'I' for Inactive)
REMARK    5  A    between atoms: CA   and  CB  
REMARK    6  A    between atoms: CB   and  CG  
REMARK    7  A    between atoms: CG   and  CD  
ROOT
ATOM     14  CA  GLU D 570     -18.033  -6.348 -13.375  1.00 32.92     0.160 C 
ENDROOT
BRANCH  14  15
ATOM     15  CB  GLU D 570     -19.500  -6.345 -13.794  1.00 32.92     0.043 C 
BRANCH  15  16
ATOM     16  CG  GLU D 570     -20.095  -7.640 -14.213  1.00 32.92     0.100 C 
BRANCH  16  17
ATOM     17  CD  GLU D 570     -20.563  -7.637 -15.649  1.00 32.92     0.185 C 
ATOM     18  OE1 GLU D 570     -20.818  -8.723 -16.205  1.00 32.92    -0.647 OA
ATOM     19  OE2 GLU D 570     -20.661  -6.538 -16.230  1.00 32.92    -0.647 OA
ENDBRANCH  16  17
ENDBRANCH  15  16
ENDBRANCH  14  15
END_RES GLU D 570
ENDMDL
MODEL 5
REMARK VINA RESULT:      -7.2      2.810      5.778
REMARK  19 active torsions:
REMARK  status: ('A' for Active; 'I' for Inactive)
REMARK    1  A    between atoms: C_2  and  C_3 
REMARK    2  A    between atoms: C_3  and  C_4 
REMARK    3  A    between atoms: C_4  and  C_5 
REMARK    4  A    between atoms: C_5  and  C_6 
REMARK    5  A    between atoms: C_5  and  C_8 
REMARK    6  A    between atoms: C_8  and  O_9 
REMARK    7  A    between atoms: O_9  and  C_10 
REMARK    8  A    between atoms: C_10  and  C_12 
REMARK    9  A    between atoms: C_12  and  C_13 
REMARK   10  A    between atoms: C_13  and  C_14 
REMARK   11  A    between atoms: C_14  and  C_15 
REMARK   12  A    between atoms: C_15  and  C_16 
REMARK   13  A    between atoms: C_16  and  O_18 
REMARK   14  A    between atoms: O_18  and  C_19 
REMARK   15  A    between atoms: C_19  and  C_20 
REMARK   16  A    between atoms: C_20  and  C_21 
REMARK   17  A    between atoms: C_20  and  C_23 
REMARK   18  A    between atoms: C_23  and  C_24 
REMARK   19  A    between atoms: C_24  and  C_25 
ROOT
HETATM    1  C   UNL     1     -23.273  -4.058  -8.546  1.00  0.00     0.010 C 
ENDROOT
BRANCH   1   2
HETATM    2  C   UNL     1     -23.270  -3.757 -10.046  1.00  0.00     0.111 C 
BRANCH   2   3
HETATM    3  C   UNL     1     -24.615  -3.240 -10.506  1.00  0.00     0.258 C 
HETATM    4  O   UNL     1     -25.632  -3.237  -9.828  1.00  0.00    -0.265 OA
BRANCH   3   5
HETATM    5  O   UNL     1     -24.544  -2.867 -11.816  1.00  0.00    -0.321 OA
BRANCH   5   6
HETATM    6  C   UNL     1     -23.223  -2.863 -12.386  1.00  0.00     0.183 C 
BRANCH   6   7
HETATM    7  C   UNL     1     -23.196  -2.915 -13.924  1.00  0.00     0.010 C 
BRANCH   7   8
HETATM    8  C   UNL     1     -22.660  -4.272 -14.435  1.00  0.00     0.007 C 
BRANCH   8   9
HETATM    9  C   UNL     1     -23.439  -5.464 -13.867  1.00  0.00     0.000 C 
BRANCH   9  10
HETATM   10  C   UNL     1     -23.861  -6.461 -14.945  1.00  0.00    -0.005 C 
HETATM   11  C   UNL     1     -25.252  -6.128 -15.464  1.00  0.00     0.005 C 
ENDBRANCH   9  10
ENDBRANCH   8   9
ENDBRANCH   7   8
BRANCH   7  12
HETATM   12  C   UNL     1     -24.581  -2.527 -14.494  1.00  0.00     0.002 C 
HETATM   13  C   UNL     1     -24.711  -1.088 -14.976  1.00  0.00     0.005 C 
ENDBRANCH   7  12
ENDBRANCH   6   7
ENDBRANCH   5   6
ENDBRANCH   3   5
ENDBRANCH   2   3
ENDBRANCH   1   2
BRANCH   1  14
HETATM   14  C   UNL     1     -21.863  -4.025  -7.953  1.00  0.00     0.010 C 
BRANCH  14  15
HETATM   15  C   UNL     1     -21.744  -4.966  -6.752  1.00  0.00     0.111 C 
BRANCH  15  16
HETATM   16  C   UNL     1     -20.312  -5.291  -6.423  1.00  0.00     0.258 C 
HETATM   17  O   UNL     1     -19.366  -5.245  -7.199  1.00  0.00    -0.265 OA
BRANCH  16  18
HETATM   18  O   UNL     1     -20.247  -5.812  -5.158  1.00  0.00    -0.321 OA
BRANCH  18  19
HETATM   19  C   UNL     1     -21.539  -6.119  -4.620  1.00  0.00     0.183 C 
BRANCH  19  20
HETATM   20  C   UNL     1     -21.573  -7.401  -3.773  1.00  0.00     0.010 C 
BRANCH  20  21
HETATM   21  C   UNL     1     -20.746  -8.551  -4.392  1.00  0.00     0.002 C 
HETATM   22  C   UNL     1     -19.521  -8.979  -3.593  1.00  0.00     0.005 C 
ENDBRANCH  20  21
BRANCH  20  23
HETATM   23  C   UNL     1     -21.121  -7.099  -2.321  1.00  0.00     0.007 C 
BRANCH  23  24
HETATM   24  C   UNL     1     -22.266  -6.627  -1.416  1.00  0.00     0.000 C 
BRANCH  24  25
HETATM   25  C   UNL     1     -22.369  -7.444  -0.130  1.00  0.00    -0.005 C 
HETATM   26  C   UNL     1     -21.419  -8.632  -0.173  1.00  0.00     0.005 C 
ENDBRANCH  24  25
ENDBRANCH  23  24
ENDBRANCH  20  23
ENDBRANCH  19  20
ENDBRANCH  18  19
ENDBRANCH  16  18
ENDBRANCH  15  16
ENDBRANCH  14  15
ENDBRANCH   1  14
TORSDOF 19
BEGIN_RES ARG D 557
REMARK  4 active torsions:
REMARK  status: ('A' for Active; 'I' for Inactive)
REMARK    1  A    between atoms: CA   and  CB  
REMARK    2  A    between atoms: CB   and  CG  
REMARK    3  A    between atoms: CG   and  CD  
REMARK    4  A    between atoms: CD   and  NE  
REMARK       I    between atoms: NE   and  CZ  
REMARK       I    between atoms: CZ   and  NH1 
REMARK       I    between atoms: CZ   and  NH2 
ROOT
ATOM      1  CA  ARG D 557     -26.217   2.705 -17.014  1.00 35.49     0.159 C 
ENDROOT
BRANCH   1   2
ATOM      2  CB  ARG D 557     -26.789   1.319 -17.183  1.00 35.49     0.034 C 
BRANCH   2   3
ATOM      3  CG  ARG D 557     -28.251   1.212 -17.257  1.00 35.49     0.027 C 
BRANCH   3   4
ATOM      4  CD  ARG D 557     -28.786   0.156 -16.367  1.00 35.49     0.116 C 
BRANCH   4   5
ATOM      5  NE  ARG D 557     -29.296  -0.969 -17.105  1.00 35.49    -0.212 N 
ATOM      6  CZ  ARG D 557     -28.794  -2.183 -17.098  1.00 35.49     0.666 C 
ATOM      7  NH1 ARG D 557     -27.722  -2.504 -16.397  1.00 35.49    -0.235 N 
ATOM      8  NH2 ARG D 557     -29.400  -3.087 -17.812  1.00 35.49    -0.235 N 
ATOM      9  HH  ARG D 557     -27.309  -1.926 -15.918  1.00 35.49     0.174 HD
ATOM     10  HH  ARG D 557     -27.442  -3.313 -16.428  1.00 35.49     0.174 HD
ATOM     11  HH  ARG D 557     -30.094  -2.853 -18.248  1.00 35.49     0.174 HD
ATOM     12  HH  ARG D 557     -29.108  -3.883 -17.829  1.00 35.49     0.174 HD
ATOM     13  HE  ARG D 557     -29.943  -0.835 -17.640  1.00 35.49     0.178 HD
ENDBRANCH   4   5
ENDBRANCH   3   4
ENDBRANCH   2   3
ENDBRANCH   1   2
END_RES ARG D 557
BEGIN_RES GLU D 570
REMARK  3 active torsions:
REMARK  status: ('A' for Active; 'I' for Inactive)
REMARK    5  A    between atoms: CA   and  CB  
REMARK    6  A    between atoms: CB   and  CG  
REMARK    7  A    between atoms: CG   and  CD  
ROOT
ATOM     14  CA  GLU D 570     -18.033  -6.348 -13.375  1.00 32.92     0.160 C 
ENDROOT
BRANCH  14  15
ATOM     15  CB  GLU D 570     -19.500  -6.345 -13.794  1.00 32.92     0.043 C 
BRANCH  15  16
ATOM     16  CG  GLU D 570     -20.089  -7.636 -14.234  1.00 32.92     0.100 C 
BRANCH  16  17
ATOM     17  CD  GLU D 570     -20.531  -7.620 -15.679  1.00 32.92     0.185 C 
ATOM     18  OE1 GLU D 570     -20.822  -8.696 -16.235  1.00 32.92    -0.647 OA
ATOM     19  OE2 GLU D 570     -20.571  -6.520 -16.266  1.00 32.92    -0.647 OA
ENDBRANCH  16  17
ENDBRANCH  15  16
ENDBRANCH  14  15
END_RES GLU D 570
ENDMDL
MODEL 6
REMARK VINA RESULT:      -7.1      1.983      2.779
REMARK  19 active torsions:
REMARK  status: ('A' for Active; 'I' for Inactive)
REMARK    1  A    between atoms: C_2  and  C_3 
REMARK    2  A    between atoms: C_3  and  C_4 
REMARK    3  A    between atoms: C_4  and  C_5 
REMARK    4  A    between atoms: C_5  and  C_6 
REMARK    5  A    between atoms: C_5  and  C_8 
REMARK    6  A    between atoms: C_8  and  O_9 
REMARK    7  A    between atoms: O_9  and  C_10 
REMARK    8  A    between atoms: C_10  and  C_12 
REMARK    9  A    between atoms: C_12  and  C_13 
REMARK   10  A    between atoms: C_13  and  C_14 
REMARK   11  A    between atoms: C_14  and  C_15 
REMARK   12  A    between atoms: C_15  and  C_16 
REMARK   13  A    between atoms: C_16  and  O_18 
REMARK   14  A    between atoms: O_18  and  C_19 
REMARK   15  A    between atoms: C_19  and  C_20 
REMARK   16  A    between atoms: C_20  and  C_21 
REMARK   17  A    between atoms: C_20  and  C_23 
REMARK   18  A    between atoms: C_23  and  C_24 
REMARK   19  A    between atoms: C_24  and  C_25 
ROOT
HETATM    1  C   UNL     1     -22.195  -4.052 -12.972  1.00  0.00     0.010 C 
ENDROOT
BRANCH   1   2
HETATM    2  C   UNL     1     -22.694  -4.224 -14.408  1.00  0.00     0.111 C 
BRANCH   2   3
HETATM    3  C   UNL     1     -23.455  -5.520 -14.574  1.00  0.00     0.258 C 
HETATM    4  O   UNL     1     -23.854  -6.220 -13.655  1.00  0.00    -0.265 OA
BRANCH   3   5
HETATM    5  O   UNL     1     -23.546  -5.837 -15.898  1.00  0.00    -0.321 OA
BRANCH   5   6
HETATM    6  C   UNL     1     -24.053  -7.151 -16.185  1.00  0.00     0.183 C 
BRANCH   6   7
HETATM    7  C   UNL     1     -25.020  -7.210 -17.382  1.00  0.00     0.010 C 
BRANCH   7   8
HETATM    8  C   UNL     1     -26.231  -6.269 -17.178  1.00  0.00     0.007 C 
BRANCH   8   9
HETATM    9  C   UNL     1     -27.046  -6.621 -15.928  1.00  0.00     0.000 C 
BRANCH   9  10
HETATM   10  C   UNL     1     -28.551  -6.636 -16.190  1.00  0.00    -0.005 C 
HETATM   11  C   UNL     1     -29.269  -5.700 -15.229  1.00  0.00     0.005 C 
ENDBRANCH   9  10
ENDBRANCH   8   9
ENDBRANCH   7   8
BRANCH   7  12
HETATM   12  C   UNL     1     -24.249  -6.973 -18.701  1.00  0.00     0.002 C 
HETATM   13  C   UNL     1     -25.105  -6.926 -19.961  1.00  0.00     0.005 C 
ENDBRANCH   7  12
ENDBRANCH   6   7
ENDBRANCH   5   6
ENDBRANCH   3   5
ENDBRANCH   2   3
ENDBRANCH   1   2
BRANCH   1  14
HETATM   14  C   UNL     1     -22.853  -2.859 -12.276  1.00  0.00     0.010 C 
BRANCH  14  15
HETATM   15  C   UNL     1     -24.312  -3.158 -11.923  1.00  0.00     0.111 C 
BRANCH  15  16
HETATM   16  C   UNL     1     -24.526  -3.268 -10.437  1.00  0.00     0.258 C 
HETATM   17  O   UNL     1     -25.608  -3.264  -9.863  1.00  0.00    -0.265 OA
BRANCH  16  18
HETATM   18  O   UNL     1     -23.314  -3.204  -9.801  1.00  0.00    -0.321 OA
BRANCH  18  19
HETATM   19  C   UNL     1     -23.126  -4.268  -8.862  1.00  0.00     0.183 C 
BRANCH  19  20
HETATM   20  C   UNL     1     -21.661  -4.485  -8.450  1.00  0.00     0.010 C 
BRANCH  20  21
HETATM   21  C   UNL     1     -20.658  -3.891  -9.467  1.00  0.00     0.002 C 
HETATM   22  C   UNL     1     -19.960  -4.904 -10.365  1.00  0.00     0.005 C 
ENDBRANCH  20  21
BRANCH  20  23
HETATM   23  C   UNL     1     -21.415  -3.930  -7.024  1.00  0.00     0.007 C 
BRANCH  23  24
HETATM   24  C   UNL     1     -20.232  -4.598  -6.311  1.00  0.00     0.000 C 
BRANCH  24  25
HETATM   25  C   UNL     1     -20.462  -6.088  -6.068  1.00  0.00    -0.005 C 
HETATM   26  C   UNL     1     -21.668  -6.303  -5.165  1.00  0.00     0.005 C 
ENDBRANCH  24  25
ENDBRANCH  23  24
ENDBRANCH  20  23
ENDBRANCH  19  20
ENDBRANCH  18  19
ENDBRANCH  16  18
ENDBRANCH  15  16
ENDBRANCH  14  15
ENDBRANCH   1  14
TORSDOF 19
BEGIN_RES ARG D 557
REMARK  4 active torsions:
REMARK  status: ('A' for Active; 'I' for Inactive)
REMARK    1  A    between atoms: CA   and  CB  
REMARK    2  A    between atoms: CB   and  CG  
REMARK    3  A    between atoms: CG   and  CD  
REMARK    4  A    between atoms: CD   and  NE  
REMARK       I    between atoms: NE   and  CZ  
REMARK       I    between atoms: CZ   and  NH1 
REMARK       I    between atoms: CZ   and  NH2 
ROOT
ATOM      1  CA  ARG D 557     -26.217   2.705 -17.014  1.00 35.49     0.159 C 
ENDROOT
BRANCH   1   2
ATOM      2  CB  ARG D 557     -26.789   1.319 -17.183  1.00 35.49     0.034 C 
BRANCH   2   3
ATOM      3  CG  ARG D 557     -28.230   1.227 -17.445  1.00 35.49     0.027 C 
BRANCH   3   4
ATOM      4  CD  ARG D 557     -28.899   0.231 -16.577  1.00 35.49     0.116 C 
BRANCH   4   5
ATOM      5  NE  ARG D 557     -28.003  -0.815 -16.161  1.00 35.49    -0.212 N 
ATOM      6  CZ  ARG D 557     -28.062  -2.072 -16.539  1.00 35.49     0.666 C 
ATOM      7  NH1 ARG D 557     -28.993  -2.524 -17.358  1.00 35.49    -0.235 N 
ATOM      8  NH2 ARG D 557     -27.152  -2.881 -16.078  1.00 35.49    -0.235 N 
ATOM      9  HH  ARG D 557     -29.601  -2.009 -17.675  1.00 35.49     0.174 HD
ATOM     10  HH  ARG D 557     -28.980  -3.353 -17.572  1.00 35.49     0.174 HD
ATOM     11  HH  ARG D 557     -26.559  -2.560 -15.556  1.00 35.49     0.174 HD
ATOM     12  HH  ARG D 557     -27.155  -3.699 -16.303  1.00 35.49     0.174 HD
ATOM     13  HE  ARG D 557     -27.415  -0.628 -15.575  1.00 35.49     0.178 HD
ENDBRANCH   4   5
ENDBRANCH   3   4
ENDBRANCH   2   3
ENDBRANCH   1   2
END_RES ARG D 557
BEGIN_RES GLU D 570
REMARK  3 active torsions:
REMARK  status: ('A' for Active; 'I' for Inactive)
REMARK    5  A    between atoms: CA   and  CB  
REMARK    6  A    between atoms: CB   and  CG  
REMARK    7  A    between atoms: CG   and  CD  
ROOT
ATOM     14  CA  GLU D 570     -18.033  -6.348 -13.375  1.00 32.92     0.160 C 
ENDROOT
BRANCH  14  15
ATOM     15  CB  GLU D 570     -19.500  -6.345 -13.794  1.00 32.92     0.043 C 
BRANCH  15  16
ATOM     16  CG  GLU D 570     -20.087  -7.635 -14.240  1.00 32.92     0.100 C 
BRANCH  16  17
ATOM     17  CD  GLU D 570     -20.479  -7.630 -15.700  1.00 32.92     0.185 C 
ATOM     18  OE1 GLU D 570     -20.822  -8.701 -16.237  1.00 32.92    -0.647 OA
ATOM     19  OE2 GLU D 570     -20.426  -6.548 -16.316  1.00 32.92    -0.647 OA
ENDBRANCH  16  17
ENDBRANCH  15  16
ENDBRANCH  14  15
END_RES GLU D 570
ENDMDL
MODEL 7
REMARK VINA RESULT:      -6.9      1.754      2.999
REMARK  19 active torsions:
REMARK  status: ('A' for Active; 'I' for Inactive)
REMARK    1  A    between atoms: C_2  and  C_3 
REMARK    2  A    between atoms: C_3  and  C_4 
REMARK    3  A    between atoms: C_4  and  C_5 
REMARK    4  A    between atoms: C_5  and  C_6 
REMARK    5  A    between atoms: C_5  and  C_8 
REMARK    6  A    between atoms: C_8  and  O_9 
REMARK    7  A    between atoms: O_9  and  C_10 
REMARK    8  A    between atoms: C_10  and  C_12 
REMARK    9  A    between atoms: C_12  and  C_13 
REMARK   10  A    between atoms: C_13  and  C_14 
REMARK   11  A    between atoms: C_14  and  C_15 
REMARK   12  A    between atoms: C_15  and  C_16 
REMARK   13  A    between atoms: C_16  and  O_18 
REMARK   14  A    between atoms: O_18  and  C_19 
REMARK   15  A    between atoms: C_19  and  C_20 
REMARK   16  A    between atoms: C_20  and  C_21 
REMARK   17  A    between atoms: C_20  and  C_23 
REMARK   18  A    between atoms: C_23  and  C_24 
REMARK   19  A    between atoms: C_24  and  C_25 
ROOT
HETATM    1  C   UNL     1     -24.184  -7.492 -17.138  1.00  0.00     0.010 C 
ENDROOT
BRANCH   1   2
HETATM    2  C   UNL     1     -23.906  -6.762 -18.454  1.00  0.00     0.111 C 
BRANCH   2   3
HETATM    3  C   UNL     1     -25.008  -7.004 -19.460  1.00  0.00     0.258 C 
HETATM    4  O   UNL     1     -24.985  -7.863 -20.330  1.00  0.00    -0.265 OA
BRANCH   3   5
HETATM    5  O   UNL     1     -25.986  -6.065 -19.311  1.00  0.00    -0.321 OA
BRANCH   5   6
HETATM    6  C   UNL     1     -27.328  -6.577 -19.241  1.00  0.00     0.183 C 
BRANCH   6   7
HETATM    7  C   UNL     1     -28.141  -6.060 -18.040  1.00  0.00     0.010 C 
BRANCH   7   8
HETATM    8  C   UNL     1     -28.876  -4.742 -18.379  1.00  0.00     0.007 C 
BRANCH   8   9
HETATM    9  C   UNL     1     -29.234  -3.930 -17.129  1.00  0.00     0.000 C 
BRANCH   9  10
HETATM   10  C   UNL     1     -28.199  -2.854 -16.807  1.00  0.00    -0.005 C 
HETATM   11  C   UNL     1     -27.150  -3.394 -15.846  1.00  0.00     0.005 C 
ENDBRANCH   9  10
ENDBRANCH   8   9
ENDBRANCH   7   8
BRANCH   7  12
HETATM   12  C   UNL     1     -29.064  -7.179 -17.501  1.00  0.00     0.002 C 
HETATM   13  C   UNL     1     -30.204  -7.589 -18.424  1.00  0.00     0.005 C 
ENDBRANCH   7  12
ENDBRANCH   6   7
ENDBRANCH   5   6
ENDBRANCH   3   5
ENDBRANCH   2   3
ENDBRANCH   1   2
BRANCH   1  14
HETATM   14  C   UNL     1     -24.869  -6.585 -16.114  1.00  0.00     0.010 C 
BRANCH  14  15
HETATM   15  C   UNL     1     -24.170  -6.656 -14.755  1.00  0.00     0.111 C 
BRANCH  15  16
HETATM   16  C   UNL     1     -23.573  -5.335 -14.353  1.00  0.00     0.258 C 
HETATM   17  O   UNL     1     -23.049  -4.521 -15.104  1.00  0.00    -0.265 OA
BRANCH  16  18
HETATM   18  O   UNL     1     -23.550  -5.248 -12.985  1.00  0.00    -0.321 OA
BRANCH  18  19
HETATM   19  C   UNL     1     -22.337  -4.671 -12.489  1.00  0.00     0.183 C 
BRANCH  19  20
HETATM   20  C   UNL     1     -22.501  -3.926 -11.154  1.00  0.00     0.010 C 
BRANCH  20  21
HETATM   21  C   UNL     1     -23.673  -4.471 -10.304  1.00  0.00     0.002 C 
HETATM   22  C   UNL     1     -24.654  -3.421  -9.796  1.00  0.00     0.005 C 
ENDBRANCH  20  21
BRANCH  20  23
HETATM   23  C   UNL     1     -21.170  -3.947 -10.359  1.00  0.00     0.007 C 
BRANCH  23  24
HETATM   24  C   UNL     1     -21.314  -4.542  -8.952  1.00  0.00     0.000 C 
BRANCH  24  25
HETATM   25  C   UNL     1     -20.379  -3.882  -7.940  1.00  0.00    -0.005 C 
HETATM   26  C   UNL     1     -19.467  -4.919  -7.301  1.00  0.00     0.005 C 
ENDBRANCH  24  25
ENDBRANCH  23  24
ENDBRANCH  20  23
ENDBRANCH  19  20
ENDBRANCH  18  19
ENDBRANCH  16  18
ENDBRANCH  15  16
ENDBRANCH  14  15
ENDBRANCH   1  14
TORSDOF 19
BEGIN_RES ARG D 557
REMARK  4 active torsions:
REMARK  status: ('A' for Active; 'I' for Inactive)
REMARK    1  A    between atoms: CA   and  CB  
REMARK    2  A    between atoms: CB   and  CG  
REMARK    3  A    between atoms: CG   and  CD  
REMARK    4  A    between atoms: CD   and  NE  
REMARK       I    between atoms: NE   and  CZ  
REMARK       I    between atoms: CZ   and  NH1 
REMARK       I    between atoms: CZ   and  NH2 
ROOT
ATOM      1  CA  ARG D 557     -26.217   2.705 -17.014  1.00 35.49     0.159 C 
ENDROOT
BRANCH   1   2
ATOM      2  CB  ARG D 557     -26.789   1.319 -17.183  1.00 35.49     0.034 C 
BRANCH   2   3
ATOM      3  CG  ARG D 557     -25.837   0.202 -17.147  1.00 35.49     0.027 C 
BRANCH   3   4
ATOM      4  CD  ARG D 557     -24.754   0.416 -16.159  1.00 35.49     0.116 C 
BRANCH   4   5
ATOM      5  NE  ARG D 557     -24.890  -0.443 -15.012  1.00 35.49    -0.212 N 
ATOM      6  CZ  ARG D 557     -24.056  -1.398 -14.664  1.00 35.49     0.666 C 
ATOM      7  NH1 ARG D 557     -22.976  -1.686 -15.366  1.00 35.49    -0.235 N 
ATOM      8  NH2 ARG D 557     -24.326  -2.064 -13.579  1.00 35.49    -0.235 N 
ATOM      9  HH  ARG D 557     -22.778  -1.259 -16.082  1.00 35.49     0.174 HD
ATOM     10  HH  ARG D 557     -22.468  -2.318 -15.089  1.00 35.49     0.174 HD
ATOM     11  HH  ARG D 557     -25.026  -1.850 -13.142  1.00 35.49     0.174 HD
ATOM     12  HH  ARG D 557     -23.809  -2.685 -13.321  1.00 35.49     0.174 HD
ATOM     13  HE  ARG D 557     -25.596  -0.374 -14.543  1.00 35.49     0.178 HD
ENDBRANCH   4   5
ENDBRANCH   3   4
ENDBRANCH   2   3
ENDBRANCH   1   2
END_RES ARG D 557
BEGIN_RES GLU D 570
REMARK  3 active torsions:
REMARK  status: ('A' for Active; 'I' for Inactive)
REMARK    5  A    between atoms: CA   and  CB  
REMARK    6  A    between atoms: CB   and  CG  
REMARK    7  A    between atoms: CG   and  CD  
ROOT
ATOM     14  CA  GLU D 570     -18.033  -6.348 -13.375  1.00 32.92     0.160 C 
ENDROOT
BRANCH  14  15
ATOM     15  CB  GLU D 570     -19.500  -6.345 -13.794  1.00 32.92     0.043 C 
BRANCH  15  16
ATOM     16  CG  GLU D 570     -19.845  -5.672 -15.073  1.00 32.92     0.100 C 
BRANCH  16  17
ATOM     17  CD  GLU D 570     -20.514  -6.596 -16.064  1.00 32.92     0.185 C 
ATOM     18  OE1 GLU D 570     -20.787  -7.761 -15.716  1.00 32.92    -0.647 OA
ATOM     19  OE2 GLU D 570     -20.751  -6.155 -17.206  1.00 32.92    -0.647 OA
ENDBRANCH  16  17
ENDBRANCH  15  16
ENDBRANCH  14  15
END_RES GLU D 570
ENDMDL
MODEL 8
REMARK VINA RESULT:      -6.8      1.637      2.665
REMARK  19 active torsions:
REMARK  status: ('A' for Active; 'I' for Inactive)
REMARK    1  A    between atoms: C_2  and  C_3 
REMARK    2  A    between atoms: C_3  and  C_4 
REMARK    3  A    between atoms: C_4  and  C_5 
REMARK    4  A    between atoms: C_5  and  C_6 
REMARK    5  A    between atoms: C_5  and  C_8 
REMARK    6  A    between atoms: C_8  and  O_9 
REMARK    7  A    between atoms: O_9  and  C_10 
REMARK    8  A    between atoms: C_10  and  C_12 
REMARK    9  A    between atoms: C_12  and  C_13 
REMARK   10  A    between atoms: C_13  and  C_14 
REMARK   11  A    between atoms: C_14  and  C_15 
REMARK   12  A    between atoms: C_15  and  C_16 
REMARK   13  A    between atoms: C_16  and  O_18 
REMARK   14  A    between atoms: O_18  and  C_19 
REMARK   15  A    between atoms: C_19  and  C_20 
REMARK   16  A    between atoms: C_20  and  C_21 
REMARK   17  A    between atoms: C_20  and  C_23 
REMARK   18  A    between atoms: C_23  and  C_24 
REMARK   19  A    between atoms: C_24  and  C_25 
ROOT
HETATM    1  C   UNL     1     -23.228  -5.313 -13.407  1.00  0.00     0.010 C 
ENDROOT
BRANCH   1   2
HETATM    2  C   UNL     1     -24.284  -4.790 -14.383  1.00  0.00     0.111 C 
BRANCH   2   3
HETATM    3  C   UNL     1     -25.018  -5.925 -15.061  1.00  0.00     0.258 C 
HETATM    4  O   UNL     1     -24.698  -7.104 -14.994  1.00  0.00    -0.265 OA
BRANCH   3   5
HETATM    5  O   UNL     1     -26.029  -5.429 -15.829  1.00  0.00    -0.321 OA
BRANCH   5   6
HETATM    6  C   UNL     1     -26.268  -6.129 -17.063  1.00  0.00     0.183 C 
BRANCH   6   7
HETATM    7  C   UNL     1     -27.752  -6.427 -17.345  1.00  0.00     0.010 C 
BRANCH   7   8
HETATM    8  C   UNL     1     -28.666  -5.852 -16.238  1.00  0.00     0.007 C 
BRANCH   8   9
HETATM    9  C   UNL     1     -30.154  -5.970 -16.583  1.00  0.00     0.000 C 
BRANCH   9  10
HETATM   10  C   UNL     1     -30.790  -4.624 -16.927  1.00  0.00    -0.005 C 
HETATM   11  C   UNL     1     -32.298  -4.680 -16.727  1.00  0.00     0.005 C 
ENDBRANCH   9  10
ENDBRANCH   8   9
ENDBRANCH   7   8
BRANCH   7  12
HETATM   12  C   UNL     1     -28.124  -5.969 -18.774  1.00  0.00     0.002 C 
HETATM   13  C   UNL     1     -27.181  -6.432 -19.878  1.00  0.00     0.005 C 
ENDBRANCH   7  12
ENDBRANCH   6   7
ENDBRANCH   5   6
ENDBRANCH   3   5
ENDBRANCH   2   3
ENDBRANCH   1   2
BRANCH   1  14
HETATM   14  C   UNL     1     -23.638  -5.093 -11.949  1.00  0.00     0.010 C 
BRANCH  14  15
HETATM   15  C   UNL     1     -24.031  -3.636 -11.698  1.00  0.00     0.111 C 
BRANCH  15  16
HETATM   16  C   UNL     1     -24.504  -3.410 -10.287  1.00  0.00     0.258 C 
HETATM   17  O   UNL     1     -25.665  -3.253  -9.932  1.00  0.00    -0.265 OA
BRANCH  16  18
HETATM   18  O   UNL     1     -23.417  -3.236  -9.471  1.00  0.00    -0.321 OA
BRANCH  18  19
HETATM   19  C   UNL     1     -23.366  -4.195  -8.408  1.00  0.00     0.183 C 
BRANCH  19  20
HETATM   20  C   UNL     1     -22.030  -4.213  -7.648  1.00  0.00     0.010 C 
BRANCH  20  21
HETATM   21  C   UNL     1     -21.662  -5.617  -7.113  1.00  0.00     0.002 C 
HETATM   22  C   UNL     1     -21.575  -5.736  -5.597  1.00  0.00     0.005 C 
ENDBRANCH  20  21
BRANCH  20  23
HETATM   23  C   UNL     1     -20.898  -3.633  -8.535  1.00  0.00     0.007 C 
BRANCH  23  24
HETATM   24  C   UNL     1     -20.066  -4.714  -9.237  1.00  0.00     0.000 C 
BRANCH  24  25
HETATM   25  C   UNL     1     -20.142  -4.612 -10.759  1.00  0.00    -0.005 C 
HETATM   26  C   UNL     1     -20.509  -3.197 -11.183  1.00  0.00     0.005 C 
ENDBRANCH  24  25
ENDBRANCH  23  24
ENDBRANCH  20  23
ENDBRANCH  19  20
ENDBRANCH  18  19
ENDBRANCH  16  18
ENDBRANCH  15  16
ENDBRANCH  14  15
ENDBRANCH   1  14
TORSDOF 19
BEGIN_RES ARG D 557
REMARK  4 active torsions:
REMARK  status: ('A' for Active; 'I' for Inactive)
REMARK    1  A    between atoms: CA   and  CB  
REMARK    2  A    between atoms: CB   and  CG  
REMARK    3  A    between atoms: CG   and  CD  
REMARK    4  A    between atoms: CD   and  NE  
REMARK       I    between atoms: NE   and  CZ  
REMARK       I    between atoms: CZ   and  NH1 
REMARK       I    between atoms: CZ   and  NH2 
ROOT
ATOM      1  CA  ARG D 557     -26.217   2.705 -17.014  1.00 35.49     0.159 C 
ENDROOT
BRANCH   1   2
ATOM      2  CB  ARG D 557     -26.789   1.319 -17.183  1.00 35.49     0.034 C 
BRANCH   2   3
ATOM      3  CG  ARG D 557     -28.251   1.197 -17.133  1.00 35.49     0.027 C 
BRANCH   3   4
ATOM      4  CD  ARG D 557     -28.690  -0.090 -16.547  1.00 35.49     0.116 C 
BRANCH   4   5
ATOM      5  NE  ARG D 557     -27.616  -0.776 -15.878  1.00 35.49    -0.212 N 
ATOM      6  CZ  ARG D 557     -27.289  -2.037 -16.046  1.00 35.49     0.666 C 
ATOM      7  NH1 ARG D 557     -27.945  -2.838 -16.865  1.00 35.49    -0.235 N 
ATOM      8  NH2 ARG D 557     -26.271  -2.488 -15.371  1.00 35.49    -0.235 N 
ATOM      9  HH  ARG D 557     -28.617  -2.562 -17.320  1.00 35.49     0.174 HD
ATOM     10  HH  ARG D 557     -27.684  -3.651 -16.935  1.00 35.49     0.174 HD
ATOM     11  HH  ARG D 557     -25.861  -1.946 -14.856  1.00 35.49     0.174 HD
ATOM     12  HH  ARG D 557     -26.027  -3.295 -15.456  1.00 35.49     0.174 HD
ATOM     13  HE  ARG D 557     -27.186  -0.354 -15.278  1.00 35.49     0.178 HD
ENDBRANCH   4   5
ENDBRANCH   3   4
ENDBRANCH   2   3
ENDBRANCH   1   2
END_RES ARG D 557
BEGIN_RES GLU D 570
REMARK  3 active torsions:
REMARK  status: ('A' for Active; 'I' for Inactive)
REMARK    5  A    between atoms: CA   and  CB  
REMARK    6  A    between atoms: CB   and  CG  
REMARK    7  A    between atoms: CG   and  CD  
ROOT
ATOM     14  CA  GLU D 570     -18.033  -6.348 -13.375  1.00 32.92     0.160 C 
ENDROOT
BRANCH  14  15
ATOM     15  CB  GLU D 570     -19.500  -6.345 -13.794  1.00 32.92     0.043 C 
BRANCH  15  16
ATOM     16  CG  GLU D 570     -19.853  -5.625 -15.044  1.00 32.92     0.100 C 
BRANCH  16  17
ATOM     17  CD  GLU D 570     -20.710  -6.448 -15.977  1.00 32.92     0.185 C 
ATOM     18  OE1 GLU D 570     -21.259  -7.479 -15.543  1.00 32.92    -0.647 OA
ATOM     19  OE2 GLU D 570     -20.820  -6.068 -17.160  1.00 32.92    -0.647 OA
ENDBRANCH  16  17
ENDBRANCH  15  16
ENDBRANCH  14  15
END_RES GLU D 570
ENDMDL
MODEL 9
REMARK VINA RESULT:      -6.7      4.188      8.855
REMARK  19 active torsions:
REMARK  status: ('A' for Active; 'I' for Inactive)
REMARK    1  A    between atoms: C_2  and  C_3 
REMARK    2  A    between atoms: C_3  and  C_4 
REMARK    3  A    between atoms: C_4  and  C_5 
REMARK    4  A    between atoms: C_5  and  C_6 
REMARK    5  A    between atoms: C_5  and  C_8 
REMARK    6  A    between atoms: C_8  and  O_9 
REMARK    7  A    between atoms: O_9  and  C_10 
REMARK    8  A    between atoms: C_10  and  C_12 
REMARK    9  A    between atoms: C_12  and  C_13 
REMARK   10  A    between atoms: C_13  and  C_14 
REMARK   11  A    between atoms: C_14  and  C_15 
REMARK   12  A    between atoms: C_15  and  C_16 
REMARK   13  A    between atoms: C_16  and  O_18 
REMARK   14  A    between atoms: O_18  and  C_19 
REMARK   15  A    between atoms: C_19  and  C_20 
REMARK   16  A    between atoms: C_20  and  C_21 
REMARK   17  A    between atoms: C_20  and  C_23 
REMARK   18  A    between atoms: C_23  and  C_24 
REMARK   19  A    between atoms: C_24  and  C_25 
ROOT
HETATM    1  C   UNL     1     -20.789  -6.525  -3.693  1.00  0.00     0.010 C 
ENDROOT
BRANCH   1   2
HETATM    2  C   UNL     1     -20.854  -5.826  -5.053  1.00  0.00     0.111 C 
BRANCH   2   3
HETATM    3  C   UNL     1     -20.757  -6.822  -6.188  1.00  0.00     0.258 C 
HETATM    4  O   UNL     1     -21.205  -7.959  -6.161  1.00  0.00    -0.265 OA
BRANCH   3   5
HETATM    5  O   UNL     1     -20.018  -6.293  -7.205  1.00  0.00    -0.321 OA
BRANCH   5   6
HETATM    6  C   UNL     1     -19.742  -4.885  -7.101  1.00  0.00     0.183 C 
BRANCH   6   7
HETATM    7  C   UNL     1     -20.450  -4.021  -8.161  1.00  0.00     0.010 C 
BRANCH   7   8
HETATM    8  C   UNL     1     -20.500  -4.735  -9.532  1.00  0.00     0.007 C 
BRANCH   8   9
HETATM    9  C   UNL     1     -20.166  -3.796 -10.697  1.00  0.00     0.000 C 
BRANCH   9  10
HETATM   10  C   UNL     1     -21.413  -3.257 -11.397  1.00  0.00    -0.005 C 
HETATM   11  C   UNL     1     -22.227  -4.399 -11.987  1.00  0.00     0.005 C 
ENDBRANCH   9  10
ENDBRANCH   8   9
ENDBRANCH   7   8
BRANCH   7  12
HETATM   12  C   UNL     1     -21.830  -3.561  -7.637  1.00  0.00     0.002 C 
HETATM   13  C   UNL     1     -23.034  -4.245  -8.272  1.00  0.00     0.005 C 
ENDBRANCH   7  12
ENDBRANCH   6   7
ENDBRANCH   5   6
ENDBRANCH   3   5
ENDBRANCH   2   3
ENDBRANCH   1   2
BRANCH   1  14
HETATM   14  C   UNL     1     -22.167  -6.632  -3.038  1.00  0.00     0.010 C 
BRANCH  14  15
HETATM   15  C   UNL     1     -22.127  -6.159  -1.583  1.00  0.00     0.111 C 
BRANCH  15  16
HETATM   16  C   UNL     1     -22.352  -7.288  -0.612  1.00  0.00     0.258 C 
HETATM   17  O   UNL     1     -23.326  -7.430   0.116  1.00  0.00    -0.265 OA
BRANCH  16  18
HETATM   18  O   UNL     1     -21.217  -8.052  -0.540  1.00  0.00    -0.321 OA
BRANCH  18  19
HETATM   19  C   UNL     1     -21.463  -9.358  -0.006  1.00  0.00     0.183 C 
BRANCH  19  20
HETATM   20  C   UNL     1     -21.601 -10.453  -1.075  1.00  0.00     0.010 C 
BRANCH  20  21
HETATM   21  C   UNL     1     -23.075 -10.790  -1.402  1.00  0.00     0.002 C 
HETATM   22  C   UNL     1     -23.991 -10.952  -0.195  1.00  0.00     0.005 C 
ENDBRANCH  20  21
BRANCH  20  23
HETATM   23  C   UNL     1     -20.815 -10.061  -2.353  1.00  0.00     0.007 C 
BRANCH  23  24
HETATM   24  C   UNL     1     -19.327 -10.426  -2.285  1.00  0.00     0.000 C 
BRANCH  24  25
HETATM   25  C   UNL     1     -18.432  -9.343  -2.884  1.00  0.00    -0.005 C 
HETATM   26  C   UNL     1     -18.478  -9.391  -4.405  1.00  0.00     0.005 C 
ENDBRANCH  24  25
ENDBRANCH  23  24
ENDBRANCH  20  23
ENDBRANCH  19  20
ENDBRANCH  18  19
ENDBRANCH  16  18
ENDBRANCH  15  16
ENDBRANCH  14  15
ENDBRANCH   1  14
TORSDOF 19
BEGIN_RES ARG D 557
REMARK  4 active torsions:
REMARK  status: ('A' for Active; 'I' for Inactive)
REMARK    1  A    between atoms: CA   and  CB  
REMARK    2  A    between atoms: CB   and  CG  
REMARK    3  A    between atoms: CG   and  CD  
REMARK    4  A    between atoms: CD   and  NE  
REMARK       I    between atoms: NE   and  CZ  
REMARK       I    between atoms: CZ   and  NH1 
REMARK       I    between atoms: CZ   and  NH2 
ROOT
ATOM      1  CA  ARG D 557     -26.217   2.705 -17.014  1.00 35.49     0.159 C 
ENDROOT
BRANCH   1   2
ATOM      2  CB  ARG D 557     -26.789   1.319 -17.183  1.00 35.49     0.034 C 
BRANCH   2   3
ATOM      3  CG  ARG D 557     -25.933   0.197 -16.778  1.00 35.49     0.027 C 
BRANCH   3   4
ATOM      4  CD  ARG D 557     -26.688  -0.860 -16.067  1.00 35.49     0.116 C 
BRANCH   4   5
ATOM      5  NE  ARG D 557     -25.873  -1.556 -15.107  1.00 35.49    -0.212 N 
ATOM      6  CZ  ARG D 557     -25.950  -2.836 -14.818  1.00 35.49     0.666 C 
ATOM      7  NH1 ARG D 557     -26.825  -3.641 -15.392  1.00 35.49    -0.235 N 
ATOM      8  NH2 ARG D 557     -25.116  -3.303 -13.935  1.00 35.49    -0.235 N 
ATOM      9  HH  ARG D 557     -27.381  -3.356 -15.977  1.00 35.49     0.174 HD
ATOM     10  HH  ARG D 557     -26.826  -4.468 -15.166  1.00 35.49     0.174 HD
ATOM     11  HH  ARG D 557     -24.557  -2.762 -13.587  1.00 35.49     0.174 HD
ATOM     12  HH  ARG D 557     -25.132  -4.125 -13.726  1.00 35.49     0.174 HD
ATOM     13  HE  ARG D 557     -25.331  -1.099 -14.637  1.00 35.49     0.178 HD
ENDBRANCH   4   5
ENDBRANCH   3   4
ENDBRANCH   2   3
ENDBRANCH   1   2
END_RES ARG D 557
BEGIN_RES GLU D 570
REMARK  3 active torsions:
REMARK  status: ('A' for Active; 'I' for Inactive)
REMARK    5  A    between atoms: CA   and  CB  
REMARK    6  A    between atoms: CB   and  CG  
REMARK    7  A    between atoms: CG   and  CD  
ROOT
ATOM     14  CA  GLU D 570     -18.033  -6.348 -13.375  1.00 32.92     0.160 C 
ENDROOT
BRANCH  14  15
ATOM     15  CB  GLU D 570     -19.500  -6.345 -13.794  1.00 32.92     0.043 C 
BRANCH  15  16
ATOM     16  CG  GLU D 570     -19.814  -5.924 -15.184  1.00 32.92     0.100 C 
BRANCH  16  17
ATOM     17  CD  GLU D 570     -21.290  -5.689 -15.409  1.00 32.92     0.185 C 
ATOM     18  OE1 GLU D 570     -22.111  -6.485 -14.916  1.00 32.92    -0.647 OA
ATOM     19  OE2 GLU D 570     -21.627  -4.708 -16.101  1.00 32.92    -0.647 OA
ENDBRANCH  16  17
ENDBRANCH  15  16
ENDBRANCH  14  15
END_RES GLU D 570
ENDMDL
