MODEL 1
REMARK VINA RESULT:      -6.2      0.000      0.000
REMARK  15 active torsions:
REMARK  status: ('A' for Active; 'I' for Inactive)
REMARK    1  A    between atoms: C_2  and  C_3 
REMARK    2  A    between atoms: C_3  and  C_4 
REMARK    3  A    between atoms: C_4  and  C_5 
REMARK    4  A    between atoms: C_5  and  C_6 
REMARK    5  A    between atoms: C_6  and  C_7 
REMARK    6  A    between atoms: C_7  and  C_8 
REMARK    7  A    between atoms: C_8  and  C_9 
REMARK    8  A    between atoms: C_9  and  C_10 
REMARK    9  A    between atoms: C_10  and  C_11 
REMARK   10  A    between atoms: C_11  and  C_12 
REMARK   11  A    between atoms: C_12  and  C_13 
REMARK   12  A    between atoms: C_13  and  C_14 
REMARK   13  A    between atoms: C_14  and  C_15 
REMARK   14  A    between atoms: C_15  and  C_16 
REMARK   15  A    between atoms: C_16  and  O_17 
ROOT
HETATM    1  C   UNL     1     -20.793  -6.471  -6.651  1.00  0.00     0.000 C 
ENDROOT
BRANCH   1   2
HETATM    2  C   UNL     1     -21.753  -5.826  -5.667  1.00  0.00     0.000 C 
BRANCH   2   3
HETATM    3  C   UNL     1     -21.236  -5.984  -4.245  1.00  0.00     0.000 C 
BRANCH   3   4
HETATM    4  C   UNL     1     -20.902  -7.441  -3.965  1.00  0.00     0.000 C 
BRANCH   4   5
HETATM    5  C   UNL     1     -21.242  -7.795  -2.525  1.00  0.00     0.000 C 
BRANCH   5   6
HETATM    6  C   UNL     1     -21.980  -6.644  -1.853  1.00  0.00     0.000 C 
BRANCH   6   7
HETATM    7  C   UNL     1     -22.536  -7.083  -0.504  1.00  0.00    -0.000 C 
BRANCH   7   8
HETATM    8  C   UNL     1     -22.072  -8.492  -0.153  1.00  0.00    -0.005 C 
HETATM    9  C   UNL     1     -21.291  -8.497   1.148  1.00  0.00     0.005 C 
ENDBRANCH   7   8
ENDBRANCH   6   7
ENDBRANCH   5   6
ENDBRANCH   4   5
ENDBRANCH   3   4
ENDBRANCH   2   3
ENDBRANCH   1   2
BRANCH   1  10
HETATM   10  C   UNL     1     -19.637  -5.531  -6.955  1.00  0.00     0.000 C 
BRANCH  10  11
HETATM   11  C   UNL     1     -20.135  -4.310  -7.713  1.00  0.00     0.000 C 
BRANCH  11  12
HETATM   12  C   UNL     1     -20.260  -4.623  -9.196  1.00  0.00     0.000 C 
BRANCH  12  13
HETATM   13  C   UNL     1     -21.512  -3.977  -9.771  1.00  0.00     0.000 C 
BRANCH  13  14
HETATM   14  C   UNL     1     -22.628  -3.961  -8.731  1.00  0.00     0.002 C 
BRANCH  14  15
HETATM   15  C   UNL     1     -23.960  -4.358  -9.354  1.00  0.00     0.026 C 
BRANCH  15  16
HETATM   16  C   UNL     1     -24.507  -3.242 -10.231  1.00  0.00     0.164 C 
BRANCH  16  17
HETATM   17  O   UNL     1     -24.674  -3.715 -11.560  1.00  0.00    -0.401 OA
HETATM   18  H   UNL     1     -25.138  -3.022 -12.061  1.00  0.00     0.209 HD
ENDBRANCH  16  17
ENDBRANCH  15  16
ENDBRANCH  14  15
ENDBRANCH  13  14
ENDBRANCH  12  13
ENDBRANCH  11  12
ENDBRANCH  10  11
ENDBRANCH   1  10
TORSDOF 15
BEGIN_RES ARG D 557
REMARK  4 active torsions:
REMARK  status: ('A' for Active; 'I' for Inactive)
REMARK    1  A    between atoms: CA   and  CB  
REMARK    2  A    between atoms: CB   and  CG  
REMARK    3  A    between atoms: CG   and  CD  
REMARK    4  A    between atoms: CD   and  NE  
REMARK       I    between atoms: NE   and  CZ  
REMARK       I    between atoms: CZ   and  NH1 
REMARK       I    between atoms: CZ   and  NH2 
ROOT
ATOM      1  CA  ARG D 557     -26.217   2.705 -17.014  1.00 35.49     0.159 C 
ENDROOT
BRANCH   1   2
ATOM      2  CB  ARG D 557     -26.789   1.319 -17.183  1.00 35.49     0.034 C 
BRANCH   2   3
ATOM      3  CG  ARG D 557     -25.854   0.196 -17.041  1.00 35.49     0.027 C 
BRANCH   3   4
ATOM      4  CD  ARG D 557     -26.188  -0.674 -15.890  1.00 35.49     0.116 C 
BRANCH   4   5
ATOM      5  NE  ARG D 557     -25.109  -0.754 -14.940  1.00 35.49    -0.212 N 
ATOM      6  CZ  ARG D 557     -24.691  -1.848 -14.345  1.00 35.49     0.666 C 
ATOM      7  NH1 ARG D 557     -25.247  -3.027 -14.555  1.00 35.49    -0.235 N 
ATOM      8  NH2 ARG D 557     -23.684  -1.739 -13.527  1.00 35.49    -0.235 N 
ATOM      9  HH  ARG D 557     -25.909  -3.123 -15.090  1.00 35.49     0.174 HD
ATOM     10  HH  ARG D 557     -24.929  -3.707 -14.140  1.00 35.49     0.174 HD
ATOM     11  HH  ARG D 557     -23.340  -0.966 -13.417  1.00 35.49     0.174 HD
ATOM     12  HH  ARG D 557     -23.383  -2.424 -13.127  1.00 35.49     0.174 HD
ATOM     13  HE  ARG D 557     -24.742  -0.029 -14.691  1.00 35.49     0.178 HD
ENDBRANCH   4   5
ENDBRANCH   3   4
ENDBRANCH   2   3
ENDBRANCH   1   2
END_RES ARG D 557
BEGIN_RES GLU D 570
REMARK  3 active torsions:
REMARK  status: ('A' for Active; 'I' for Inactive)
REMARK    5  A    between atoms: CA   and  CB  
REMARK    6  A    between atoms: CB   and  CG  
REMARK    7  A    between atoms: CG   and  CD  
ROOT
ATOM     14  CA  GLU D 570     -18.033  -6.348 -13.375  1.00 32.92     0.160 C 
ENDROOT
BRANCH  14  15
ATOM     15  CB  GLU D 570     -19.500  -6.345 -13.794  1.00 32.92     0.043 C 
BRANCH  15  16
ATOM     16  CG  GLU D 570     -20.445  -5.546 -12.972  1.00 32.92     0.100 C 
BRANCH  16  17
ATOM     17  CD  GLU D 570     -21.772  -5.316 -13.656  1.00 32.92     0.185 C 
ATOM     18  OE1 GLU D 570     -22.456  -4.326 -13.333  1.00 32.92    -0.647 OA
ATOM     19  OE2 GLU D 570     -22.139  -6.143 -14.514  1.00 32.92    -0.647 OA
ENDBRANCH  16  17
ENDBRANCH  15  16
ENDBRANCH  14  15
END_RES GLU D 570
ENDMDL
MODEL 2
REMARK VINA RESULT:      -6.1      1.877      2.215
REMARK  15 active torsions:
REMARK  status: ('A' for Active; 'I' for Inactive)
REMARK    1  A    between atoms: C_2  and  C_3 
REMARK    2  A    between atoms: C_3  and  C_4 
REMARK    3  A    between atoms: C_4  and  C_5 
REMARK    4  A    between atoms: C_5  and  C_6 
REMARK    5  A    between atoms: C_6  and  C_7 
REMARK    6  A    between atoms: C_7  and  C_8 
REMARK    7  A    between atoms: C_8  and  C_9 
REMARK    8  A    between atoms: C_9  and  C_10 
REMARK    9  A    between atoms: C_10  and  C_11 
REMARK   10  A    between atoms: C_11  and  C_12 
REMARK   11  A    between atoms: C_12  and  C_13 
REMARK   12  A    between atoms: C_13  and  C_14 
REMARK   13  A    between atoms: C_14  and  C_15 
REMARK   14  A    between atoms: C_15  and  C_16 
REMARK   15  A    between atoms: C_16  and  O_17 
ROOT
HETATM    1  C   UNL     1     -20.390  -6.449  -6.153  1.00  0.00     0.000 C 
ENDROOT
BRANCH   1   2
HETATM    2  C   UNL     1     -21.650  -6.667  -5.332  1.00  0.00     0.000 C 
BRANCH   2   3
HETATM    3  C   UNL     1     -21.530  -7.943  -4.512  1.00  0.00     0.000 C 
BRANCH   3   4
HETATM    4  C   UNL     1     -20.937  -7.638  -3.145  1.00  0.00     0.000 C 
BRANCH   4   5
HETATM    5  C   UNL     1     -21.445  -6.298  -2.635  1.00  0.00     0.000 C 
BRANCH   5   6
HETATM    6  C   UNL     1     -22.274  -6.489  -1.371  1.00  0.00     0.000 C 
BRANCH   6   7
HETATM    7  C   UNL     1     -22.245  -7.947  -0.930  1.00  0.00    -0.000 C 
BRANCH   7   8
HETATM    8  C   UNL     1     -22.522  -8.072   0.564  1.00  0.00    -0.005 C 
HETATM    9  C   UNL     1     -21.263  -8.459   1.318  1.00  0.00     0.005 C 
ENDBRANCH   7   8
ENDBRANCH   6   7
ENDBRANCH   5   6
ENDBRANCH   4   5
ENDBRANCH   3   4
ENDBRANCH   2   3
ENDBRANCH   1   2
BRANCH   1  10
HETATM   10  C   UNL     1     -19.978  -4.985  -6.110  1.00  0.00     0.000 C 
BRANCH  10  11
HETATM   11  C   UNL     1     -20.259  -4.318  -7.448  1.00  0.00     0.000 C 
BRANCH  11  12
HETATM   12  C   UNL     1     -21.519  -3.470  -7.362  1.00  0.00     0.000 C 
BRANCH  12  13
HETATM   13  C   UNL     1     -22.716  -4.242  -7.898  1.00  0.00     0.000 C 
BRANCH  13  14
HETATM   14  C   UNL     1     -22.542  -4.530  -9.385  1.00  0.00     0.002 C 
BRANCH  14  15
HETATM   15  C   UNL     1     -23.891  -4.717 -10.066  1.00  0.00     0.026 C 
BRANCH  15  16
HETATM   16  C   UNL     1     -24.531  -3.376 -10.387  1.00  0.00     0.164 C 
BRANCH  16  17
HETATM   17  O   UNL     1     -25.758  -3.249  -9.684  1.00  0.00    -0.401 OA
HETATM   18  H   UNL     1     -25.565  -2.819  -8.833  1.00  0.00     0.209 HD
ENDBRANCH  16  17
ENDBRANCH  15  16
ENDBRANCH  14  15
ENDBRANCH  13  14
ENDBRANCH  12  13
ENDBRANCH  11  12
ENDBRANCH  10  11
ENDBRANCH   1  10
TORSDOF 15
BEGIN_RES ARG D 557
REMARK  4 active torsions:
REMARK  status: ('A' for Active; 'I' for Inactive)
REMARK    1  A    between atoms: CA   and  CB  
REMARK    2  A    between atoms: CB   and  CG  
REMARK    3  A    between atoms: CG   and  CD  
REMARK    4  A    between atoms: CD   and  NE  
REMARK       I    between atoms: NE   and  CZ  
REMARK       I    between atoms: CZ   and  NH1 
REMARK       I    between atoms: CZ   and  NH2 
ROOT
ATOM      1  CA  ARG D 557     -26.217   2.705 -17.014  1.00 35.49     0.159 C 
ENDROOT
BRANCH   1   2
ATOM      2  CB  ARG D 557     -26.789   1.319 -17.183  1.00 35.49     0.034 C 
BRANCH   2   3
ATOM      3  CG  ARG D 557     -28.194   1.133 -16.802  1.00 35.49     0.027 C 
BRANCH   3   4
ATOM      4  CD  ARG D 557     -28.719  -0.190 -17.209  1.00 35.49     0.116 C 
BRANCH   4   5
ATOM      5  NE  ARG D 557     -27.989  -1.273 -16.604  1.00 35.49    -0.212 N 
ATOM      6  CZ  ARG D 557     -28.234  -2.553 -16.771  1.00 35.49     0.666 C 
ATOM      7  NH1 ARG D 557     -29.222  -2.993 -17.530  1.00 35.49    -0.235 N 
ATOM      8  NH2 ARG D 557     -27.456  -3.398 -16.161  1.00 35.49    -0.235 N 
ATOM      9  HH  ARG D 557     -29.745  -2.454 -17.943  1.00 35.49     0.174 HD
ATOM     10  HH  ARG D 557     -29.332  -3.839 -17.604  1.00 35.49     0.174 HD
ATOM     11  HH  ARG D 557     -26.822  -3.086 -15.684  1.00 35.49     0.174 HD
ATOM     12  HH  ARG D 557     -27.580  -4.232 -16.248  1.00 35.49     0.174 HD
ATOM     13  HE  ARG D 557     -27.381  -1.079 -16.042  1.00 35.49     0.178 HD
ENDBRANCH   4   5
ENDBRANCH   3   4
ENDBRANCH   2   3
ENDBRANCH   1   2
END_RES ARG D 557
BEGIN_RES GLU D 570
REMARK  3 active torsions:
REMARK  status: ('A' for Active; 'I' for Inactive)
REMARK    5  A    between atoms: CA   and  CB  
REMARK    6  A    between atoms: CB   and  CG  
REMARK    7  A    between atoms: CG   and  CD  
ROOT
ATOM     14  CA  GLU D 570     -18.033  -6.348 -13.375  1.00 32.92     0.160 C 
ENDROOT
BRANCH  14  15
ATOM     15  CB  GLU D 570     -19.500  -6.345 -13.794  1.00 32.92     0.043 C 
BRANCH  15  16
ATOM     16  CG  GLU D 570     -20.444  -5.539 -12.977  1.00 32.92     0.100 C 
BRANCH  16  17
ATOM     17  CD  GLU D 570     -21.650  -5.074 -13.758  1.00 32.92     0.185 C 
ATOM     18  OE1 GLU D 570     -21.767  -5.413 -14.951  1.00 32.92    -0.647 OA
ATOM     19  OE2 GLU D 570     -22.480  -4.348 -13.175  1.00 32.92    -0.647 OA
ENDBRANCH  16  17
ENDBRANCH  15  16
ENDBRANCH  14  15
END_RES GLU D 570
ENDMDL
MODEL 3
REMARK VINA RESULT:      -6.1      1.073      1.497
REMARK  15 active torsions:
REMARK  status: ('A' for Active; 'I' for Inactive)
REMARK    1  A    between atoms: C_2  and  C_3 
REMARK    2  A    between atoms: C_3  and  C_4 
REMARK    3  A    between atoms: C_4  and  C_5 
REMARK    4  A    between atoms: C_5  and  C_6 
REMARK    5  A    between atoms: C_6  and  C_7 
REMARK    6  A    between atoms: C_7  and  C_8 
REMARK    7  A    between atoms: C_8  and  C_9 
REMARK    8  A    between atoms: C_9  and  C_10 
REMARK    9  A    between atoms: C_10  and  C_11 
REMARK   10  A    between atoms: C_11  and  C_12 
REMARK   11  A    between atoms: C_12  and  C_13 
REMARK   12  A    between atoms: C_13  and  C_14 
REMARK   13  A    between atoms: C_14  and  C_15 
REMARK   14  A    between atoms: C_15  and  C_16 
REMARK   15  A    between atoms: C_16  and  O_17 
ROOT
HETATM    1  C   UNL     1     -20.932  -6.208  -6.156  1.00  0.00     0.000 C 
ENDROOT
BRANCH   1   2
HETATM    2  C   UNL     1     -21.843  -6.457  -4.965  1.00  0.00     0.000 C 
BRANCH   2   3
HETATM    3  C   UNL     1     -21.042  -6.412  -3.672  1.00  0.00     0.000 C 
BRANCH   3   4
HETATM    4  C   UNL     1     -21.977  -6.299  -2.477  1.00  0.00     0.000 C 
BRANCH   4   5
HETATM    5  C   UNL     1     -21.896  -7.554  -1.621  1.00  0.00     0.000 C 
BRANCH   5   6
HETATM    6  C   UNL     1     -22.345  -7.257  -0.197  1.00  0.00     0.000 C 
BRANCH   6   7
HETATM    7  C   UNL     1     -23.179  -8.410   0.350  1.00  0.00    -0.000 C 
BRANCH   7   8
HETATM    8  C   UNL     1     -22.882  -9.703  -0.399  1.00  0.00    -0.005 C 
HETATM    9  C   UNL     1     -23.964 -10.737  -0.144  1.00  0.00     0.005 C 
ENDBRANCH   7   8
ENDBRANCH   6   7
ENDBRANCH   5   6
ENDBRANCH   4   5
ENDBRANCH   3   4
ENDBRANCH   2   3
ENDBRANCH   1   2
BRANCH   1  10
HETATM   10  C   UNL     1     -20.177  -4.899  -5.979  1.00  0.00     0.000 C 
BRANCH  10  11
HETATM   11  C   UNL     1     -19.616  -4.429  -7.313  1.00  0.00     0.000 C 
BRANCH  11  12
HETATM   12  C   UNL     1     -20.308  -5.149  -8.460  1.00  0.00     0.000 C 
BRANCH  12  13
HETATM   13  C   UNL     1     -21.235  -4.197  -9.202  1.00  0.00     0.000 C 
BRANCH  13  14
HETATM   14  C   UNL     1     -22.683  -4.425  -8.779  1.00  0.00     0.002 C 
BRANCH  14  15
HETATM   15  C   UNL     1     -23.582  -4.616  -9.994  1.00  0.00     0.026 C 
BRANCH  15  16
HETATM   16  C   UNL     1     -24.502  -3.421 -10.184  1.00  0.00     0.164 C 
BRANCH  16  17
HETATM   17  O   UNL     1     -24.429  -2.968 -11.528  1.00  0.00    -0.401 OA
HETATM   18  H   UNL     1     -23.983  -3.659 -12.046  1.00  0.00     0.209 HD
ENDBRANCH  16  17
ENDBRANCH  15  16
ENDBRANCH  14  15
ENDBRANCH  13  14
ENDBRANCH  12  13
ENDBRANCH  11  12
ENDBRANCH  10  11
ENDBRANCH   1  10
TORSDOF 15
BEGIN_RES ARG D 557
REMARK  4 active torsions:
REMARK  status: ('A' for Active; 'I' for Inactive)
REMARK    1  A    between atoms: CA   and  CB  
REMARK    2  A    between atoms: CB   and  CG  
REMARK    3  A    between atoms: CG   and  CD  
REMARK    4  A    between atoms: CD   and  NE  
REMARK       I    between atoms: NE   and  CZ  
REMARK       I    between atoms: CZ   and  NH1 
REMARK       I    between atoms: CZ   and  NH2 
ROOT
ATOM      1  CA  ARG D 557     -26.217   2.705 -17.014  1.00 35.49     0.159 C 
ENDROOT
BRANCH   1   2
ATOM      2  CB  ARG D 557     -26.789   1.319 -17.183  1.00 35.49     0.034 C 
BRANCH   2   3
ATOM      3  CG  ARG D 557     -25.951   0.199 -16.737  1.00 35.49     0.027 C 
BRANCH   3   4
ATOM      4  CD  ARG D 557     -26.738  -0.866 -16.074  1.00 35.49     0.116 C 
BRANCH   4   5
ATOM      5  NE  ARG D 557     -25.933  -1.664 -15.189  1.00 35.49    -0.212 N 
ATOM      6  CZ  ARG D 557     -26.071  -2.954 -14.978  1.00 35.49     0.666 C 
ATOM      7  NH1 ARG D 557     -27.008  -3.673 -15.568  1.00 35.49    -0.235 N 
ATOM      8  NH2 ARG D 557     -25.236  -3.521 -14.156  1.00 35.49    -0.235 N 
ATOM      9  HH  ARG D 557     -27.567  -3.321 -16.114  1.00 35.49     0.174 HD
ATOM     10  HH  ARG D 557     -27.048  -4.511 -15.394  1.00 35.49     0.174 HD
ATOM     11  HH  ARG D 557     -24.637  -3.033 -13.794  1.00 35.49     0.174 HD
ATOM     12  HH  ARG D 557     -25.292  -4.352 -13.997  1.00 35.49     0.174 HD
ATOM     13  HE  ARG D 557     -25.351  -1.268 -14.712  1.00 35.49     0.178 HD
ENDBRANCH   4   5
ENDBRANCH   3   4
ENDBRANCH   2   3
ENDBRANCH   1   2
END_RES ARG D 557
BEGIN_RES GLU D 570
REMARK  3 active torsions:
REMARK  status: ('A' for Active; 'I' for Inactive)
REMARK    5  A    between atoms: CA   and  CB  
REMARK    6  A    between atoms: CB   and  CG  
REMARK    7  A    between atoms: CG   and  CD  
ROOT
ATOM     14  CA  GLU D 570     -18.033  -6.348 -13.375  1.00 32.92     0.160 C 
ENDROOT
BRANCH  14  15
ATOM     15  CB  GLU D 570     -19.500  -6.345 -13.794  1.00 32.92     0.043 C 
BRANCH  15  16
ATOM     16  CG  GLU D 570     -20.454  -5.591 -12.940  1.00 32.92     0.100 C 
BRANCH  16  17
ATOM     17  CD  GLU D 570     -21.731  -5.229 -13.662  1.00 32.92     0.185 C 
ATOM     18  OE1 GLU D 570     -22.150  -5.978 -14.565  1.00 32.92    -0.647 OA
ATOM     19  OE2 GLU D 570     -22.310  -4.175 -13.332  1.00 32.92    -0.647 OA
ENDBRANCH  16  17
ENDBRANCH  15  16
ENDBRANCH  14  15
END_RES GLU D 570
ENDMDL
MODEL 4
REMARK VINA RESULT:      -6.0      1.993      2.645
REMARK  15 active torsions:
REMARK  status: ('A' for Active; 'I' for Inactive)
REMARK    1  A    between atoms: C_2  and  C_3 
REMARK    2  A    between atoms: C_3  and  C_4 
REMARK    3  A    between atoms: C_4  and  C_5 
REMARK    4  A    between atoms: C_5  and  C_6 
REMARK    5  A    between atoms: C_6  and  C_7 
REMARK    6  A    between atoms: C_7  and  C_8 
REMARK    7  A    between atoms: C_8  and  C_9 
REMARK    8  A    between atoms: C_9  and  C_10 
REMARK    9  A    between atoms: C_10  and  C_11 
REMARK   10  A    between atoms: C_11  and  C_12 
REMARK   11  A    between atoms: C_12  and  C_13 
REMARK   12  A    between atoms: C_13  and  C_14 
REMARK   13  A    between atoms: C_14  and  C_15 
REMARK   14  A    between atoms: C_15  and  C_16 
REMARK   15  A    between atoms: C_16  and  O_17 
ROOT
HETATM    1  C   UNL     1     -20.610  -4.270  -7.629  1.00  0.00     0.000 C 
ENDROOT
BRANCH   1   2
HETATM    2  C   UNL     1     -19.738  -4.747  -6.480  1.00  0.00     0.000 C 
BRANCH   2   3
HETATM    3  C   UNL     1     -20.600  -5.112  -5.281  1.00  0.00     0.000 C 
BRANCH   3   4
HETATM    4  C   UNL     1     -21.180  -6.507  -5.453  1.00  0.00     0.000 C 
BRANCH   4   5
HETATM    5  C   UNL     1     -21.840  -6.969  -4.163  1.00  0.00     0.000 C 
BRANCH   5   6
HETATM    6  C   UNL     1     -21.356  -6.132  -2.986  1.00  0.00     0.000 C 
BRANCH   6   7
HETATM    7  C   UNL     1     -22.265  -6.332  -1.780  1.00  0.00    -0.000 C 
BRANCH   7   8
HETATM    8  C   UNL     1     -21.784  -7.494  -0.919  1.00  0.00    -0.005 C 
HETATM    9  C   UNL     1     -22.836  -7.883   0.103  1.00  0.00     0.005 C 
ENDBRANCH   7   8
ENDBRANCH   6   7
ENDBRANCH   5   6
ENDBRANCH   4   5
ENDBRANCH   3   4
ENDBRANCH   2   3
ENDBRANCH   1   2
BRANCH   1  10
HETATM   10  C   UNL     1     -19.955  -4.599  -8.961  1.00  0.00     0.000 C 
BRANCH  10  11
HETATM   11  C   UNL     1     -20.978  -4.527 -10.085  1.00  0.00     0.000 C 
BRANCH  11  12
HETATM   12  C   UNL     1     -20.596  -3.440 -11.078  1.00  0.00     0.000 C 
BRANCH  12  13
HETATM   13  C   UNL     1     -21.843  -2.811 -11.682  1.00  0.00     0.000 C 
BRANCH  13  14
HETATM   14  C   UNL     1     -22.934  -3.861 -11.865  1.00  0.00     0.002 C 
BRANCH  14  15
HETATM   15  C   UNL     1     -24.299  -3.302 -11.483  1.00  0.00     0.026 C 
BRANCH  15  16
HETATM   16  C   UNL     1     -24.535  -3.415  -9.986  1.00  0.00     0.164 C 
BRANCH  16  17
HETATM   17  O   UNL     1     -25.915  -3.236  -9.703  1.00  0.00    -0.401 OA
HETATM   18  H   UNL     1     -26.063  -3.507  -8.780  1.00  0.00     0.209 HD
ENDBRANCH  16  17
ENDBRANCH  15  16
ENDBRANCH  14  15
ENDBRANCH  13  14
ENDBRANCH  12  13
ENDBRANCH  11  12
ENDBRANCH  10  11
ENDBRANCH   1  10
TORSDOF 15
BEGIN_RES ARG D 557
REMARK  4 active torsions:
REMARK  status: ('A' for Active; 'I' for Inactive)
REMARK    1  A    between atoms: CA   and  CB  
REMARK    2  A    between atoms: CB   and  CG  
REMARK    3  A    between atoms: CG   and  CD  
REMARK    4  A    between atoms: CD   and  NE  
REMARK       I    between atoms: NE   and  CZ  
REMARK       I    between atoms: CZ   and  NH1 
REMARK       I    between atoms: CZ   and  NH2 
ROOT
ATOM      1  CA  ARG D 557     -26.217   2.705 -17.014  1.00 35.49     0.159 C 
ENDROOT
BRANCH   1   2
ATOM      2  CB  ARG D 557     -26.789   1.319 -17.183  1.00 35.49     0.034 C 
BRANCH   2   3
ATOM      3  CG  ARG D 557     -25.954   0.200 -16.729  1.00 35.49     0.027 C 
BRANCH   3   4
ATOM      4  CD  ARG D 557     -26.742  -0.850 -16.045  1.00 35.49     0.116 C 
BRANCH   4   5
ATOM      5  NE  ARG D 557     -27.958  -1.162 -16.749  1.00 35.49    -0.212 N 
ATOM      6  CZ  ARG D 557     -28.454  -2.365 -16.930  1.00 35.49     0.666 C 
ATOM      7  NH1 ARG D 557     -27.858  -3.453 -16.479  1.00 35.49    -0.235 N 
ATOM      8  NH2 ARG D 557     -29.580  -2.459 -17.575  1.00 35.49    -0.235 N 
ATOM      9  HH  ARG D 557     -27.117  -3.415 -16.050  1.00 35.49     0.174 HD
ATOM     10  HH  ARG D 557     -28.230  -4.211 -16.624  1.00 35.49     0.174 HD
ATOM     11  HH  ARG D 557     -29.947  -1.739 -17.849  1.00 35.49     0.174 HD
ATOM     12  HH  ARG D 557     -29.934  -3.219 -17.708  1.00 35.49     0.174 HD
ATOM     13  HE  ARG D 557     -28.370  -0.526 -17.136  1.00 35.49     0.178 HD
ENDBRANCH   4   5
ENDBRANCH   3   4
ENDBRANCH   2   3
ENDBRANCH   1   2
END_RES ARG D 557
BEGIN_RES GLU D 570
REMARK  3 active torsions:
REMARK  status: ('A' for Active; 'I' for Inactive)
REMARK    5  A    between atoms: CA   and  CB  
REMARK    6  A    between atoms: CB   and  CG  
REMARK    7  A    between atoms: CG   and  CD  
ROOT
ATOM     14  CA  GLU D 570     -18.033  -6.348 -13.375  1.00 32.92     0.160 C 
ENDROOT
BRANCH  14  15
ATOM     15  CB  GLU D 570     -19.500  -6.345 -13.794  1.00 32.92     0.043 C 
BRANCH  15  16
ATOM     16  CG  GLU D 570     -19.797  -6.218 -15.244  1.00 32.92     0.100 C 
BRANCH  16  17
ATOM     17  CD  GLU D 570     -21.259  -5.959 -15.526  1.00 32.92     0.185 C 
ATOM     18  OE1 GLU D 570     -21.578  -4.963 -16.203  1.00 32.92    -0.647 OA
ATOM     19  OE2 GLU D 570     -22.096  -6.752 -15.049  1.00 32.92    -0.647 OA
ENDBRANCH  16  17
ENDBRANCH  15  16
ENDBRANCH  14  15
END_RES GLU D 570
ENDMDL
MODEL 5
REMARK VINA RESULT:      -6.0      2.128      2.823
REMARK  15 active torsions:
REMARK  status: ('A' for Active; 'I' for Inactive)
REMARK    1  A    between atoms: C_2  and  C_3 
REMARK    2  A    between atoms: C_3  and  C_4 
REMARK    3  A    between atoms: C_4  and  C_5 
REMARK    4  A    between atoms: C_5  and  C_6 
REMARK    5  A    between atoms: C_6  and  C_7 
REMARK    6  A    between atoms: C_7  and  C_8 
REMARK    7  A    between atoms: C_8  and  C_9 
REMARK    8  A    between atoms: C_9  and  C_10 
REMARK    9  A    between atoms: C_10  and  C_11 
REMARK   10  A    between atoms: C_11  and  C_12 
REMARK   11  A    between atoms: C_12  and  C_13 
REMARK   12  A    between atoms: C_13  and  C_14 
REMARK   13  A    between atoms: C_14  and  C_15 
REMARK   14  A    between atoms: C_15  and  C_16 
REMARK   15  A    between atoms: C_16  and  O_17 
ROOT
HETATM    1  C   UNL     1     -21.658  -5.903  -5.745  1.00  0.00     0.000 C 
ENDROOT
BRANCH   1   2
HETATM    2  C   UNL     1     -21.548  -6.922  -4.623  1.00  0.00     0.000 C 
BRANCH   2   3
HETATM    3  C   UNL     1     -21.600  -6.226  -3.272  1.00  0.00     0.000 C 
BRANCH   3   4
HETATM    4  C   UNL     1     -21.477  -7.245  -2.149  1.00  0.00     0.000 C 
BRANCH   4   5
HETATM    5  C   UNL     1     -22.341  -6.835  -0.966  1.00  0.00     0.000 C 
BRANCH   5   6
HETATM    6  C   UNL     1     -22.707  -8.052  -0.126  1.00  0.00     0.000 C 
BRANCH   6   7
HETATM    7  C   UNL     1     -21.980  -8.013   1.213  1.00  0.00    -0.000 C 
BRANCH   7   8
HETATM    8  C   UNL     1     -20.911  -9.097   1.287  1.00  0.00    -0.005 C 
HETATM    9  C   UNL     1     -21.321 -10.317   0.482  1.00  0.00     0.005 C 
ENDBRANCH   7   8
ENDBRANCH   6   7
ENDBRANCH   5   6
ENDBRANCH   4   5
ENDBRANCH   3   4
ENDBRANCH   2   3
ENDBRANCH   1   2
BRANCH   1  10
HETATM   10  C   UNL     1     -20.468  -4.955  -5.715  1.00  0.00     0.000 C 
BRANCH  10  11
HETATM   11  C   UNL     1     -20.301  -4.277  -7.067  1.00  0.00     0.000 C 
BRANCH  11  12
HETATM   12  C   UNL     1     -21.628  -3.700  -7.537  1.00  0.00     0.000 C 
BRANCH  12  13
HETATM   13  C   UNL     1     -21.859  -4.029  -9.004  1.00  0.00     0.000 C 
BRANCH  13  14
HETATM   14  C   UNL     1     -20.551  -4.443  -9.670  1.00  0.00     0.002 C 
BRANCH  14  15
HETATM   15  C   UNL     1     -20.420  -3.816 -11.052  1.00  0.00     0.026 C 
BRANCH  15  16
HETATM   16  C   UNL     1     -21.728  -3.174 -11.486  1.00  0.00     0.164 C 
BRANCH  16  17
HETATM   17  O   UNL     1     -21.901  -3.338 -12.886  1.00  0.00    -0.401 OA
HETATM   18  H   UNL     1     -21.139  -2.923 -13.326  1.00  0.00     0.209 HD
ENDBRANCH  16  17
ENDBRANCH  15  16
ENDBRANCH  14  15
ENDBRANCH  13  14
ENDBRANCH  12  13
ENDBRANCH  11  12
ENDBRANCH  10  11
ENDBRANCH   1  10
TORSDOF 15
BEGIN_RES ARG D 557
REMARK  4 active torsions:
REMARK  status: ('A' for Active; 'I' for Inactive)
REMARK    1  A    between atoms: CA   and  CB  
REMARK    2  A    between atoms: CB   and  CG  
REMARK    3  A    between atoms: CG   and  CD  
REMARK    4  A    between atoms: CD   and  NE  
REMARK       I    between atoms: NE   and  CZ  
REMARK       I    between atoms: CZ   and  NH1 
REMARK       I    between atoms: CZ   and  NH2 
ROOT
ATOM      1  CA  ARG D 557     -26.217   2.705 -17.014  1.00 35.49     0.159 C 
ENDROOT
BRANCH   1   2
ATOM      2  CB  ARG D 557     -26.789   1.319 -17.183  1.00 35.49     0.034 C 
BRANCH   2   3
ATOM      3  CG  ARG D 557     -28.231   1.226 -17.441  1.00 35.49     0.027 C 
BRANCH   3   4
ATOM      4  CD  ARG D 557     -28.914   0.308 -16.501  1.00 35.49     0.116 C 
BRANCH   4   5
ATOM      5  NE  ARG D 557     -29.304  -0.924 -17.135  1.00 35.49    -0.212 N 
ATOM      6  CZ  ARG D 557     -28.671  -2.072 -17.038  1.00 35.49     0.666 C 
ATOM      7  NH1 ARG D 557     -27.562  -2.213 -16.334  1.00 35.49    -0.235 N 
ATOM      8  NH2 ARG D 557     -29.180  -3.093 -17.663  1.00 35.49    -0.235 N 
ATOM      9  HH  ARG D 557     -27.211  -1.554 -15.913  1.00 35.49     0.174 HD
ATOM     10  HH  ARG D 557     -27.194  -2.986 -16.305  1.00 35.49     0.174 HD
ATOM     11  HH  ARG D 557     -29.900  -2.974 -18.104  1.00 35.49     0.174 HD
ATOM     12  HH  ARG D 557     -28.801  -3.851 -17.621  1.00 35.49     0.174 HD
ATOM     13  HE  ARG D 557     -29.968  -0.908 -17.666  1.00 35.49     0.178 HD
ENDBRANCH   4   5
ENDBRANCH   3   4
ENDBRANCH   2   3
ENDBRANCH   1   2
END_RES ARG D 557
BEGIN_RES GLU D 570
REMARK  3 active torsions:
REMARK  status: ('A' for Active; 'I' for Inactive)
REMARK    5  A    between atoms: CA   and  CB  
REMARK    6  A    between atoms: CB   and  CG  
REMARK    7  A    between atoms: CG   and  CD  
ROOT
ATOM     14  CA  GLU D 570     -18.033  -6.348 -13.375  1.00 32.92     0.160 C 
ENDROOT
BRANCH  14  15
ATOM     15  CB  GLU D 570     -19.500  -6.345 -13.794  1.00 32.92     0.043 C 
BRANCH  15  16
ATOM     16  CG  GLU D 570     -19.818  -5.883 -15.170  1.00 32.92     0.100 C 
BRANCH  16  17
ATOM     17  CD  GLU D 570     -21.299  -5.689 -15.399  1.00 32.92     0.185 C 
ATOM     18  OE1 GLU D 570     -21.725  -4.550 -15.670  1.00 32.92    -0.647 OA
ATOM     19  OE2 GLU D 570     -22.043  -6.683 -15.289  1.00 32.92    -0.647 OA
ENDBRANCH  16  17
ENDBRANCH  15  16
ENDBRANCH  14  15
END_RES GLU D 570
ENDMDL
MODEL 6
REMARK VINA RESULT:      -5.9      1.642      2.881
REMARK  15 active torsions:
REMARK  status: ('A' for Active; 'I' for Inactive)
REMARK    1  A    between atoms: C_2  and  C_3 
REMARK    2  A    between atoms: C_3  and  C_4 
REMARK    3  A    between atoms: C_4  and  C_5 
REMARK    4  A    between atoms: C_5  and  C_6 
REMARK    5  A    between atoms: C_6  and  C_7 
REMARK    6  A    between atoms: C_7  and  C_8 
REMARK    7  A    between atoms: C_8  and  C_9 
REMARK    8  A    between atoms: C_9  and  C_10 
REMARK    9  A    between atoms: C_10  and  C_11 
REMARK   10  A    between atoms: C_11  and  C_12 
REMARK   11  A    between atoms: C_12  and  C_13 
REMARK   12  A    between atoms: C_13  and  C_14 
REMARK   13  A    between atoms: C_14  and  C_15 
REMARK   14  A    between atoms: C_15  and  C_16 
REMARK   15  A    between atoms: C_16  and  O_17 
ROOT
HETATM    1  C   UNL     1     -21.230  -6.650  -3.041  1.00  0.00     0.000 C 
ENDROOT
BRANCH   1   2
HETATM    2  C   UNL     1     -22.172  -6.126  -1.969  1.00  0.00     0.000 C 
BRANCH   2   3
HETATM    3  C   UNL     1     -22.287  -7.131  -0.833  1.00  0.00     0.000 C 
BRANCH   3   4
HETATM    4  C   UNL     1     -21.331  -8.292  -1.057  1.00  0.00     0.000 C 
BRANCH   4   5
HETATM    5  C   UNL     1     -22.065  -9.617  -0.916  1.00  0.00     0.000 C 
BRANCH   5   6
HETATM    6  C   UNL     1     -23.182  -9.502   0.112  1.00  0.00     0.000 C 
BRANCH   6   7
HETATM    7  C   UNL     1     -24.160 -10.661  -0.030  1.00  0.00    -0.000 C 
BRANCH   7   8
HETATM    8  C   UNL     1     -23.856 -11.483  -1.277  1.00  0.00    -0.005 C 
HETATM    9  C   UNL     1     -23.893 -12.969  -0.969  1.00  0.00     0.005 C 
ENDBRANCH   7   8
ENDBRANCH   6   7
ENDBRANCH   5   6
ENDBRANCH   4   5
ENDBRANCH   3   4
ENDBRANCH   2   3
ENDBRANCH   1   2
BRANCH   1  10
HETATM   10  C   UNL     1     -21.816  -6.406  -4.423  1.00  0.00     0.000 C 
BRANCH  10  11
HETATM   11  C   UNL     1     -20.946  -7.058  -5.487  1.00  0.00     0.000 C 
BRANCH  11  12
HETATM   12  C   UNL     1     -20.857  -6.166  -6.716  1.00  0.00     0.000 C 
BRANCH  12  13
HETATM   13  C   UNL     1     -20.624  -4.719  -6.306  1.00  0.00     0.000 C 
BRANCH  13  14
HETATM   14  C   UNL     1     -20.704  -3.802  -7.522  1.00  0.00     0.002 C 
BRANCH  14  15
HETATM   15  C   UNL     1     -22.020  -3.993  -8.264  1.00  0.00     0.026 C 
BRANCH  15  16
HETATM   16  C   UNL     1     -21.791  -4.090  -9.764  1.00  0.00     0.164 C 
BRANCH  16  17
HETATM   17  O   UNL     1     -22.907  -4.718 -10.380  1.00  0.00    -0.401 OA
HETATM   18  H   UNL     1     -23.116  -5.515  -9.863  1.00  0.00     0.209 HD
ENDBRANCH  16  17
ENDBRANCH  15  16
ENDBRANCH  14  15
ENDBRANCH  13  14
ENDBRANCH  12  13
ENDBRANCH  11  12
ENDBRANCH  10  11
ENDBRANCH   1  10
TORSDOF 15
BEGIN_RES ARG D 557
REMARK  4 active torsions:
REMARK  status: ('A' for Active; 'I' for Inactive)
REMARK    1  A    between atoms: CA   and  CB  
REMARK    2  A    between atoms: CB   and  CG  
REMARK    3  A    between atoms: CG   and  CD  
REMARK    4  A    between atoms: CD   and  NE  
REMARK       I    between atoms: NE   and  CZ  
REMARK       I    between atoms: CZ   and  NH1 
REMARK       I    between atoms: CZ   and  NH2 
ROOT
ATOM      1  CA  ARG D 557     -26.217   2.705 -17.014  1.00 35.49     0.159 C 
ENDROOT
BRANCH   1   2
ATOM      2  CB  ARG D 557     -26.789   1.319 -17.183  1.00 35.49     0.034 C 
BRANCH   2   3
ATOM      3  CG  ARG D 557     -25.837   0.202 -17.146  1.00 35.49     0.027 C 
BRANCH   3   4
ATOM      4  CD  ARG D 557     -24.762   0.409 -16.149  1.00 35.49     0.116 C 
BRANCH   4   5
ATOM      5  NE  ARG D 557     -24.912  -0.450 -15.004  1.00 35.49    -0.212 N 
ATOM      6  CZ  ARG D 557     -24.094  -1.419 -14.659  1.00 35.49     0.666 C 
ATOM      7  NH1 ARG D 557     -23.018  -1.722 -15.361  1.00 35.49    -0.235 N 
ATOM      8  NH2 ARG D 557     -24.374  -2.084 -13.576  1.00 35.49    -0.235 N 
ATOM      9  HH  ARG D 557     -22.813  -1.296 -16.075  1.00 35.49     0.174 HD
ATOM     10  HH  ARG D 557     -22.519  -2.363 -15.085  1.00 35.49     0.174 HD
ATOM     11  HH  ARG D 557     -25.072  -1.861 -13.138  1.00 35.49     0.174 HD
ATOM     12  HH  ARG D 557     -23.868  -2.713 -13.319  1.00 35.49     0.174 HD
ATOM     13  HE  ARG D 557     -25.618  -0.372 -14.536  1.00 35.49     0.178 HD
ENDBRANCH   4   5
ENDBRANCH   3   4
ENDBRANCH   2   3
ENDBRANCH   1   2
END_RES ARG D 557
BEGIN_RES GLU D 570
REMARK  3 active torsions:
REMARK  status: ('A' for Active; 'I' for Inactive)
REMARK    5  A    between atoms: CA   and  CB  
REMARK    6  A    between atoms: CB   and  CG  
REMARK    7  A    between atoms: CG   and  CD  
ROOT
ATOM     14  CA  GLU D 570     -18.033  -6.348 -13.375  1.00 32.92     0.160 C 
ENDROOT
BRANCH  14  15
ATOM     15  CB  GLU D 570     -19.500  -6.345 -13.794  1.00 32.92     0.043 C 
BRANCH  15  16
ATOM     16  CG  GLU D 570     -20.448  -5.558 -12.963  1.00 32.92     0.100 C 
BRANCH  16  17
ATOM     17  CD  GLU D 570     -21.707  -5.178 -13.706  1.00 32.92     0.185 C 
ATOM     18  OE1 GLU D 570     -22.085  -5.885 -14.659  1.00 32.92    -0.647 OA
ATOM     19  OE2 GLU D 570     -22.313  -4.151 -13.341  1.00 32.92    -0.647 OA
ENDBRANCH  16  17
ENDBRANCH  15  16
ENDBRANCH  14  15
END_RES GLU D 570
ENDMDL
MODEL 7
REMARK VINA RESULT:      -5.9      2.706      6.765
REMARK  15 active torsions:
REMARK  status: ('A' for Active; 'I' for Inactive)
REMARK    1  A    between atoms: C_2  and  C_3 
REMARK    2  A    between atoms: C_3  and  C_4 
REMARK    3  A    between atoms: C_4  and  C_5 
REMARK    4  A    between atoms: C_5  and  C_6 
REMARK    5  A    between atoms: C_6  and  C_7 
REMARK    6  A    between atoms: C_7  and  C_8 
REMARK    7  A    between atoms: C_8  and  C_9 
REMARK    8  A    between atoms: C_9  and  C_10 
REMARK    9  A    between atoms: C_10  and  C_11 
REMARK   10  A    between atoms: C_11  and  C_12 
REMARK   11  A    between atoms: C_12  and  C_13 
REMARK   12  A    between atoms: C_13  and  C_14 
REMARK   13  A    between atoms: C_14  and  C_15 
REMARK   14  A    between atoms: C_15  and  C_16 
REMARK   15  A    between atoms: C_16  and  O_17 
ROOT
HETATM    1  C   UNL     1     -22.080  -6.421  -5.072  1.00  0.00     0.000 C 
ENDROOT
BRANCH   1   2
HETATM    2  C   UNL     1     -21.617  -5.381  -6.079  1.00  0.00     0.000 C 
BRANCH   2   3
HETATM    3  C   UNL     1     -20.161  -5.019  -5.830  1.00  0.00     0.000 C 
BRANCH   3   4
HETATM    4  C   UNL     1     -19.456  -4.735  -7.148  1.00  0.00     0.000 C 
BRANCH   4   5
HETATM    5  C   UNL     1     -20.312  -5.199  -8.317  1.00  0.00     0.000 C 
BRANCH   5   6
HETATM    6  C   UNL     1     -20.164  -4.248  -9.497  1.00  0.00     0.000 C 
BRANCH   6   7
HETATM    7  C   UNL     1     -21.531  -3.769  -9.970  1.00  0.00    -0.000 C 
BRANCH   7   8
HETATM    8  C   UNL     1     -22.627  -4.743  -9.553  1.00  0.00    -0.005 C 
HETATM    9  C   UNL     1     -23.815  -4.002  -8.967  1.00  0.00     0.005 C 
ENDBRANCH   7   8
ENDBRANCH   6   7
ENDBRANCH   5   6
ENDBRANCH   4   5
ENDBRANCH   3   4
ENDBRANCH   2   3
ENDBRANCH   1   2
BRANCH   1  10
HETATM   10  C   UNL     1     -20.882  -7.064  -4.389  1.00  0.00     0.000 C 
BRANCH  10  11
HETATM   11  C   UNL     1     -21.240  -7.467  -2.966  1.00  0.00     0.000 C 
BRANCH  11  12
HETATM   12  C   UNL     1     -21.980  -6.337  -2.267  1.00  0.00     0.000 C 
BRANCH  12  13
HETATM   13  C   UNL     1     -22.288  -6.717  -0.825  1.00  0.00     0.000 C 
BRANCH  13  14
HETATM   14  C   UNL     1     -22.183  -8.227  -0.638  1.00  0.00     0.002 C 
BRANCH  14  15
HETATM   15  C   UNL     1     -21.611  -8.568   0.732  1.00  0.00     0.026 C 
BRANCH  15  16
HETATM   16  C   UNL     1     -21.063  -9.986   0.756  1.00  0.00     0.164 C 
BRANCH  16  17
HETATM   17  O   UNL     1     -20.420 -10.273  -0.478  1.00  0.00    -0.401 OA
HETATM   18  H   UNL     1     -20.802  -9.684  -1.151  1.00  0.00     0.209 HD
ENDBRANCH  16  17
ENDBRANCH  15  16
ENDBRANCH  14  15
ENDBRANCH  13  14
ENDBRANCH  12  13
ENDBRANCH  11  12
ENDBRANCH  10  11
ENDBRANCH   1  10
TORSDOF 15
BEGIN_RES ARG D 557
REMARK  4 active torsions:
REMARK  status: ('A' for Active; 'I' for Inactive)
REMARK    1  A    between atoms: CA   and  CB  
REMARK    2  A    between atoms: CB   and  CG  
REMARK    3  A    between atoms: CG   and  CD  
REMARK    4  A    between atoms: CD   and  NE  
REMARK       I    between atoms: NE   and  CZ  
REMARK       I    between atoms: CZ   and  NH1 
REMARK       I    between atoms: CZ   and  NH2 
ROOT
ATOM      1  CA  ARG D 557     -26.217   2.705 -17.014  1.00 35.49     0.159 C 
ENDROOT
BRANCH   1   2
ATOM      2  CB  ARG D 557     -26.789   1.319 -17.183  1.00 35.49     0.034 C 
BRANCH   2   3
ATOM      3  CG  ARG D 557     -25.862   0.195 -17.002  1.00 35.49     0.027 C 
BRANCH   3   4
ATOM      4  CD  ARG D 557     -26.275  -0.705 -15.901  1.00 35.49     0.116 C 
BRANCH   4   5
ATOM      5  NE  ARG D 557     -25.219  -0.915 -14.946  1.00 35.49    -0.212 N 
ATOM      6  CZ  ARG D 557     -24.935  -2.052 -14.353  1.00 35.49     0.666 C 
ATOM      7  NH1 ARG D 557     -25.624  -3.157 -14.570  1.00 35.49    -0.235 N 
ATOM      8  NH2 ARG D 557     -23.927  -2.064 -13.530  1.00 35.49    -0.235 N 
ATOM      9  HH  ARG D 557     -26.290  -3.173 -15.109  1.00 35.49     0.174 HD
ATOM     10  HH  ARG D 557     -25.391  -3.870 -14.156  1.00 35.49     0.174 HD
ATOM     11  HH  ARG D 557     -23.495  -1.338 -13.415  1.00 35.49     0.174 HD
ATOM     12  HH  ARG D 557     -23.710  -2.781 -13.131  1.00 35.49     0.174 HD
ATOM     13  HE  ARG D 557     -24.770  -0.238 -14.693  1.00 35.49     0.178 HD
ENDBRANCH   4   5
ENDBRANCH   3   4
ENDBRANCH   2   3
ENDBRANCH   1   2
END_RES ARG D 557
BEGIN_RES GLU D 570
REMARK  3 active torsions:
REMARK  status: ('A' for Active; 'I' for Inactive)
REMARK    5  A    between atoms: CA   and  CB  
REMARK    6  A    between atoms: CB   and  CG  
REMARK    7  A    between atoms: CG   and  CD  
ROOT
ATOM     14  CA  GLU D 570     -18.033  -6.348 -13.375  1.00 32.92     0.160 C 
ENDROOT
BRANCH  14  15
ATOM     15  CB  GLU D 570     -19.500  -6.345 -13.794  1.00 32.92     0.043 C 
BRANCH  15  16
ATOM     16  CG  GLU D 570     -20.439  -5.516 -12.995  1.00 32.92     0.100 C 
BRANCH  16  17
ATOM     17  CD  GLU D 570     -21.684  -5.133 -13.759  1.00 32.92     0.185 C 
ATOM     18  OE1 GLU D 570     -21.619  -5.001 -14.996  1.00 32.92    -0.647 OA
ATOM     19  OE2 GLU D 570     -22.733  -4.946 -13.112  1.00 32.92    -0.647 OA
ENDBRANCH  16  17
ENDBRANCH  15  16
ENDBRANCH  14  15
END_RES GLU D 570
ENDMDL
MODEL 8
REMARK VINA RESULT:      -5.8      1.287      2.043
REMARK  15 active torsions:
REMARK  status: ('A' for Active; 'I' for Inactive)
REMARK    1  A    between atoms: C_2  and  C_3 
REMARK    2  A    between atoms: C_3  and  C_4 
REMARK    3  A    between atoms: C_4  and  C_5 
REMARK    4  A    between atoms: C_5  and  C_6 
REMARK    5  A    between atoms: C_6  and  C_7 
REMARK    6  A    between atoms: C_7  and  C_8 
REMARK    7  A    between atoms: C_8  and  C_9 
REMARK    8  A    between atoms: C_9  and  C_10 
REMARK    9  A    between atoms: C_10  and  C_11 
REMARK   10  A    between atoms: C_11  and  C_12 
REMARK   11  A    between atoms: C_12  and  C_13 
REMARK   12  A    between atoms: C_13  and  C_14 
REMARK   13  A    between atoms: C_14  and  C_15 
REMARK   14  A    between atoms: C_15  and  C_16 
REMARK   15  A    between atoms: C_16  and  O_17 
ROOT
HETATM    1  C   UNL     1     -20.714  -7.002  -5.847  1.00  0.00     0.000 C 
ENDROOT
BRANCH   1   2
HETATM    2  C   UNL     1     -21.691  -7.984  -5.222  1.00  0.00     0.000 C 
BRANCH   2   3
HETATM    3  C   UNL     1     -20.938  -9.121  -4.549  1.00  0.00     0.000 C 
BRANCH   3   4
HETATM    4  C   UNL     1     -19.697  -8.589  -3.848  1.00  0.00     0.000 C 
BRANCH   4   5
HETATM    5  C   UNL     1     -19.717  -8.968  -2.375  1.00  0.00     0.000 C 
BRANCH   5   6
HETATM    6  C   UNL     1     -21.142  -8.944  -1.837  1.00  0.00     0.000 C 
BRANCH   6   7
HETATM    7  C   UNL     1     -21.239  -8.026  -0.625  1.00  0.00    -0.000 C 
BRANCH   7   8
HETATM    8  C   UNL     1     -22.380  -7.027  -0.785  1.00  0.00    -0.005 C 
HETATM    9  C   UNL     1     -22.168  -6.157  -2.011  1.00  0.00     0.005 C 
ENDBRANCH   7   8
ENDBRANCH   6   7
ENDBRANCH   5   6
ENDBRANCH   4   5
ENDBRANCH   3   4
ENDBRANCH   2   3
ENDBRANCH   1   2
BRANCH   1  10
HETATM   10  C   UNL     1     -21.150  -5.573  -5.566  1.00  0.00     0.000 C 
BRANCH  10  11
HETATM   11  C   UNL     1     -19.975  -4.621  -5.729  1.00  0.00     0.000 C 
BRANCH  11  12
HETATM   12  C   UNL     1     -19.323  -4.816  -7.090  1.00  0.00     0.000 C 
BRANCH  12  13
HETATM   13  C   UNL     1     -19.961  -3.897  -8.121  1.00  0.00     0.000 C 
BRANCH  13  14
HETATM   14  C   UNL     1     -20.474  -4.704  -9.309  1.00  0.00     0.002 C 
BRANCH  14  15
HETATM   15  C   UNL     1     -21.955  -4.440  -9.549  1.00  0.00     0.026 C 
BRANCH  15  16
HETATM   16  C   UNL     1     -22.550  -3.608  -8.425  1.00  0.00     0.164 C 
BRANCH  16  17
HETATM   17  O   UNL     1     -23.885  -4.024  -8.176  1.00  0.00    -0.401 OA
HETATM   18  H   UNL     1     -24.477  -3.343  -8.540  1.00  0.00     0.209 HD
ENDBRANCH  16  17
ENDBRANCH  15  16
ENDBRANCH  14  15
ENDBRANCH  13  14
ENDBRANCH  12  13
ENDBRANCH  11  12
ENDBRANCH  10  11
ENDBRANCH   1  10
TORSDOF 15
BEGIN_RES ARG D 557
REMARK  4 active torsions:
REMARK  status: ('A' for Active; 'I' for Inactive)
REMARK    1  A    between atoms: CA   and  CB  
REMARK    2  A    between atoms: CB   and  CG  
REMARK    3  A    between atoms: CG   and  CD  
REMARK    4  A    between atoms: CD   and  NE  
REMARK       I    between atoms: NE   and  CZ  
REMARK       I    between atoms: CZ   and  NH1 
REMARK       I    between atoms: CZ   and  NH2 
ROOT
ATOM      1  CA  ARG D 557     -26.217   2.705 -17.014  1.00 35.49     0.159 C 
ENDROOT
BRANCH   1   2
ATOM      2  CB  ARG D 557     -26.789   1.319 -17.183  1.00 35.49     0.034 C 
BRANCH   2   3
ATOM      3  CG  ARG D 557     -25.934   0.197 -16.777  1.00 35.49     0.027 C 
BRANCH   3   4
ATOM      4  CD  ARG D 557     -26.687  -0.856 -16.058  1.00 35.49     0.116 C 
BRANCH   4   5
ATOM      5  NE  ARG D 557     -25.865  -1.559 -15.109  1.00 35.49    -0.212 N 
ATOM      6  CZ  ARG D 557     -25.946  -2.839 -14.824  1.00 35.49     0.666 C 
ATOM      7  NH1 ARG D 557     -26.831  -3.638 -15.390  1.00 35.49    -0.235 N 
ATOM      8  NH2 ARG D 557     -25.104  -3.314 -13.951  1.00 35.49    -0.235 N 
ATOM      9  HH  ARG D 557     -27.393  -3.347 -15.968  1.00 35.49     0.174 HD
ATOM     10  HH  ARG D 557     -26.835  -4.465 -15.166  1.00 35.49     0.174 HD
ATOM     11  HH  ARG D 557     -24.539  -2.776 -13.607  1.00 35.49     0.174 HD
ATOM     12  HH  ARG D 557     -25.123  -4.136 -13.744  1.00 35.49     0.174 HD
ATOM     13  HE  ARG D 557     -25.315  -1.106 -14.644  1.00 35.49     0.178 HD
ENDBRANCH   4   5
ENDBRANCH   3   4
ENDBRANCH   2   3
ENDBRANCH   1   2
END_RES ARG D 557
BEGIN_RES GLU D 570
REMARK  3 active torsions:
REMARK  status: ('A' for Active; 'I' for Inactive)
REMARK    5  A    between atoms: CA   and  CB  
REMARK    6  A    between atoms: CB   and  CG  
REMARK    7  A    between atoms: CG   and  CD  
ROOT
ATOM     14  CA  GLU D 570     -18.033  -6.348 -13.375  1.00 32.92     0.160 C 
ENDROOT
BRANCH  14  15
ATOM     15  CB  GLU D 570     -19.500  -6.345 -13.794  1.00 32.92     0.043 C 
BRANCH  15  16
ATOM     16  CG  GLU D 570     -20.445  -5.546 -12.972  1.00 32.92     0.100 C 
BRANCH  16  17
ATOM     17  CD  GLU D 570     -21.705  -5.173 -13.718  1.00 32.92     0.185 C 
ATOM     18  OE1 GLU D 570     -22.774  -5.070 -13.086  1.00 32.92    -0.647 OA
ATOM     19  OE2 GLU D 570     -21.625  -4.999 -14.950  1.00 32.92    -0.647 OA
ENDBRANCH  16  17
ENDBRANCH  15  16
ENDBRANCH  14  15
END_RES GLU D 570
ENDMDL
MODEL 9
REMARK VINA RESULT:      -5.6      2.277      3.315
REMARK  15 active torsions:
REMARK  status: ('A' for Active; 'I' for Inactive)
REMARK    1  A    between atoms: C_2  and  C_3 
REMARK    2  A    between atoms: C_3  and  C_4 
REMARK    3  A    between atoms: C_4  and  C_5 
REMARK    4  A    between atoms: C_5  and  C_6 
REMARK    5  A    between atoms: C_6  and  C_7 
REMARK    6  A    between atoms: C_7  and  C_8 
REMARK    7  A    between atoms: C_8  and  C_9 
REMARK    8  A    between atoms: C_9  and  C_10 
REMARK    9  A    between atoms: C_10  and  C_11 
REMARK   10  A    between atoms: C_11  and  C_12 
REMARK   11  A    between atoms: C_12  and  C_13 
REMARK   12  A    between atoms: C_13  and  C_14 
REMARK   13  A    between atoms: C_14  and  C_15 
REMARK   14  A    between atoms: C_15  and  C_16 
REMARK   15  A    between atoms: C_16  and  O_17 
ROOT
HETATM    1  C   UNL     1     -21.227  -6.492  -3.114  1.00  0.00     0.000 C 
ENDROOT
BRANCH   1   2
HETATM    2  C   UNL     1     -22.238  -6.095  -2.051  1.00  0.00     0.000 C 
BRANCH   2   3
HETATM    3  C   UNL     1     -22.225  -7.103  -0.911  1.00  0.00     0.000 C 
BRANCH   3   4
HETATM    4  C   UNL     1     -21.358  -8.299  -1.274  1.00  0.00     0.000 C 
BRANCH   4   5
HETATM    5  C   UNL     1     -22.171  -9.582  -1.204  1.00  0.00     0.000 C 
BRANCH   5   6
HETATM    6  C   UNL     1     -23.066  -9.581   0.028  1.00  0.00     0.000 C 
BRANCH   6   7
HETATM    7  C   UNL     1     -24.115 -10.682  -0.074  1.00  0.00    -0.000 C 
BRANCH   7   8
HETATM    8  C   UNL     1     -23.853 -11.577  -1.279  1.00  0.00    -0.005 C 
HETATM    9  C   UNL     1     -23.944 -13.043  -0.895  1.00  0.00     0.005 C 
ENDBRANCH   7   8
ENDBRANCH   6   7
ENDBRANCH   5   6
ENDBRANCH   4   5
ENDBRANCH   3   4
ENDBRANCH   2   3
ENDBRANCH   1   2
BRANCH   1  10
HETATM   10  C   UNL     1     -21.874  -6.470  -4.491  1.00  0.00     0.000 C 
BRANCH  10  11
HETATM   11  C   UNL     1     -20.903  -6.995  -5.538  1.00  0.00     0.000 C 
BRANCH  11  12
HETATM   12  C   UNL     1     -20.977  -6.148  -6.799  1.00  0.00     0.000 C 
BRANCH  12  13
HETATM   13  C   UNL     1     -20.984  -4.668  -6.445  1.00  0.00     0.000 C 
BRANCH  13  14
HETATM   14  C   UNL     1     -21.319  -3.828  -7.672  1.00  0.00     0.002 C 
BRANCH  14  15
HETATM   15  C   UNL     1     -22.677  -4.216  -8.245  1.00  0.00     0.026 C 
BRANCH  15  16
HETATM   16  C   UNL     1     -22.569  -4.549  -9.724  1.00  0.00     0.164 C 
BRANCH  16  17
HETATM   17  O   UNL     1     -22.020  -3.444 -10.427  1.00  0.00    -0.401 OA
HETATM   18  H   UNL     1     -22.497  -2.647 -10.138  1.00  0.00     0.209 HD
ENDBRANCH  16  17
ENDBRANCH  15  16
ENDBRANCH  14  15
ENDBRANCH  13  14
ENDBRANCH  12  13
ENDBRANCH  11  12
ENDBRANCH  10  11
ENDBRANCH   1  10
TORSDOF 15
BEGIN_RES ARG D 557
REMARK  4 active torsions:
REMARK  status: ('A' for Active; 'I' for Inactive)
REMARK    1  A    between atoms: CA   and  CB  
REMARK    2  A    between atoms: CB   and  CG  
REMARK    3  A    between atoms: CG   and  CD  
REMARK    4  A    between atoms: CD   and  NE  
REMARK       I    between atoms: NE   and  CZ  
REMARK       I    between atoms: CZ   and  NH1 
REMARK       I    between atoms: CZ   and  NH2 
ROOT
ATOM      1  CA  ARG D 557     -26.217   2.705 -17.014  1.00 35.49     0.159 C 
ENDROOT
BRANCH   1   2
ATOM      2  CB  ARG D 557     -26.789   1.319 -17.183  1.00 35.49     0.034 C 
BRANCH   2   3
ATOM      3  CG  ARG D 557     -28.184   1.125 -16.770  1.00 35.49     0.027 C 
BRANCH   3   4
ATOM      4  CD  ARG D 557     -28.719  -0.191 -17.188  1.00 35.49     0.116 C 
BRANCH   4   5
ATOM      5  NE  ARG D 557     -27.984  -1.284 -16.607  1.00 35.49    -0.212 N 
ATOM      6  CZ  ARG D 557     -28.239  -2.561 -16.783  1.00 35.49     0.666 C 
ATOM      7  NH1 ARG D 557     -29.242  -2.987 -17.529  1.00 35.49    -0.235 N 
ATOM      8  NH2 ARG D 557     -27.455  -3.417 -16.195  1.00 35.49    -0.235 N 
ATOM      9  HH  ARG D 557     -29.770  -2.442 -17.927  1.00 35.49     0.174 HD
ATOM     10  HH  ARG D 557     -29.358  -3.832 -17.610  1.00 35.49     0.174 HD
ATOM     11  HH  ARG D 557     -26.811  -3.112 -15.726  1.00 35.49     0.174 HD
ATOM     12  HH  ARG D 557     -27.585  -4.249 -16.289  1.00 35.49     0.174 HD
ATOM     13  HE  ARG D 557     -27.365  -1.099 -16.053  1.00 35.49     0.178 HD
ENDBRANCH   4   5
ENDBRANCH   3   4
ENDBRANCH   2   3
ENDBRANCH   1   2
END_RES ARG D 557
BEGIN_RES GLU D 570
REMARK  3 active torsions:
REMARK  status: ('A' for Active; 'I' for Inactive)
REMARK    5  A    between atoms: CA   and  CB  
REMARK    6  A    between atoms: CB   and  CG  
REMARK    7  A    between atoms: CG   and  CD  
ROOT
ATOM     14  CA  GLU D 570     -18.033  -6.348 -13.375  1.00 32.92     0.160 C 
ENDROOT
BRANCH  14  15
ATOM     15  CB  GLU D 570     -19.500  -6.345 -13.794  1.00 32.92     0.043 C 
BRANCH  15  16
ATOM     16  CG  GLU D 570     -20.451  -5.575 -12.951  1.00 32.92     0.100 C 
BRANCH  16  17
ATOM     17  CD  GLU D 570     -21.724  -5.213 -13.680  1.00 32.92     0.185 C 
ATOM     18  OE1 GLU D 570     -22.144  -5.969 -14.577  1.00 32.92    -0.647 OA
ATOM     19  OE2 GLU D 570     -22.299  -4.153 -13.362  1.00 32.92    -0.647 OA
ENDBRANCH  16  17
ENDBRANCH  15  16
ENDBRANCH  14  15
END_RES GLU D 570
ENDMDL
