MODEL 1
REMARK VINA RESULT:      -7.4      0.000      0.000
REMARK  15 active torsions:
REMARK  status: ('A' for Active; 'I' for Inactive)
REMARK    1  A    between atoms: C_2  and  O_3 
REMARK    2  A    between atoms: O_3  and  C_4 
REMARK    3  A    between atoms: C_4  and  C_5 
REMARK    4  A    between atoms: C_6  and  O_19 
REMARK    5  A    between atoms: C_7  and  O_16 
REMARK    6  A    between atoms: C_8  and  O_13 
REMARK    7  A    between atoms: C_9  and  O_11 
REMARK    8  A    between atoms: O_13  and  C_14 
REMARK    9  A    between atoms: O_16  and  C_17 
REMARK   10  A    between atoms: O_19  and  C_20 
REMARK   11  A    between atoms: C_21  and  O_31 
REMARK   12  A    between atoms: C_22  and  O_30 
REMARK   13  A    between atoms: C_23  and  O_28 
REMARK   14  A    between atoms: C_24  and  C_26 
REMARK   15  A    between atoms: C_26  and  O_27 
ROOT
HETATM    1  C   UNL     1     -23.093  -5.313 -14.208  1.00  0.00     0.180 C 
HETATM    2  C   UNL     1     -24.520  -4.676 -14.375  1.00  0.00     0.187 C 
HETATM    3  C   UNL     1     -24.392  -3.126 -14.069  1.00  0.00     0.186 C 
HETATM    4  C   UNL     1     -23.538  -2.781 -12.805  1.00  0.00     0.208 C 
HETATM    5  C   UNL     1     -22.266  -3.664 -12.681  1.00  0.00     0.291 C 
HETATM    6  O   UNL     1     -22.579  -5.036 -12.897  1.00  0.00    -0.348 OA
ENDROOT
BRANCH   2   7
HETATM    7  O   UNL     1     -25.112  -4.945 -15.687  1.00  0.00    -0.348 OA
BRANCH   7   8
HETATM    8  C   UNL     1     -25.699  -6.266 -15.829  1.00  0.00     0.292 C 
HETATM    9  C   UNL     1     -25.754  -6.755 -17.297  1.00  0.00     0.204 C 
HETATM   10  C   UNL     1     -26.991  -6.308 -18.085  1.00  0.00     0.183 C 
HETATM   11  C   UNL     1     -28.294  -6.199 -17.258  1.00  0.00     0.183 C 
HETATM   12  C   UNL     1     -28.027  -5.728 -15.821  1.00  0.00     0.179 C 
HETATM   13  O   UNL     1     -26.948  -6.429 -15.179  1.00  0.00    -0.348 OA
BRANCH   9  14
HETATM   14  O   UNL     1     -24.568  -6.409 -18.039  1.00  0.00    -0.388 OA
HETATM   15  H   UNL     1     -24.040  -5.803 -17.485  1.00  0.00     0.210 HD
ENDBRANCH   9  14
BRANCH  10  16
HETATM   16  O   UNL     1     -27.156  -7.145 -19.244  1.00  0.00    -0.390 OA
HETATM   17  H   UNL     1     -26.347  -7.688 -19.311  1.00  0.00     0.210 HD
ENDBRANCH  10  16
BRANCH  11  18
HETATM   18  O   UNL     1     -29.250  -7.263 -17.385  1.00  0.00    -0.385 OA
HETATM   19  C   UNL     1     -30.339  -7.123 -18.278  1.00  0.00     0.202 C 
ENDBRANCH  11  18
BRANCH  12  20
HETATM   20  C   UNL     1     -29.254  -5.871 -14.916  1.00  0.00     0.198 C 
BRANCH  20  21
HETATM   21  O   UNL     1     -30.381  -5.273 -15.565  1.00  0.00    -0.398 OA
HETATM   22  H   UNL     1     -30.069  -4.401 -15.874  1.00  0.00     0.209 HD
ENDBRANCH  20  21
ENDBRANCH  12  20
ENDBRANCH   7   8
ENDBRANCH   2   7
BRANCH   1  23
HETATM   23  C   UNL     1     -22.103  -4.929 -15.347  1.00  0.00     0.202 C 
BRANCH  23  24
HETATM   24  O   UNL     1     -22.278  -5.737 -16.525  1.00  0.00    -0.389 OA
BRANCH  24  25
HETATM   25  C   UNL     1     -21.174  -5.556 -17.424  1.00  0.00     0.163 C 
HETATM   26  C   UNL     1     -21.214  -6.547 -18.577  1.00  0.00     0.033 C 
ENDBRANCH  24  25
ENDBRANCH  23  24
ENDBRANCH   1  23
BRANCH   3  27
HETATM   27  O   UNL     1     -25.509  -2.219 -14.126  1.00  0.00    -0.381 OA
BRANCH  27  28
HETATM   28  C   UNL     1     -25.547  -1.083 -14.964  1.00  0.00     0.164 C 
HETATM   29  C   UNL     1     -24.166  -0.565 -15.331  1.00  0.00     0.033 C 
ENDBRANCH  27  28
ENDBRANCH   3  27
BRANCH   4  30
HETATM   30  O   UNL     1     -24.320  -2.664 -11.601  1.00  0.00    -0.379 OA
BRANCH  30  31
HETATM   31  C   UNL     1     -24.464  -3.823 -10.800  1.00  0.00     0.164 C 
HETATM   32  C   UNL     1     -24.480  -3.391  -9.344  1.00  0.00     0.033 C 
ENDBRANCH  30  31
ENDBRANCH   4  30
BRANCH   5  33
HETATM   33  O   UNL     1     -21.640  -3.495 -11.404  1.00  0.00    -0.363 OA
HETATM   34  C   UNL     1     -20.584  -4.419 -11.203  1.00  0.00     0.204 C 
ENDBRANCH   5  33
TORSDOF 15
BEGIN_RES ARG D 557
REMARK  4 active torsions:
REMARK  status: ('A' for Active; 'I' for Inactive)
REMARK    1  A    between atoms: CA   and  CB  
REMARK    2  A    between atoms: CB   and  CG  
REMARK    3  A    between atoms: CG   and  CD  
REMARK    4  A    between atoms: CD   and  NE  
REMARK       I    between atoms: NE   and  CZ  
REMARK       I    between atoms: CZ   and  NH1 
REMARK       I    between atoms: CZ   and  NH2 
ROOT
ATOM      1  CA  ARG D 557     -26.217   2.705 -17.014  1.00 35.49     0.159 C 
ENDROOT
BRANCH   1   2
ATOM      2  CB  ARG D 557     -26.789   1.319 -17.183  1.00 35.49     0.034 C 
BRANCH   2   3
ATOM      3  CG  ARG D 557     -28.249   1.215 -17.290  1.00 35.49     0.027 C 
BRANCH   3   4
ATOM      4  CD  ARG D 557     -28.812   0.197 -16.373  1.00 35.49     0.116 C 
BRANCH   4   5
ATOM      5  NE  ARG D 557     -29.412  -0.900 -17.085  1.00 35.49    -0.212 N 
ATOM      6  CZ  ARG D 557     -28.955  -2.132 -17.124  1.00 35.49     0.666 C 
ATOM      7  NH1 ARG D 557     -27.849  -2.498 -16.504  1.00 35.49    -0.235 N 
ATOM      8  NH2 ARG D 557     -29.641  -3.005 -17.803  1.00 35.49    -0.235 N 
ATOM      9  HH  ARG D 557     -27.383  -1.940 -16.050  1.00 35.49     0.174 HD
ATOM     10  HH  ARG D 557     -27.601  -3.316 -16.563  1.00 35.49     0.174 HD
ATOM     11  HH  ARG D 557     -30.356  -2.742 -18.187  1.00 35.49     0.174 HD
ATOM     12  HH  ARG D 557     -29.380  -3.810 -17.848  1.00 35.49     0.174 HD
ATOM     13  HE  ARG D 557     -30.090  -0.737 -17.572  1.00 35.49     0.178 HD
ENDBRANCH   4   5
ENDBRANCH   3   4
ENDBRANCH   2   3
ENDBRANCH   1   2
END_RES ARG D 557
BEGIN_RES GLU D 570
REMARK  3 active torsions:
REMARK  status: ('A' for Active; 'I' for Inactive)
REMARK    5  A    between atoms: CA   and  CB  
REMARK    6  A    between atoms: CB   and  CG  
REMARK    7  A    between atoms: CG   and  CD  
ROOT
ATOM     14  CA  GLU D 570     -18.033  -6.348 -13.375  1.00 32.92     0.160 C 
ENDROOT
BRANCH  14  15
ATOM     15  CB  GLU D 570     -19.500  -6.345 -13.794  1.00 32.92     0.043 C 
BRANCH  15  16
ATOM     16  CG  GLU D 570     -20.207  -7.651 -13.820  1.00 32.92     0.100 C 
BRANCH  16  17
ATOM     17  CD  GLU D 570     -20.435  -8.171 -15.220  1.00 32.92     0.185 C 
ATOM     18  OE1 GLU D 570     -19.479  -8.195 -16.020  1.00 32.92    -0.647 OA
ATOM     19  OE2 GLU D 570     -21.585  -8.541 -15.527  1.00 32.92    -0.647 OA
ENDBRANCH  16  17
ENDBRANCH  15  16
ENDBRANCH  14  15
END_RES GLU D 570
ENDMDL
MODEL 2
REMARK VINA RESULT:      -6.9      9.570     13.795
REMARK  15 active torsions:
REMARK  status: ('A' for Active; 'I' for Inactive)
REMARK    1  A    between atoms: C_2  and  O_3 
REMARK    2  A    between atoms: O_3  and  C_4 
REMARK    3  A    between atoms: C_4  and  C_5 
REMARK    4  A    between atoms: C_6  and  O_19 
REMARK    5  A    between atoms: C_7  and  O_16 
REMARK    6  A    between atoms: C_8  and  O_13 
REMARK    7  A    between atoms: C_9  and  O_11 
REMARK    8  A    between atoms: O_13  and  C_14 
REMARK    9  A    between atoms: O_16  and  C_17 
REMARK   10  A    between atoms: O_19  and  C_20 
REMARK   11  A    between atoms: C_21  and  O_31 
REMARK   12  A    between atoms: C_22  and  O_30 
REMARK   13  A    between atoms: C_23  and  O_28 
REMARK   14  A    between atoms: C_24  and  C_26 
REMARK   15  A    between atoms: C_26  and  O_27 
ROOT
HETATM    1  C   UNL     1     -19.297  -8.984  -4.961  1.00  0.00     0.180 C 
HETATM    2  C   UNL     1     -18.847  -9.297  -3.488  1.00  0.00     0.187 C 
HETATM    3  C   UNL     1     -20.155  -9.417  -2.600  1.00  0.00     0.186 C 
HETATM    4  C   UNL     1     -21.220  -8.301  -2.860  1.00  0.00     0.208 C 
HETATM    5  C   UNL     1     -21.380  -7.963  -4.367  1.00  0.00     0.291 C 
HETATM    6  O   UNL     1     -20.109  -7.801  -4.987  1.00  0.00    -0.348 OA
ENDROOT
BRANCH   2   7
HETATM    7  O   UNL     1     -17.991 -10.482  -3.395  1.00  0.00    -0.348 OA
BRANCH   7   8
HETATM    8  C   UNL     1     -16.582 -10.200  -3.187  1.00  0.00     0.292 C 
HETATM    9  C   UNL     1     -15.707 -10.517  -4.424  1.00  0.00     0.204 C 
HETATM   10  C   UNL     1     -15.225 -11.970  -4.524  1.00  0.00     0.183 C 
HETATM   11  C   UNL     1     -14.929 -12.659  -3.171  1.00  0.00     0.183 C 
HETATM   12  C   UNL     1     -15.884 -12.189  -2.063  1.00  0.00     0.179 C 
HETATM   13  O   UNL     1     -16.036 -10.760  -2.005  1.00  0.00    -0.348 OA
BRANCH   9  14
HETATM   14  O   UNL     1     -16.343 -10.142  -5.662  1.00  0.00    -0.388 OA
HETATM   15  H   UNL     1     -15.888 -10.617  -6.383  1.00  0.00     0.210 HD
ENDBRANCH   9  14
BRANCH  10  16
HETATM   16  O   UNL     1     -14.107 -12.048  -5.426  1.00  0.00    -0.390 OA
HETATM   17  H   UNL     1     -13.646 -12.885  -5.226  1.00  0.00     0.210 HD
ENDBRANCH  10  16
BRANCH  11  18
HETATM   18  O   UNL     1     -13.554 -12.785  -2.779  1.00  0.00    -0.385 OA
HETATM   19  C   UNL     1     -12.895 -14.029  -2.923  1.00  0.00     0.202 C 
ENDBRANCH  11  18
BRANCH  12  20
HETATM   20  C   UNL     1     -15.442 -12.648  -0.671  1.00  0.00     0.198 C 
BRANCH  20  21
HETATM   21  O   UNL     1     -15.599 -11.561   0.247  1.00  0.00    -0.398 OA
HETATM   22  H   UNL     1     -14.963 -10.880  -0.046  1.00  0.00     0.209 HD
ENDBRANCH  20  21
ENDBRANCH  12  20
ENDBRANCH   7   8
ENDBRANCH   2   7
BRANCH   1  23
HETATM   23  C   UNL     1     -19.958 -10.196  -5.680  1.00  0.00     0.202 C 
BRANCH  23  24
HETATM   24  O   UNL     1     -19.087 -10.803  -6.652  1.00  0.00    -0.389 OA
BRANCH  24  25
HETATM   25  C   UNL     1     -19.522 -12.138  -6.948  1.00  0.00     0.163 C 
HETATM   26  C   UNL     1     -18.923 -12.653  -8.248  1.00  0.00     0.033 C 
ENDBRANCH  24  25
ENDBRANCH  23  24
ENDBRANCH   1  23
BRANCH   3  27
HETATM   27  O   UNL     1     -20.124  -9.700  -1.190  1.00  0.00    -0.381 OA
BRANCH  27  28
HETATM   28  C   UNL     1     -20.763 -10.816  -0.605  1.00  0.00     0.164 C 
HETATM   29  C   UNL     1     -20.773 -10.769   0.915  1.00  0.00     0.033 C 
ENDBRANCH  27  28
ENDBRANCH   3  27
BRANCH   4  30
HETATM   30  O   UNL     1     -21.079  -7.163  -1.990  1.00  0.00    -0.379 OA
BRANCH  30  31
HETATM   31  C   UNL     1     -22.251  -6.660  -1.375  1.00  0.00     0.164 C 
HETATM   32  C   UNL     1     -22.575  -7.544  -0.182  1.00  0.00     0.033 C 
ENDBRANCH  30  31
ENDBRANCH   4  30
BRANCH   5  33
HETATM   33  O   UNL     1     -22.174  -6.785  -4.552  1.00  0.00    -0.363 OA
HETATM   34  C   UNL     1     -21.683  -5.974  -5.605  1.00  0.00     0.204 C 
ENDBRANCH   5  33
TORSDOF 15
BEGIN_RES ARG D 557
REMARK  4 active torsions:
REMARK  status: ('A' for Active; 'I' for Inactive)
REMARK    1  A    between atoms: CA   and  CB  
REMARK    2  A    between atoms: CB   and  CG  
REMARK    3  A    between atoms: CG   and  CD  
REMARK    4  A    between atoms: CD   and  NE  
REMARK       I    between atoms: NE   and  CZ  
REMARK       I    between atoms: CZ   and  NH1 
REMARK       I    between atoms: CZ   and  NH2 
ROOT
ATOM      1  CA  ARG D 557     -26.217   2.705 -17.014  1.00 35.49     0.159 C 
ENDROOT
BRANCH   1   2
ATOM      2  CB  ARG D 557     -26.789   1.319 -17.183  1.00 35.49     0.034 C 
BRANCH   2   3
ATOM      3  CG  ARG D 557     -25.835   0.204 -17.164  1.00 35.49     0.027 C 
BRANCH   3   4
ATOM      4  CD  ARG D 557     -24.750   0.406 -16.177  1.00 35.49     0.116 C 
BRANCH   4   5
ATOM      5  NE  ARG D 557     -24.900  -0.442 -15.024  1.00 35.49    -0.212 N 
ATOM      6  CZ  ARG D 557     -24.087  -1.412 -14.672  1.00 35.49     0.666 C 
ATOM      7  NH1 ARG D 557     -23.015  -1.728 -15.375  1.00 35.49    -0.235 N 
ATOM      8  NH2 ARG D 557     -24.367  -2.065 -13.582  1.00 35.49    -0.235 N 
ATOM      9  HH  ARG D 557     -22.810  -1.311 -16.094  1.00 35.49     0.174 HD
ATOM     10  HH  ARG D 557     -22.519  -2.369 -15.095  1.00 35.49     0.174 HD
ATOM     11  HH  ARG D 557     -25.062  -1.833 -13.144  1.00 35.49     0.174 HD
ATOM     12  HH  ARG D 557     -23.863  -2.695 -13.320  1.00 35.49     0.174 HD
ATOM     13  HE  ARG D 557     -25.604  -0.355 -14.554  1.00 35.49     0.178 HD
ENDBRANCH   4   5
ENDBRANCH   3   4
ENDBRANCH   2   3
ENDBRANCH   1   2
END_RES ARG D 557
BEGIN_RES GLU D 570
REMARK  3 active torsions:
REMARK  status: ('A' for Active; 'I' for Inactive)
REMARK    5  A    between atoms: CA   and  CB  
REMARK    6  A    between atoms: CB   and  CG  
REMARK    7  A    between atoms: CG   and  CD  
ROOT
ATOM     14  CA  GLU D 570     -18.033  -6.348 -13.375  1.00 32.92     0.160 C 
ENDROOT
BRANCH  14  15
ATOM     15  CB  GLU D 570     -19.500  -6.345 -13.794  1.00 32.92     0.043 C 
BRANCH  15  16
ATOM     16  CG  GLU D 570     -20.441  -5.526 -12.987  1.00 32.92     0.100 C 
BRANCH  16  17
ATOM     17  CD  GLU D 570     -21.745  -5.254 -13.698  1.00 32.92     0.185 C 
ATOM     18  OE1 GLU D 570     -22.311  -4.157 -13.527  1.00 32.92    -0.647 OA
ATOM     19  OE2 GLU D 570     -22.216  -6.154 -14.422  1.00 32.92    -0.647 OA
ENDBRANCH  16  17
ENDBRANCH  15  16
ENDBRANCH  14  15
END_RES GLU D 570
ENDMDL
MODEL 3
REMARK VINA RESULT:      -6.9     10.239     14.354
REMARK  15 active torsions:
REMARK  status: ('A' for Active; 'I' for Inactive)
REMARK    1  A    between atoms: C_2  and  O_3 
REMARK    2  A    between atoms: O_3  and  C_4 
REMARK    3  A    between atoms: C_4  and  C_5 
REMARK    4  A    between atoms: C_6  and  O_19 
REMARK    5  A    between atoms: C_7  and  O_16 
REMARK    6  A    between atoms: C_8  and  O_13 
REMARK    7  A    between atoms: C_9  and  O_11 
REMARK    8  A    between atoms: O_13  and  C_14 
REMARK    9  A    between atoms: O_16  and  C_17 
REMARK   10  A    between atoms: O_19  and  C_20 
REMARK   11  A    between atoms: C_21  and  O_31 
REMARK   12  A    between atoms: C_22  and  O_30 
REMARK   13  A    between atoms: C_23  and  O_28 
REMARK   14  A    between atoms: C_24  and  C_26 
REMARK   15  A    between atoms: C_26  and  O_27 
ROOT
HETATM    1  C   UNL     1     -19.021  -9.333  -4.774  1.00  0.00     0.180 C 
HETATM    2  C   UNL     1     -18.630  -9.705  -3.298  1.00  0.00     0.187 C 
HETATM    3  C   UNL     1     -19.972  -9.844  -2.465  1.00  0.00     0.186 C 
HETATM    4  C   UNL     1     -21.015  -8.708  -2.722  1.00  0.00     0.208 C 
HETATM    5  C   UNL     1     -21.115  -8.312  -4.220  1.00  0.00     0.291 C 
HETATM    6  O   UNL     1     -19.820  -8.141  -4.786  1.00  0.00    -0.348 OA
ENDROOT
BRANCH   2   7
HETATM    7  O   UNL     1     -17.790 -10.903  -3.218  1.00  0.00    -0.348 OA
BRANCH   7   8
HETATM    8  C   UNL     1     -16.551 -10.728  -2.481  1.00  0.00     0.292 C 
HETATM    9  C   UNL     1     -15.342 -11.433  -3.143  1.00  0.00     0.204 C 
HETATM   10  C   UNL     1     -15.160 -12.907  -2.762  1.00  0.00     0.183 C 
HETATM   11  C   UNL     1     -15.565 -13.267  -1.314  1.00  0.00     0.183 C 
HETATM   12  C   UNL     1     -16.764 -12.439  -0.827  1.00  0.00     0.179 C 
HETATM   13  O   UNL     1     -16.638 -11.033  -1.099  1.00  0.00    -0.348 OA
BRANCH   9  14
HETATM   14  O   UNL     1     -15.351 -11.311  -4.579  1.00  0.00    -0.388 OA
HETATM   15  H   UNL     1     -15.599 -12.180  -4.947  1.00  0.00     0.210 HD
ENDBRANCH   9  14
BRANCH  10  16
HETATM   16  O   UNL     1     -13.817 -13.324  -3.067  1.00  0.00    -0.390 OA
HETATM   17  H   UNL     1     -13.769 -14.277  -2.864  1.00  0.00     0.210 HD
ENDBRANCH  10  16
BRANCH  11  18
HETATM   18  O   UNL     1     -14.510 -13.436  -0.354  1.00  0.00    -0.385 OA
HETATM   19  C   UNL     1     -14.150 -14.737   0.070  1.00  0.00     0.202 C 
ENDBRANCH  11  18
BRANCH  12  20
HETATM   20  C   UNL     1     -17.008 -12.583   0.678  1.00  0.00     0.198 C 
BRANCH  20  21
HETATM   21  O   UNL     1     -16.119 -11.705   1.377  1.00  0.00    -0.398 OA
HETATM   22  H   UNL     1     -16.081 -12.048   2.290  1.00  0.00     0.209 HD
ENDBRANCH  20  21
ENDBRANCH  12  20
ENDBRANCH   7   8
ENDBRANCH   2   7
BRANCH   1  23
HETATM   23  C   UNL     1     -19.666 -10.510  -5.562  1.00  0.00     0.202 C 
BRANCH  23  24
HETATM   24  O   UNL     1     -18.921 -10.856  -6.744  1.00  0.00    -0.389 OA
BRANCH  24  25
HETATM   25  C   UNL     1     -19.063 -12.254  -7.033  1.00  0.00     0.163 C 
HETATM   26  C   UNL     1     -18.782 -12.562  -8.496  1.00  0.00     0.033 C 
ENDBRANCH  24  25
ENDBRANCH  23  24
ENDBRANCH   1  23
BRANCH   3  27
HETATM   27  O   UNL     1     -19.997 -10.180  -1.066  1.00  0.00    -0.381 OA
BRANCH  27  28
HETATM   28  C   UNL     1     -20.383 -11.447  -0.576  1.00  0.00     0.164 C 
HETATM   29  C   UNL     1     -21.111 -11.376   0.757  1.00  0.00     0.033 C 
ENDBRANCH  27  28
ENDBRANCH   3  27
BRANCH   4  30
HETATM   30  O   UNL     1     -20.896  -7.605  -1.805  1.00  0.00    -0.379 OA
BRANCH  30  31
HETATM   31  C   UNL     1     -22.084  -7.124  -1.202  1.00  0.00     0.164 C 
HETATM   32  C   UNL     1     -22.256  -7.831   0.131  1.00  0.00     0.033 C 
ENDBRANCH  30  31
ENDBRANCH   4  30
BRANCH   5  33
HETATM   33  O   UNL     1     -21.890  -7.119  -4.390  1.00  0.00    -0.363 OA
HETATM   34  C   UNL     1     -21.383  -6.301  -5.431  1.00  0.00     0.204 C 
ENDBRANCH   5  33
TORSDOF 15
BEGIN_RES ARG D 557
REMARK  4 active torsions:
REMARK  status: ('A' for Active; 'I' for Inactive)
REMARK    1  A    between atoms: CA   and  CB  
REMARK    2  A    between atoms: CB   and  CG  
REMARK    3  A    between atoms: CG   and  CD  
REMARK    4  A    between atoms: CD   and  NE  
REMARK       I    between atoms: NE   and  CZ  
REMARK       I    between atoms: CZ   and  NH1 
REMARK       I    between atoms: CZ   and  NH2 
ROOT
ATOM      1  CA  ARG D 557     -26.217   2.705 -17.014  1.00 35.49     0.159 C 
ENDROOT
BRANCH   1   2
ATOM      2  CB  ARG D 557     -26.789   1.319 -17.183  1.00 35.49     0.034 C 
BRANCH   2   3
ATOM      3  CG  ARG D 557     -25.836   0.203 -17.149  1.00 35.49     0.027 C 
BRANCH   3   4
ATOM      4  CD  ARG D 557     -24.759   0.410 -16.155  1.00 35.49     0.116 C 
BRANCH   4   5
ATOM      5  NE  ARG D 557     -24.908  -0.447 -15.008  1.00 35.49    -0.212 N 
ATOM      6  CZ  ARG D 557     -24.093  -1.420 -14.665  1.00 35.49     0.666 C 
ATOM      7  NH1 ARG D 557     -23.023  -1.730 -15.372  1.00 35.49    -0.235 N 
ATOM      8  NH2 ARG D 557     -24.372  -2.081 -13.579  1.00 35.49    -0.235 N 
ATOM      9  HH  ARG D 557     -22.819  -1.307 -16.088  1.00 35.49     0.174 HD
ATOM     10  HH  ARG D 557     -22.526  -2.373 -15.098  1.00 35.49     0.174 HD
ATOM     11  HH  ARG D 557     -25.066  -1.854 -13.139  1.00 35.49     0.174 HD
ATOM     12  HH  ARG D 557     -23.868  -2.713 -13.324  1.00 35.49     0.174 HD
ATOM     13  HE  ARG D 557     -25.611  -0.364 -14.536  1.00 35.49     0.178 HD
ENDBRANCH   4   5
ENDBRANCH   3   4
ENDBRANCH   2   3
ENDBRANCH   1   2
END_RES ARG D 557
BEGIN_RES GLU D 570
REMARK  3 active torsions:
REMARK  status: ('A' for Active; 'I' for Inactive)
REMARK    5  A    between atoms: CA   and  CB  
REMARK    6  A    between atoms: CB   and  CG  
REMARK    7  A    between atoms: CG   and  CD  
ROOT
ATOM     14  CA  GLU D 570     -18.033  -6.348 -13.375  1.00 32.92     0.160 C 
ENDROOT
BRANCH  14  15
ATOM     15  CB  GLU D 570     -19.500  -6.345 -13.794  1.00 32.92     0.043 C 
BRANCH  15  16
ATOM     16  CG  GLU D 570     -20.442  -5.533 -12.982  1.00 32.92     0.100 C 
BRANCH  16  17
ATOM     17  CD  GLU D 570     -21.733  -5.228 -13.706  1.00 32.92     0.185 C 
ATOM     18  OE1 GLU D 570     -22.301  -4.139 -13.497  1.00 32.92    -0.647 OA
ATOM     19  OE2 GLU D 570     -22.189  -6.094 -14.477  1.00 32.92    -0.647 OA
ENDBRANCH  16  17
ENDBRANCH  15  16
ENDBRANCH  14  15
END_RES GLU D 570
ENDMDL
MODEL 4
REMARK VINA RESULT:      -6.5      9.575     13.658
REMARK  15 active torsions:
REMARK  status: ('A' for Active; 'I' for Inactive)
REMARK    1  A    between atoms: C_2  and  O_3 
REMARK    2  A    between atoms: O_3  and  C_4 
REMARK    3  A    between atoms: C_4  and  C_5 
REMARK    4  A    between atoms: C_6  and  O_19 
REMARK    5  A    between atoms: C_7  and  O_16 
REMARK    6  A    between atoms: C_8  and  O_13 
REMARK    7  A    between atoms: C_9  and  O_11 
REMARK    8  A    between atoms: O_13  and  C_14 
REMARK    9  A    between atoms: O_16  and  C_17 
REMARK   10  A    between atoms: O_19  and  C_20 
REMARK   11  A    between atoms: C_21  and  O_31 
REMARK   12  A    between atoms: C_22  and  O_30 
REMARK   13  A    between atoms: C_23  and  O_28 
REMARK   14  A    between atoms: C_24  and  C_26 
REMARK   15  A    between atoms: C_26  and  O_27 
ROOT
HETATM    1  C   UNL     1     -20.447  -8.236  -2.425  1.00  0.00     0.180 C 
HETATM    2  C   UNL     1     -19.975  -9.709  -2.700  1.00  0.00     0.187 C 
HETATM    3  C   UNL     1     -21.229 -10.660  -2.511  1.00  0.00     0.186 C 
HETATM    4  C   UNL     1     -22.091 -10.352  -1.242  1.00  0.00     0.208 C 
HETATM    5  C   UNL     1     -22.276  -8.829  -0.998  1.00  0.00     0.291 C 
HETATM    6  O   UNL     1     -21.035  -8.143  -1.119  1.00  0.00    -0.348 OA
ENDROOT
BRANCH   2   7
HETATM    7  O   UNL     1     -19.341  -9.867  -4.012  1.00  0.00    -0.348 OA
BRANCH   7   8
HETATM    8  C   UNL     1     -17.953  -9.443  -4.070  1.00  0.00     0.292 C 
HETATM    9  C   UNL     1     -17.237  -9.874  -5.374  1.00  0.00     0.204 C 
HETATM   10  C   UNL     1     -16.628 -11.280  -5.346  1.00  0.00     0.183 C 
HETATM   11  C   UNL     1     -16.070 -11.728  -3.975  1.00  0.00     0.183 C 
HETATM   12  C   UNL     1     -16.898 -11.174  -2.806  1.00  0.00     0.179 C 
HETATM   13  O   UNL     1     -17.187  -9.770  -2.923  1.00  0.00    -0.348 OA
BRANCH   9  14
HETATM   14  O   UNL     1     -18.081  -9.745  -6.535  1.00  0.00    -0.388 OA
HETATM   15  H   UNL     1     -19.001  -9.905  -6.250  1.00  0.00     0.210 HD
ENDBRANCH   9  14
BRANCH  10  16
HETATM   16  O   UNL     1     -15.650 -11.405  -6.394  1.00  0.00    -0.390 OA
HETATM   17  H   UNL     1     -14.877 -11.853  -6.001  1.00  0.00     0.210 HD
ENDBRANCH  10  16
BRANCH  11  18
HETATM   18  O   UNL     1     -14.647 -11.681  -3.791  1.00  0.00    -0.385 OA
HETATM   19  C   UNL     1     -13.898 -12.882  -3.810  1.00  0.00     0.202 C 
ENDBRANCH  11  18
BRANCH  12  20
HETATM   20  C   UNL     1     -16.215 -11.377  -1.451  1.00  0.00     0.198 C 
BRANCH  20  21
HETATM   21  O   UNL     1     -17.103 -12.096  -0.588  1.00  0.00    -0.398 OA
HETATM   22  H   UNL     1     -17.348 -12.902  -1.081  1.00  0.00     0.209 HD
ENDBRANCH  20  21
ENDBRANCH  12  20
ENDBRANCH   7   8
ENDBRANCH   2   7
BRANCH   1  23
HETATM   23  C   UNL     1     -21.355  -7.654  -3.548  1.00  0.00     0.202 C 
BRANCH  23  24
HETATM   24  O   UNL     1     -21.158  -6.241  -3.739  1.00  0.00    -0.389 OA
BRANCH  24  25
HETATM   25  C   UNL     1     -21.214  -5.912  -5.134  1.00  0.00     0.163 C 
HETATM   26  C   UNL     1     -20.262  -4.779  -5.488  1.00  0.00     0.033 C 
ENDBRANCH  24  25
ENDBRANCH  23  24
ENDBRANCH   1  23
BRANCH   3  27
HETATM   27  O   UNL     1     -21.167 -12.087  -2.685  1.00  0.00    -0.381 OA
BRANCH  27  28
HETATM   28  C   UNL     1     -22.128 -12.826  -3.411  1.00  0.00     0.164 C 
HETATM   29  C   UNL     1     -22.413 -12.243  -4.787  1.00  0.00     0.033 C 
ENDBRANCH  27  28
ENDBRANCH   3  27
BRANCH   4  30
HETATM   30  O   UNL     1     -21.698 -11.113  -0.086  1.00  0.00    -0.379 OA
BRANCH  30  31
HETATM   31  C   UNL     1     -22.604 -12.092   0.391  1.00  0.00     0.164 C 
HETATM   32  C   UNL     1     -23.929 -11.900  -0.326  1.00  0.00     0.033 C 
ENDBRANCH  30  31
ENDBRANCH   4  30
BRANCH   5  33
HETATM   33  O   UNL     1     -22.856  -8.578   0.288  1.00  0.00    -0.363 OA
HETATM   34  C   UNL     1     -21.950  -7.926   1.161  1.00  0.00     0.204 C 
ENDBRANCH   5  33
TORSDOF 15
BEGIN_RES ARG D 557
REMARK  4 active torsions:
REMARK  status: ('A' for Active; 'I' for Inactive)
REMARK    1  A    between atoms: CA   and  CB  
REMARK    2  A    between atoms: CB   and  CG  
REMARK    3  A    between atoms: CG   and  CD  
REMARK    4  A    between atoms: CD   and  NE  
REMARK       I    between atoms: NE   and  CZ  
REMARK       I    between atoms: CZ   and  NH1 
REMARK       I    between atoms: CZ   and  NH2 
ROOT
ATOM      1  CA  ARG D 557     -26.217   2.705 -17.014  1.00 35.49     0.159 C 
ENDROOT
BRANCH   1   2
ATOM      2  CB  ARG D 557     -26.789   1.319 -17.183  1.00 35.49     0.034 C 
BRANCH   2   3
ATOM      3  CG  ARG D 557     -25.864   0.195 -16.993  1.00 35.49     0.027 C 
BRANCH   3   4
ATOM      4  CD  ARG D 557     -26.294  -0.712 -15.904  1.00 35.49     0.116 C 
BRANCH   4   5
ATOM      5  NE  ARG D 557     -25.248  -0.936 -14.941  1.00 35.49    -0.212 N 
ATOM      6  CZ  ARG D 557     -24.981  -2.079 -14.349  1.00 35.49     0.666 C 
ATOM      7  NH1 ARG D 557     -25.680  -3.175 -14.576  1.00 35.49    -0.235 N 
ATOM      8  NH2 ARG D 557     -23.980  -2.105 -13.518  1.00 35.49    -0.235 N 
ATOM      9  HH  ARG D 557     -26.342  -3.182 -15.121  1.00 35.49     0.174 HD
ATOM     10  HH  ARG D 557     -25.458  -3.892 -14.163  1.00 35.49     0.174 HD
ATOM     11  HH  ARG D 557     -23.542  -1.383 -13.396  1.00 35.49     0.174 HD
ATOM     12  HH  ARG D 557     -23.775  -2.825 -13.120  1.00 35.49     0.174 HD
ATOM     13  HE  ARG D 557     -24.794  -0.266 -14.681  1.00 35.49     0.178 HD
ENDBRANCH   4   5
ENDBRANCH   3   4
ENDBRANCH   2   3
ENDBRANCH   1   2
END_RES ARG D 557
BEGIN_RES GLU D 570
REMARK  3 active torsions:
REMARK  status: ('A' for Active; 'I' for Inactive)
REMARK    5  A    between atoms: CA   and  CB  
REMARK    6  A    between atoms: CB   and  CG  
REMARK    7  A    between atoms: CG   and  CD  
ROOT
ATOM     14  CA  GLU D 570     -18.033  -6.348 -13.375  1.00 32.92     0.160 C 
ENDROOT
BRANCH  14  15
ATOM     15  CB  GLU D 570     -19.500  -6.345 -13.794  1.00 32.92     0.043 C 
BRANCH  15  16
ATOM     16  CG  GLU D 570     -20.450  -5.570 -12.955  1.00 32.92     0.100 C 
BRANCH  16  17
ATOM     17  CD  GLU D 570     -21.681  -5.129 -13.712  1.00 32.92     0.185 C 
ATOM     18  OE1 GLU D 570     -21.621  -5.016 -14.951  1.00 32.92    -0.647 OA
ATOM     19  OE2 GLU D 570     -22.712  -4.878 -13.057  1.00 32.92    -0.647 OA
ENDBRANCH  16  17
ENDBRANCH  15  16
ENDBRANCH  14  15
END_RES GLU D 570
ENDMDL
MODEL 5
REMARK VINA RESULT:      -6.5      9.528     13.571
REMARK  15 active torsions:
REMARK  status: ('A' for Active; 'I' for Inactive)
REMARK    1  A    between atoms: C_2  and  O_3 
REMARK    2  A    between atoms: O_3  and  C_4 
REMARK    3  A    between atoms: C_4  and  C_5 
REMARK    4  A    between atoms: C_6  and  O_19 
REMARK    5  A    between atoms: C_7  and  O_16 
REMARK    6  A    between atoms: C_8  and  O_13 
REMARK    7  A    between atoms: C_9  and  O_11 
REMARK    8  A    between atoms: O_13  and  C_14 
REMARK    9  A    between atoms: O_16  and  C_17 
REMARK   10  A    between atoms: O_19  and  C_20 
REMARK   11  A    between atoms: C_21  and  O_31 
REMARK   12  A    between atoms: C_22  and  O_30 
REMARK   13  A    between atoms: C_23  and  O_28 
REMARK   14  A    between atoms: C_24  and  C_26 
REMARK   15  A    between atoms: C_26  and  O_27 
ROOT
HETATM    1  C   UNL     1     -20.359  -8.299  -2.438  1.00  0.00     0.180 C 
HETATM    2  C   UNL     1     -19.932  -9.792  -2.679  1.00  0.00     0.187 C 
HETATM    3  C   UNL     1     -21.223 -10.696  -2.508  1.00  0.00     0.186 C 
HETATM    4  C   UNL     1     -22.106 -10.338  -1.267  1.00  0.00     0.208 C 
HETATM    5  C   UNL     1     -22.244  -8.806  -1.050  1.00  0.00     0.291 C 
HETATM    6  O   UNL     1     -20.977  -8.165  -1.150  1.00  0.00    -0.348 OA
ENDROOT
BRANCH   2   7
HETATM    7  O   UNL     1     -19.270  -9.992  -3.971  1.00  0.00    -0.348 OA
BRANCH   7   8
HETATM    8  C   UNL     1     -17.892  -9.538  -4.024  1.00  0.00     0.292 C 
HETATM    9  C   UNL     1     -17.178  -9.908  -5.347  1.00  0.00     0.204 C 
HETATM   10  C   UNL     1     -16.540 -11.303  -5.373  1.00  0.00     0.183 C 
HETATM   11  C   UNL     1     -15.963 -11.787  -4.022  1.00  0.00     0.183 C 
HETATM   12  C   UNL     1     -16.793 -11.291  -2.829  1.00  0.00     0.179 C 
HETATM   13  O   UNL     1     -17.111  -9.890  -2.894  1.00  0.00    -0.348 OA
BRANCH   9  14
HETATM   14  O   UNL     1     -18.033  -9.756  -6.497  1.00  0.00    -0.388 OA
HETATM   15  H   UNL     1     -18.809  -9.233  -6.220  1.00  0.00     0.210 HD
ENDBRANCH   9  14
BRANCH  10  16
HETATM   16  O   UNL     1     -15.568 -11.370  -6.431  1.00  0.00    -0.390 OA
HETATM   17  H   UNL     1     -14.902 -10.682  -6.242  1.00  0.00     0.210 HD
ENDBRANCH  10  16
BRANCH  11  18
HETATM   18  O   UNL     1     -14.540 -11.718  -3.847  1.00  0.00    -0.385 OA
HETATM   19  C   UNL     1     -13.751 -12.876  -4.048  1.00  0.00     0.202 C 
ENDBRANCH  11  18
BRANCH  12  20
HETATM   20  C   UNL     1     -16.096 -11.528  -1.486  1.00  0.00     0.198 C 
BRANCH  20  21
HETATM   21  O   UNL     1     -15.870 -12.932  -1.323  1.00  0.00    -0.398 OA
HETATM   22  H   UNL     1     -15.834 -13.296  -2.228  1.00  0.00     0.209 HD
ENDBRANCH  20  21
ENDBRANCH  12  20
ENDBRANCH   7   8
ENDBRANCH   2   7
BRANCH   1  23
HETATM   23  C   UNL     1     -21.218  -7.704  -3.593  1.00  0.00     0.202 C 
BRANCH  23  24
HETATM   24  O   UNL     1     -20.425  -6.981  -4.553  1.00  0.00    -0.389 OA
BRANCH  24  25
HETATM   25  C   UNL     1     -21.087  -5.766  -4.933  1.00  0.00     0.163 C 
HETATM   26  C   UNL     1     -20.183  -4.864  -5.760  1.00  0.00     0.033 C 
ENDBRANCH  24  25
ENDBRANCH  23  24
ENDBRANCH   1  23
BRANCH   3  27
HETATM   27  O   UNL     1     -21.206 -12.127  -2.658  1.00  0.00    -0.381 OA
BRANCH  27  28
HETATM   28  C   UNL     1     -22.133 -12.837  -3.454  1.00  0.00     0.164 C 
HETATM   29  C   UNL     1     -22.358 -12.204  -4.818  1.00  0.00     0.033 C 
ENDBRANCH  27  28
ENDBRANCH   3  27
BRANCH   4  30
HETATM   30  O   UNL     1     -21.769 -11.094  -0.089  1.00  0.00    -0.379 OA
BRANCH  30  31
HETATM   31  C   UNL     1     -22.700 -12.066   0.352  1.00  0.00     0.164 C 
HETATM   32  C   UNL     1     -24.008 -11.836  -0.385  1.00  0.00     0.033 C 
ENDBRANCH  30  31
ENDBRANCH   4  30
BRANCH   5  33
HETATM   33  O   UNL     1     -22.848  -8.515   0.215  1.00  0.00    -0.363 OA
HETATM   34  C   UNL     1     -21.915  -7.974   1.136  1.00  0.00     0.204 C 
ENDBRANCH   5  33
TORSDOF 15
BEGIN_RES ARG D 557
REMARK  4 active torsions:
REMARK  status: ('A' for Active; 'I' for Inactive)
REMARK    1  A    between atoms: CA   and  CB  
REMARK    2  A    between atoms: CB   and  CG  
REMARK    3  A    between atoms: CG   and  CD  
REMARK    4  A    between atoms: CD   and  NE  
REMARK       I    between atoms: NE   and  CZ  
REMARK       I    between atoms: CZ   and  NH1 
REMARK       I    between atoms: CZ   and  NH2 
ROOT
ATOM      1  CA  ARG D 557     -26.217   2.705 -17.014  1.00 35.49     0.159 C 
ENDROOT
BRANCH   1   2
ATOM      2  CB  ARG D 557     -26.789   1.319 -17.183  1.00 35.49     0.034 C 
BRANCH   2   3
ATOM      3  CG  ARG D 557     -28.232   1.226 -17.438  1.00 35.49     0.027 C 
BRANCH   3   4
ATOM      4  CD  ARG D 557     -28.912   0.300 -16.505  1.00 35.49     0.116 C 
BRANCH   4   5
ATOM      5  NE  ARG D 557     -29.296  -0.930 -17.145  1.00 35.49    -0.212 N 
ATOM      6  CZ  ARG D 557     -28.668  -2.080 -17.039  1.00 35.49     0.666 C 
ATOM      7  NH1 ARG D 557     -27.571  -2.225 -16.319  1.00 35.49    -0.235 N 
ATOM      8  NH2 ARG D 557     -29.171  -3.099 -17.673  1.00 35.49    -0.235 N 
ATOM      9  HH  ARG D 557     -27.224  -1.569 -15.892  1.00 35.49     0.174 HD
ATOM     10  HH  ARG D 557     -27.206  -3.000 -16.285  1.00 35.49     0.174 HD
ATOM     11  HH  ARG D 557     -29.884  -2.977 -18.125  1.00 35.49     0.174 HD
ATOM     12  HH  ARG D 557     -28.796  -3.858 -17.626  1.00 35.49     0.174 HD
ATOM     13  HE  ARG D 557     -29.951  -0.911 -17.687  1.00 35.49     0.178 HD
ENDBRANCH   4   5
ENDBRANCH   3   4
ENDBRANCH   2   3
ENDBRANCH   1   2
END_RES ARG D 557
BEGIN_RES GLU D 570
REMARK  3 active torsions:
REMARK  status: ('A' for Active; 'I' for Inactive)
REMARK    5  A    between atoms: CA   and  CB  
REMARK    6  A    between atoms: CB   and  CG  
REMARK    7  A    between atoms: CG   and  CD  
ROOT
ATOM     14  CA  GLU D 570     -18.033  -6.348 -13.375  1.00 32.92     0.160 C 
ENDROOT
BRANCH  14  15
ATOM     15  CB  GLU D 570     -19.500  -6.345 -13.794  1.00 32.92     0.043 C 
BRANCH  15  16
ATOM     16  CG  GLU D 570     -20.443  -5.535 -12.980  1.00 32.92     0.100 C 
BRANCH  16  17
ATOM     17  CD  GLU D 570     -21.731  -5.223 -13.706  1.00 32.92     0.185 C 
ATOM     18  OE1 GLU D 570     -22.316  -4.150 -13.466  1.00 32.92    -0.647 OA
ATOM     19  OE2 GLU D 570     -22.167  -6.069 -14.511  1.00 32.92    -0.647 OA
ENDBRANCH  16  17
ENDBRANCH  15  16
ENDBRANCH  14  15
END_RES GLU D 570
ENDMDL
MODEL 6
REMARK VINA RESULT:      -6.4      9.033     13.191
REMARK  15 active torsions:
REMARK  status: ('A' for Active; 'I' for Inactive)
REMARK    1  A    between atoms: C_2  and  O_3 
REMARK    2  A    between atoms: O_3  and  C_4 
REMARK    3  A    between atoms: C_4  and  C_5 
REMARK    4  A    between atoms: C_6  and  O_19 
REMARK    5  A    between atoms: C_7  and  O_16 
REMARK    6  A    between atoms: C_8  and  O_13 
REMARK    7  A    between atoms: C_9  and  O_11 
REMARK    8  A    between atoms: O_13  and  C_14 
REMARK    9  A    between atoms: O_16  and  C_17 
REMARK   10  A    between atoms: O_19  and  C_20 
REMARK   11  A    between atoms: C_21  and  O_31 
REMARK   12  A    between atoms: C_22  and  O_30 
REMARK   13  A    between atoms: C_23  and  O_28 
REMARK   14  A    between atoms: C_24  and  C_26 
REMARK   15  A    between atoms: C_26  and  O_27 
ROOT
HETATM    1  C   UNL     1     -17.163 -10.115  -4.268  1.00  0.00     0.180 C 
HETATM    2  C   UNL     1     -18.464  -9.450  -4.846  1.00  0.00     0.187 C 
HETATM    3  C   UNL     1     -19.403 -10.612  -5.378  1.00  0.00     0.186 C 
HETATM    4  C   UNL     1     -18.665 -11.712  -6.210  1.00  0.00     0.208 C 
HETATM    5  C   UNL     1     -17.286 -12.096  -5.609  1.00  0.00     0.291 C 
HETATM    6  O   UNL     1     -16.540 -10.932  -5.271  1.00  0.00    -0.348 OA
ENDROOT
BRANCH   2   7
HETATM    7  O   UNL     1     -19.136  -8.581  -3.877  1.00  0.00    -0.348 OA
BRANCH   7   8
HETATM    8  C   UNL     1     -20.554  -8.846  -3.704  1.00  0.00     0.292 C 
HETATM    9  C   UNL     1     -21.403  -7.560  -3.564  1.00  0.00     0.204 C 
HETATM   10  C   UNL     1     -21.509  -7.002  -2.140  1.00  0.00     0.183 C 
HETATM   11  C   UNL     1     -21.529  -8.066  -1.017  1.00  0.00     0.183 C 
HETATM   12  C   UNL     1     -20.650  -9.279  -1.357  1.00  0.00     0.179 C 
HETATM   13  O   UNL     1     -20.859  -9.785  -2.686  1.00  0.00    -0.348 OA
BRANCH   9  14
HETATM   14  O   UNL     1     -20.968  -6.512  -4.453  1.00  0.00    -0.388 OA
HETATM   15  H   UNL     1     -20.032  -6.682  -4.673  1.00  0.00     0.210 HD
ENDBRANCH   9  14
BRANCH  10  16
HETATM   16  O   UNL     1     -22.630  -6.105  -2.053  1.00  0.00    -0.390 OA
HETATM   17  H   UNL     1     -23.423  -6.661  -1.933  1.00  0.00     0.210 HD
ENDBRANCH  10  16
BRANCH  11  18
HETATM   18  O   UNL     1     -22.798  -8.379  -0.423  1.00  0.00    -0.385 OA
HETATM   19  C   UNL     1     -23.143  -7.818   0.830  1.00  0.00     0.202 C 
ENDBRANCH  11  18
BRANCH  12  20
HETATM   20  C   UNL     1     -20.865 -10.451  -0.395  1.00  0.00     0.198 C 
BRANCH  20  21
HETATM   21  O   UNL     1     -20.610 -10.006   0.942  1.00  0.00    -0.398 OA
HETATM   22  H   UNL     1     -20.262 -10.786   1.413  1.00  0.00     0.209 HD
ENDBRANCH  20  21
ENDBRANCH  12  20
ENDBRANCH   7   8
ENDBRANCH   2   7
BRANCH   1  23
HETATM   23  C   UNL     1     -17.392 -10.866  -2.924  1.00  0.00     0.202 C 
BRANCH  23  24
HETATM   24  O   UNL     1     -16.300 -10.694  -2.003  1.00  0.00    -0.389 OA
BRANCH  24  25
HETATM   25  C   UNL     1     -15.932 -11.953  -1.422  1.00  0.00     0.163 C 
HETATM   26  C   UNL     1     -15.876 -11.882   0.096  1.00  0.00     0.033 C 
ENDBRANCH  24  25
ENDBRANCH  23  24
ENDBRANCH   1  23
BRANCH   3  27
HETATM   27  O   UNL     1     -20.689 -10.371  -5.978  1.00  0.00    -0.381 OA
BRANCH  27  28
HETATM   28  C   UNL     1     -21.645 -11.386  -6.204  1.00  0.00     0.164 C 
HETATM   29  C   UNL     1     -22.149 -12.028  -4.922  1.00  0.00     0.033 C 
ENDBRANCH  27  28
ENDBRANCH   3  27
BRANCH   4  30
HETATM   30  O   UNL     1     -18.664 -11.453  -7.626  1.00  0.00    -0.379 OA
BRANCH  30  31
HETATM   31  C   UNL     1     -18.707 -12.569  -8.496  1.00  0.00     0.164 C 
HETATM   32  C   UNL     1     -19.753 -13.538  -7.970  1.00  0.00     0.033 C 
ENDBRANCH  30  31
ENDBRANCH   4  30
BRANCH   5  33
HETATM   33  O   UNL     1     -16.538 -12.917  -6.513  1.00  0.00    -0.363 OA
HETATM   34  C   UNL     1     -15.188 -12.497  -6.618  1.00  0.00     0.204 C 
ENDBRANCH   5  33
TORSDOF 15
BEGIN_RES ARG D 557
REMARK  4 active torsions:
REMARK  status: ('A' for Active; 'I' for Inactive)
REMARK    1  A    between atoms: CA   and  CB  
REMARK    2  A    between atoms: CB   and  CG  
REMARK    3  A    between atoms: CG   and  CD  
REMARK    4  A    between atoms: CD   and  NE  
REMARK       I    between atoms: NE   and  CZ  
REMARK       I    between atoms: CZ   and  NH1 
REMARK       I    between atoms: CZ   and  NH2 
ROOT
ATOM      1  CA  ARG D 557     -26.217   2.705 -17.014  1.00 35.49     0.159 C 
ENDROOT
BRANCH   1   2
ATOM      2  CB  ARG D 557     -26.789   1.319 -17.183  1.00 35.49     0.034 C 
BRANCH   2   3
ATOM      3  CG  ARG D 557     -25.833   0.205 -17.187  1.00 35.49     0.027 C 
BRANCH   3   4
ATOM      4  CD  ARG D 557     -24.743   0.394 -16.201  1.00 35.49     0.116 C 
BRANCH   4   5
ATOM      5  NE  ARG D 557     -24.907  -0.446 -15.044  1.00 35.49    -0.212 N 
ATOM      6  CZ  ARG D 557     -24.097  -1.413 -14.676  1.00 35.49     0.666 C 
ATOM      7  NH1 ARG D 557     -23.017  -1.734 -15.363  1.00 35.49    -0.235 N 
ATOM      8  NH2 ARG D 557     -24.390  -2.058 -13.584  1.00 35.49    -0.235 N 
ATOM      9  HH  ARG D 557     -22.804  -1.321 -16.083  1.00 35.49     0.174 HD
ATOM     10  HH  ARG D 557     -22.524  -2.372 -15.073  1.00 35.49     0.174 HD
ATOM     11  HH  ARG D 557     -25.090  -1.825 -13.157  1.00 35.49     0.174 HD
ATOM     12  HH  ARG D 557     -23.889  -2.686 -13.313  1.00 35.49     0.174 HD
ATOM     13  HE  ARG D 557     -25.616  -0.356 -14.583  1.00 35.49     0.178 HD
ENDBRANCH   4   5
ENDBRANCH   3   4
ENDBRANCH   2   3
ENDBRANCH   1   2
END_RES ARG D 557
BEGIN_RES GLU D 570
REMARK  3 active torsions:
REMARK  status: ('A' for Active; 'I' for Inactive)
REMARK    5  A    between atoms: CA   and  CB  
REMARK    6  A    between atoms: CB   and  CG  
REMARK    7  A    between atoms: CG   and  CD  
ROOT
ATOM     14  CA  GLU D 570     -18.033  -6.348 -13.375  1.00 32.92     0.160 C 
ENDROOT
BRANCH  14  15
ATOM     15  CB  GLU D 570     -19.500  -6.345 -13.794  1.00 32.92     0.043 C 
BRANCH  15  16
ATOM     16  CG  GLU D 570     -20.437  -5.511 -12.999  1.00 32.92     0.100 C 
BRANCH  16  17
ATOM     17  CD  GLU D 570     -21.742  -5.247 -13.713  1.00 32.92     0.185 C 
ATOM     18  OE1 GLU D 570     -22.334  -4.168 -13.513  1.00 32.92    -0.647 OA
ATOM     19  OE2 GLU D 570     -22.186  -6.135 -14.467  1.00 32.92    -0.647 OA
ENDBRANCH  16  17
ENDBRANCH  15  16
ENDBRANCH  14  15
END_RES GLU D 570
ENDMDL
MODEL 7
REMARK VINA RESULT:      -6.3     10.475     14.388
REMARK  15 active torsions:
REMARK  status: ('A' for Active; 'I' for Inactive)
REMARK    1  A    between atoms: C_2  and  O_3 
REMARK    2  A    between atoms: O_3  and  C_4 
REMARK    3  A    between atoms: C_4  and  C_5 
REMARK    4  A    between atoms: C_6  and  O_19 
REMARK    5  A    between atoms: C_7  and  O_16 
REMARK    6  A    between atoms: C_8  and  O_13 
REMARK    7  A    between atoms: C_9  and  O_11 
REMARK    8  A    between atoms: O_13  and  C_14 
REMARK    9  A    between atoms: O_16  and  C_17 
REMARK   10  A    between atoms: O_19  and  C_20 
REMARK   11  A    between atoms: C_21  and  O_31 
REMARK   12  A    between atoms: C_22  and  O_30 
REMARK   13  A    between atoms: C_23  and  O_28 
REMARK   14  A    between atoms: C_24  and  C_26 
REMARK   15  A    between atoms: C_26  and  O_27 
ROOT
HETATM    1  C   UNL     1     -21.779  -8.633  -2.739  1.00  0.00     0.180 C 
HETATM    2  C   UNL     1     -21.087 -10.040  -2.644  1.00  0.00     0.187 C 
HETATM    3  C   UNL     1     -19.551  -9.845  -2.986  1.00  0.00     0.186 C 
HETATM    4  C   UNL     1     -19.273  -8.933  -4.225  1.00  0.00     0.208 C 
HETATM    5  C   UNL     1     -20.203  -7.691  -4.277  1.00  0.00     0.291 C 
HETATM    6  O   UNL     1     -21.556  -8.061  -4.037  1.00  0.00    -0.348 OA
ENDROOT
BRANCH   2   7
HETATM    7  O   UNL     1     -21.298 -10.689  -1.348  1.00  0.00    -0.348 OA
BRANCH   7   8
HETATM    8  C   UNL     1     -21.843 -12.034  -1.423  1.00  0.00     0.292 C 
HETATM    9  C   UNL     1     -22.875 -12.338  -0.311  1.00  0.00     0.204 C 
HETATM   10  C   UNL     1     -22.279 -12.838   1.011  1.00  0.00     0.183 C 
HETATM   11  C   UNL     1     -21.014 -13.717   0.870  1.00  0.00     0.183 C 
HETATM   12  C   UNL     1     -20.133 -13.277  -0.309  1.00  0.00     0.179 C 
HETATM   13  O   UNL     1     -20.870 -13.059  -1.525  1.00  0.00    -0.348 OA
BRANCH   9  14
HETATM   14  O   UNL     1     -23.746 -11.220  -0.045  1.00  0.00    -0.388 OA
HETATM   15  H   UNL     1     -24.561 -11.571   0.361  1.00  0.00     0.210 HD
ENDBRANCH   9  14
BRANCH  10  16
HETATM   16  O   UNL     1     -23.302 -13.484   1.789  1.00  0.00    -0.390 OA
HETATM   17  H   UNL     1     -24.104 -12.935   1.705  1.00  0.00     0.210 HD
ENDBRANCH  10  16
BRANCH  11  18
HETATM   18  O   UNL     1     -21.175 -15.137   1.015  1.00  0.00    -0.385 OA
HETATM   19  C   UNL     1     -20.713 -15.778   2.189  1.00  0.00     0.202 C 
ENDBRANCH  11  18
BRANCH  12  20
HETATM   20  C   UNL     1     -19.029 -14.288  -0.630  1.00  0.00     0.198 C 
BRANCH  20  21
HETATM   21  O   UNL     1     -19.589 -15.356  -1.401  1.00  0.00    -0.398 OA
HETATM   22  H   UNL     1     -19.178 -15.282  -2.284  1.00  0.00     0.209 HD
ENDBRANCH  20  21
ENDBRANCH  12  20
ENDBRANCH   7   8
ENDBRANCH   2   7
BRANCH   1  23
HETATM   23  C   UNL     1     -21.398  -7.672  -1.575  1.00  0.00     0.202 C 
BRANCH  23  24
HETATM   24  O   UNL     1     -22.553  -7.101  -0.931  1.00  0.00    -0.389 OA
BRANCH  24  25
HETATM   25  C   UNL     1     -22.893  -7.853   0.242  1.00  0.00     0.163 C 
HETATM   26  C   UNL     1     -21.661  -8.222   1.055  1.00  0.00     0.033 C 
ENDBRANCH  24  25
ENDBRANCH  23  24
ENDBRANCH   1  23
BRANCH   3  27
HETATM   27  O   UNL     1     -18.604 -10.929  -2.995  1.00  0.00    -0.381 OA
BRANCH  27  28
HETATM   28  C   UNL     1     -17.507 -11.013  -2.108  1.00  0.00     0.164 C 
HETATM   29  C   UNL     1     -16.268 -10.298  -2.624  1.00  0.00     0.033 C 
ENDBRANCH  27  28
ENDBRANCH   3  27
BRANCH   4  30
HETATM   30  O   UNL     1     -19.161  -9.666  -5.460  1.00  0.00    -0.379 OA
BRANCH  30  31
HETATM   31  C   UNL     1     -17.884  -9.734  -6.067  1.00  0.00     0.164 C 
HETATM   32  C   UNL     1     -17.543 -11.197  -6.288  1.00  0.00     0.033 C 
ENDBRANCH  30  31
ENDBRANCH   4  30
BRANCH   5  33
HETATM   33  O   UNL     1     -20.091  -7.013  -5.534  1.00  0.00    -0.363 OA
HETATM   34  C   UNL     1     -21.107  -6.039  -5.704  1.00  0.00     0.204 C 
ENDBRANCH   5  33
TORSDOF 15
BEGIN_RES ARG D 557
REMARK  4 active torsions:
REMARK  status: ('A' for Active; 'I' for Inactive)
REMARK    1  A    between atoms: CA   and  CB  
REMARK    2  A    between atoms: CB   and  CG  
REMARK    3  A    between atoms: CG   and  CD  
REMARK    4  A    between atoms: CD   and  NE  
REMARK       I    between atoms: NE   and  CZ  
REMARK       I    between atoms: CZ   and  NH1 
REMARK       I    between atoms: CZ   and  NH2 
ROOT
ATOM      1  CA  ARG D 557     -26.217   2.705 -17.014  1.00 35.49     0.159 C 
ENDROOT
BRANCH   1   2
ATOM      2  CB  ARG D 557     -26.789   1.319 -17.183  1.00 35.49     0.034 C 
BRANCH   2   3
ATOM      3  CG  ARG D 557     -25.865   0.195 -16.989  1.00 35.49     0.027 C 
BRANCH   3   4
ATOM      4  CD  ARG D 557     -26.271  -0.681 -15.866  1.00 35.49     0.116 C 
BRANCH   4   5
ATOM      5  NE  ARG D 557     -25.197  -0.898 -14.932  1.00 35.49    -0.212 N 
ATOM      6  CZ  ARG D 557     -24.899  -2.041 -14.356  1.00 35.49     0.666 C 
ATOM      7  NH1 ARG D 557     -25.589  -3.145 -14.573  1.00 35.49    -0.235 N 
ATOM      8  NH2 ARG D 557     -23.876  -2.059 -13.551  1.00 35.49    -0.235 N 
ATOM      9  HH  ARG D 557     -26.264  -3.157 -15.101  1.00 35.49     0.174 HD
ATOM     10  HH  ARG D 557     -25.346  -3.862 -14.171  1.00 35.49     0.174 HD
ATOM     11  HH  ARG D 557     -23.445  -1.332 -13.436  1.00 35.49     0.174 HD
ATOM     12  HH  ARG D 557     -23.651  -2.779 -13.164  1.00 35.49     0.174 HD
ATOM     13  HE  ARG D 557     -24.745  -0.223 -14.679  1.00 35.49     0.178 HD
ENDBRANCH   4   5
ENDBRANCH   3   4
ENDBRANCH   2   3
ENDBRANCH   1   2
END_RES ARG D 557
BEGIN_RES GLU D 570
REMARK  3 active torsions:
REMARK  status: ('A' for Active; 'I' for Inactive)
REMARK    5  A    between atoms: CA   and  CB  
REMARK    6  A    between atoms: CB   and  CG  
REMARK    7  A    between atoms: CG   and  CD  
ROOT
ATOM     14  CA  GLU D 570     -18.033  -6.348 -13.375  1.00 32.92     0.160 C 
ENDROOT
BRANCH  14  15
ATOM     15  CB  GLU D 570     -19.500  -6.345 -13.794  1.00 32.92     0.043 C 
BRANCH  15  16
ATOM     16  CG  GLU D 570     -20.440  -5.523 -12.989  1.00 32.92     0.100 C 
BRANCH  16  17
ATOM     17  CD  GLU D 570     -21.685  -5.134 -13.752  1.00 32.92     0.185 C 
ATOM     18  OE1 GLU D 570     -21.614  -4.978 -14.986  1.00 32.92    -0.647 OA
ATOM     19  OE2 GLU D 570     -22.739  -4.968 -13.106  1.00 32.92    -0.647 OA
ENDBRANCH  16  17
ENDBRANCH  15  16
ENDBRANCH  14  15
END_RES GLU D 570
ENDMDL
MODEL 8
REMARK VINA RESULT:      -6.2      9.911     14.090
REMARK  15 active torsions:
REMARK  status: ('A' for Active; 'I' for Inactive)
REMARK    1  A    between atoms: C_2  and  O_3 
REMARK    2  A    between atoms: O_3  and  C_4 
REMARK    3  A    between atoms: C_4  and  C_5 
REMARK    4  A    between atoms: C_6  and  O_19 
REMARK    5  A    between atoms: C_7  and  O_16 
REMARK    6  A    between atoms: C_8  and  O_13 
REMARK    7  A    between atoms: C_9  and  O_11 
REMARK    8  A    between atoms: O_13  and  C_14 
REMARK    9  A    between atoms: O_16  and  C_17 
REMARK   10  A    between atoms: O_19  and  C_20 
REMARK   11  A    between atoms: C_21  and  O_31 
REMARK   12  A    between atoms: C_22  and  O_30 
REMARK   13  A    between atoms: C_23  and  O_28 
REMARK   14  A    between atoms: C_24  and  C_26 
REMARK   15  A    between atoms: C_26  and  O_27 
ROOT
HETATM    1  C   UNL     1     -19.690  -8.500  -3.475  1.00  0.00     0.180 C 
HETATM    2  C   UNL     1     -18.727  -9.638  -2.978  1.00  0.00     0.187 C 
HETATM    3  C   UNL     1     -19.623 -10.792  -2.363  1.00  0.00     0.186 C 
HETATM    4  C   UNL     1     -20.771 -10.292  -1.426  1.00  0.00     0.208 C 
HETATM    5  C   UNL     1     -21.478  -9.020  -1.968  1.00  0.00     0.291 C 
HETATM    6  O   UNL     1     -20.524  -8.054  -2.395  1.00  0.00    -0.348 OA
ENDROOT
BRANCH   2   7
HETATM    7  O   UNL     1     -17.830 -10.121  -4.031  1.00  0.00    -0.348 OA
BRANCH   7   8
HETATM    8  C   UNL     1     -16.416  -9.932  -3.758  1.00  0.00     0.292 C 
HETATM    9  C   UNL     1     -15.508 -10.290  -4.960  1.00  0.00     0.204 C 
HETATM   10  C   UNL     1     -15.116 -11.769  -5.060  1.00  0.00     0.183 C 
HETATM   11  C   UNL     1     -14.924 -12.491  -3.705  1.00  0.00     0.183 C 
HETATM   12  C   UNL     1     -15.895 -11.974  -2.633  1.00  0.00     0.179 C 
HETATM   13  O   UNL     1     -15.959 -10.540  -2.561  1.00  0.00    -0.348 OA
BRANCH   9  14
HETATM   14  O   UNL     1     -16.065  -9.861  -6.219  1.00  0.00    -0.388 OA
HETATM   15  H   UNL     1     -15.972  -8.891  -6.267  1.00  0.00     0.210 HD
ENDBRANCH   9  14
BRANCH  10  16
HETATM   16  O   UNL     1     -13.966 -11.908  -5.913  1.00  0.00    -0.390 OA
HETATM   17  H   UNL     1     -13.241 -11.414  -5.486  1.00  0.00     0.210 HD
ENDBRANCH  10  16
BRANCH  11  18
HETATM   18  O   UNL     1     -13.578 -12.709  -3.255  1.00  0.00    -0.385 OA
HETATM   19  C   UNL     1     -13.005 -14.000  -3.356  1.00  0.00     0.202 C 
ENDBRANCH  11  18
BRANCH  12  20
HETATM   20  C   UNL     1     -15.545 -12.476  -1.230  1.00  0.00     0.198 C 
BRANCH  20  21
HETATM   21  O   UNL     1     -16.385 -11.814  -0.278  1.00  0.00    -0.398 OA
HETATM   22  H   UNL     1     -17.296 -12.081  -0.505  1.00  0.00     0.209 HD
ENDBRANCH  20  21
ENDBRANCH  12  20
ENDBRANCH   7   8
ENDBRANCH   2   7
BRANCH   1  23
HETATM   23  C   UNL     1     -20.495  -8.880  -4.752  1.00  0.00     0.202 C 
BRANCH  23  24
HETATM   24  O   UNL     1     -20.358  -7.904  -5.801  1.00  0.00    -0.389 OA
BRANCH  24  25
HETATM   25  C   UNL     1     -21.231  -6.790  -5.565  1.00  0.00     0.163 C 
HETATM   26  C   UNL     1     -20.484  -5.466  -5.607  1.00  0.00     0.033 C 
ENDBRANCH  24  25
ENDBRANCH  23  24
ENDBRANCH   1  23
BRANCH   3  27
HETATM   27  O   UNL     1     -19.074 -12.001  -1.807  1.00  0.00    -0.381 OA
BRANCH  27  28
HETATM   28  C   UNL     1     -19.378 -13.291  -2.297  1.00  0.00     0.164 C 
HETATM   29  C   UNL     1     -19.360 -13.372  -3.816  1.00  0.00     0.033 C 
ENDBRANCH  27  28
ENDBRANCH   3  27
BRANCH   4  30
HETATM   30  O   UNL     1     -20.393 -10.236  -0.038  1.00  0.00    -0.379 OA
BRANCH  30  31
HETATM   31  C   UNL     1     -21.121 -11.040   0.872  1.00  0.00     0.164 C 
HETATM   32  C   UNL     1     -22.034 -11.952   0.071  1.00  0.00     0.033 C 
ENDBRANCH  30  31
ENDBRANCH   4  30
BRANCH   5  33
HETATM   33  O   UNL     1     -22.350  -8.453  -0.984  1.00  0.00    -0.363 OA
HETATM   34  C   UNL     1     -22.256  -7.039  -0.943  1.00  0.00     0.204 C 
ENDBRANCH   5  33
TORSDOF 15
BEGIN_RES ARG D 557
REMARK  4 active torsions:
REMARK  status: ('A' for Active; 'I' for Inactive)
REMARK    1  A    between atoms: CA   and  CB  
REMARK    2  A    between atoms: CB   and  CG  
REMARK    3  A    between atoms: CG   and  CD  
REMARK    4  A    between atoms: CD   and  NE  
REMARK       I    between atoms: NE   and  CZ  
REMARK       I    between atoms: CZ   and  NH1 
REMARK       I    between atoms: CZ   and  NH2 
ROOT
ATOM      1  CA  ARG D 557     -26.217   2.705 -17.014  1.00 35.49     0.159 C 
ENDROOT
BRANCH   1   2
ATOM      2  CB  ARG D 557     -26.789   1.319 -17.183  1.00 35.49     0.034 C 
BRANCH   2   3
ATOM      3  CG  ARG D 557     -25.934   0.197 -16.777  1.00 35.49     0.027 C 
BRANCH   3   4
ATOM      4  CD  ARG D 557     -26.692  -0.869 -16.083  1.00 35.49     0.116 C 
BRANCH   4   5
ATOM      5  NE  ARG D 557     -25.967  -1.410 -14.964  1.00 35.49    -0.212 N 
ATOM      6  CZ  ARG D 557     -25.916  -2.678 -14.623  1.00 35.49     0.666 C 
ATOM      7  NH1 ARG D 557     -26.561  -3.618 -15.288  1.00 35.49    -0.235 N 
ATOM      8  NH2 ARG D 557     -25.190  -2.993 -13.589  1.00 35.49    -0.235 N 
ATOM      9  HH  ARG D 557     -27.043  -3.434 -15.972  1.00 35.49     0.174 HD
ATOM     10  HH  ARG D 557     -26.489  -4.429 -15.021  1.00 35.49     0.174 HD
ATOM     11  HH  ARG D 557     -24.779  -2.366 -13.183  1.00 35.49     0.174 HD
ATOM     12  HH  ARG D 557     -25.130  -3.801 -13.341  1.00 35.49     0.174 HD
ATOM     13  HE  ARG D 557     -25.581  -0.865 -14.437  1.00 35.49     0.178 HD
ENDBRANCH   4   5
ENDBRANCH   3   4
ENDBRANCH   2   3
ENDBRANCH   1   2
END_RES ARG D 557
BEGIN_RES GLU D 570
REMARK  3 active torsions:
REMARK  status: ('A' for Active; 'I' for Inactive)
REMARK    5  A    between atoms: CA   and  CB  
REMARK    6  A    between atoms: CB   and  CG  
REMARK    7  A    between atoms: CG   and  CD  
ROOT
ATOM     14  CA  GLU D 570     -18.033  -6.348 -13.375  1.00 32.92     0.160 C 
ENDROOT
BRANCH  14  15
ATOM     15  CB  GLU D 570     -19.500  -6.345 -13.794  1.00 32.92     0.043 C 
BRANCH  15  16
ATOM     16  CG  GLU D 570     -19.797  -6.218 -15.244  1.00 32.92     0.100 C 
BRANCH  16  17
ATOM     17  CD  GLU D 570     -21.059  -5.435 -15.521  1.00 32.92     0.185 C 
ATOM     18  OE1 GLU D 570     -21.398  -5.230 -16.702  1.00 32.92    -0.647 OA
ATOM     19  OE2 GLU D 570     -21.707  -5.006 -14.545  1.00 32.92    -0.647 OA
ENDBRANCH  16  17
ENDBRANCH  15  16
ENDBRANCH  14  15
END_RES GLU D 570
ENDMDL
MODEL 9
REMARK VINA RESULT:      -6.2     10.086     14.094
REMARK  15 active torsions:
REMARK  status: ('A' for Active; 'I' for Inactive)
REMARK    1  A    between atoms: C_2  and  O_3 
REMARK    2  A    between atoms: O_3  and  C_4 
REMARK    3  A    between atoms: C_4  and  C_5 
REMARK    4  A    between atoms: C_6  and  O_19 
REMARK    5  A    between atoms: C_7  and  O_16 
REMARK    6  A    between atoms: C_8  and  O_13 
REMARK    7  A    between atoms: C_9  and  O_11 
REMARK    8  A    between atoms: O_13  and  C_14 
REMARK    9  A    between atoms: O_16  and  C_17 
REMARK   10  A    between atoms: O_19  and  C_20 
REMARK   11  A    between atoms: C_21  and  O_31 
REMARK   12  A    between atoms: C_22  and  O_30 
REMARK   13  A    between atoms: C_23  and  O_28 
REMARK   14  A    between atoms: C_24  and  C_26 
REMARK   15  A    between atoms: C_26  and  O_27 
ROOT
HETATM    1  C   UNL     1     -19.268  -9.276  -4.306  1.00  0.00     0.180 C 
HETATM    2  C   UNL     1     -18.997  -9.740  -2.830  1.00  0.00     0.187 C 
HETATM    3  C   UNL     1     -20.393  -9.806  -2.081  1.00  0.00     0.186 C 
HETATM    4  C   UNL     1     -21.328  -8.580  -2.343  1.00  0.00     0.208 C 
HETATM    5  C   UNL     1     -21.307  -8.114  -3.825  1.00  0.00     0.291 C 
HETATM    6  O   UNL     1     -19.971  -8.024  -4.308  1.00  0.00    -0.348 OA
ENDROOT
BRANCH   2   7
HETATM    7  O   UNL     1     -18.259 -11.004  -2.759  1.00  0.00    -0.348 OA
BRANCH   7   8
HETATM    8  C   UNL     1     -16.837 -10.863  -2.497  1.00  0.00     0.292 C 
HETATM    9  C   UNL     1     -15.948 -11.523  -3.580  1.00  0.00     0.204 C 
HETATM   10  C   UNL     1     -15.666 -13.016  -3.366  1.00  0.00     0.183 C 
HETATM   11  C   UNL     1     -15.540 -13.457  -1.889  1.00  0.00     0.183 C 
HETATM   12  C   UNL     1     -16.479 -12.664  -0.968  1.00  0.00     0.179 C 
HETATM   13  O   UNL     1     -16.437 -11.244  -1.191  1.00  0.00    -0.348 OA
BRANCH   9  14
HETATM   14  O   UNL     1     -16.461 -11.323  -4.912  1.00  0.00    -0.388 OA
HETATM   15  H   UNL     1     -15.872 -10.687  -5.361  1.00  0.00     0.210 HD
ENDBRANCH   9  14
BRANCH  10  16
HETATM   16  O   UNL     1     -14.522 -13.407  -4.146  1.00  0.00    -0.390 OA
HETATM   17  H   UNL     1     -13.913 -13.865  -3.536  1.00  0.00     0.210 HD
ENDBRANCH  10  16
BRANCH  11  18
HETATM   18  O   UNL     1     -14.218 -13.673  -1.373  1.00  0.00    -0.385 OA
HETATM   19  C   UNL     1     -13.742 -14.994  -1.195  1.00  0.00     0.202 C 
ENDBRANCH  11  18
BRANCH  12  20
HETATM   20  C   UNL     1     -16.180 -12.891   0.516  1.00  0.00     0.198 C 
BRANCH  20  21
HETATM   21  O   UNL     1     -16.009 -11.622   1.154  1.00  0.00    -0.398 OA
HETATM   22  H   UNL     1     -16.856 -11.441   1.605  1.00  0.00     0.209 HD
ENDBRANCH  20  21
ENDBRANCH  12  20
ENDBRANCH   7   8
ENDBRANCH   2   7
BRANCH   1  23
HETATM   23  C   UNL     1     -19.955 -10.363  -5.184  1.00  0.00     0.202 C 
BRANCH  23  24
HETATM   24  O   UNL     1     -19.082 -10.880  -6.205  1.00  0.00    -0.389 OA
BRANCH  24  25
HETATM   25  C   UNL     1     -19.713 -11.965  -6.900  1.00  0.00     0.163 C 
HETATM   26  C   UNL     1     -21.216 -11.989  -6.667  1.00  0.00     0.033 C 
ENDBRANCH  24  25
ENDBRANCH  23  24
ENDBRANCH   1  23
BRANCH   3  27
HETATM   27  O   UNL     1     -20.528 -10.197  -0.703  1.00  0.00    -0.381 OA
BRANCH  27  28
HETATM   28  C   UNL     1     -21.248 -11.337  -0.284  1.00  0.00     0.164 C 
HETATM   29  C   UNL     1     -21.641 -12.251  -1.434  1.00  0.00     0.033 C 
ENDBRANCH  27  28
ENDBRANCH   3  27
BRANCH   4  30
HETATM   30  O   UNL     1     -21.178  -7.529  -1.370  1.00  0.00    -0.379 OA
BRANCH  30  31
HETATM   31  C   UNL     1     -22.358  -6.987  -0.806  1.00  0.00     0.164 C 
HETATM   32  C   UNL     1     -22.866  -7.956   0.248  1.00  0.00     0.033 C 
ENDBRANCH  30  31
ENDBRANCH   4  30
BRANCH   5  33
HETATM   33  O   UNL     1     -21.975  -6.857  -3.982  1.00  0.00    -0.363 OA
HETATM   34  C   UNL     1     -21.685  -6.254  -5.232  1.00  0.00     0.204 C 
ENDBRANCH   5  33
TORSDOF 15
BEGIN_RES ARG D 557
REMARK  4 active torsions:
REMARK  status: ('A' for Active; 'I' for Inactive)
REMARK    1  A    between atoms: CA   and  CB  
REMARK    2  A    between atoms: CB   and  CG  
REMARK    3  A    between atoms: CG   and  CD  
REMARK    4  A    between atoms: CD   and  NE  
REMARK       I    between atoms: NE   and  CZ  
REMARK       I    between atoms: CZ   and  NH1 
REMARK       I    between atoms: CZ   and  NH2 
ROOT
ATOM      1  CA  ARG D 557     -26.217   2.705 -17.014  1.00 35.49     0.159 C 
ENDROOT
BRANCH   1   2
ATOM      2  CB  ARG D 557     -26.789   1.319 -17.183  1.00 35.49     0.034 C 
BRANCH   2   3
ATOM      3  CG  ARG D 557     -25.956   0.200 -16.725  1.00 35.49     0.027 C 
BRANCH   3   4
ATOM      4  CD  ARG D 557     -26.749  -0.857 -16.056  1.00 35.49     0.116 C 
BRANCH   4   5
ATOM      5  NE  ARG D 557     -28.001  -1.099 -16.722  1.00 35.49    -0.212 N 
ATOM      6  CZ  ARG D 557     -28.525  -2.279 -16.968  1.00 35.49     0.666 C 
ATOM      7  NH1 ARG D 557     -27.926  -3.405 -16.630  1.00 35.49    -0.235 N 
ATOM      8  NH2 ARG D 557     -29.682  -2.310 -17.564  1.00 35.49    -0.235 N 
ATOM      9  HH  ARG D 557     -27.165  -3.408 -16.235  1.00 35.49     0.174 HD
ATOM     10  HH  ARG D 557     -28.316  -4.145 -16.813  1.00 35.49     0.174 HD
ATOM     11  HH  ARG D 557     -30.049  -1.566 -17.764  1.00 35.49     0.174 HD
ATOM     12  HH  ARG D 557     -30.053  -3.052 -17.736  1.00 35.49     0.174 HD
ATOM     13  HE  ARG D 557     -28.421  -0.430 -17.040  1.00 35.49     0.178 HD
ENDBRANCH   4   5
ENDBRANCH   3   4
ENDBRANCH   2   3
ENDBRANCH   1   2
END_RES ARG D 557
BEGIN_RES GLU D 570
REMARK  3 active torsions:
REMARK  status: ('A' for Active; 'I' for Inactive)
REMARK    5  A    between atoms: CA   and  CB  
REMARK    6  A    between atoms: CB   and  CG  
REMARK    7  A    between atoms: CG   and  CD  
ROOT
ATOM     14  CA  GLU D 570     -18.033  -6.348 -13.375  1.00 32.92     0.160 C 
ENDROOT
BRANCH  14  15
ATOM     15  CB  GLU D 570     -19.500  -6.345 -13.794  1.00 32.92     0.043 C 
BRANCH  15  16
ATOM     16  CG  GLU D 570     -19.797  -6.269 -15.248  1.00 32.92     0.100 C 
BRANCH  16  17
ATOM     17  CD  GLU D 570     -20.816  -7.290 -15.696  1.00 32.92     0.185 C 
ATOM     18  OE1 GLU D 570     -20.600  -8.497 -15.478  1.00 32.92    -0.647 OA
ATOM     19  OE2 GLU D 570     -21.835  -6.878 -16.286  1.00 32.92    -0.647 OA
ENDBRANCH  16  17
ENDBRANCH  15  16
ENDBRANCH  14  15
END_RES GLU D 570
ENDMDL
