MODEL 1
REMARK VINA RESULT:      -7.6      0.000      0.000
REMARK  19 active torsions:
REMARK  status: ('A' for Active; 'I' for Inactive)
REMARK    1  A    between atoms: C_2  and  C_4 
REMARK    2  A    between atoms: C_4  and  C_5 
REMARK    3  A    between atoms: C_5  and  C_6 
REMARK    4  A    between atoms: C_6  and  C_7 
REMARK    5  A    between atoms: C_7  and  C_8 
REMARK    6  A    between atoms: C_8  and  C_9 
REMARK    7  A    between atoms: C_9  and  C_10 
REMARK    8  A    between atoms: C_10  and  C_11 
REMARK    9  A    between atoms: C_11  and  C_12 
REMARK   10  A    between atoms: C_12  and  C_13 
REMARK   11  A    between atoms: C_13  and  C_14 
REMARK   12  A    between atoms: C_14  and  C_15 
REMARK   13  A    between atoms: C_15  and  C_16 
REMARK   14  A    between atoms: C_16  and  C_17 
REMARK   15  A    between atoms: C_17  and  C_18 
REMARK   16  A    between atoms: C_18  and  O_20 
REMARK   17  A    between atoms: O_20  and  C_21 
REMARK   18  A    between atoms: C_21  and  C_22 
REMARK   19  A    between atoms: C_22  and  O_24 
ROOT
HETATM    1  C   UNL     1     -20.178  -5.425  -8.018  1.00  0.00     0.000 C 
ENDROOT
BRANCH   1   2
HETATM    2  C   UNL     1     -19.597  -4.760  -6.779  1.00  0.00     0.000 C 
BRANCH   2   3
HETATM    3  C   UNL     1     -20.557  -4.893  -5.608  1.00  0.00     0.000 C 
BRANCH   3   4
HETATM    4  C   UNL     1     -21.726  -5.792  -5.983  1.00  0.00     0.000 C 
BRANCH   4   5
HETATM    5  C   UNL     1     -22.290  -6.467  -4.744  1.00  0.00     0.000 C 
BRANCH   5   6
HETATM    6  C   UNL     1     -21.292  -6.380  -3.602  1.00  0.00     0.000 C 
BRANCH   6   7
HETATM    7  C   UNL     1     -22.020  -6.359  -2.270  1.00  0.00     0.000 C 
BRANCH   7   8
HETATM    8  C   UNL     1     -21.734  -7.632  -1.486  1.00  0.00     0.000 C 
BRANCH   8   9
HETATM    9  C   UNL     1     -22.183  -7.453  -0.044  1.00  0.00     0.000 C 
BRANCH   9  10
HETATM   10  C   UNL     1     -23.124  -8.574   0.386  1.00  0.00     0.004 C 
BRANCH  10  11
HETATM   11  C   UNL     1     -22.735  -9.931  -0.220  1.00  0.00    -0.023 C 
HETATM   12  C   UNL     1     -21.536 -10.503   0.537  1.00  0.00     0.009 C 
HETATM   13  C   UNL     1     -23.892 -10.933  -0.195  1.00  0.00     0.009 C 
ENDBRANCH  10  11
ENDBRANCH   9  10
ENDBRANCH   8   9
ENDBRANCH   7   8
ENDBRANCH   6   7
ENDBRANCH   5   6
ENDBRANCH   4   5
ENDBRANCH   3   4
ENDBRANCH   2   3
ENDBRANCH   1   2
BRANCH   1  14
HETATM   14  C   UNL     1     -19.927  -4.564  -9.247  1.00  0.00     0.000 C 
BRANCH  14  15
HETATM   15  C   UNL     1     -21.156  -4.526 -10.150  1.00  0.00     0.000 C 
BRANCH  15  16
HETATM   16  C   UNL     1     -22.186  -3.559  -9.579  1.00  0.00     0.010 C 
BRANCH  16  17
HETATM   17  C   UNL     1     -23.568  -4.191  -9.471  1.00  0.00     0.111 C 
BRANCH  17  18
HETATM   18  C   UNL     1     -24.572  -3.381 -10.253  1.00  0.00     0.258 C 
HETATM   19  O   UNL     1     -25.769  -3.364 -10.047  1.00  0.00    -0.265 OA
BRANCH  18  20
HETATM   20  O   UNL     1     -23.932  -2.748 -11.281  1.00  0.00    -0.319 OA
BRANCH  20  21
HETATM   21  C   UNL     1     -24.351  -3.208 -12.571  1.00  0.00     0.210 C 
BRANCH  21  22
HETATM   22  C   UNL     1     -23.244  -3.951 -13.319  1.00  0.00     0.138 C 
HETATM   23  C   UNL     1     -23.395  -5.459 -13.213  1.00  0.00     0.041 C 
BRANCH  22  24
HETATM   24  O   UNL     1     -23.246  -3.565 -14.691  1.00  0.00    -0.394 OA
HETATM   25  H   UNL     1     -23.995  -2.960 -14.834  1.00  0.00     0.210 HD
ENDBRANCH  22  24
ENDBRANCH  21  22
ENDBRANCH  20  21
ENDBRANCH  18  20
ENDBRANCH  17  18
ENDBRANCH  16  17
ENDBRANCH  15  16
ENDBRANCH  14  15
ENDBRANCH   1  14
TORSDOF 19
BEGIN_RES ARG D 557
REMARK  4 active torsions:
REMARK  status: ('A' for Active; 'I' for Inactive)
REMARK    1  A    between atoms: CA   and  CB  
REMARK    2  A    between atoms: CB   and  CG  
REMARK    3  A    between atoms: CG   and  CD  
REMARK    4  A    between atoms: CD   and  NE  
REMARK       I    between atoms: NE   and  CZ  
REMARK       I    between atoms: CZ   and  NH1 
REMARK       I    between atoms: CZ   and  NH2 
ROOT
ATOM      1  CA  ARG D 557     -26.217   2.705 -17.014  1.00 35.49     0.159 C 
ENDROOT
BRANCH   1   2
ATOM      2  CB  ARG D 557     -26.789   1.319 -17.183  1.00 35.49     0.034 C 
BRANCH   2   3
ATOM      3  CG  ARG D 557     -25.963   0.201 -16.710  1.00 35.49     0.027 C 
BRANCH   3   4
ATOM      4  CD  ARG D 557     -26.767  -0.859 -16.061  1.00 35.49     0.116 C 
BRANCH   4   5
ATOM      5  NE  ARG D 557     -28.014  -1.088 -16.743  1.00 35.49    -0.212 N 
ATOM      6  CZ  ARG D 557     -28.565  -2.261 -16.962  1.00 35.49     0.666 C 
ATOM      7  NH1 ARG D 557     -28.003  -3.392 -16.578  1.00 35.49    -0.235 N 
ATOM      8  NH2 ARG D 557     -29.712  -2.280 -17.578  1.00 35.49    -0.235 N 
ATOM      9  HH  ARG D 557     -27.250  -3.403 -16.169  1.00 35.49     0.174 HD
ATOM     10  HH  ARG D 557     -28.411  -4.127 -16.746  1.00 35.49     0.174 HD
ATOM     11  HH  ARG D 557     -30.055  -1.533 -17.808  1.00 35.49     0.174 HD
ATOM     12  HH  ARG D 557     -30.100  -3.017 -17.734  1.00 35.49     0.174 HD
ATOM     13  HE  ARG D 557     -28.409  -0.419 -17.088  1.00 35.49     0.178 HD
ENDBRANCH   4   5
ENDBRANCH   3   4
ENDBRANCH   2   3
ENDBRANCH   1   2
END_RES ARG D 557
BEGIN_RES GLU D 570
REMARK  3 active torsions:
REMARK  status: ('A' for Active; 'I' for Inactive)
REMARK    5  A    between atoms: CA   and  CB  
REMARK    6  A    between atoms: CB   and  CG  
REMARK    7  A    between atoms: CG   and  CD  
ROOT
ATOM     14  CA  GLU D 570     -18.033  -6.348 -13.375  1.00 32.92     0.160 C 
ENDROOT
BRANCH  14  15
ATOM     15  CB  GLU D 570     -19.500  -6.345 -13.794  1.00 32.92     0.043 C 
BRANCH  15  16
ATOM     16  CG  GLU D 570     -19.876  -7.165 -14.974  1.00 32.92     0.100 C 
BRANCH  16  17
ATOM     17  CD  GLU D 570     -20.776  -6.430 -15.940  1.00 32.92     0.185 C 
ATOM     18  OE1 GLU D 570     -21.314  -7.064 -16.869  1.00 32.92    -0.647 OA
ATOM     19  OE2 GLU D 570     -20.932  -5.204 -15.776  1.00 32.92    -0.647 OA
ENDBRANCH  16  17
ENDBRANCH  15  16
ENDBRANCH  14  15
END_RES GLU D 570
ENDMDL
MODEL 2
REMARK VINA RESULT:      -7.3      1.094      1.863
REMARK  19 active torsions:
REMARK  status: ('A' for Active; 'I' for Inactive)
REMARK    1  A    between atoms: C_2  and  C_4 
REMARK    2  A    between atoms: C_4  and  C_5 
REMARK    3  A    between atoms: C_5  and  C_6 
REMARK    4  A    between atoms: C_6  and  C_7 
REMARK    5  A    between atoms: C_7  and  C_8 
REMARK    6  A    between atoms: C_8  and  C_9 
REMARK    7  A    between atoms: C_9  and  C_10 
REMARK    8  A    between atoms: C_10  and  C_11 
REMARK    9  A    between atoms: C_11  and  C_12 
REMARK   10  A    between atoms: C_12  and  C_13 
REMARK   11  A    between atoms: C_13  and  C_14 
REMARK   12  A    between atoms: C_14  and  C_15 
REMARK   13  A    between atoms: C_15  and  C_16 
REMARK   14  A    between atoms: C_16  and  C_17 
REMARK   15  A    between atoms: C_17  and  C_18 
REMARK   16  A    between atoms: C_18  and  O_20 
REMARK   17  A    between atoms: O_20  and  C_21 
REMARK   18  A    between atoms: C_21  and  C_22 
REMARK   19  A    between atoms: C_22  and  O_24 
ROOT
HETATM    1  C   UNL     1     -20.633  -5.103  -5.600  1.00  0.00     0.000 C 
ENDROOT
BRANCH   1   2
HETATM    2  C   UNL     1     -21.326  -6.441  -5.816  1.00  0.00     0.000 C 
BRANCH   2   3
HETATM    3  C   UNL     1     -22.323  -6.706  -4.700  1.00  0.00     0.000 C 
BRANCH   3   4
HETATM    4  C   UNL     1     -21.686  -6.429  -3.346  1.00  0.00     0.000 C 
BRANCH   4   5
HETATM    5  C   UNL     1     -20.863  -7.625  -2.898  1.00  0.00     0.000 C 
BRANCH   5   6
HETATM    6  C   UNL     1     -21.062  -7.867  -1.410  1.00  0.00     0.000 C 
BRANCH   6   7
HETATM    7  C   UNL     1     -22.284  -7.116  -0.915  1.00  0.00     0.000 C 
BRANCH   7   8
HETATM    8  C   UNL     1     -23.029  -7.937   0.127  1.00  0.00     0.000 C 
BRANCH   8   9
HETATM    9  C   UNL     1     -22.673  -9.407  -0.033  1.00  0.00     0.000 C 
BRANCH   9  10
HETATM   10  C   UNL     1     -23.911 -10.291   0.070  1.00  0.00     0.004 C 
BRANCH  10  11
HETATM   11  C   UNL     1     -23.985 -11.332  -1.058  1.00  0.00    -0.023 C 
HETATM   12  C   UNL     1     -22.920 -11.021  -2.109  1.00  0.00     0.009 C 
HETATM   13  C   UNL     1     -23.806 -12.762  -0.543  1.00  0.00     0.009 C 
ENDBRANCH  10  11
ENDBRANCH   9  10
ENDBRANCH   8   9
ENDBRANCH   7   8
ENDBRANCH   6   7
ENDBRANCH   5   6
ENDBRANCH   4   5
ENDBRANCH   3   4
ENDBRANCH   2   3
ENDBRANCH   1   2
BRANCH   1  14
HETATM   14  C   UNL     1     -20.922  -4.164  -6.761  1.00  0.00     0.000 C 
BRANCH  14  15
HETATM   15  C   UNL     1     -21.353  -4.941  -8.001  1.00  0.00     0.000 C 
BRANCH  15  16
HETATM   16  C   UNL     1     -22.072  -4.012  -8.969  1.00  0.00     0.010 C 
BRANCH  16  17
HETATM   17  C   UNL     1     -23.586  -4.098  -8.831  1.00  0.00     0.111 C 
BRANCH  17  18
HETATM   18  C   UNL     1     -24.254  -3.412  -9.998  1.00  0.00     0.258 C 
HETATM   19  O   UNL     1     -25.451  -3.246 -10.118  1.00  0.00    -0.265 OA
BRANCH  18  20
HETATM   20  O   UNL     1     -23.308  -3.094 -10.930  1.00  0.00    -0.319 OA
BRANCH  20  21
HETATM   21  C   UNL     1     -23.594  -3.634 -12.226  1.00  0.00     0.210 C 
BRANCH  21  22
HETATM   22  C   UNL     1     -24.157  -2.588 -13.188  1.00  0.00     0.138 C 
HETATM   23  C   UNL     1     -23.485  -2.644 -14.550  1.00  0.00     0.041 C 
BRANCH  22  24
HETATM   24  O   UNL     1     -25.562  -2.778 -13.340  1.00  0.00    -0.394 OA
HETATM   25  H   UNL     1     -25.760  -3.716 -13.172  1.00  0.00     0.210 HD
ENDBRANCH  22  24
ENDBRANCH  21  22
ENDBRANCH  20  21
ENDBRANCH  18  20
ENDBRANCH  17  18
ENDBRANCH  16  17
ENDBRANCH  15  16
ENDBRANCH  14  15
ENDBRANCH   1  14
TORSDOF 19
BEGIN_RES ARG D 557
REMARK  4 active torsions:
REMARK  status: ('A' for Active; 'I' for Inactive)
REMARK    1  A    between atoms: CA   and  CB  
REMARK    2  A    between atoms: CB   and  CG  
REMARK    3  A    between atoms: CG   and  CD  
REMARK    4  A    between atoms: CD   and  NE  
REMARK       I    between atoms: NE   and  CZ  
REMARK       I    between atoms: CZ   and  NH1 
REMARK       I    between atoms: CZ   and  NH2 
ROOT
ATOM      1  CA  ARG D 557     -26.217   2.705 -17.014  1.00 35.49     0.159 C 
ENDROOT
BRANCH   1   2
ATOM      2  CB  ARG D 557     -26.789   1.319 -17.183  1.00 35.49     0.034 C 
BRANCH   2   3
ATOM      3  CG  ARG D 557     -25.950   0.199 -16.740  1.00 35.49     0.027 C 
BRANCH   3   4
ATOM      4  CD  ARG D 557     -26.731  -0.853 -16.051  1.00 35.49     0.116 C 
BRANCH   4   5
ATOM      5  NE  ARG D 557     -27.990  -1.107 -16.700  1.00 35.49    -0.212 N 
ATOM      6  CZ  ARG D 557     -28.514  -2.291 -16.924  1.00 35.49     0.666 C 
ATOM      7  NH1 ARG D 557     -27.909  -3.412 -16.576  1.00 35.49    -0.235 N 
ATOM      8  NH2 ARG D 557     -29.677  -2.332 -17.507  1.00 35.49    -0.235 N 
ATOM      9  HH  ARG D 557     -27.144  -3.408 -16.189  1.00 35.49     0.174 HD
ATOM     10  HH  ARG D 557     -28.300  -4.155 -16.745  1.00 35.49     0.174 HD
ATOM     11  HH  ARG D 557     -30.047  -1.593 -17.714  1.00 35.49     0.174 HD
ATOM     12  HH  ARG D 557     -30.048  -3.078 -17.665  1.00 35.49     0.174 HD
ATOM     13  HE  ARG D 557     -28.414  -0.444 -17.023  1.00 35.49     0.178 HD
ENDBRANCH   4   5
ENDBRANCH   3   4
ENDBRANCH   2   3
ENDBRANCH   1   2
END_RES ARG D 557
BEGIN_RES GLU D 570
REMARK  3 active torsions:
REMARK  status: ('A' for Active; 'I' for Inactive)
REMARK    5  A    between atoms: CA   and  CB  
REMARK    6  A    between atoms: CB   and  CG  
REMARK    7  A    between atoms: CG   and  CD  
ROOT
ATOM     14  CA  GLU D 570     -18.033  -6.348 -13.375  1.00 32.92     0.160 C 
ENDROOT
BRANCH  14  15
ATOM     15  CB  GLU D 570     -19.500  -6.345 -13.794  1.00 32.92     0.043 C 
BRANCH  15  16
ATOM     16  CG  GLU D 570     -19.822  -5.849 -15.157  1.00 32.92     0.100 C 
BRANCH  16  17
ATOM     17  CD  GLU D 570     -21.306  -5.690 -15.392  1.00 32.92     0.185 C 
ATOM     18  OE1 GLU D 570     -21.704  -5.298 -16.505  1.00 32.92    -0.647 OA
ATOM     19  OE2 GLU D 570     -22.078  -5.946 -14.446  1.00 32.92    -0.647 OA
ENDBRANCH  16  17
ENDBRANCH  15  16
ENDBRANCH  14  15
END_RES GLU D 570
ENDMDL
MODEL 3
REMARK VINA RESULT:      -7.1      2.011      2.753
REMARK  19 active torsions:
REMARK  status: ('A' for Active; 'I' for Inactive)
REMARK    1  A    between atoms: C_2  and  C_4 
REMARK    2  A    between atoms: C_4  and  C_5 
REMARK    3  A    between atoms: C_5  and  C_6 
REMARK    4  A    between atoms: C_6  and  C_7 
REMARK    5  A    between atoms: C_7  and  C_8 
REMARK    6  A    between atoms: C_8  and  C_9 
REMARK    7  A    between atoms: C_9  and  C_10 
REMARK    8  A    between atoms: C_10  and  C_11 
REMARK    9  A    between atoms: C_11  and  C_12 
REMARK   10  A    between atoms: C_12  and  C_13 
REMARK   11  A    between atoms: C_13  and  C_14 
REMARK   12  A    between atoms: C_14  and  C_15 
REMARK   13  A    between atoms: C_15  and  C_16 
REMARK   14  A    between atoms: C_16  and  C_17 
REMARK   15  A    between atoms: C_17  and  C_18 
REMARK   16  A    between atoms: C_18  and  O_20 
REMARK   17  A    between atoms: O_20  and  C_21 
REMARK   18  A    between atoms: C_21  and  C_22 
REMARK   19  A    between atoms: C_22  and  O_24 
ROOT
HETATM    1  C   UNL     1     -20.754  -4.498  -6.736  1.00  0.00     0.000 C 
ENDROOT
BRANCH   1   2
HETATM    2  C   UNL     1     -20.821  -6.016  -6.816  1.00  0.00     0.000 C 
BRANCH   2   3
HETATM    3  C   UNL     1     -20.422  -6.633  -5.484  1.00  0.00     0.000 C 
BRANCH   3   4
HETATM    4  C   UNL     1     -21.023  -5.839  -4.334  1.00  0.00     0.000 C 
BRANCH   4   5
HETATM    5  C   UNL     1     -22.086  -6.661  -3.625  1.00  0.00     0.000 C 
BRANCH   5   6
HETATM    6  C   UNL     1     -22.073  -6.359  -2.135  1.00  0.00     0.000 C 
BRANCH   6   7
HETATM    7  C   UNL     1     -21.306  -7.435  -1.389  1.00  0.00     0.000 C 
BRANCH   7   8
HETATM    8  C   UNL     1     -21.572  -8.802  -2.003  1.00  0.00     0.000 C 
BRANCH   8   9
HETATM    9  C   UNL     1     -20.288  -9.617  -2.006  1.00  0.00     0.000 C 
BRANCH   9  10
HETATM   10  C   UNL     1     -19.151  -8.855  -2.679  1.00  0.00     0.004 C 
BRANCH  10  11
HETATM   11  C   UNL     1     -18.152  -9.790  -3.378  1.00  0.00    -0.023 C 
HETATM   12  C   UNL     1     -18.221  -9.573  -4.889  1.00  0.00     0.009 C 
HETATM   13  C   UNL     1     -16.717  -9.580  -2.888  1.00  0.00     0.009 C 
ENDBRANCH  10  11
ENDBRANCH   9  10
ENDBRANCH   8   9
ENDBRANCH   7   8
ENDBRANCH   6   7
ENDBRANCH   5   6
ENDBRANCH   4   5
ENDBRANCH   3   4
ENDBRANCH   2   3
ENDBRANCH   1   2
BRANCH   1  14
HETATM   14  C   UNL     1     -20.551  -3.905  -8.122  1.00  0.00     0.000 C 
BRANCH  14  15
HETATM   15  C   UNL     1     -21.367  -4.659  -9.167  1.00  0.00     0.000 C 
BRANCH  15  16
HETATM   16  C   UNL     1     -22.764  -4.061  -9.262  1.00  0.00     0.010 C 
BRANCH  16  17
HETATM   17  C   UNL     1     -23.061  -3.516 -10.654  1.00  0.00     0.111 C 
BRANCH  17  18
HETATM   18  C   UNL     1     -24.538  -3.242 -10.800  1.00  0.00     0.258 C 
HETATM   19  O   UNL     1     -25.353  -3.310  -9.902  1.00  0.00    -0.265 OA
BRANCH  18  20
HETATM   20  O   UNL     1     -24.819  -2.997 -12.114  1.00  0.00    -0.319 OA
BRANCH  20  21
HETATM   21  C   UNL     1     -23.648  -2.957 -12.939  1.00  0.00     0.210 C 
BRANCH  21  22
HETATM   22  C   UNL     1     -23.978  -2.768 -14.420  1.00  0.00     0.138 C 
HETATM   23  C   UNL     1     -25.022  -1.686 -14.640  1.00  0.00     0.041 C 
BRANCH  22  24
HETATM   24  O   UNL     1     -22.792  -2.443 -15.141  1.00  0.00    -0.394 OA
HETATM   25  H   UNL     1     -22.572  -1.513 -14.955  1.00  0.00     0.210 HD
ENDBRANCH  22  24
ENDBRANCH  21  22
ENDBRANCH  20  21
ENDBRANCH  18  20
ENDBRANCH  17  18
ENDBRANCH  16  17
ENDBRANCH  15  16
ENDBRANCH  14  15
ENDBRANCH   1  14
TORSDOF 19
BEGIN_RES ARG D 557
REMARK  4 active torsions:
REMARK  status: ('A' for Active; 'I' for Inactive)
REMARK    1  A    between atoms: CA   and  CB  
REMARK    2  A    between atoms: CB   and  CG  
REMARK    3  A    between atoms: CG   and  CD  
REMARK    4  A    between atoms: CD   and  NE  
REMARK       I    between atoms: NE   and  CZ  
REMARK       I    between atoms: CZ   and  NH1 
REMARK       I    between atoms: CZ   and  NH2 
ROOT
ATOM      1  CA  ARG D 557     -26.217   2.705 -17.014  1.00 35.49     0.159 C 
ENDROOT
BRANCH   1   2
ATOM      2  CB  ARG D 557     -26.789   1.319 -17.183  1.00 35.49     0.034 C 
BRANCH   2   3
ATOM      3  CG  ARG D 557     -28.236   1.225 -17.414  1.00 35.49     0.027 C 
BRANCH   3   4
ATOM      4  CD  ARG D 557     -28.900   0.301 -16.466  1.00 35.49     0.116 C 
BRANCH   4   5
ATOM      5  NE  ARG D 557     -28.180  -0.937 -16.322  1.00 35.49    -0.212 N 
ATOM      6  CZ  ARG D 557     -28.542  -2.098 -16.821  1.00 35.49     0.666 C 
ATOM      7  NH1 ARG D 557     -29.651  -2.255 -17.520  1.00 35.49    -0.235 N 
ATOM      8  NH2 ARG D 557     -27.756  -3.113 -16.609  1.00 35.49    -0.235 N 
ATOM      9  HH  ARG D 557     -30.181  -1.600 -17.673  1.00 35.49     0.174 HD
ATOM     10  HH  ARG D 557     -29.834  -3.035 -17.823  1.00 35.49     0.174 HD
ATOM     11  HH  ARG D 557     -27.043  -2.981 -16.160  1.00 35.49     0.174 HD
ATOM     12  HH  ARG D 557     -27.954  -3.877 -16.918  1.00 35.49     0.174 HD
ATOM     13  HE  ARG D 557     -27.491  -0.942 -15.824  1.00 35.49     0.178 HD
ENDBRANCH   4   5
ENDBRANCH   3   4
ENDBRANCH   2   3
ENDBRANCH   1   2
END_RES ARG D 557
BEGIN_RES GLU D 570
REMARK  3 active torsions:
REMARK  status: ('A' for Active; 'I' for Inactive)
REMARK    5  A    between atoms: CA   and  CB  
REMARK    6  A    between atoms: CB   and  CG  
REMARK    7  A    between atoms: CG   and  CD  
ROOT
ATOM     14  CA  GLU D 570     -18.033  -6.348 -13.375  1.00 32.92     0.160 C 
ENDROOT
BRANCH  14  15
ATOM     15  CB  GLU D 570     -19.500  -6.345 -13.794  1.00 32.92     0.043 C 
BRANCH  15  16
ATOM     16  CG  GLU D 570     -19.808  -5.993 -15.204  1.00 32.92     0.100 C 
BRANCH  16  17
ATOM     17  CD  GLU D 570     -21.257  -5.620 -15.415  1.00 32.92     0.185 C 
ATOM     18  OE1 GLU D 570     -21.556  -4.866 -16.361  1.00 32.92    -0.647 OA
ATOM     19  OE2 GLU D 570     -22.100  -6.073 -14.616  1.00 32.92    -0.647 OA
ENDBRANCH  16  17
ENDBRANCH  15  16
ENDBRANCH  14  15
END_RES GLU D 570
ENDMDL
MODEL 4
REMARK VINA RESULT:      -7.1      1.676      2.219
REMARK  19 active torsions:
REMARK  status: ('A' for Active; 'I' for Inactive)
REMARK    1  A    between atoms: C_2  and  C_4 
REMARK    2  A    between atoms: C_4  and  C_5 
REMARK    3  A    between atoms: C_5  and  C_6 
REMARK    4  A    between atoms: C_6  and  C_7 
REMARK    5  A    between atoms: C_7  and  C_8 
REMARK    6  A    between atoms: C_8  and  C_9 
REMARK    7  A    between atoms: C_9  and  C_10 
REMARK    8  A    between atoms: C_10  and  C_11 
REMARK    9  A    between atoms: C_11  and  C_12 
REMARK   10  A    between atoms: C_12  and  C_13 
REMARK   11  A    between atoms: C_13  and  C_14 
REMARK   12  A    between atoms: C_14  and  C_15 
REMARK   13  A    between atoms: C_15  and  C_16 
REMARK   14  A    between atoms: C_16  and  C_17 
REMARK   15  A    between atoms: C_17  and  C_18 
REMARK   16  A    between atoms: C_18  and  O_20 
REMARK   17  A    between atoms: O_20  and  C_21 
REMARK   18  A    between atoms: C_21  and  C_22 
REMARK   19  A    between atoms: C_22  and  O_24 
ROOT
HETATM    1  C   UNL     1     -20.524  -3.969  -7.175  1.00  0.00     0.000 C 
ENDROOT
BRANCH   1   2
HETATM    2  C   UNL     1     -20.396  -4.785  -5.897  1.00  0.00     0.000 C 
BRANCH   2   3
HETATM    3  C   UNL     1     -20.206  -6.257  -6.226  1.00  0.00     0.000 C 
BRANCH   3   4
HETATM    4  C   UNL     1     -21.223  -7.102  -5.474  1.00  0.00     0.000 C 
BRANCH   4   5
HETATM    5  C   UNL     1     -20.609  -8.432  -5.072  1.00  0.00     0.000 C 
BRANCH   5   6
HETATM    6  C   UNL     1     -20.296  -8.435  -3.585  1.00  0.00     0.000 C 
BRANCH   6   7
HETATM    7  C   UNL     1     -20.987  -9.604  -2.906  1.00  0.00     0.000 C 
BRANCH   7   8
HETATM    8  C   UNL     1     -20.214 -10.035  -1.668  1.00  0.00     0.000 C 
BRANCH   8   9
HETATM    9  C   UNL     1     -21.165 -10.146  -0.487  1.00  0.00     0.000 C 
BRANCH   9  10
HETATM   10  C   UNL     1     -22.487  -9.440  -0.773  1.00  0.00     0.004 C 
BRANCH  10  11
HETATM   11  C   UNL     1     -22.633  -8.127   0.012  1.00  0.00    -0.023 C 
HETATM   12  C   UNL     1     -21.672  -8.133   1.200  1.00  0.00     0.009 C 
HETATM   13  C   UNL     1     -22.374  -6.896  -0.860  1.00  0.00     0.009 C 
ENDBRANCH  10  11
ENDBRANCH   9  10
ENDBRANCH   8   9
ENDBRANCH   7   8
ENDBRANCH   6   7
ENDBRANCH   5   6
ENDBRANCH   4   5
ENDBRANCH   3   4
ENDBRANCH   2   3
ENDBRANCH   1   2
BRANCH   1  14
HETATM   14  C   UNL     1     -20.597  -4.889  -8.384  1.00  0.00     0.000 C 
BRANCH  14  15
HETATM   15  C   UNL     1     -22.018  -4.959  -8.935  1.00  0.00     0.000 C 
BRANCH  15  16
HETATM   16  C   UNL     1     -22.520  -3.555  -9.247  1.00  0.00     0.010 C 
BRANCH  16  17
HETATM   17  C   UNL     1     -23.082  -3.446 -10.659  1.00  0.00     0.111 C 
BRANCH  17  18
HETATM   18  C   UNL     1     -24.590  -3.400 -10.616  1.00  0.00     0.258 C 
HETATM   19  O   UNL     1     -25.271  -3.700  -9.657  1.00  0.00    -0.265 OA
BRANCH  18  20
HETATM   20  O   UNL     1     -25.061  -3.057 -11.852  1.00  0.00    -0.319 OA
BRANCH  20  21
HETATM   21  C   UNL     1     -24.025  -2.645 -12.752  1.00  0.00     0.210 C 
BRANCH  21  22
HETATM   22  C   UNL     1     -24.542  -2.396 -14.169  1.00  0.00     0.138 C 
HETATM   23  C   UNL     1     -23.622  -1.480 -14.959  1.00  0.00     0.041 C 
BRANCH  22  24
HETATM   24  O   UNL     1     -24.686  -3.637 -14.855  1.00  0.00    -0.394 OA
HETATM   25  H   UNL     1     -24.937  -4.315 -14.203  1.00  0.00     0.210 HD
ENDBRANCH  22  24
ENDBRANCH  21  22
ENDBRANCH  20  21
ENDBRANCH  18  20
ENDBRANCH  17  18
ENDBRANCH  16  17
ENDBRANCH  15  16
ENDBRANCH  14  15
ENDBRANCH   1  14
TORSDOF 19
BEGIN_RES ARG D 557
REMARK  4 active torsions:
REMARK  status: ('A' for Active; 'I' for Inactive)
REMARK    1  A    between atoms: CA   and  CB  
REMARK    2  A    between atoms: CB   and  CG  
REMARK    3  A    between atoms: CG   and  CD  
REMARK    4  A    between atoms: CD   and  NE  
REMARK       I    between atoms: NE   and  CZ  
REMARK       I    between atoms: CZ   and  NH1 
REMARK       I    between atoms: CZ   and  NH2 
ROOT
ATOM      1  CA  ARG D 557     -26.217   2.705 -17.014  1.00 35.49     0.159 C 
ENDROOT
BRANCH   1   2
ATOM      2  CB  ARG D 557     -26.789   1.319 -17.183  1.00 35.49     0.034 C 
BRANCH   2   3
ATOM      3  CG  ARG D 557     -28.239   1.224 -17.394  1.00 35.49     0.027 C 
BRANCH   3   4
ATOM      4  CD  ARG D 557     -28.883   0.271 -16.461  1.00 35.49     0.116 C 
BRANCH   4   5
ATOM      5  NE  ARG D 557     -29.233  -0.967 -17.107  1.00 35.49    -0.212 N 
ATOM      6  CZ  ARG D 557     -28.572  -2.099 -17.008  1.00 35.49     0.666 C 
ATOM      7  NH1 ARG D 557     -27.470  -2.216 -16.290  1.00 35.49    -0.235 N 
ATOM      8  NH2 ARG D 557     -29.047  -3.129 -17.646  1.00 35.49    -0.235 N 
ATOM      9  HH  ARG D 557     -27.141  -1.551 -15.860  1.00 35.49     0.174 HD
ATOM     10  HH  ARG D 557     -27.083  -2.979 -16.260  1.00 35.49     0.174 HD
ATOM     11  HH  ARG D 557     -29.764  -3.025 -18.095  1.00 35.49     0.174 HD
ATOM     12  HH  ARG D 557     -28.650  -3.877 -17.603  1.00 35.49     0.174 HD
ATOM     13  HE  ARG D 557     -29.889  -0.964 -17.647  1.00 35.49     0.178 HD
ENDBRANCH   4   5
ENDBRANCH   3   4
ENDBRANCH   2   3
ENDBRANCH   1   2
END_RES ARG D 557
BEGIN_RES GLU D 570
REMARK  3 active torsions:
REMARK  status: ('A' for Active; 'I' for Inactive)
REMARK    5  A    between atoms: CA   and  CB  
REMARK    6  A    between atoms: CB   and  CG  
REMARK    7  A    between atoms: CG   and  CD  
ROOT
ATOM     14  CA  GLU D 570     -18.033  -6.348 -13.375  1.00 32.92     0.160 C 
ENDROOT
BRANCH  14  15
ATOM     15  CB  GLU D 570     -19.500  -6.345 -13.794  1.00 32.92     0.043 C 
BRANCH  15  16
ATOM     16  CG  GLU D 570     -20.433  -5.490 -13.015  1.00 32.92     0.100 C 
BRANCH  16  17
ATOM     17  CD  GLU D 570     -21.728  -5.215 -13.743  1.00 32.92     0.185 C 
ATOM     18  OE1 GLU D 570     -21.699  -4.558 -14.801  1.00 32.92    -0.647 OA
ATOM     19  OE2 GLU D 570     -22.784  -5.648 -13.241  1.00 32.92    -0.647 OA
ENDBRANCH  16  17
ENDBRANCH  15  16
ENDBRANCH  14  15
END_RES GLU D 570
ENDMDL
MODEL 5
REMARK VINA RESULT:      -7.0      1.536      2.182
REMARK  19 active torsions:
REMARK  status: ('A' for Active; 'I' for Inactive)
REMARK    1  A    between atoms: C_2  and  C_4 
REMARK    2  A    between atoms: C_4  and  C_5 
REMARK    3  A    between atoms: C_5  and  C_6 
REMARK    4  A    between atoms: C_6  and  C_7 
REMARK    5  A    between atoms: C_7  and  C_8 
REMARK    6  A    between atoms: C_8  and  C_9 
REMARK    7  A    between atoms: C_9  and  C_10 
REMARK    8  A    between atoms: C_10  and  C_11 
REMARK    9  A    between atoms: C_11  and  C_12 
REMARK   10  A    between atoms: C_12  and  C_13 
REMARK   11  A    between atoms: C_13  and  C_14 
REMARK   12  A    between atoms: C_14  and  C_15 
REMARK   13  A    between atoms: C_15  and  C_16 
REMARK   14  A    between atoms: C_16  and  C_17 
REMARK   15  A    between atoms: C_17  and  C_18 
REMARK   16  A    between atoms: C_18  and  O_20 
REMARK   17  A    between atoms: O_20  and  C_21 
REMARK   18  A    between atoms: C_21  and  C_22 
REMARK   19  A    between atoms: C_22  and  O_24 
ROOT
HETATM    1  C   UNL     1     -21.669  -4.178  -7.407  1.00  0.00     0.000 C 
ENDROOT
BRANCH   1   2
HETATM    2  C   UNL     1     -20.418  -4.980  -7.082  1.00  0.00     0.000 C 
BRANCH   2   3
HETATM    3  C   UNL     1     -20.775  -6.203  -6.251  1.00  0.00     0.000 C 
BRANCH   3   4
HETATM    4  C   UNL     1     -20.708  -5.871  -4.768  1.00  0.00     0.000 C 
BRANCH   4   5
HETATM    5  C   UNL     1     -21.922  -6.431  -4.048  1.00  0.00     0.000 C 
BRANCH   5   6
HETATM    6  C   UNL     1     -21.498  -7.104  -2.752  1.00  0.00     0.000 C 
BRANCH   6   7
HETATM    7  C   UNL     1     -22.213  -6.470  -1.573  1.00  0.00     0.000 C 
BRANCH   7   8
HETATM    8  C   UNL     1     -22.488  -7.509  -0.495  1.00  0.00     0.000 C 
BRANCH   8   9
HETATM    9  C   UNL     1     -21.320  -8.479  -0.414  1.00  0.00     0.000 C 
BRANCH   9  10
HETATM   10  C   UNL     1     -21.730  -9.878  -0.861  1.00  0.00     0.004 C 
BRANCH  10  11
HETATM   11  C   UNL     1     -22.500 -10.641   0.229  1.00  0.00    -0.023 C 
HETATM   12  C   UNL     1     -23.917 -10.937  -0.259  1.00  0.00     0.009 C 
HETATM   13  C   UNL     1     -21.804 -11.944   0.629  1.00  0.00     0.009 C 
ENDBRANCH  10  11
ENDBRANCH   9  10
ENDBRANCH   8   9
ENDBRANCH   7   8
ENDBRANCH   6   7
ENDBRANCH   5   6
ENDBRANCH   4   5
ENDBRANCH   3   4
ENDBRANCH   2   3
ENDBRANCH   1   2
BRANCH   1  14
HETATM   14  C   UNL     1     -21.803  -3.994  -8.911  1.00  0.00     0.000 C 
BRANCH  14  15
HETATM   15  C   UNL     1     -20.458  -4.178  -9.608  1.00  0.00     0.000 C 
BRANCH  15  16
HETATM   16  C   UNL     1     -20.644  -4.101 -11.117  1.00  0.00     0.010 C 
BRANCH  16  17
HETATM   17  C   UNL     1     -21.627  -3.010 -11.521  1.00  0.00     0.111 C 
BRANCH  17  18
HETATM   18  C   UNL     1     -22.684  -3.575 -12.437  1.00  0.00     0.258 C 
HETATM   19  O   UNL     1     -22.736  -4.728 -12.817  1.00  0.00    -0.265 OA
BRANCH  18  20
HETATM   20  O   UNL     1     -23.512  -2.566 -12.840  1.00  0.00    -0.319 OA
BRANCH  20  21
HETATM   21  C   UNL     1     -23.359  -2.234 -14.224  1.00  0.00     0.210 C 
BRANCH  21  22
HETATM   22  C   UNL     1     -24.663  -1.758 -14.864  1.00  0.00     0.138 C 
HETATM   23  C   UNL     1     -25.869  -2.517 -14.335  1.00  0.00     0.041 C 
BRANCH  22  24
HETATM   24  O   UNL     1     -24.835  -0.363 -14.629  1.00  0.00    -0.394 OA
HETATM   25  H   UNL     1     -25.738  -0.120 -14.903  1.00  0.00     0.210 HD
ENDBRANCH  22  24
ENDBRANCH  21  22
ENDBRANCH  20  21
ENDBRANCH  18  20
ENDBRANCH  17  18
ENDBRANCH  16  17
ENDBRANCH  15  16
ENDBRANCH  14  15
ENDBRANCH   1  14
TORSDOF 19
BEGIN_RES ARG D 557
REMARK  4 active torsions:
REMARK  status: ('A' for Active; 'I' for Inactive)
REMARK    1  A    between atoms: CA   and  CB  
REMARK    2  A    between atoms: CB   and  CG  
REMARK    3  A    between atoms: CG   and  CD  
REMARK    4  A    between atoms: CD   and  NE  
REMARK       I    between atoms: NE   and  CZ  
REMARK       I    between atoms: CZ   and  NH1 
REMARK       I    between atoms: CZ   and  NH2 
ROOT
ATOM      1  CA  ARG D 557     -26.217   2.705 -17.014  1.00 35.49     0.159 C 
ENDROOT
BRANCH   1   2
ATOM      2  CB  ARG D 557     -26.789   1.319 -17.183  1.00 35.49     0.034 C 
BRANCH   2   3
ATOM      3  CG  ARG D 557     -28.116   1.077 -16.605  1.00 35.49     0.027 C 
BRANCH   3   4
ATOM      4  CD  ARG D 557     -28.835  -0.026 -17.283  1.00 35.49     0.116 C 
BRANCH   4   5
ATOM      5  NE  ARG D 557     -28.285  -1.314 -16.954  1.00 35.49    -0.212 N 
ATOM      6  CZ  ARG D 557     -28.878  -2.473 -17.141  1.00 35.49     0.666 C 
ATOM      7  NH1 ARG D 557     -30.090  -2.574 -17.655  1.00 35.49    -0.235 N 
ATOM      8  NH2 ARG D 557     -28.221  -3.544 -16.803  1.00 35.49    -0.235 N 
ATOM      9  HH  ARG D 557     -30.539  -1.882 -17.886  1.00 35.49     0.174 HD
ATOM     10  HH  ARG D 557     -30.425  -3.357 -17.755  1.00 35.49     0.174 HD
ATOM     11  HH  ARG D 557     -27.438  -3.448 -16.480  1.00 35.49     0.174 HD
ATOM     12  HH  ARG D 557     -28.570  -4.310 -16.912  1.00 35.49     0.174 HD
ATOM     13  HE  ARG D 557     -27.537  -1.338 -16.551  1.00 35.49     0.178 HD
ENDBRANCH   4   5
ENDBRANCH   3   4
ENDBRANCH   2   3
ENDBRANCH   1   2
END_RES ARG D 557
BEGIN_RES GLU D 570
REMARK  3 active torsions:
REMARK  status: ('A' for Active; 'I' for Inactive)
REMARK    5  A    between atoms: CA   and  CB  
REMARK    6  A    between atoms: CB   and  CG  
REMARK    7  A    between atoms: CG   and  CD  
ROOT
ATOM     14  CA  GLU D 570     -18.033  -6.348 -13.375  1.00 32.92     0.160 C 
ENDROOT
BRANCH  14  15
ATOM     15  CB  GLU D 570     -19.500  -6.345 -13.794  1.00 32.92     0.043 C 
BRANCH  15  16
ATOM     16  CG  GLU D 570     -19.797  -6.266 -15.248  1.00 32.92     0.100 C 
BRANCH  16  17
ATOM     17  CD  GLU D 570     -20.768  -7.327 -15.709  1.00 32.92     0.185 C 
ATOM     18  OE1 GLU D 570     -21.715  -6.999 -16.451  1.00 32.92    -0.647 OA
ATOM     19  OE2 GLU D 570     -20.591  -8.495 -15.312  1.00 32.92    -0.647 OA
ENDBRANCH  16  17
ENDBRANCH  15  16
ENDBRANCH  14  15
END_RES GLU D 570
ENDMDL
MODEL 6
REMARK VINA RESULT:      -6.9      1.520      3.010
REMARK  19 active torsions:
REMARK  status: ('A' for Active; 'I' for Inactive)
REMARK    1  A    between atoms: C_2  and  C_4 
REMARK    2  A    between atoms: C_4  and  C_5 
REMARK    3  A    between atoms: C_5  and  C_6 
REMARK    4  A    between atoms: C_6  and  C_7 
REMARK    5  A    between atoms: C_7  and  C_8 
REMARK    6  A    between atoms: C_8  and  C_9 
REMARK    7  A    between atoms: C_9  and  C_10 
REMARK    8  A    between atoms: C_10  and  C_11 
REMARK    9  A    between atoms: C_11  and  C_12 
REMARK   10  A    between atoms: C_12  and  C_13 
REMARK   11  A    between atoms: C_13  and  C_14 
REMARK   12  A    between atoms: C_14  and  C_15 
REMARK   13  A    between atoms: C_15  and  C_16 
REMARK   14  A    between atoms: C_16  and  C_17 
REMARK   15  A    between atoms: C_17  and  C_18 
REMARK   16  A    between atoms: C_18  and  O_20 
REMARK   17  A    between atoms: O_20  and  C_21 
REMARK   18  A    between atoms: C_21  and  C_22 
REMARK   19  A    between atoms: C_22  and  O_24 
ROOT
HETATM    1  C   UNL     1     -21.030  -5.802  -4.861  1.00  0.00     0.000 C 
ENDROOT
BRANCH   1   2
HETATM    2  C   UNL     1     -21.931  -6.652  -3.976  1.00  0.00     0.000 C 
BRANCH   2   3
HETATM    3  C   UNL     1     -21.311  -6.820  -2.598  1.00  0.00     0.000 C 
BRANCH   3   4
HETATM    4  C   UNL     1     -22.255  -6.292  -1.528  1.00  0.00     0.000 C 
BRANCH   4   5
HETATM    5  C   UNL     1     -22.493  -7.352  -0.466  1.00  0.00     0.000 C 
BRANCH   5   6
HETATM    6  C   UNL     1     -21.225  -8.160  -0.241  1.00  0.00     0.000 C 
BRANCH   6   7
HETATM    7  C   UNL     1     -21.139  -8.608   1.207  1.00  0.00     0.000 C 
BRANCH   7   8
HETATM    8  C   UNL     1     -20.775 -10.083   1.288  1.00  0.00     0.000 C 
BRANCH   8   9
HETATM    9  C   UNL     1     -20.840 -10.701  -0.100  1.00  0.00     0.000 C 
BRANCH   9  10
HETATM   10  C   UNL     1     -21.785 -11.897  -0.130  1.00  0.00     0.004 C 
BRANCH  10  11
HETATM   11  C   UNL     1     -23.043 -11.630  -0.972  1.00  0.00    -0.023 C 
HETATM   12  C   UNL     1     -24.040 -10.810  -0.153  1.00  0.00     0.009 C 
HETATM   13  C   UNL     1     -22.724 -10.904  -2.281  1.00  0.00     0.009 C 
ENDBRANCH  10  11
ENDBRANCH   9  10
ENDBRANCH   8   9
ENDBRANCH   7   8
ENDBRANCH   6   7
ENDBRANCH   5   6
ENDBRANCH   4   5
ENDBRANCH   3   4
ENDBRANCH   2   3
ENDBRANCH   1   2
BRANCH   1  14
HETATM   14  C   UNL     1     -20.503  -6.626  -6.025  1.00  0.00     0.000 C 
BRANCH  14  15
HETATM   15  C   UNL     1     -19.749  -5.750  -7.021  1.00  0.00     0.000 C 
BRANCH  15  16
HETATM   16  C   UNL     1     -20.391  -4.371  -7.084  1.00  0.00     0.010 C 
BRANCH  16  17
HETATM   17  C   UNL     1     -21.042  -4.101  -8.435  1.00  0.00     0.111 C 
BRANCH  17  18
HETATM   18  C   UNL     1     -22.540  -4.002  -8.279  1.00  0.00     0.258 C 
HETATM   19  O   UNL     1     -23.180  -4.474  -7.361  1.00  0.00    -0.265 OA
BRANCH  18  20
HETATM   20  O   UNL     1     -23.062  -3.379  -9.377  1.00  0.00    -0.319 OA
BRANCH  20  21
HETATM   21  C   UNL     1     -22.338  -3.662 -10.579  1.00  0.00     0.210 C 
BRANCH  21  22
HETATM   22  C   UNL     1     -22.875  -2.892 -11.786  1.00  0.00     0.138 C 
HETATM   23  C   UNL     1     -22.619  -3.625 -13.092  1.00  0.00     0.041 C 
BRANCH  22  24
HETATM   24  O   UNL     1     -24.274  -2.667 -11.630  1.00  0.00    -0.394 OA
HETATM   25  H   UNL     1     -24.398  -1.765 -11.285  1.00  0.00     0.210 HD
ENDBRANCH  22  24
ENDBRANCH  21  22
ENDBRANCH  20  21
ENDBRANCH  18  20
ENDBRANCH  17  18
ENDBRANCH  16  17
ENDBRANCH  15  16
ENDBRANCH  14  15
ENDBRANCH   1  14
TORSDOF 19
BEGIN_RES ARG D 557
REMARK  4 active torsions:
REMARK  status: ('A' for Active; 'I' for Inactive)
REMARK    1  A    between atoms: CA   and  CB  
REMARK    2  A    between atoms: CB   and  CG  
REMARK    3  A    between atoms: CG   and  CD  
REMARK    4  A    between atoms: CD   and  NE  
REMARK       I    between atoms: NE   and  CZ  
REMARK       I    between atoms: CZ   and  NH1 
REMARK       I    between atoms: CZ   and  NH2 
ROOT
ATOM      1  CA  ARG D 557     -26.217   2.705 -17.014  1.00 35.49     0.159 C 
ENDROOT
BRANCH   1   2
ATOM      2  CB  ARG D 557     -26.789   1.319 -17.183  1.00 35.49     0.034 C 
BRANCH   2   3
ATOM      3  CG  ARG D 557     -28.245   1.185 -17.054  1.00 35.49     0.027 C 
BRANCH   3   4
ATOM      4  CD  ARG D 557     -28.646  -0.143 -16.536  1.00 35.49     0.116 C 
BRANCH   4   5
ATOM      5  NE  ARG D 557     -27.549  -0.837 -15.915  1.00 35.49    -0.212 N 
ATOM      6  CZ  ARG D 557     -27.287  -2.119 -16.031  1.00 35.49     0.666 C 
ATOM      7  NH1 ARG D 557     -28.040  -2.935 -16.744  1.00 35.49    -0.235 N 
ATOM      8  NH2 ARG D 557     -26.235  -2.575 -15.414  1.00 35.49    -0.235 N 
ATOM      9  HH  ARG D 557     -28.735  -2.657 -17.161  1.00 35.49     0.174 HD
ATOM     10  HH  ARG D 557     -27.818  -3.762 -16.786  1.00 35.49     0.174 HD
ATOM     11  HH  ARG D 557     -25.763  -2.023 -14.966  1.00 35.49     0.174 HD
ATOM     12  HH  ARG D 557     -26.032  -3.396 -15.468  1.00 35.49     0.174 HD
ATOM     13  HE  ARG D 557     -27.054  -0.401 -15.378  1.00 35.49     0.178 HD
ENDBRANCH   4   5
ENDBRANCH   3   4
ENDBRANCH   2   3
ENDBRANCH   1   2
END_RES ARG D 557
BEGIN_RES GLU D 570
REMARK  3 active torsions:
REMARK  status: ('A' for Active; 'I' for Inactive)
REMARK    5  A    between atoms: CA   and  CB  
REMARK    6  A    between atoms: CB   and  CG  
REMARK    7  A    between atoms: CG   and  CD  
ROOT
ATOM     14  CA  GLU D 570     -18.033  -6.348 -13.375  1.00 32.92     0.160 C 
ENDROOT
BRANCH  14  15
ATOM     15  CB  GLU D 570     -19.500  -6.345 -13.794  1.00 32.92     0.043 C 
BRANCH  15  16
ATOM     16  CG  GLU D 570     -20.071  -7.621 -14.296  1.00 32.92     0.100 C 
BRANCH  16  17
ATOM     17  CD  GLU D 570     -20.765  -7.472 -15.630  1.00 32.92     0.185 C 
ATOM     18  OE1 GLU D 570     -21.583  -8.342 -15.987  1.00 32.92    -0.647 OA
ATOM     19  OE2 GLU D 570     -20.476  -6.483 -16.332  1.00 32.92    -0.647 OA
ENDBRANCH  16  17
ENDBRANCH  15  16
ENDBRANCH  14  15
END_RES GLU D 570
ENDMDL
MODEL 7
REMARK VINA RESULT:      -6.8      1.497      2.261
REMARK  19 active torsions:
REMARK  status: ('A' for Active; 'I' for Inactive)
REMARK    1  A    between atoms: C_2  and  C_4 
REMARK    2  A    between atoms: C_4  and  C_5 
REMARK    3  A    between atoms: C_5  and  C_6 
REMARK    4  A    between atoms: C_6  and  C_7 
REMARK    5  A    between atoms: C_7  and  C_8 
REMARK    6  A    between atoms: C_8  and  C_9 
REMARK    7  A    between atoms: C_9  and  C_10 
REMARK    8  A    between atoms: C_10  and  C_11 
REMARK    9  A    between atoms: C_11  and  C_12 
REMARK   10  A    between atoms: C_12  and  C_13 
REMARK   11  A    between atoms: C_13  and  C_14 
REMARK   12  A    between atoms: C_14  and  C_15 
REMARK   13  A    between atoms: C_15  and  C_16 
REMARK   14  A    between atoms: C_16  and  C_17 
REMARK   15  A    between atoms: C_17  and  C_18 
REMARK   16  A    between atoms: C_18  and  O_20 
REMARK   17  A    between atoms: O_20  and  C_21 
REMARK   18  A    between atoms: C_21  and  C_22 
REMARK   19  A    between atoms: C_22  and  O_24 
ROOT
HETATM    1  C   UNL     1     -20.495  -5.046  -6.134  1.00  0.00     0.000 C 
ENDROOT
BRANCH   1   2
HETATM    2  C   UNL     1     -20.222  -6.539  -6.024  1.00  0.00     0.000 C 
BRANCH   2   3
HETATM    3  C   UNL     1     -21.493  -7.282  -5.643  1.00  0.00     0.000 C 
BRANCH   3   4
HETATM    4  C   UNL     1     -21.591  -7.419  -4.132  1.00  0.00     0.000 C 
BRANCH   4   5
HETATM    5  C   UNL     1     -20.997  -8.744  -3.684  1.00  0.00     0.000 C 
BRANCH   5   6
HETATM    6  C   UNL     1     -21.957  -9.880  -4.000  1.00  0.00     0.000 C 
BRANCH   6   7
HETATM    7  C   UNL     1     -22.168 -10.745  -2.770  1.00  0.00     0.000 C 
BRANCH   7   8
HETATM    8  C   UNL     1     -21.108 -10.447  -1.720  1.00  0.00     0.000 C 
BRANCH   8   9
HETATM    9  C   UNL     1     -21.734 -10.499  -0.335  1.00  0.00     0.000 C 
BRANCH   9  10
HETATM   10  C   UNL     1     -22.952  -9.586  -0.244  1.00  0.00     0.004 C 
BRANCH  10  11
HETATM   11  C   UNL     1     -22.623  -8.230   0.400  1.00  0.00    -0.023 C 
HETATM   12  C   UNL     1     -21.349  -8.358   1.235  1.00  0.00     0.009 C 
HETATM   13  C   UNL     1     -22.455  -7.117  -0.638  1.00  0.00     0.009 C 
ENDBRANCH  10  11
ENDBRANCH   9  10
ENDBRANCH   8   9
ENDBRANCH   7   8
ENDBRANCH   6   7
ENDBRANCH   5   6
ENDBRANCH   4   5
ENDBRANCH   3   4
ENDBRANCH   2   3
ENDBRANCH   1   2
BRANCH   1  14
HETATM   14  C   UNL     1     -21.847  -4.802  -6.786  1.00  0.00     0.000 C 
BRANCH  14  15
HETATM   15  C   UNL     1     -21.689  -4.121  -8.141  1.00  0.00     0.000 C 
BRANCH  15  16
HETATM   16  C   UNL     1     -22.957  -4.306  -8.963  1.00  0.00     0.010 C 
BRANCH  16  17
HETATM   17  C   UNL     1     -23.061  -3.292 -10.095  1.00  0.00     0.111 C 
BRANCH  17  18
HETATM   18  C   UNL     1     -24.465  -3.273 -10.649  1.00  0.00     0.258 C 
HETATM   19  O   UNL     1     -25.479  -3.275  -9.982  1.00  0.00    -0.265 OA
BRANCH  18  20
HETATM   20  O   UNL     1     -24.407  -3.345 -12.012  1.00  0.00    -0.319 OA
BRANCH  20  21
HETATM   21  C   UNL     1     -23.145  -2.925 -12.543  1.00  0.00     0.210 C 
BRANCH  21  22
HETATM   22  C   UNL     1     -22.610  -3.878 -13.612  1.00  0.00     0.138 C 
HETATM   23  C   UNL     1     -23.047  -5.313 -13.370  1.00  0.00     0.041 C 
BRANCH  22  24
HETATM   24  O   UNL     1     -23.051  -3.455 -14.900  1.00  0.00    -0.394 OA
HETATM   25  H   UNL     1     -22.894  -2.497 -14.974  1.00  0.00     0.210 HD
ENDBRANCH  22  24
ENDBRANCH  21  22
ENDBRANCH  20  21
ENDBRANCH  18  20
ENDBRANCH  17  18
ENDBRANCH  16  17
ENDBRANCH  15  16
ENDBRANCH  14  15
ENDBRANCH   1  14
TORSDOF 19
BEGIN_RES ARG D 557
REMARK  4 active torsions:
REMARK  status: ('A' for Active; 'I' for Inactive)
REMARK    1  A    between atoms: CA   and  CB  
REMARK    2  A    between atoms: CB   and  CG  
REMARK    3  A    between atoms: CG   and  CD  
REMARK    4  A    between atoms: CD   and  NE  
REMARK       I    between atoms: NE   and  CZ  
REMARK       I    between atoms: CZ   and  NH1 
REMARK       I    between atoms: CZ   and  NH2 
ROOT
ATOM      1  CA  ARG D 557     -26.217   2.705 -17.014  1.00 35.49     0.159 C 
ENDROOT
BRANCH   1   2
ATOM      2  CB  ARG D 557     -26.789   1.319 -17.183  1.00 35.49     0.034 C 
BRANCH   2   3
ATOM      3  CG  ARG D 557     -26.130   0.237 -16.441  1.00 35.49     0.027 C 
BRANCH   3   4
ATOM      4  CD  ARG D 557     -27.031  -0.913 -16.201  1.00 35.49     0.116 C 
BRANCH   4   5
ATOM      5  NE  ARG D 557     -26.402  -1.939 -15.411  1.00 35.49    -0.212 N 
ATOM      6  CZ  ARG D 557     -26.668  -3.224 -15.470  1.00 35.49     0.666 C 
ATOM      7  NH1 ARG D 557     -27.584  -3.723 -16.280  1.00 35.49    -0.235 N 
ATOM      8  NH2 ARG D 557     -25.985  -4.015 -14.695  1.00 35.49    -0.235 N 
ATOM      9  HH  ARG D 557     -28.044  -3.221 -16.801  1.00 35.49     0.174 HD
ATOM     10  HH  ARG D 557     -27.712  -4.570 -16.277  1.00 35.49     0.174 HD
ATOM     11  HH  ARG D 557     -25.395  -3.666 -14.187  1.00 35.49     0.174 HD
ATOM     12  HH  ARG D 557     -26.125  -4.851 -14.707  1.00 35.49     0.174 HD
ATOM     13  HE  ARG D 557     -25.851  -1.698 -14.810  1.00 35.49     0.178 HD
ENDBRANCH   4   5
ENDBRANCH   3   4
ENDBRANCH   2   3
ENDBRANCH   1   2
END_RES ARG D 557
BEGIN_RES GLU D 570
REMARK  3 active torsions:
REMARK  status: ('A' for Active; 'I' for Inactive)
REMARK    5  A    between atoms: CA   and  CB  
REMARK    6  A    between atoms: CB   and  CG  
REMARK    7  A    between atoms: CG   and  CD  
ROOT
ATOM     14  CA  GLU D 570     -18.033  -6.348 -13.375  1.00 32.92     0.160 C 
ENDROOT
BRANCH  14  15
ATOM     15  CB  GLU D 570     -19.500  -6.345 -13.794  1.00 32.92     0.043 C 
BRANCH  15  16
ATOM     16  CG  GLU D 570     -19.841  -5.699 -15.088  1.00 32.92     0.100 C 
BRANCH  16  17
ATOM     17  CD  GLU D 570     -20.598  -6.614 -16.022  1.00 32.92     0.185 C 
ATOM     18  OE1 GLU D 570     -20.905  -6.201 -17.157  1.00 32.92    -0.647 OA
ATOM     19  OE2 GLU D 570     -20.903  -7.750 -15.608  1.00 32.92    -0.647 OA
ENDBRANCH  16  17
ENDBRANCH  15  16
ENDBRANCH  14  15
END_RES GLU D 570
ENDMDL
MODEL 8
REMARK VINA RESULT:      -6.8      2.164      4.153
REMARK  19 active torsions:
REMARK  status: ('A' for Active; 'I' for Inactive)
REMARK    1  A    between atoms: C_2  and  C_4 
REMARK    2  A    between atoms: C_4  and  C_5 
REMARK    3  A    between atoms: C_5  and  C_6 
REMARK    4  A    between atoms: C_6  and  C_7 
REMARK    5  A    between atoms: C_7  and  C_8 
REMARK    6  A    between atoms: C_8  and  C_9 
REMARK    7  A    between atoms: C_9  and  C_10 
REMARK    8  A    between atoms: C_10  and  C_11 
REMARK    9  A    between atoms: C_11  and  C_12 
REMARK   10  A    between atoms: C_12  and  C_13 
REMARK   11  A    between atoms: C_13  and  C_14 
REMARK   12  A    between atoms: C_14  and  C_15 
REMARK   13  A    between atoms: C_15  and  C_16 
REMARK   14  A    between atoms: C_16  and  C_17 
REMARK   15  A    between atoms: C_17  and  C_18 
REMARK   16  A    between atoms: C_18  and  O_20 
REMARK   17  A    between atoms: O_20  and  C_21 
REMARK   18  A    between atoms: C_21  and  C_22 
REMARK   19  A    between atoms: C_22  and  O_24 
ROOT
HETATM    1  C   UNL     1     -20.885  -8.460  -3.959  1.00  0.00     0.000 C 
ENDROOT
BRANCH   1   2
HETATM    2  C   UNL     1     -20.810  -8.016  -2.505  1.00  0.00     0.000 C 
BRANCH   2   3
HETATM    3  C   UNL     1     -21.428  -6.636  -2.342  1.00  0.00     0.000 C 
BRANCH   3   4
HETATM    4  C   UNL     1     -22.272  -6.583  -1.077  1.00  0.00     0.000 C 
BRANCH   4   5
HETATM    5  C   UNL     1     -22.650  -7.987  -0.638  1.00  0.00     0.000 C 
BRANCH   5   6
HETATM    6  C   UNL     1     -22.455  -8.135   0.863  1.00  0.00     0.000 C 
BRANCH   6   7
HETATM    7  C   UNL     1     -21.000  -8.433   1.175  1.00  0.00     0.000 C 
BRANCH   7   8
HETATM    8  C   UNL     1     -20.797  -9.925   1.399  1.00  0.00     0.000 C 
BRANCH   8   9
HETATM    9  C   UNL     1     -21.218 -10.689   0.154  1.00  0.00     0.000 C 
BRANCH   9  10
HETATM   10  C   UNL     1     -21.382 -12.176   0.446  1.00  0.00     0.004 C 
BRANCH  10  11
HETATM   11  C   UNL     1     -22.835 -12.650   0.285  1.00  0.00    -0.023 C 
HETATM   12  C   UNL     1     -23.271 -13.395   1.546  1.00  0.00     0.009 C 
HETATM   13  C   UNL     1     -23.797 -11.492   0.006  1.00  0.00     0.009 C 
ENDBRANCH  10  11
ENDBRANCH   9  10
ENDBRANCH   8   9
ENDBRANCH   7   8
ENDBRANCH   6   7
ENDBRANCH   5   6
ENDBRANCH   4   5
ENDBRANCH   3   4
ENDBRANCH   2   3
ENDBRANCH   1   2
BRANCH   1  14
HETATM   14  C   UNL     1     -21.885  -7.604  -4.722  1.00  0.00     0.000 C 
BRANCH  14  15
HETATM   15  C   UNL     1     -21.227  -6.931  -5.923  1.00  0.00     0.000 C 
BRANCH  15  16
HETATM   16  C   UNL     1     -21.766  -5.515  -6.079  1.00  0.00     0.010 C 
BRANCH  16  17
HETATM   17  C   UNL     1     -20.653  -4.500  -6.310  1.00  0.00     0.111 C 
BRANCH  17  18
HETATM   18  C   UNL     1     -20.701  -3.992  -7.731  1.00  0.00     0.258 C 
HETATM   19  O   UNL     1     -19.741  -3.890  -8.468  1.00  0.00    -0.265 OA
BRANCH  18  20
HETATM   20  O   UNL     1     -21.973  -3.585  -8.017  1.00  0.00    -0.319 OA
BRANCH  20  21
HETATM   21  C   UNL     1     -22.336  -3.802  -9.385  1.00  0.00     0.210 C 
BRANCH  21  22
HETATM   22  C   UNL     1     -23.749  -4.367  -9.536  1.00  0.00     0.138 C 
HETATM   23  C   UNL     1     -24.788  -3.270  -9.700  1.00  0.00     0.041 C 
BRANCH  22  24
HETATM   24  O   UNL     1     -23.801  -5.246 -10.657  1.00  0.00    -0.394 OA
HETATM   25  H   UNL     1     -24.585  -5.016 -11.185  1.00  0.00     0.210 HD
ENDBRANCH  22  24
ENDBRANCH  21  22
ENDBRANCH  20  21
ENDBRANCH  18  20
ENDBRANCH  17  18
ENDBRANCH  16  17
ENDBRANCH  15  16
ENDBRANCH  14  15
ENDBRANCH   1  14
TORSDOF 19
BEGIN_RES ARG D 557
REMARK  4 active torsions:
REMARK  status: ('A' for Active; 'I' for Inactive)
REMARK    1  A    between atoms: CA   and  CB  
REMARK    2  A    between atoms: CB   and  CG  
REMARK    3  A    between atoms: CG   and  CD  
REMARK    4  A    between atoms: CD   and  NE  
REMARK       I    between atoms: NE   and  CZ  
REMARK       I    between atoms: CZ   and  NH1 
REMARK       I    between atoms: CZ   and  NH2 
ROOT
ATOM      1  CA  ARG D 557     -26.217   2.705 -17.014  1.00 35.49     0.159 C 
ENDROOT
BRANCH   1   2
ATOM      2  CB  ARG D 557     -26.789   1.319 -17.183  1.00 35.49     0.034 C 
BRANCH   2   3
ATOM      3  CG  ARG D 557     -25.857   0.196 -17.026  1.00 35.49     0.027 C 
BRANCH   3   4
ATOM      4  CD  ARG D 557     -26.249  -0.714 -15.926  1.00 35.49     0.116 C 
BRANCH   4   5
ATOM      5  NE  ARG D 557     -25.201  -0.873 -14.954  1.00 35.49    -0.212 N 
ATOM      6  CZ  ARG D 557     -24.869  -1.997 -14.358  1.00 35.49     0.666 C 
ATOM      7  NH1 ARG D 557     -25.498  -3.135 -14.590  1.00 35.49    -0.235 N 
ATOM      8  NH2 ARG D 557     -23.876  -1.961 -13.518  1.00 35.49    -0.235 N 
ATOM      9  HH  ARG D 557     -26.153  -3.182 -15.141  1.00 35.49     0.174 HD
ATOM     10  HH  ARG D 557     -25.236  -3.837 -14.174  1.00 35.49     0.174 HD
ATOM     11  HH  ARG D 557     -23.484  -1.214 -13.394  1.00 35.49     0.174 HD
ATOM     12  HH  ARG D 557     -23.631  -2.667 -13.117  1.00 35.49     0.174 HD
ATOM     13  HE  ARG D 557     -24.790  -0.176 -14.691  1.00 35.49     0.178 HD
ENDBRANCH   4   5
ENDBRANCH   3   4
ENDBRANCH   2   3
ENDBRANCH   1   2
END_RES ARG D 557
BEGIN_RES GLU D 570
REMARK  3 active torsions:
REMARK  status: ('A' for Active; 'I' for Inactive)
REMARK    5  A    between atoms: CA   and  CB  
REMARK    6  A    between atoms: CB   and  CG  
REMARK    7  A    between atoms: CG   and  CD  
ROOT
ATOM     14  CA  GLU D 570     -18.033  -6.348 -13.375  1.00 32.92     0.160 C 
ENDROOT
BRANCH  14  15
ATOM     15  CB  GLU D 570     -19.500  -6.345 -13.794  1.00 32.92     0.043 C 
BRANCH  15  16
ATOM     16  CG  GLU D 570     -20.450  -5.569 -12.956  1.00 32.92     0.100 C 
BRANCH  16  17
ATOM     17  CD  GLU D 570     -21.710  -5.184 -13.695  1.00 32.92     0.185 C 
ATOM     18  OE1 GLU D 570     -22.595  -4.547 -13.092  1.00 32.92    -0.647 OA
ATOM     19  OE2 GLU D 570     -21.820  -5.538 -14.886  1.00 32.92    -0.647 OA
ENDBRANCH  16  17
ENDBRANCH  15  16
ENDBRANCH  14  15
END_RES GLU D 570
ENDMDL
MODEL 9
REMARK VINA RESULT:      -6.7      2.485      4.393
REMARK  19 active torsions:
REMARK  status: ('A' for Active; 'I' for Inactive)
REMARK    1  A    between atoms: C_2  and  C_4 
REMARK    2  A    between atoms: C_4  and  C_5 
REMARK    3  A    between atoms: C_5  and  C_6 
REMARK    4  A    between atoms: C_6  and  C_7 
REMARK    5  A    between atoms: C_7  and  C_8 
REMARK    6  A    between atoms: C_8  and  C_9 
REMARK    7  A    between atoms: C_9  and  C_10 
REMARK    8  A    between atoms: C_10  and  C_11 
REMARK    9  A    between atoms: C_11  and  C_12 
REMARK   10  A    between atoms: C_12  and  C_13 
REMARK   11  A    between atoms: C_13  and  C_14 
REMARK   12  A    between atoms: C_14  and  C_15 
REMARK   13  A    between atoms: C_15  and  C_16 
REMARK   14  A    between atoms: C_16  and  C_17 
REMARK   15  A    between atoms: C_17  and  C_18 
REMARK   16  A    between atoms: C_18  and  O_20 
REMARK   17  A    between atoms: O_20  and  C_21 
REMARK   18  A    between atoms: C_21  and  C_22 
REMARK   19  A    between atoms: C_22  and  O_24 
ROOT
HETATM    1  C   UNL     1     -21.443  -6.204  -3.475  1.00  0.00     0.000 C 
ENDROOT
BRANCH   1   2
HETATM    2  C   UNL     1     -21.211  -7.066  -2.242  1.00  0.00     0.000 C 
BRANCH   2   3
HETATM    3  C   UNL     1     -22.293  -6.810  -1.206  1.00  0.00     0.000 C 
BRANCH   3   4
HETATM    4  C   UNL     1     -21.998  -7.587   0.068  1.00  0.00     0.000 C 
BRANCH   4   5
HETATM    5  C   UNL     1     -23.209  -8.411   0.474  1.00  0.00     0.000 C 
BRANCH   5   6
HETATM    6  C   UNL     1     -23.190  -9.753  -0.238  1.00  0.00     0.000 C 
BRANCH   6   7
HETATM    7  C   UNL     1     -21.818 -10.391  -0.118  1.00  0.00     0.000 C 
BRANCH   7   8
HETATM    8  C   UNL     1     -21.354 -10.916  -1.470  1.00  0.00     0.000 C 
BRANCH   8   9
HETATM    9  C   UNL     1     -22.285 -10.408  -2.559  1.00  0.00     0.000 C 
BRANCH   9  10
HETATM   10  C   UNL     1     -22.776 -11.548  -3.444  1.00  0.00     0.004 C 
BRANCH  10  11
HETATM   11  C   UNL     1     -21.794 -11.876  -4.579  1.00  0.00    -0.023 C 
HETATM   12  C   UNL     1     -22.519 -12.661  -5.671  1.00  0.00     0.009 C 
HETATM   13  C   UNL     1     -21.157 -10.620  -5.178  1.00  0.00     0.009 C 
ENDBRANCH  10  11
ENDBRANCH   9  10
ENDBRANCH   8   9
ENDBRANCH   7   8
ENDBRANCH   6   7
ENDBRANCH   5   6
ENDBRANCH   4   5
ENDBRANCH   3   4
ENDBRANCH   2   3
ENDBRANCH   1   2
BRANCH   1  14
HETATM   14  C   UNL     1     -21.370  -7.052  -4.735  1.00  0.00     0.000 C 
BRANCH  14  15
HETATM   15  C   UNL     1     -20.428  -6.430  -5.761  1.00  0.00     0.000 C 
BRANCH  15  16
HETATM   16  C   UNL     1     -20.465  -4.912  -5.642  1.00  0.00     0.010 C 
BRANCH  16  17
HETATM   17  C   UNL     1     -20.777  -4.238  -6.972  1.00  0.00     0.111 C 
BRANCH  17  18
HETATM   18  C   UNL     1     -22.194  -4.548  -7.392  1.00  0.00     0.258 C 
HETATM   19  O   UNL     1     -23.151  -4.582  -6.646  1.00  0.00    -0.265 OA
BRANCH  18  20
HETATM   20  O   UNL     1     -22.206  -4.869  -8.720  1.00  0.00    -0.319 OA
BRANCH  20  21
HETATM   21  C   UNL     1     -22.267  -3.721  -9.573  1.00  0.00     0.210 C 
BRANCH  21  22
HETATM   22  C   UNL     1     -23.517  -3.707 -10.452  1.00  0.00     0.138 C 
HETATM   23  C   UNL     1     -24.766  -3.348  -9.665  1.00  0.00     0.041 C 
BRANCH  22  24
HETATM   24  O   UNL     1     -23.345  -2.782 -11.523  1.00  0.00    -0.394 OA
HETATM   25  H   UNL     1     -22.867  -3.235 -12.240  1.00  0.00     0.210 HD
ENDBRANCH  22  24
ENDBRANCH  21  22
ENDBRANCH  20  21
ENDBRANCH  18  20
ENDBRANCH  17  18
ENDBRANCH  16  17
ENDBRANCH  15  16
ENDBRANCH  14  15
ENDBRANCH   1  14
TORSDOF 19
BEGIN_RES ARG D 557
REMARK  4 active torsions:
REMARK  status: ('A' for Active; 'I' for Inactive)
REMARK    1  A    between atoms: CA   and  CB  
REMARK    2  A    between atoms: CB   and  CG  
REMARK    3  A    between atoms: CG   and  CD  
REMARK    4  A    between atoms: CD   and  NE  
REMARK       I    between atoms: NE   and  CZ  
REMARK       I    between atoms: CZ   and  NH1 
REMARK       I    between atoms: CZ   and  NH2 
ROOT
ATOM      1  CA  ARG D 557     -26.217   2.705 -17.014  1.00 35.49     0.159 C 
ENDROOT
BRANCH   1   2
ATOM      2  CB  ARG D 557     -26.789   1.319 -17.183  1.00 35.49     0.034 C 
BRANCH   2   3
ATOM      3  CG  ARG D 557     -26.067   0.222 -16.528  1.00 35.49     0.027 C 
BRANCH   3   4
ATOM      4  CD  ARG D 557     -26.963  -0.891 -16.139  1.00 35.49     0.116 C 
BRANCH   4   5
ATOM      5  NE  ARG D 557     -26.265  -1.925 -15.422  1.00 35.49    -0.212 N 
ATOM      6  CZ  ARG D 557     -25.166  -1.764 -14.718  1.00 35.49     0.666 C 
ATOM      7  NH1 ARG D 557     -24.561  -0.596 -14.605  1.00 35.49    -0.235 N 
ATOM      8  NH2 ARG D 557     -24.681  -2.811 -14.116  1.00 35.49    -0.235 N 
ATOM      9  HH  ARG D 557     -24.864   0.106 -14.992  1.00 35.49     0.174 HD
ATOM     10  HH  ARG D 557     -23.849  -0.551 -14.131  1.00 35.49     0.174 HD
ATOM     11  HH  ARG D 557     -25.097  -3.550 -14.201  1.00 35.49     0.174 HD
ATOM     12  HH  ARG D 557     -23.976  -2.745 -13.649  1.00 35.49     0.174 HD
ATOM     13  HE  ARG D 557     -26.545  -2.724 -15.500  1.00 35.49     0.178 HD
ENDBRANCH   4   5
ENDBRANCH   3   4
ENDBRANCH   2   3
ENDBRANCH   1   2
END_RES ARG D 557
BEGIN_RES GLU D 570
REMARK  3 active torsions:
REMARK  status: ('A' for Active; 'I' for Inactive)
REMARK    5  A    between atoms: CA   and  CB  
REMARK    6  A    between atoms: CB   and  CG  
REMARK    7  A    between atoms: CG   and  CD  
ROOT
ATOM     14  CA  GLU D 570     -18.033  -6.348 -13.375  1.00 32.92     0.160 C 
ENDROOT
BRANCH  14  15
ATOM     15  CB  GLU D 570     -19.500  -6.345 -13.794  1.00 32.92     0.043 C 
BRANCH  15  16
ATOM     16  CG  GLU D 570     -20.443  -5.535 -12.980  1.00 32.92     0.100 C 
BRANCH  16  17
ATOM     17  CD  GLU D 570     -21.734  -5.231 -13.702  1.00 32.92     0.185 C 
ATOM     18  OE1 GLU D 570     -22.171  -4.064 -13.696  1.00 32.92    -0.647 OA
ATOM     19  OE2 GLU D 570     -22.324  -6.173 -14.267  1.00 32.92    -0.647 OA
ENDBRANCH  16  17
ENDBRANCH  15  16
ENDBRANCH  14  15
END_RES GLU D 570
ENDMDL
