MODEL 1
REMARK VINA RESULT:      -5.4      0.000      0.000
REMARK  2 active torsions:
REMARK  status: ('A' for Active; 'I' for Inactive)
REMARK    1  A    between atoms: C_4  and  C_7 
REMARK    2  A    between atoms: C_7  and  O_8 
ROOT
HETATM    1  C   UNL     1     -33.745  -2.931 -11.750  1.00  0.00     0.000 A 
HETATM    2  C   UNL     1     -32.776  -3.931 -11.780  1.00  0.00     0.001 A 
HETATM    3  C   UNL     1     -33.062  -5.202 -11.277  1.00  0.00     0.009 A 
HETATM    4  C   UNL     1     -34.325  -5.486 -10.738  1.00  0.00    -0.035 A 
HETATM    5  C   UNL     1     -35.289  -4.467 -10.710  1.00  0.00     0.009 A 
HETATM    6  C   UNL     1     -35.000  -3.197 -11.210  1.00  0.00     0.001 A 
ENDROOT
BRANCH   4   7
HETATM    7  C   UNL     1     -34.669  -6.863 -10.238  1.00  0.00     0.202 C 
BRANCH   7   8
HETATM    8  O   UNL     1     -34.949  -7.741 -11.323  1.00  0.00    -0.396 OA
HETATM    9  H   UNL     1     -35.711  -8.284 -11.049  1.00  0.00     0.209 HD
ENDBRANCH   7   8
ENDBRANCH   4   7
TORSDOF 2
BEGIN_RES ARG D 557
REMARK  4 active torsions:
REMARK  status: ('A' for Active; 'I' for Inactive)
REMARK    1  A    between atoms: CA   and  CB  
REMARK    2  A    between atoms: CB   and  CG  
REMARK    3  A    between atoms: CG   and  CD  
REMARK    4  A    between atoms: CD   and  NE  
REMARK       I    between atoms: NE   and  CZ  
REMARK       I    between atoms: CZ   and  NH1 
REMARK       I    between atoms: CZ   and  NH2 
ROOT
ATOM      1  CA  ARG D 557     -26.217   2.705 -17.014  1.00 35.49     0.159 C 
ENDROOT
BRANCH   1   2
ATOM      2  CB  ARG D 557     -26.789   1.319 -17.183  1.00 35.49     0.034 C 
BRANCH   2   3
ATOM      3  CG  ARG D 557     -25.835   0.203 -17.158  1.00 35.49     0.027 C 
BRANCH   3   4
ATOM      4  CD  ARG D 557     -24.755   0.406 -16.166  1.00 35.49     0.116 C 
BRANCH   4   5
ATOM      5  NE  ARG D 557     -24.909  -0.443 -15.014  1.00 35.49    -0.212 N 
ATOM      6  CZ  ARG D 557     -24.098  -1.416 -14.664  1.00 35.49     0.666 C 
ATOM      7  NH1 ARG D 557     -23.027  -1.735 -15.367  1.00 35.49    -0.235 N 
ATOM      8  NH2 ARG D 557     -24.381  -2.071 -13.575  1.00 35.49    -0.235 N 
ATOM      9  HH  ARG D 557     -22.821  -1.316 -16.086  1.00 35.49     0.174 HD
ATOM     10  HH  ARG D 557     -22.534  -2.378 -15.088  1.00 35.49     0.174 HD
ATOM     11  HH  ARG D 557     -25.075  -1.838 -13.138  1.00 35.49     0.174 HD
ATOM     12  HH  ARG D 557     -23.880  -2.703 -13.315  1.00 35.49     0.174 HD
ATOM     13  HE  ARG D 557     -25.612  -0.355 -14.544  1.00 35.49     0.178 HD
ENDBRANCH   4   5
ENDBRANCH   3   4
ENDBRANCH   2   3
ENDBRANCH   1   2
END_RES ARG D 557
BEGIN_RES GLU D 570
REMARK  3 active torsions:
REMARK  status: ('A' for Active; 'I' for Inactive)
REMARK    5  A    between atoms: CA   and  CB  
REMARK    6  A    between atoms: CB   and  CG  
REMARK    7  A    between atoms: CG   and  CD  
ROOT
ATOM     14  CA  GLU D 570     -18.033  -6.348 -13.375  1.00 32.92     0.160 C 
ENDROOT
BRANCH  14  15
ATOM     15  CB  GLU D 570     -19.500  -6.345 -13.794  1.00 32.92     0.043 C 
BRANCH  15  16
ATOM     16  CG  GLU D 570     -20.439  -5.516 -12.994  1.00 32.92     0.100 C 
BRANCH  16  17
ATOM     17  CD  GLU D 570     -21.719  -5.198 -13.731  1.00 32.92     0.185 C 
ATOM     18  OE1 GLU D 570     -22.325  -4.143 -13.464  1.00 32.92    -0.647 OA
ATOM     19  OE2 GLU D 570     -22.129  -6.022 -14.573  1.00 32.92    -0.647 OA
ENDBRANCH  16  17
ENDBRANCH  15  16
ENDBRANCH  14  15
END_RES GLU D 570
ENDMDL
MODEL 2
REMARK VINA RESULT:      -5.3      6.880      8.378
REMARK  2 active torsions:
REMARK  status: ('A' for Active; 'I' for Inactive)
REMARK    1  A    between atoms: C_4  and  C_7 
REMARK    2  A    between atoms: C_7  and  O_8 
ROOT
HETATM    1  C   UNL     1     -20.145  -4.073  -8.158  1.00  0.00     0.000 A 
HETATM    2  C   UNL     1     -21.196  -4.037  -7.245  1.00  0.00     0.001 A 
HETATM    3  C   UNL     1     -22.518  -4.024  -7.696  1.00  0.00     0.009 A 
HETATM    4  C   UNL     1     -22.802  -4.050  -9.069  1.00  0.00    -0.035 A 
HETATM    5  C   UNL     1     -21.732  -4.081  -9.976  1.00  0.00     0.009 A 
HETATM    6  C   UNL     1     -20.413  -4.091  -9.524  1.00  0.00     0.001 A 
ENDROOT
BRANCH   4   7
HETATM    7  C   UNL     1     -24.220  -4.089  -9.572  1.00  0.00     0.202 C 
BRANCH   7   8
HETATM    8  O   UNL     1     -24.925  -2.911  -9.194  1.00  0.00    -0.396 OA
HETATM    9  H   UNL     1     -25.779  -3.206  -8.830  1.00  0.00     0.209 HD
ENDBRANCH   7   8
ENDBRANCH   4   7
TORSDOF 2
BEGIN_RES ARG D 557
REMARK  4 active torsions:
REMARK  status: ('A' for Active; 'I' for Inactive)
REMARK    1  A    between atoms: CA   and  CB  
REMARK    2  A    between atoms: CB   and  CG  
REMARK    3  A    between atoms: CG   and  CD  
REMARK    4  A    between atoms: CD   and  NE  
REMARK       I    between atoms: NE   and  CZ  
REMARK       I    between atoms: CZ   and  NH1 
REMARK       I    between atoms: CZ   and  NH2 
ROOT
ATOM      1  CA  ARG D 557     -26.217   2.705 -17.014  1.00 35.49     0.159 C 
ENDROOT
BRANCH   1   2
ATOM      2  CB  ARG D 557     -26.789   1.319 -17.183  1.00 35.49     0.034 C 
BRANCH   2   3
ATOM      3  CG  ARG D 557     -25.835   0.203 -17.158  1.00 35.49     0.027 C 
BRANCH   3   4
ATOM      4  CD  ARG D 557     -24.749   0.412 -16.174  1.00 35.49     0.116 C 
BRANCH   4   5
ATOM      5  NE  ARG D 557     -24.895  -0.432 -15.017  1.00 35.49    -0.212 N 
ATOM      6  CZ  ARG D 557     -24.083  -1.405 -14.669  1.00 35.49     0.666 C 
ATOM      7  NH1 ARG D 557     -23.019  -1.729 -15.379  1.00 35.49    -0.235 N 
ATOM      8  NH2 ARG D 557     -24.359  -2.054 -13.575  1.00 35.49    -0.235 N 
ATOM      9  HH  ARG D 557     -22.817  -1.315 -16.101  1.00 35.49     0.174 HD
ATOM     10  HH  ARG D 557     -22.524  -2.372 -15.101  1.00 35.49     0.174 HD
ATOM     11  HH  ARG D 557     -25.049  -1.818 -13.132  1.00 35.49     0.174 HD
ATOM     12  HH  ARG D 557     -23.856  -2.686 -13.316  1.00 35.49     0.174 HD
ATOM     13  HE  ARG D 557     -25.594  -0.340 -14.542  1.00 35.49     0.178 HD
ENDBRANCH   4   5
ENDBRANCH   3   4
ENDBRANCH   2   3
ENDBRANCH   1   2
END_RES ARG D 557
BEGIN_RES GLU D 570
REMARK  3 active torsions:
REMARK  status: ('A' for Active; 'I' for Inactive)
REMARK    5  A    between atoms: CA   and  CB  
REMARK    6  A    between atoms: CB   and  CG  
REMARK    7  A    between atoms: CG   and  CD  
ROOT
ATOM     14  CA  GLU D 570     -18.033  -6.348 -13.375  1.00 32.92     0.160 C 
ENDROOT
BRANCH  14  15
ATOM     15  CB  GLU D 570     -19.500  -6.345 -13.794  1.00 32.92     0.043 C 
BRANCH  15  16
ATOM     16  CG  GLU D 570     -20.438  -5.515 -12.995  1.00 32.92     0.100 C 
BRANCH  16  17
ATOM     17  CD  GLU D 570     -21.744  -5.250 -13.708  1.00 32.92     0.185 C 
ATOM     18  OE1 GLU D 570     -22.317  -4.157 -13.534  1.00 32.92    -0.647 OA
ATOM     19  OE2 GLU D 570     -22.207  -6.151 -14.435  1.00 32.92    -0.647 OA
ENDBRANCH  16  17
ENDBRANCH  15  16
ENDBRANCH  14  15
END_RES GLU D 570
ENDMDL
MODEL 3
REMARK VINA RESULT:      -5.2      6.643      8.133
REMARK  2 active torsions:
REMARK  status: ('A' for Active; 'I' for Inactive)
REMARK    1  A    between atoms: C_4  and  C_7 
REMARK    2  A    between atoms: C_7  and  O_8 
ROOT
HETATM    1  C   UNL     1     -20.629  -4.297  -8.291  1.00  0.00     0.000 A 
HETATM    2  C   UNL     1     -20.813  -3.989  -9.636  1.00  0.00     0.001 A 
HETATM    3  C   UNL     1     -22.095  -3.744 -10.132  1.00  0.00     0.009 A 
HETATM    4  C   UNL     1     -23.209  -3.803  -9.282  1.00  0.00    -0.035 A 
HETATM    5  C   UNL     1     -23.008  -4.119  -7.930  1.00  0.00     0.009 A 
HETATM    6  C   UNL     1     -21.727  -4.367  -7.438  1.00  0.00     0.001 A 
ENDROOT
BRANCH   4   7
HETATM    7  C   UNL     1     -24.593  -3.492  -9.787  1.00  0.00     0.202 C 
BRANCH   7   8
HETATM    8  O   UNL     1     -24.646  -3.576 -11.207  1.00  0.00    -0.396 OA
HETATM    9  H   UNL     1     -24.603  -2.661 -11.540  1.00  0.00     0.209 HD
ENDBRANCH   7   8
ENDBRANCH   4   7
TORSDOF 2
BEGIN_RES ARG D 557
REMARK  4 active torsions:
REMARK  status: ('A' for Active; 'I' for Inactive)
REMARK    1  A    between atoms: CA   and  CB  
REMARK    2  A    between atoms: CB   and  CG  
REMARK    3  A    between atoms: CG   and  CD  
REMARK    4  A    between atoms: CD   and  NE  
REMARK       I    between atoms: NE   and  CZ  
REMARK       I    between atoms: CZ   and  NH1 
REMARK       I    between atoms: CZ   and  NH2 
ROOT
ATOM      1  CA  ARG D 557     -26.217   2.705 -17.014  1.00 35.49     0.159 C 
ENDROOT
BRANCH   1   2
ATOM      2  CB  ARG D 557     -26.789   1.319 -17.183  1.00 35.49     0.034 C 
BRANCH   2   3
ATOM      3  CG  ARG D 557     -25.857   0.196 -17.023  1.00 35.49     0.027 C 
BRANCH   3   4
ATOM      4  CD  ARG D 557     -26.206  -0.667 -15.872  1.00 35.49     0.116 C 
BRANCH   4   5
ATOM      5  NE  ARG D 557     -25.079  -0.898 -15.007  1.00 35.49    -0.212 N 
ATOM      6  CZ  ARG D 557     -24.882  -1.970 -14.272  1.00 35.49     0.666 C 
ATOM      7  NH1 ARG D 557     -25.737  -2.975 -14.240  1.00 35.49    -0.235 N 
ATOM      8  NH2 ARG D 557     -23.792  -2.020 -13.563  1.00 35.49    -0.235 N 
ATOM      9  HH  ARG D 557     -26.460  -2.965 -14.701  1.00 35.49     0.174 HD
ATOM     10  HH  ARG D 557     -25.555  -3.650 -13.744  1.00 35.49     0.174 HD
ATOM     11  HH  ARG D 557     -23.254  -1.359 -13.609  1.00 35.49     0.174 HD
ATOM     12  HH  ARG D 557     -23.628  -2.696 -13.079  1.00 35.49     0.174 HD
ATOM     13  HE  ARG D 557     -24.514  -0.270 -14.910  1.00 35.49     0.178 HD
ENDBRANCH   4   5
ENDBRANCH   3   4
ENDBRANCH   2   3
ENDBRANCH   1   2
END_RES ARG D 557
BEGIN_RES GLU D 570
REMARK  3 active torsions:
REMARK  status: ('A' for Active; 'I' for Inactive)
REMARK    5  A    between atoms: CA   and  CB  
REMARK    6  A    between atoms: CB   and  CG  
REMARK    7  A    between atoms: CG   and  CD  
ROOT
ATOM     14  CA  GLU D 570     -18.033  -6.348 -13.375  1.00 32.92     0.160 C 
ENDROOT
BRANCH  14  15
ATOM     15  CB  GLU D 570     -19.500  -6.345 -13.794  1.00 32.92     0.043 C 
BRANCH  15  16
ATOM     16  CG  GLU D 570     -20.441  -5.528 -12.985  1.00 32.92     0.100 C 
BRANCH  16  17
ATOM     17  CD  GLU D 570     -21.682  -5.129 -13.749  1.00 32.92     0.185 C 
ATOM     18  OE1 GLU D 570     -22.754  -4.984 -13.131  1.00 32.92    -0.647 OA
ATOM     19  OE2 GLU D 570     -21.584  -4.975 -14.983  1.00 32.92    -0.647 OA
ENDBRANCH  16  17
ENDBRANCH  15  16
ENDBRANCH  14  15
END_RES GLU D 570
ENDMDL
MODEL 4
REMARK VINA RESULT:      -5.1      1.899      2.252
REMARK  2 active torsions:
REMARK  status: ('A' for Active; 'I' for Inactive)
REMARK    1  A    between atoms: C_4  and  C_7 
REMARK    2  A    between atoms: C_7  and  O_8 
ROOT
HETATM    1  C   UNL     1     -33.725  -2.988 -11.766  1.00  0.00     0.000 A 
HETATM    2  C   UNL     1     -32.770  -4.001 -11.809  1.00  0.00     0.001 A 
HETATM    3  C   UNL     1     -33.064  -5.266 -11.296  1.00  0.00     0.009 A 
HETATM    4  C   UNL     1     -34.321  -5.532 -10.735  1.00  0.00    -0.035 A 
HETATM    5  C   UNL     1     -35.271  -4.500 -10.694  1.00  0.00     0.009 A 
HETATM    6  C   UNL     1     -34.974  -3.236 -11.205  1.00  0.00     0.001 A 
ENDROOT
BRANCH   4   7
HETATM    7  C   UNL     1     -34.675  -6.903 -10.224  1.00  0.00     0.202 C 
BRANCH   7   8
HETATM    8  O   UNL     1     -34.958  -7.788 -11.302  1.00  0.00    -0.396 OA
HETATM    9  H   UNL     1     -34.815  -8.691 -10.962  1.00  0.00     0.209 HD
ENDBRANCH   7   8
ENDBRANCH   4   7
TORSDOF 2
BEGIN_RES ARG D 557
REMARK  4 active torsions:
REMARK  status: ('A' for Active; 'I' for Inactive)
REMARK    1  A    between atoms: CA   and  CB  
REMARK    2  A    between atoms: CB   and  CG  
REMARK    3  A    between atoms: CG   and  CD  
REMARK    4  A    between atoms: CD   and  NE  
REMARK       I    between atoms: NE   and  CZ  
REMARK       I    between atoms: CZ   and  NH1 
REMARK       I    between atoms: CZ   and  NH2 
ROOT
ATOM      1  CA  ARG D 557     -26.217   2.705 -17.014  1.00 35.49     0.159 C 
ENDROOT
BRANCH   1   2
ATOM      2  CB  ARG D 557     -26.789   1.319 -17.183  1.00 35.49     0.034 C 
BRANCH   2   3
ATOM      3  CG  ARG D 557     -28.222   1.157 -16.907  1.00 35.49     0.027 C 
BRANCH   3   4
ATOM      4  CD  ARG D 557     -28.606  -0.262 -16.731  1.00 35.49     0.116 C 
BRANCH   4   5
ATOM      5  NE  ARG D 557     -27.601  -1.012 -16.025  1.00 35.49    -0.212 N 
ATOM      6  CZ  ARG D 557     -27.426  -2.313 -16.090  1.00 35.49     0.666 C 
ATOM      7  NH1 ARG D 557     -28.191  -3.095 -16.828  1.00 35.49    -0.235 N 
ATOM      8  NH2 ARG D 557     -26.449  -2.822 -15.397  1.00 35.49    -0.235 N 
ATOM      9  HH  ARG D 557     -28.838  -2.781 -17.294  1.00 35.49     0.174 HD
ATOM     10  HH  ARG D 557     -28.028  -3.936 -16.834  1.00 35.49     0.174 HD
ATOM     11  HH  ARG D 557     -25.966  -2.292 -14.936  1.00 35.49     0.174 HD
ATOM     12  HH  ARG D 557     -26.302  -3.657 -15.418  1.00 35.49     0.174 HD
ATOM     13  HE  ARG D 557     -27.109  -0.596 -15.469  1.00 35.49     0.178 HD
ENDBRANCH   4   5
ENDBRANCH   3   4
ENDBRANCH   2   3
ENDBRANCH   1   2
END_RES ARG D 557
BEGIN_RES GLU D 570
REMARK  3 active torsions:
REMARK  status: ('A' for Active; 'I' for Inactive)
REMARK    5  A    between atoms: CA   and  CB  
REMARK    6  A    between atoms: CB   and  CG  
REMARK    7  A    between atoms: CG   and  CD  
ROOT
ATOM     14  CA  GLU D 570     -18.033  -6.348 -13.375  1.00 32.92     0.160 C 
ENDROOT
BRANCH  14  15
ATOM     15  CB  GLU D 570     -19.500  -6.345 -13.794  1.00 32.92     0.043 C 
BRANCH  15  16
ATOM     16  CG  GLU D 570     -20.449  -5.566 -12.958  1.00 32.92     0.100 C 
BRANCH  16  17
ATOM     17  CD  GLU D 570     -21.699  -5.162 -13.705  1.00 32.92     0.185 C 
ATOM     18  OE1 GLU D 570     -21.681  -5.146 -14.951  1.00 32.92    -0.647 OA
ATOM     19  OE2 GLU D 570     -22.702  -4.843 -13.037  1.00 32.92    -0.647 OA
ENDBRANCH  16  17
ENDBRANCH  15  16
ENDBRANCH  14  15
END_RES GLU D 570
ENDMDL
MODEL 5
REMARK VINA RESULT:      -4.9      1.968      2.632
REMARK  2 active torsions:
REMARK  status: ('A' for Active; 'I' for Inactive)
REMARK    1  A    between atoms: C_4  and  C_7 
REMARK    2  A    between atoms: C_7  and  O_8 
ROOT
HETATM    1  C   UNL     1     -33.292  -4.914 -11.406  1.00  0.00     0.000 A 
HETATM    2  C   UNL     1     -32.815  -3.611 -11.525  1.00  0.00     0.001 A 
HETATM    3  C   UNL     1     -33.668  -2.527 -11.302  1.00  0.00     0.009 A 
HETATM    4  C   UNL     1     -35.010  -2.738 -10.954  1.00  0.00    -0.035 A 
HETATM    5  C   UNL     1     -35.477  -4.056 -10.844  1.00  0.00     0.009 A 
HETATM    6  C   UNL     1     -34.625  -5.137 -11.070  1.00  0.00     0.001 A 
ENDROOT
BRANCH   4   7
HETATM    7  C   UNL     1     -35.931  -1.584 -10.660  1.00  0.00     0.202 C 
BRANCH   7   8
HETATM    8  O   UNL     1     -35.458  -0.390 -11.273  1.00  0.00    -0.396 OA
HETATM    9  H   UNL     1     -34.575  -0.594 -11.632  1.00  0.00     0.209 HD
ENDBRANCH   7   8
ENDBRANCH   4   7
TORSDOF 2
BEGIN_RES ARG D 557
REMARK  4 active torsions:
REMARK  status: ('A' for Active; 'I' for Inactive)
REMARK    1  A    between atoms: CA   and  CB  
REMARK    2  A    between atoms: CB   and  CG  
REMARK    3  A    between atoms: CG   and  CD  
REMARK    4  A    between atoms: CD   and  NE  
REMARK       I    between atoms: NE   and  CZ  
REMARK       I    between atoms: CZ   and  NH1 
REMARK       I    between atoms: CZ   and  NH2 
ROOT
ATOM      1  CA  ARG D 557     -26.217   2.705 -17.014  1.00 35.49     0.159 C 
ENDROOT
BRANCH   1   2
ATOM      2  CB  ARG D 557     -26.789   1.319 -17.183  1.00 35.49     0.034 C 
BRANCH   2   3
ATOM      3  CG  ARG D 557     -25.864   0.195 -16.996  1.00 35.49     0.027 C 
BRANCH   3   4
ATOM      4  CD  ARG D 557     -26.274  -0.695 -15.886  1.00 35.49     0.116 C 
BRANCH   4   5
ATOM      5  NE  ARG D 557     -25.213  -0.903 -14.936  1.00 35.49    -0.212 N 
ATOM      6  CZ  ARG D 557     -24.909  -2.045 -14.362  1.00 35.49     0.666 C 
ATOM      7  NH1 ARG D 557     -25.579  -3.158 -14.597  1.00 35.49    -0.235 N 
ATOM      8  NH2 ARG D 557     -23.900  -2.054 -13.541  1.00 35.49    -0.235 N 
ATOM      9  HH  ARG D 557     -26.245  -3.176 -15.136  1.00 35.49     0.174 HD
ATOM     10  HH  ARG D 557     -25.333  -3.874 -14.196  1.00 35.49     0.174 HD
ATOM     11  HH  ARG D 557     -23.480  -1.322 -13.414  1.00 35.49     0.174 HD
ATOM     12  HH  ARG D 557     -23.670  -2.773 -13.154  1.00 35.49     0.174 HD
ATOM     13  HE  ARG D 557     -24.776  -0.223 -14.671  1.00 35.49     0.178 HD
ENDBRANCH   4   5
ENDBRANCH   3   4
ENDBRANCH   2   3
ENDBRANCH   1   2
END_RES ARG D 557
BEGIN_RES GLU D 570
REMARK  3 active torsions:
REMARK  status: ('A' for Active; 'I' for Inactive)
REMARK    5  A    between atoms: CA   and  CB  
REMARK    6  A    between atoms: CB   and  CG  
REMARK    7  A    between atoms: CG   and  CD  
ROOT
ATOM     14  CA  GLU D 570     -18.033  -6.348 -13.375  1.00 32.92     0.160 C 
ENDROOT
BRANCH  14  15
ATOM     15  CB  GLU D 570     -19.500  -6.345 -13.794  1.00 32.92     0.043 C 
BRANCH  15  16
ATOM     16  CG  GLU D 570     -20.447  -5.556 -12.965  1.00 32.92     0.100 C 
BRANCH  16  17
ATOM     17  CD  GLU D 570     -21.681  -5.128 -13.725  1.00 32.92     0.185 C 
ATOM     18  OE1 GLU D 570     -22.720  -4.860 -13.091  1.00 32.92    -0.647 OA
ATOM     19  OE2 GLU D 570     -21.613  -5.077 -14.969  1.00 32.92    -0.647 OA
ENDBRANCH  16  17
ENDBRANCH  15  16
ENDBRANCH  14  15
END_RES GLU D 570
ENDMDL
MODEL 6
REMARK VINA RESULT:      -4.9      7.573      8.512
REMARK  2 active torsions:
REMARK  status: ('A' for Active; 'I' for Inactive)
REMARK    1  A    between atoms: C_4  and  C_7 
REMARK    2  A    between atoms: C_7  and  O_8 
ROOT
HETATM    1  C   UNL     1     -21.032  -3.877 -11.357  1.00  0.00     0.000 A 
HETATM    2  C   UNL     1     -22.348  -3.545 -11.046  1.00  0.00     0.001 A 
HETATM    3  C   UNL     1     -22.834  -3.738  -9.751  1.00  0.00     0.009 A 
HETATM    4  C   UNL     1     -22.003  -4.265  -8.751  1.00  0.00    -0.035 A 
HETATM    5  C   UNL     1     -20.681  -4.599  -9.082  1.00  0.00     0.009 A 
HETATM    6  C   UNL     1     -20.199  -4.408 -10.377  1.00  0.00     0.001 A 
ENDROOT
BRANCH   4   7
HETATM    7  C   UNL     1     -22.492  -4.433  -7.337  1.00  0.00     0.202 C 
BRANCH   7   8
HETATM    8  O   UNL     1     -23.892  -4.189  -7.253  1.00  0.00    -0.396 OA
HETATM    9  H   UNL     1     -24.332  -5.041  -7.429  1.00  0.00     0.209 HD
ENDBRANCH   7   8
ENDBRANCH   4   7
TORSDOF 2
BEGIN_RES ARG D 557
REMARK  4 active torsions:
REMARK  status: ('A' for Active; 'I' for Inactive)
REMARK    1  A    between atoms: CA   and  CB  
REMARK    2  A    between atoms: CB   and  CG  
REMARK    3  A    between atoms: CG   and  CD  
REMARK    4  A    between atoms: CD   and  NE  
REMARK       I    between atoms: NE   and  CZ  
REMARK       I    between atoms: CZ   and  NH1 
REMARK       I    between atoms: CZ   and  NH2 
ROOT
ATOM      1  CA  ARG D 557     -26.217   2.705 -17.014  1.00 35.49     0.159 C 
ENDROOT
BRANCH   1   2
ATOM      2  CB  ARG D 557     -26.789   1.319 -17.183  1.00 35.49     0.034 C 
BRANCH   2   3
ATOM      3  CG  ARG D 557     -25.835   0.203 -17.159  1.00 35.49     0.027 C 
BRANCH   3   4
ATOM      4  CD  ARG D 557     -24.750   0.410 -16.172  1.00 35.49     0.116 C 
BRANCH   4   5
ATOM      5  NE  ARG D 557     -24.892  -0.446 -15.023  1.00 35.49    -0.212 N 
ATOM      6  CZ  ARG D 557     -24.077  -1.420 -14.687  1.00 35.49     0.666 C 
ATOM      7  NH1 ARG D 557     -23.013  -1.735 -15.403  1.00 35.49    -0.235 N 
ATOM      8  NH2 ARG D 557     -24.348  -2.080 -13.598  1.00 35.49    -0.235 N 
ATOM      9  HH  ARG D 557     -22.814  -1.312 -16.121  1.00 35.49     0.174 HD
ATOM     10  HH  ARG D 557     -22.516  -2.378 -15.132  1.00 35.49     0.174 HD
ATOM     11  HH  ARG D 557     -25.037  -1.850 -13.152  1.00 35.49     0.174 HD
ATOM     12  HH  ARG D 557     -23.843  -2.713 -13.346  1.00 35.49     0.174 HD
ATOM     13  HE  ARG D 557     -25.590  -0.360 -14.546  1.00 35.49     0.178 HD
ENDBRANCH   4   5
ENDBRANCH   3   4
ENDBRANCH   2   3
ENDBRANCH   1   2
END_RES ARG D 557
BEGIN_RES GLU D 570
REMARK  3 active torsions:
REMARK  status: ('A' for Active; 'I' for Inactive)
REMARK    5  A    between atoms: CA   and  CB  
REMARK    6  A    between atoms: CB   and  CG  
REMARK    7  A    between atoms: CG   and  CD  
ROOT
ATOM     14  CA  GLU D 570     -18.033  -6.348 -13.375  1.00 32.92     0.160 C 
ENDROOT
BRANCH  14  15
ATOM     15  CB  GLU D 570     -19.500  -6.345 -13.794  1.00 32.92     0.043 C 
BRANCH  15  16
ATOM     16  CG  GLU D 570     -19.828  -5.794 -15.134  1.00 32.92     0.100 C 
BRANCH  16  17
ATOM     17  CD  GLU D 570     -21.301  -5.506 -15.309  1.00 32.92     0.185 C 
ATOM     18  OE1 GLU D 570     -21.648  -4.449 -15.870  1.00 32.92    -0.647 OA
ATOM     19  OE2 GLU D 570     -22.116  -6.338 -14.864  1.00 32.92    -0.647 OA
ENDBRANCH  16  17
ENDBRANCH  15  16
ENDBRANCH  14  15
END_RES GLU D 570
ENDMDL
MODEL 7
REMARK VINA RESULT:      -4.9      6.377      8.547
REMARK  2 active torsions:
REMARK  status: ('A' for Active; 'I' for Inactive)
REMARK    1  A    between atoms: C_4  and  C_7 
REMARK    2  A    between atoms: C_7  and  O_8 
ROOT
HETATM    1  C   UNL     1     -20.441  -4.380  -9.420  1.00  0.00     0.000 A 
HETATM    2  C   UNL     1     -21.586  -4.111  -8.675  1.00  0.00     0.001 A 
HETATM    3  C   UNL     1     -22.765  -3.721  -9.315  1.00  0.00     0.009 A 
HETATM    4  C   UNL     1     -22.810  -3.599 -10.711  1.00  0.00    -0.035 A 
HETATM    5  C   UNL     1     -21.646  -3.868 -11.447  1.00  0.00     0.009 A 
HETATM    6  C   UNL     1     -20.469  -4.254 -10.806  1.00  0.00     0.001 A 
ENDROOT
BRANCH   4   7
HETATM    7  C   UNL     1     -24.084  -3.229 -11.422  1.00  0.00     0.202 C 
BRANCH   7   8
HETATM    8  O   UNL     1     -25.181  -3.201 -10.515  1.00  0.00    -0.396 OA
HETATM    9  H   UNL     1     -24.982  -2.503  -9.864  1.00  0.00     0.209 HD
ENDBRANCH   7   8
ENDBRANCH   4   7
TORSDOF 2
BEGIN_RES ARG D 557
REMARK  4 active torsions:
REMARK  status: ('A' for Active; 'I' for Inactive)
REMARK    1  A    between atoms: CA   and  CB  
REMARK    2  A    between atoms: CB   and  CG  
REMARK    3  A    between atoms: CG   and  CD  
REMARK    4  A    between atoms: CD   and  NE  
REMARK       I    between atoms: NE   and  CZ  
REMARK       I    between atoms: CZ   and  NH1 
REMARK       I    between atoms: CZ   and  NH2 
ROOT
ATOM      1  CA  ARG D 557     -26.217   2.705 -17.014  1.00 35.49     0.159 C 
ENDROOT
BRANCH   1   2
ATOM      2  CB  ARG D 557     -26.789   1.319 -17.183  1.00 35.49     0.034 C 
BRANCH   2   3
ATOM      3  CG  ARG D 557     -28.219   1.155 -16.894  1.00 35.49     0.027 C 
BRANCH   3   4
ATOM      4  CD  ARG D 557     -28.609  -0.268 -16.769  1.00 35.49     0.116 C 
BRANCH   4   5
ATOM      5  NE  ARG D 557     -27.619  -1.043 -16.068  1.00 35.49    -0.212 N 
ATOM      6  CZ  ARG D 557     -27.478  -2.348 -16.132  1.00 35.49     0.666 C 
ATOM      7  NH1 ARG D 557     -28.270  -3.112 -16.861  1.00 35.49    -0.235 N 
ATOM      8  NH2 ARG D 557     -26.510  -2.882 -15.445  1.00 35.49    -0.235 N 
ATOM      9  HH  ARG D 557     -28.913  -2.782 -17.323  1.00 35.49     0.174 HD
ATOM     10  HH  ARG D 557     -28.129  -3.957 -16.866  1.00 35.49     0.174 HD
ATOM     11  HH  ARG D 557     -26.010  -2.363 -14.989  1.00 35.49     0.174 HD
ATOM     12  HH  ARG D 557     -26.386  -3.720 -15.464  1.00 35.49     0.174 HD
ATOM     13  HE  ARG D 557     -27.112  -0.639 -15.518  1.00 35.49     0.178 HD
ENDBRANCH   4   5
ENDBRANCH   3   4
ENDBRANCH   2   3
ENDBRANCH   1   2
END_RES ARG D 557
BEGIN_RES GLU D 570
REMARK  3 active torsions:
REMARK  status: ('A' for Active; 'I' for Inactive)
REMARK    5  A    between atoms: CA   and  CB  
REMARK    6  A    between atoms: CB   and  CG  
REMARK    7  A    between atoms: CG   and  CD  
ROOT
ATOM     14  CA  GLU D 570     -18.033  -6.348 -13.375  1.00 32.92     0.160 C 
ENDROOT
BRANCH  14  15
ATOM     15  CB  GLU D 570     -19.500  -6.345 -13.794  1.00 32.92     0.043 C 
BRANCH  15  16
ATOM     16  CG  GLU D 570     -19.812  -5.948 -15.191  1.00 32.92     0.100 C 
BRANCH  16  17
ATOM     17  CD  GLU D 570     -21.243  -5.498 -15.371  1.00 32.92     0.185 C 
ATOM     18  OE1 GLU D 570     -21.570  -4.926 -16.428  1.00 32.92    -0.647 OA
ATOM     19  OE2 GLU D 570     -22.043  -5.706 -14.437  1.00 32.92    -0.647 OA
ENDBRANCH  16  17
ENDBRANCH  15  16
ENDBRANCH  14  15
END_RES GLU D 570
ENDMDL
MODEL 8
REMARK VINA RESULT:      -4.8     14.974     18.891
REMARK  2 active torsions:
REMARK  status: ('A' for Active; 'I' for Inactive)
REMARK    1  A    between atoms: C_4  and  C_7 
REMARK    2  A    between atoms: C_7  and  O_8 
ROOT
HETATM    1  C   UNL     1     -14.260   8.720   0.793  1.00  0.00     0.000 A 
HETATM    2  C   UNL     1     -14.976   7.906   1.668  1.00  0.00     0.001 A 
HETATM    3  C   UNL     1     -14.769   8.003   3.046  1.00  0.00     0.009 A 
HETATM    4  C   UNL     1     -13.843   8.920   3.563  1.00  0.00    -0.035 A 
HETATM    5  C   UNL     1     -13.126   9.729   2.669  1.00  0.00     0.009 A 
HETATM    6  C   UNL     1     -13.332   9.628   1.293  1.00  0.00     0.001 A 
ENDROOT
BRANCH   4   7
HETATM    7  C   UNL     1     -13.643   9.074   5.047  1.00  0.00     0.202 C 
BRANCH   7   8
HETATM    8  O   UNL     1     -14.352   8.068   5.762  1.00  0.00    -0.396 OA
HETATM    9  H   UNL     1     -15.289   8.159   5.510  1.00  0.00     0.209 HD
ENDBRANCH   7   8
ENDBRANCH   4   7
TORSDOF 2
BEGIN_RES ARG D 557
REMARK  4 active torsions:
REMARK  status: ('A' for Active; 'I' for Inactive)
REMARK    1  A    between atoms: CA   and  CB  
REMARK    2  A    between atoms: CB   and  CG  
REMARK    3  A    between atoms: CG   and  CD  
REMARK    4  A    between atoms: CD   and  NE  
REMARK       I    between atoms: NE   and  CZ  
REMARK       I    between atoms: CZ   and  NH1 
REMARK       I    between atoms: CZ   and  NH2 
ROOT
ATOM      1  CA  ARG D 557     -26.217   2.705 -17.014  1.00 35.49     0.159 C 
ENDROOT
BRANCH   1   2
ATOM      2  CB  ARG D 557     -26.789   1.319 -17.183  1.00 35.49     0.034 C 
BRANCH   2   3
ATOM      3  CG  ARG D 557     -25.835   0.204 -17.164  1.00 35.49     0.027 C 
BRANCH   3   4
ATOM      4  CD  ARG D 557     -24.748   0.407 -16.180  1.00 35.49     0.116 C 
BRANCH   4   5
ATOM      5  NE  ARG D 557     -24.898  -0.436 -15.024  1.00 35.49    -0.212 N 
ATOM      6  CZ  ARG D 557     -24.086  -1.407 -14.671  1.00 35.49     0.666 C 
ATOM      7  NH1 ARG D 557     -23.017  -1.729 -15.375  1.00 35.49    -0.235 N 
ATOM      8  NH2 ARG D 557     -24.365  -2.056 -13.578  1.00 35.49    -0.235 N 
ATOM      9  HH  ARG D 557     -22.812  -1.314 -16.096  1.00 35.49     0.174 HD
ATOM     10  HH  ARG D 557     -22.522  -2.370 -15.094  1.00 35.49     0.174 HD
ATOM     11  HH  ARG D 557     -25.058  -1.822 -13.139  1.00 35.49     0.174 HD
ATOM     12  HH  ARG D 557     -23.863  -2.687 -13.316  1.00 35.49     0.174 HD
ATOM     13  HE  ARG D 557     -25.600  -0.346 -14.552  1.00 35.49     0.178 HD
ENDBRANCH   4   5
ENDBRANCH   3   4
ENDBRANCH   2   3
ENDBRANCH   1   2
END_RES ARG D 557
BEGIN_RES GLU D 570
REMARK  3 active torsions:
REMARK  status: ('A' for Active; 'I' for Inactive)
REMARK    5  A    between atoms: CA   and  CB  
REMARK    6  A    between atoms: CB   and  CG  
REMARK    7  A    between atoms: CG   and  CD  
ROOT
ATOM     14  CA  GLU D 570     -18.033  -6.348 -13.375  1.00 32.92     0.160 C 
ENDROOT
BRANCH  14  15
ATOM     15  CB  GLU D 570     -19.500  -6.345 -13.794  1.00 32.92     0.043 C 
BRANCH  15  16
ATOM     16  CG  GLU D 570     -20.441  -5.525 -12.987  1.00 32.92     0.100 C 
BRANCH  16  17
ATOM     17  CD  GLU D 570     -21.738  -5.238 -13.707  1.00 32.92     0.185 C 
ATOM     18  OE1 GLU D 570     -22.190  -6.084 -14.502  1.00 32.92    -0.647 OA
ATOM     19  OE2 GLU D 570     -22.300  -4.147 -13.485  1.00 32.92    -0.647 OA
ENDBRANCH  16  17
ENDBRANCH  15  16
ENDBRANCH  14  15
END_RES GLU D 570
ENDMDL
MODEL 9
REMARK VINA RESULT:      -4.6      2.802      3.599
REMARK  2 active torsions:
REMARK  status: ('A' for Active; 'I' for Inactive)
REMARK    1  A    between atoms: C_4  and  C_7 
REMARK    2  A    between atoms: C_7  and  O_8 
ROOT
HETATM    1  C   UNL     1     -33.286  -5.171 -11.303  1.00  0.00     0.000 A 
HETATM    2  C   UNL     1     -34.613  -5.290 -10.895  1.00  0.00     0.001 A 
HETATM    3  C   UNL     1     -35.438  -4.164 -10.853  1.00  0.00     0.009 A 
HETATM    4  C   UNL     1     -34.944  -2.905 -11.223  1.00  0.00    -0.035 A 
HETATM    5  C   UNL     1     -33.604  -2.801 -11.626  1.00  0.00     0.009 A 
HETATM    6  C   UNL     1     -32.780  -3.926 -11.664  1.00  0.00     0.001 A 
ENDROOT
BRANCH   4   7
HETATM    7  C   UNL     1     -35.832  -1.690 -11.233  1.00  0.00     0.202 C 
BRANCH   7   8
HETATM    8  O   UNL     1     -36.311  -1.424 -12.547  1.00  0.00    -0.396 OA
HETATM    9  H   UNL     1     -35.676  -1.836 -13.161  1.00  0.00     0.209 HD
ENDBRANCH   7   8
ENDBRANCH   4   7
TORSDOF 2
BEGIN_RES ARG D 557
REMARK  4 active torsions:
REMARK  status: ('A' for Active; 'I' for Inactive)
REMARK    1  A    between atoms: CA   and  CB  
REMARK    2  A    between atoms: CB   and  CG  
REMARK    3  A    between atoms: CG   and  CD  
REMARK    4  A    between atoms: CD   and  NE  
REMARK       I    between atoms: NE   and  CZ  
REMARK       I    between atoms: CZ   and  NH1 
REMARK       I    between atoms: CZ   and  NH2 
ROOT
ATOM      1  CA  ARG D 557     -26.217   2.705 -17.014  1.00 35.49     0.159 C 
ENDROOT
BRANCH   1   2
ATOM      2  CB  ARG D 557     -26.789   1.319 -17.183  1.00 35.49     0.034 C 
BRANCH   2   3
ATOM      3  CG  ARG D 557     -28.185   1.126 -16.772  1.00 35.49     0.027 C 
BRANCH   3   4
ATOM      4  CD  ARG D 557     -28.721  -0.189 -17.195  1.00 35.49     0.116 C 
BRANCH   4   5
ATOM      5  NE  ARG D 557     -27.993  -1.284 -16.610  1.00 35.49    -0.212 N 
ATOM      6  CZ  ARG D 557     -28.246  -2.560 -16.796  1.00 35.49     0.666 C 
ATOM      7  NH1 ARG D 557     -29.239  -2.983 -17.557  1.00 35.49    -0.235 N 
ATOM      8  NH2 ARG D 557     -27.469  -3.419 -16.203  1.00 35.49    -0.235 N 
ATOM      9  HH  ARG D 557     -29.761  -2.436 -17.959  1.00 35.49     0.174 HD
ATOM     10  HH  ARG D 557     -29.354  -3.828 -17.644  1.00 35.49     0.174 HD
ATOM     11  HH  ARG D 557     -26.831  -3.117 -15.724  1.00 35.49     0.174 HD
ATOM     12  HH  ARG D 557     -27.598  -4.251 -16.302  1.00 35.49     0.174 HD
ATOM     13  HE  ARG D 557     -27.381  -1.102 -16.048  1.00 35.49     0.178 HD
ENDBRANCH   4   5
ENDBRANCH   3   4
ENDBRANCH   2   3
ENDBRANCH   1   2
END_RES ARG D 557
BEGIN_RES GLU D 570
REMARK  3 active torsions:
REMARK  status: ('A' for Active; 'I' for Inactive)
REMARK    5  A    between atoms: CA   and  CB  
REMARK    6  A    between atoms: CB   and  CG  
REMARK    7  A    between atoms: CG   and  CD  
ROOT
ATOM     14  CA  GLU D 570     -18.033  -6.348 -13.375  1.00 32.92     0.160 C 
ENDROOT
BRANCH  14  15
ATOM     15  CB  GLU D 570     -19.500  -6.345 -13.794  1.00 32.92     0.043 C 
BRANCH  15  16
ATOM     16  CG  GLU D 570     -20.448  -5.559 -12.962  1.00 32.92     0.100 C 
BRANCH  16  17
ATOM     17  CD  GLU D 570     -21.707  -5.178 -13.705  1.00 32.92     0.185 C 
ATOM     18  OE1 GLU D 570     -22.517  -4.401 -13.164  1.00 32.92    -0.647 OA
ATOM     19  OE2 GLU D 570     -21.894  -5.676 -14.833  1.00 32.92    -0.647 OA
ENDBRANCH  16  17
ENDBRANCH  15  16
ENDBRANCH  14  15
END_RES GLU D 570
ENDMDL
