MODEL 1
REMARK VINA RESULT:     -10.2      0.000      0.000
REMARK  9 active torsions:
REMARK  status: ('A' for Active; 'I' for Inactive)
REMARK    1  A    between atoms: C_3  and  C_10 
REMARK    2  A    between atoms: C_11  and  C_12 
REMARK    3  A    between atoms: C_13  and  C_14 
REMARK    4  A    between atoms: C_15  and  C_16 
REMARK    5  A    between atoms: C_17  and  C_18 
REMARK    6  A    between atoms: C_18  and  O_20 
REMARK    7  A    between atoms: O_20  and  C_21 
REMARK    8  A    between atoms: C_21  and  C_22 
REMARK    9  A    between atoms: C_22  and  C_24 
ROOT
HETATM    1  C   UNL     1     -23.526  -4.939 -13.093  1.00  0.00     0.001 C 
HETATM    2  C   UNL     1     -23.216  -5.122 -11.798  1.00  0.00     0.007 C 
ENDROOT
BRANCH   1   3
HETATM    3  C   UNL     1     -23.527  -6.001 -14.062  1.00  0.00     0.007 C 
HETATM    4  C   UNL     1     -24.463  -6.253 -14.993  1.00  0.00    -0.062 C 
HETATM    5  C   UNL     1     -24.291  -7.445 -15.895  1.00  0.00     0.048 C 
BRANCH   4   6
HETATM    6  C   UNL     1     -25.607  -5.377 -15.295  1.00  0.00     0.007 C 
HETATM    7  C   UNL     1     -26.370  -5.633 -16.366  1.00  0.00     0.009 C 
BRANCH   7   8
HETATM    8  C   UNL     1     -27.560  -5.024 -16.962  1.00  0.00    -0.048 C 
HETATM    9  C   UNL     1     -27.833  -3.731 -16.596  1.00  0.00    -0.077 C 
HETATM   10  C   UNL     1     -26.966  -2.784 -15.775  1.00  0.00     0.044 C 
HETATM   11  C   UNL     1     -29.121  -3.028 -16.959  1.00  0.00     0.034 C 
HETATM   12  C   UNL     1     -30.198  -4.001 -17.383  1.00  0.00     0.005 C 
HETATM   13  C   UNL     1     -29.626  -4.859 -18.496  1.00  0.00     0.014 C 
HETATM   14  C   UNL     1     -28.490  -5.798 -17.971  1.00  0.00    -0.020 C 
HETATM   15  C   UNL     1     -27.737  -6.275 -19.243  1.00  0.00     0.020 C 
HETATM   16  C   UNL     1     -29.191  -7.055 -17.392  1.00  0.00     0.020 C 
ENDBRANCH   7   8
ENDBRANCH   4   6
ENDBRANCH   1   3
BRANCH   2  17
HETATM   17  C   UNL     1     -23.332  -4.077 -10.816  1.00  0.00    -0.056 C 
HETATM   18  C   UNL     1     -22.286  -3.642 -10.080  1.00  0.00     0.089 C 
HETATM   19  C   UNL     1     -24.725  -3.515 -10.615  1.00  0.00     0.048 C 
BRANCH  18  20
HETATM   20  C   UNL     1     -20.846  -4.025 -10.126  1.00  0.00     0.283 C 
HETATM   21  O   UNL     1     -20.280  -4.145 -11.210  1.00  0.00    -0.260 OA
BRANCH  20  22
HETATM   22  O   UNL     1     -20.271  -4.277  -8.918  1.00  0.00    -0.311 OA
BRANCH  22  23
HETATM   23  C   UNL     1     -20.987  -3.799  -7.770  1.00  0.00     0.258 C 
BRANCH  23  24
HETATM   24  C   UNL     1     -21.734  -4.771  -6.791  1.00  0.00     0.158 C 
HETATM   25  O   UNL     1     -22.964  -4.820  -6.806  1.00  0.00    -0.295 OA
BRANCH  24  26
HETATM   26  C   UNL     1     -20.926  -5.584  -5.743  1.00  0.00     0.012 C 
HETATM   27  C   UNL     1     -20.005  -4.634  -4.965  1.00  0.00     0.022 C 
HETATM   28  C   UNL     1     -21.833  -6.290  -4.702  1.00  0.00     0.022 C 
HETATM   29  C   UNL     1     -20.144  -6.682  -6.462  1.00  0.00     0.022 C 
ENDBRANCH  24  26
ENDBRANCH  23  24
ENDBRANCH  22  23
ENDBRANCH  20  22
ENDBRANCH  18  20
ENDBRANCH   2  17
TORSDOF 9
BEGIN_RES ARG D 557
REMARK  4 active torsions:
REMARK  status: ('A' for Active; 'I' for Inactive)
REMARK    1  A    between atoms: CA   and  CB  
REMARK    2  A    between atoms: CB   and  CG  
REMARK    3  A    between atoms: CG   and  CD  
REMARK    4  A    between atoms: CD   and  NE  
REMARK       I    between atoms: NE   and  CZ  
REMARK       I    between atoms: CZ   and  NH1 
REMARK       I    between atoms: CZ   and  NH2 
ROOT
ATOM      1  CA  ARG D 557     -26.217   2.705 -17.014  1.00 35.49     0.159 C 
ENDROOT
BRANCH   1   2
ATOM      2  CB  ARG D 557     -26.789   1.319 -17.183  1.00 35.49     0.034 C 
BRANCH   2   3
ATOM      3  CG  ARG D 557     -25.833   0.205 -17.186  1.00 35.49     0.027 C 
BRANCH   3   4
ATOM      4  CD  ARG D 557     -24.641   0.482 -16.352  1.00 35.49     0.116 C 
BRANCH   4   5
ATOM      5  NE  ARG D 557     -24.665  -0.249 -15.112  1.00 35.49    -0.212 N 
ATOM      6  CZ  ARG D 557     -23.842  -1.217 -14.776  1.00 35.49     0.666 C 
ATOM      7  NH1 ARG D 557     -22.882  -1.642 -15.576  1.00 35.49    -0.235 N 
ATOM      8  NH2 ARG D 557     -23.997  -1.755 -13.601  1.00 35.49    -0.235 N 
ATOM      9  HH  ARG D 557     -22.761  -1.301 -16.353  1.00 35.49     0.174 HD
ATOM     10  HH  ARG D 557     -22.374  -2.275 -15.302  1.00 35.49     0.174 HD
ATOM     11  HH  ARG D 557     -24.621  -1.455 -13.102  1.00 35.49     0.174 HD
ATOM     12  HH  ARG D 557     -23.483  -2.379 -13.347  1.00 35.49     0.174 HD
ATOM     13  HE  ARG D 557     -25.298  -0.090 -14.567  1.00 35.49     0.178 HD
ENDBRANCH   4   5
ENDBRANCH   3   4
ENDBRANCH   2   3
ENDBRANCH   1   2
END_RES ARG D 557
BEGIN_RES GLU D 570
REMARK  3 active torsions:
REMARK  status: ('A' for Active; 'I' for Inactive)
REMARK    5  A    between atoms: CA   and  CB  
REMARK    6  A    between atoms: CB   and  CG  
REMARK    7  A    between atoms: CG   and  CD  
ROOT
ATOM     14  CA  GLU D 570     -18.033  -6.348 -13.375  1.00 32.92     0.160 C 
ENDROOT
BRANCH  14  15
ATOM     15  CB  GLU D 570     -19.500  -6.345 -13.794  1.00 32.92     0.043 C 
BRANCH  15  16
ATOM     16  CG  GLU D 570     -20.093  -7.639 -14.219  1.00 32.92     0.100 C 
BRANCH  16  17
ATOM     17  CD  GLU D 570     -20.578  -7.624 -15.650  1.00 32.92     0.185 C 
ATOM     18  OE1 GLU D 570     -20.780  -6.528 -16.209  1.00 32.92    -0.647 OA
ATOM     19  OE2 GLU D 570     -20.773  -8.719 -16.214  1.00 32.92    -0.647 OA
ENDBRANCH  16  17
ENDBRANCH  15  16
ENDBRANCH  14  15
END_RES GLU D 570
ENDMDL
MODEL 2
REMARK VINA RESULT:     -10.1      3.292     10.662
REMARK  9 active torsions:
REMARK  status: ('A' for Active; 'I' for Inactive)
REMARK    1  A    between atoms: C_3  and  C_10 
REMARK    2  A    between atoms: C_11  and  C_12 
REMARK    3  A    between atoms: C_13  and  C_14 
REMARK    4  A    between atoms: C_15  and  C_16 
REMARK    5  A    between atoms: C_17  and  C_18 
REMARK    6  A    between atoms: C_18  and  O_20 
REMARK    7  A    between atoms: O_20  and  C_21 
REMARK    8  A    between atoms: C_21  and  C_22 
REMARK    9  A    between atoms: C_22  and  C_24 
ROOT
HETATM    1  C   UNL     1     -20.183  -7.294  -5.695  1.00  0.00     0.001 C 
HETATM    2  C   UNL     1     -19.888  -6.367  -6.622  1.00  0.00     0.007 C 
ENDROOT
BRANCH   1   3
HETATM    3  C   UNL     1     -19.745  -8.660  -5.776  1.00  0.00     0.007 C 
HETATM    4  C   UNL     1     -20.145  -9.691  -5.012  1.00  0.00    -0.062 C 
HETATM    5  C   UNL     1     -19.532 -11.046  -5.237  1.00  0.00     0.048 C 
BRANCH   4   6
HETATM    6  C   UNL     1     -21.245  -9.636  -4.035  1.00  0.00     0.007 C 
HETATM    7  C   UNL     1     -21.031  -9.092  -2.829  1.00  0.00     0.009 C 
BRANCH   7   8
HETATM    8  C   UNL     1     -21.849  -8.847  -1.640  1.00  0.00    -0.048 C 
HETATM    9  C   UNL     1     -22.108  -7.535  -1.337  1.00  0.00    -0.077 C 
HETATM   10  C   UNL     1     -21.795  -6.298  -2.171  1.00  0.00     0.044 C 
HETATM   11  C   UNL     1     -22.762  -7.103  -0.044  1.00  0.00     0.034 C 
HETATM   12  C   UNL     1     -22.712  -8.190   1.006  1.00  0.00     0.005 C 
HETATM   13  C   UNL     1     -23.312  -9.443   0.397  1.00  0.00     0.014 C 
HETATM   14  C   UNL     1     -22.409 -10.016  -0.744  1.00  0.00    -0.020 C 
HETATM   15  C   UNL     1     -23.321 -10.996  -1.531  1.00  0.00     0.020 C 
HETATM   16  C   UNL     1     -21.332 -10.893  -0.055  1.00  0.00     0.020 C 
ENDBRANCH   7   8
ENDBRANCH   4   6
ENDBRANCH   1   3
BRANCH   2  17
HETATM   17  C   UNL     1     -20.233  -4.978  -6.471  1.00  0.00    -0.056 C 
HETATM   18  C   UNL     1     -20.720  -4.229  -7.484  1.00  0.00     0.089 C 
HETATM   19  C   UNL     1     -19.972  -4.381  -5.103  1.00  0.00     0.048 C 
BRANCH  18  20
HETATM   20  C   UNL     1     -21.076  -4.607  -8.882  1.00  0.00     0.283 C 
HETATM   21  O   UNL     1     -20.205  -4.625  -9.749  1.00  0.00    -0.260 OA
BRANCH  20  22
HETATM   22  O   UNL     1     -22.395  -4.853  -9.102  1.00  0.00    -0.311 OA
BRANCH  22  23
HETATM   23  C   UNL     1     -23.243  -3.700  -9.201  1.00  0.00     0.258 C 
BRANCH  23  24
HETATM   24  C   UNL     1     -24.162  -3.446 -10.446  1.00  0.00     0.158 C 
HETATM   25  O   UNL     1     -25.373  -3.291 -10.286  1.00  0.00    -0.295 OA
BRANCH  24  26
HETATM   26  C   UNL     1     -23.558  -3.498 -11.876  1.00  0.00     0.012 C 
HETATM   27  C   UNL     1     -24.499  -2.778 -12.850  1.00  0.00     0.022 C 
HETATM   28  C   UNL     1     -22.180  -2.792 -11.970  1.00  0.00     0.022 C 
HETATM   29  C   UNL     1     -23.333  -4.958 -12.266  1.00  0.00     0.022 C 
ENDBRANCH  24  26
ENDBRANCH  23  24
ENDBRANCH  22  23
ENDBRANCH  20  22
ENDBRANCH  18  20
ENDBRANCH   2  17
TORSDOF 9
BEGIN_RES ARG D 557
REMARK  4 active torsions:
REMARK  status: ('A' for Active; 'I' for Inactive)
REMARK    1  A    between atoms: CA   and  CB  
REMARK    2  A    between atoms: CB   and  CG  
REMARK    3  A    between atoms: CG   and  CD  
REMARK    4  A    between atoms: CD   and  NE  
REMARK       I    between atoms: NE   and  CZ  
REMARK       I    between atoms: CZ   and  NH1 
REMARK       I    between atoms: CZ   and  NH2 
ROOT
ATOM      1  CA  ARG D 557     -26.217   2.705 -17.014  1.00 35.49     0.159 C 
ENDROOT
BRANCH   1   2
ATOM      2  CB  ARG D 557     -26.789   1.319 -17.183  1.00 35.49     0.034 C 
BRANCH   2   3
ATOM      3  CG  ARG D 557     -28.227   1.163 -16.935  1.00 35.49     0.027 C 
BRANCH   3   4
ATOM      4  CD  ARG D 557     -28.645  -0.257 -16.909  1.00 35.49     0.116 C 
BRANCH   4   5
ATOM      5  NE  ARG D 557     -27.705  -1.086 -16.201  1.00 35.49    -0.212 N 
ATOM      6  CZ  ARG D 557     -27.628  -2.396 -16.275  1.00 35.49     0.666 C 
ATOM      7  NH1 ARG D 557     -28.444  -3.113 -17.025  1.00 35.49    -0.235 N 
ATOM      8  NH2 ARG D 557     -26.698  -2.982 -15.578  1.00 35.49    -0.235 N 
ATOM      9  HH  ARG D 557     -29.061  -2.748 -17.493  1.00 35.49     0.174 HD
ATOM     10  HH  ARG D 557     -28.344  -3.964 -17.036  1.00 35.49     0.174 HD
ATOM     11  HH  ARG D 557     -26.181  -2.493 -15.109  1.00 35.49     0.174 HD
ATOM     12  HH  ARG D 557     -26.614  -3.826 -15.603  1.00 35.49     0.174 HD
ATOM     13  HE  ARG D 557     -27.188  -0.712 -15.638  1.00 35.49     0.178 HD
ENDBRANCH   4   5
ENDBRANCH   3   4
ENDBRANCH   2   3
ENDBRANCH   1   2
END_RES ARG D 557
BEGIN_RES GLU D 570
REMARK  3 active torsions:
REMARK  status: ('A' for Active; 'I' for Inactive)
REMARK    5  A    between atoms: CA   and  CB  
REMARK    6  A    between atoms: CB   and  CG  
REMARK    7  A    between atoms: CG   and  CD  
ROOT
ATOM     14  CA  GLU D 570     -18.033  -6.348 -13.375  1.00 32.92     0.160 C 
ENDROOT
BRANCH  14  15
ATOM     15  CB  GLU D 570     -19.500  -6.345 -13.794  1.00 32.92     0.043 C 
BRANCH  15  16
ATOM     16  CG  GLU D 570     -19.797  -6.263 -15.248  1.00 32.92     0.100 C 
BRANCH  16  17
ATOM     17  CD  GLU D 570     -21.245  -5.944 -15.536  1.00 32.92     0.185 C 
ATOM     18  OE1 GLU D 570     -22.117  -6.791 -15.264  1.00 32.92    -0.647 OA
ATOM     19  OE2 GLU D 570     -21.509  -4.842 -16.057  1.00 32.92    -0.647 OA
ENDBRANCH  16  17
ENDBRANCH  15  16
ENDBRANCH  14  15
END_RES GLU D 570
ENDMDL
MODEL 3
REMARK VINA RESULT:      -9.6      3.965     11.715
REMARK  9 active torsions:
REMARK  status: ('A' for Active; 'I' for Inactive)
REMARK    1  A    between atoms: C_3  and  C_10 
REMARK    2  A    between atoms: C_11  and  C_12 
REMARK    3  A    between atoms: C_13  and  C_14 
REMARK    4  A    between atoms: C_15  and  C_16 
REMARK    5  A    between atoms: C_17  and  C_18 
REMARK    6  A    between atoms: C_18  and  O_20 
REMARK    7  A    between atoms: O_20  and  C_21 
REMARK    8  A    between atoms: C_21  and  C_22 
REMARK    9  A    between atoms: C_22  and  C_24 
ROOT
HETATM    1  C   UNL     1     -21.454  -6.263  -3.220  1.00  0.00     0.001 C 
HETATM    2  C   UNL     1     -21.887  -6.633  -4.438  1.00  0.00     0.007 C 
ENDROOT
BRANCH   1   3
HETATM    3  C   UNL     1     -22.221  -6.448  -2.019  1.00  0.00     0.007 C 
HETATM    4  C   UNL     1     -21.981  -7.322  -1.026  1.00  0.00    -0.062 C 
HETATM    5  C   UNL     1     -22.933  -7.381   0.137  1.00  0.00     0.048 C 
BRANCH   4   6
HETATM    6  C   UNL     1     -20.776  -8.159  -0.915  1.00  0.00     0.007 C 
HETATM    7  C   UNL     1     -20.770  -9.385  -1.457  1.00  0.00     0.009 C 
BRANCH   7   8
HETATM    8  C   UNL     1     -19.791 -10.467  -1.567  1.00  0.00    -0.048 C 
HETATM    9  C   UNL     1     -19.763 -11.372  -0.537  1.00  0.00    -0.077 C 
HETATM   10  C   UNL     1     -20.733 -11.495   0.633  1.00  0.00     0.044 C 
HETATM   11  C   UNL     1     -18.689 -12.425  -0.396  1.00  0.00     0.034 C 
HETATM   12  C   UNL     1     -17.474 -12.112  -1.241  1.00  0.00     0.005 C 
HETATM   13  C   UNL     1     -17.951 -11.900  -2.666  1.00  0.00     0.014 C 
HETATM   14  C   UNL     1     -18.814 -10.602  -2.796  1.00  0.00    -0.020 C 
HETATM   15  C   UNL     1     -19.561 -10.744  -4.149  1.00  0.00     0.020 C 
HETATM   16  C   UNL     1     -17.817  -9.428  -2.978  1.00  0.00     0.020 C 
ENDBRANCH   7   8
ENDBRANCH   4   6
ENDBRANCH   1   3
BRANCH   2  17
HETATM   17  C   UNL     1     -21.064  -6.550  -5.615  1.00  0.00    -0.056 C 
HETATM   18  C   UNL     1     -21.375  -5.772  -6.674  1.00  0.00     0.089 C 
HETATM   19  C   UNL     1     -19.834  -7.435  -5.621  1.00  0.00     0.048 C 
BRANCH  18  20
HETATM   20  C   UNL     1     -22.502  -4.816  -6.874  1.00  0.00     0.283 C 
HETATM   21  O   UNL     1     -23.540  -4.952  -6.230  1.00  0.00    -0.260 OA
BRANCH  20  22
HETATM   22  O   UNL     1     -22.301  -3.870  -7.831  1.00  0.00    -0.311 OA
BRANCH  22  23
HETATM   23  C   UNL     1     -21.978  -4.358  -9.140  1.00  0.00     0.258 C 
BRANCH  23  24
HETATM   24  C   UNL     1     -23.059  -4.496 -10.268  1.00  0.00     0.158 C 
HETATM   25  O   UNL     1     -24.030  -5.232 -10.091  1.00  0.00    -0.295 OA
BRANCH  24  26
HETATM   26  C   UNL     1     -22.845  -3.790 -11.634  1.00  0.00     0.012 C 
HETATM   27  C   UNL     1     -21.547  -2.972 -11.585  1.00  0.00     0.022 C 
HETATM   28  C   UNL     1     -22.707  -4.790 -12.811  1.00  0.00     0.022 C 
HETATM   29  C   UNL     1     -24.063  -2.918 -11.937  1.00  0.00     0.022 C 
ENDBRANCH  24  26
ENDBRANCH  23  24
ENDBRANCH  22  23
ENDBRANCH  20  22
ENDBRANCH  18  20
ENDBRANCH   2  17
TORSDOF 9
BEGIN_RES ARG D 557
REMARK  4 active torsions:
REMARK  status: ('A' for Active; 'I' for Inactive)
REMARK    1  A    between atoms: CA   and  CB  
REMARK    2  A    between atoms: CB   and  CG  
REMARK    3  A    between atoms: CG   and  CD  
REMARK    4  A    between atoms: CD   and  NE  
REMARK       I    between atoms: NE   and  CZ  
REMARK       I    between atoms: CZ   and  NH1 
REMARK       I    between atoms: CZ   and  NH2 
ROOT
ATOM      1  CA  ARG D 557     -26.217   2.705 -17.014  1.00 35.49     0.159 C 
ENDROOT
BRANCH   1   2
ATOM      2  CB  ARG D 557     -26.789   1.319 -17.183  1.00 35.49     0.034 C 
BRANCH   2   3
ATOM      3  CG  ARG D 557     -28.234   1.226 -17.425  1.00 35.49     0.027 C 
BRANCH   3   4
ATOM      4  CD  ARG D 557     -28.904   0.294 -16.489  1.00 35.49     0.116 C 
BRANCH   4   5
ATOM      5  NE  ARG D 557     -29.304  -0.929 -17.134  1.00 35.49    -0.212 N 
ATOM      6  CZ  ARG D 557     -28.681  -2.082 -17.048  1.00 35.49     0.666 C 
ATOM      7  NH1 ARG D 557     -27.574  -2.240 -16.346  1.00 35.49    -0.235 N 
ATOM      8  NH2 ARG D 557     -29.198  -3.093 -17.684  1.00 35.49    -0.235 N 
ATOM      9  HH  ARG D 557     -27.217  -1.589 -15.918  1.00 35.49     0.174 HD
ATOM     10  HH  ARG D 557     -27.212  -3.016 -16.325  1.00 35.49     0.174 HD
ATOM     11  HH  ARG D 557     -29.918  -2.964 -18.123  1.00 35.49     0.174 HD
ATOM     12  HH  ARG D 557     -28.827  -3.854 -17.649  1.00 35.49     0.174 HD
ATOM     13  HE  ARG D 557     -29.967  -0.901 -17.666  1.00 35.49     0.178 HD
ENDBRANCH   4   5
ENDBRANCH   3   4
ENDBRANCH   2   3
ENDBRANCH   1   2
END_RES ARG D 557
BEGIN_RES GLU D 570
REMARK  3 active torsions:
REMARK  status: ('A' for Active; 'I' for Inactive)
REMARK    5  A    between atoms: CA   and  CB  
REMARK    6  A    between atoms: CB   and  CG  
REMARK    7  A    between atoms: CG   and  CD  
ROOT
ATOM     14  CA  GLU D 570     -18.033  -6.348 -13.375  1.00 32.92     0.160 C 
ENDROOT
BRANCH  14  15
ATOM     15  CB  GLU D 570     -19.500  -6.345 -13.794  1.00 32.92     0.043 C 
BRANCH  15  16
ATOM     16  CG  GLU D 570     -19.822  -5.843 -15.155  1.00 32.92     0.100 C 
BRANCH  16  17
ATOM     17  CD  GLU D 570     -21.181  -6.291 -15.642  1.00 32.92     0.185 C 
ATOM     18  OE1 GLU D 570     -21.813  -5.560 -16.428  1.00 32.92    -0.647 OA
ATOM     19  OE2 GLU D 570     -21.624  -7.377 -15.220  1.00 32.92    -0.647 OA
ENDBRANCH  16  17
ENDBRANCH  15  16
ENDBRANCH  14  15
END_RES GLU D 570
ENDMDL
MODEL 4
REMARK VINA RESULT:      -9.4      4.153     11.406
REMARK  9 active torsions:
REMARK  status: ('A' for Active; 'I' for Inactive)
REMARK    1  A    between atoms: C_3  and  C_10 
REMARK    2  A    between atoms: C_11  and  C_12 
REMARK    3  A    between atoms: C_13  and  C_14 
REMARK    4  A    between atoms: C_15  and  C_16 
REMARK    5  A    between atoms: C_17  and  C_18 
REMARK    6  A    between atoms: C_18  and  O_20 
REMARK    7  A    between atoms: O_20  and  C_21 
REMARK    8  A    between atoms: C_21  and  C_22 
REMARK    9  A    between atoms: C_22  and  C_24 
ROOT
HETATM    1  C   UNL     1     -21.258  -6.868  -2.630  1.00  0.00     0.001 C 
HETATM    2  C   UNL     1     -21.821  -6.818  -3.850  1.00  0.00     0.007 C 
ENDROOT
BRANCH   1   3
HETATM    3  C   UNL     1     -22.015  -6.830  -1.409  1.00  0.00     0.007 C 
HETATM    4  C   UNL     1     -22.316  -7.863  -0.605  1.00  0.00    -0.062 C 
HETATM    5  C   UNL     1     -23.157  -7.614   0.618  1.00  0.00     0.048 C 
BRANCH   4   6
HETATM    6  C   UNL     1     -21.784  -9.228  -0.753  1.00  0.00     0.007 C 
HETATM    7  C   UNL     1     -22.606 -10.223  -1.112  1.00  0.00     0.009 C 
BRANCH   7   8
HETATM    8  C   UNL     1     -22.452 -11.655  -1.371  1.00  0.00    -0.048 C 
HETATM    9  C   UNL     1     -22.513 -12.049  -2.683  1.00  0.00    -0.077 C 
HETATM   10  C   UNL     1     -22.555 -11.170  -3.927  1.00  0.00     0.044 C 
HETATM   11  C   UNL     1     -22.573 -13.499  -3.105  1.00  0.00     0.034 C 
HETATM   12  C   UNL     1     -22.968 -14.406  -1.961  1.00  0.00     0.005 C 
HETATM   13  C   UNL     1     -22.015 -14.134  -0.812  1.00  0.00     0.014 C 
HETATM   14  C   UNL     1     -22.228 -12.703  -0.216  1.00  0.00    -0.020 C 
HETATM   15  C   UNL     1     -20.951 -12.417   0.620  1.00  0.00     0.020 C 
HETATM   16  C   UNL     1     -23.390 -12.820   0.804  1.00  0.00     0.020 C 
ENDBRANCH   7   8
ENDBRANCH   4   6
ENDBRANCH   1   3
BRANCH   2  17
HETATM   17  C   UNL     1     -21.064  -6.975  -5.063  1.00  0.00    -0.056 C 
HETATM   18  C   UNL     1     -21.276  -6.220  -6.163  1.00  0.00     0.089 C 
HETATM   19  C   UNL     1     -20.030  -8.083  -5.054  1.00  0.00     0.048 C 
BRANCH  18  20
HETATM   20  C   UNL     1     -22.206  -5.076  -6.387  1.00  0.00     0.283 C 
HETATM   21  O   UNL     1     -23.401  -5.203  -6.132  1.00  0.00    -0.260 OA
BRANCH  20  22
HETATM   22  O   UNL     1     -21.641  -3.963  -6.928  1.00  0.00    -0.311 OA
BRANCH  22  23
HETATM   23  C   UNL     1     -21.233  -4.069  -8.300  1.00  0.00     0.258 C 
BRANCH  23  24
HETATM   24  C   UNL     1     -22.237  -3.853  -9.485  1.00  0.00     0.158 C 
HETATM   25  O   UNL     1     -23.428  -3.657  -9.244  1.00  0.00    -0.295 OA
BRANCH  24  26
HETATM   26  C   UNL     1     -21.743  -3.990 -10.951  1.00  0.00     0.012 C 
HETATM   27  C   UNL     1     -22.768  -4.800 -11.757  1.00  0.00     0.022 C 
HETATM   28  C   UNL     1     -21.584  -2.622 -11.662  1.00  0.00     0.022 C 
HETATM   29  C   UNL     1     -20.364  -4.649 -10.949  1.00  0.00     0.022 C 
ENDBRANCH  24  26
ENDBRANCH  23  24
ENDBRANCH  22  23
ENDBRANCH  20  22
ENDBRANCH  18  20
ENDBRANCH   2  17
TORSDOF 9
BEGIN_RES ARG D 557
REMARK  4 active torsions:
REMARK  status: ('A' for Active; 'I' for Inactive)
REMARK    1  A    between atoms: CA   and  CB  
REMARK    2  A    between atoms: CB   and  CG  
REMARK    3  A    between atoms: CG   and  CD  
REMARK    4  A    between atoms: CD   and  NE  
REMARK       I    between atoms: NE   and  CZ  
REMARK       I    between atoms: CZ   and  NH1 
REMARK       I    between atoms: CZ   and  NH2 
ROOT
ATOM      1  CA  ARG D 557     -26.217   2.705 -17.014  1.00 35.49     0.159 C 
ENDROOT
BRANCH   1   2
ATOM      2  CB  ARG D 557     -26.789   1.319 -17.183  1.00 35.49     0.034 C 
BRANCH   2   3
ATOM      3  CG  ARG D 557     -25.837   0.202 -17.147  1.00 35.49     0.027 C 
BRANCH   3   4
ATOM      4  CD  ARG D 557     -24.779   0.396 -16.129  1.00 35.49     0.116 C 
BRANCH   4   5
ATOM      5  NE  ARG D 557     -24.939  -0.489 -15.005  1.00 35.49    -0.212 N 
ATOM      6  CZ  ARG D 557     -24.116  -1.455 -14.664  1.00 35.49     0.666 C 
ATOM      7  NH1 ARG D 557     -23.024  -1.731 -15.352  1.00 35.49    -0.235 N 
ATOM      8  NH2 ARG D 557     -24.408  -2.145 -13.600  1.00 35.49    -0.235 N 
ATOM      9  HH  ARG D 557     -22.811  -1.288 -16.054  1.00 35.49     0.174 HD
ATOM     10  HH  ARG D 557     -22.523  -2.371 -15.080  1.00 35.49     0.174 HD
ATOM     11  HH  ARG D 557     -25.116  -1.939 -13.172  1.00 35.49     0.174 HD
ATOM     12  HH  ARG D 557     -23.899  -2.774 -13.347  1.00 35.49     0.174 HD
ATOM     13  HE  ARG D 557     -25.654  -0.429 -14.548  1.00 35.49     0.178 HD
ENDBRANCH   4   5
ENDBRANCH   3   4
ENDBRANCH   2   3
ENDBRANCH   1   2
END_RES ARG D 557
BEGIN_RES GLU D 570
REMARK  3 active torsions:
REMARK  status: ('A' for Active; 'I' for Inactive)
REMARK    5  A    between atoms: CA   and  CB  
REMARK    6  A    between atoms: CB   and  CG  
REMARK    7  A    between atoms: CG   and  CD  
ROOT
ATOM     14  CA  GLU D 570     -18.033  -6.348 -13.375  1.00 32.92     0.160 C 
ENDROOT
BRANCH  14  15
ATOM     15  CB  GLU D 570     -19.500  -6.345 -13.794  1.00 32.92     0.043 C 
BRANCH  15  16
ATOM     16  CG  GLU D 570     -19.818  -5.881 -15.169  1.00 32.92     0.100 C 
BRANCH  16  17
ATOM     17  CD  GLU D 570     -21.282  -6.026 -15.516  1.00 32.92     0.185 C 
ATOM     18  OE1 GLU D 570     -21.829  -7.137 -15.380  1.00 32.92    -0.647 OA
ATOM     19  OE2 GLU D 570     -21.883  -5.021 -15.945  1.00 32.92    -0.647 OA
ENDBRANCH  16  17
ENDBRANCH  15  16
ENDBRANCH  14  15
END_RES GLU D 570
ENDMDL
MODEL 5
REMARK VINA RESULT:      -9.3      5.314     12.234
REMARK  9 active torsions:
REMARK  status: ('A' for Active; 'I' for Inactive)
REMARK    1  A    between atoms: C_3  and  C_10 
REMARK    2  A    between atoms: C_11  and  C_12 
REMARK    3  A    between atoms: C_13  and  C_14 
REMARK    4  A    between atoms: C_15  and  C_16 
REMARK    5  A    between atoms: C_17  and  C_18 
REMARK    6  A    between atoms: C_18  and  O_20 
REMARK    7  A    between atoms: O_20  and  C_21 
REMARK    8  A    between atoms: C_21  and  C_22 
REMARK    9  A    between atoms: C_22  and  C_24 
ROOT
HETATM    1  C   UNL     1     -20.989 -11.815  -0.158  1.00  0.00     0.001 C 
HETATM    2  C   UNL     1     -21.664 -10.799   0.407  1.00  0.00     0.007 C 
ENDROOT
BRANCH   1   3
HETATM    3  C   UNL     1     -19.723 -12.291   0.328  1.00  0.00     0.007 C 
HETATM    4  C   UNL     1     -18.683 -12.730  -0.401  1.00  0.00    -0.062 C 
HETATM    5  C   UNL     1     -17.452 -13.222   0.309  1.00  0.00     0.048 C 
BRANCH   4   6
HETATM    6  C   UNL     1     -18.594 -12.656  -1.869  1.00  0.00     0.007 C 
HETATM    7  C   UNL     1     -17.809 -11.731  -2.437  1.00  0.00     0.009 C 
BRANCH   7   8
HETATM    8  C   UNL     1     -17.457 -11.370  -3.812  1.00  0.00    -0.048 C 
HETATM    9  C   UNL     1     -16.649 -10.273  -3.967  1.00  0.00    -0.077 C 
HETATM   10  C   UNL     1     -15.931  -9.474  -2.887  1.00  0.00     0.044 C 
HETATM   11  C   UNL     1     -16.357  -9.651  -5.314  1.00  0.00     0.034 C 
HETATM   12  C   UNL     1     -17.347 -10.093  -6.369  1.00  0.00     0.005 C 
HETATM   13  C   UNL     1     -17.359 -11.610  -6.377  1.00  0.00     0.014 C 
HETATM   14  C   UNL     1     -17.970 -12.187  -5.058  1.00  0.00    -0.020 C 
HETATM   15  C   UNL     1     -17.534 -13.677  -5.025  1.00  0.00     0.020 C 
HETATM   16  C   UNL     1     -19.509 -12.196  -5.253  1.00  0.00     0.020 C 
ENDBRANCH   7   8
ENDBRANCH   4   6
ENDBRANCH   1   3
BRANCH   2  17
HETATM   17  C   UNL     1     -22.982 -10.410  -0.017  1.00  0.00    -0.056 C 
HETATM   18  C   UNL     1     -23.377  -9.121  -0.095  1.00  0.00     0.089 C 
HETATM   19  C   UNL     1     -23.934 -11.546  -0.332  1.00  0.00     0.048 C 
BRANCH  18  20
HETATM   20  C   UNL     1     -22.615  -7.860   0.137  1.00  0.00     0.283 C 
HETATM   21  O   UNL     1     -21.929  -7.740   1.149  1.00  0.00    -0.260 OA
BRANCH  20  22
HETATM   22  O   UNL     1     -22.796  -6.889  -0.798  1.00  0.00    -0.311 OA
BRANCH  22  23
HETATM   23  C   UNL     1     -21.666  -6.604  -1.635  1.00  0.00     0.258 C 
BRANCH  23  24
HETATM   24  C   UNL     1     -21.514  -7.225  -3.067  1.00  0.00     0.158 C 
HETATM   25  O   UNL     1     -22.114  -6.719  -4.016  1.00  0.00    -0.295 OA
BRANCH  24  26
HETATM   26  C   UNL     1     -20.696  -8.531  -3.260  1.00  0.00     0.012 C 
HETATM   27  C   UNL     1     -19.774  -8.735  -2.051  1.00  0.00     0.022 C 
HETATM   28  C   UNL     1     -21.593  -9.791  -3.364  1.00  0.00     0.022 C 
HETATM   29  C   UNL     1     -19.914  -8.437  -4.570  1.00  0.00     0.022 C 
ENDBRANCH  24  26
ENDBRANCH  23  24
ENDBRANCH  22  23
ENDBRANCH  20  22
ENDBRANCH  18  20
ENDBRANCH   2  17
TORSDOF 9
BEGIN_RES ARG D 557
REMARK  4 active torsions:
REMARK  status: ('A' for Active; 'I' for Inactive)
REMARK    1  A    between atoms: CA   and  CB  
REMARK    2  A    between atoms: CB   and  CG  
REMARK    3  A    between atoms: CG   and  CD  
REMARK    4  A    between atoms: CD   and  NE  
REMARK       I    between atoms: NE   and  CZ  
REMARK       I    between atoms: CZ   and  NH1 
REMARK       I    between atoms: CZ   and  NH2 
ROOT
ATOM      1  CA  ARG D 557     -26.217   2.705 -17.014  1.00 35.49     0.159 C 
ENDROOT
BRANCH   1   2
ATOM      2  CB  ARG D 557     -26.789   1.319 -17.183  1.00 35.49     0.034 C 
BRANCH   2   3
ATOM      3  CG  ARG D 557     -25.836   0.203 -17.157  1.00 35.49     0.027 C 
BRANCH   3   4
ATOM      4  CD  ARG D 557     -24.751   0.411 -16.171  1.00 35.49     0.116 C 
BRANCH   4   5
ATOM      5  NE  ARG D 557     -24.898  -0.435 -15.016  1.00 35.49    -0.212 N 
ATOM      6  CZ  ARG D 557     -24.088  -1.410 -14.670  1.00 35.49     0.666 C 
ATOM      7  NH1 ARG D 557     -23.024  -1.734 -15.381  1.00 35.49    -0.235 N 
ATOM      8  NH2 ARG D 557     -24.364  -2.061 -13.577  1.00 35.49    -0.235 N 
ATOM      9  HH  ARG D 557     -22.821  -1.318 -16.102  1.00 35.49     0.174 HD
ATOM     10  HH  ARG D 557     -22.530  -2.378 -15.105  1.00 35.49     0.174 HD
ATOM     11  HH  ARG D 557     -25.054  -1.825 -13.134  1.00 35.49     0.174 HD
ATOM     12  HH  ARG D 557     -23.862  -2.694 -13.320  1.00 35.49     0.174 HD
ATOM     13  HE  ARG D 557     -25.597  -0.344 -14.541  1.00 35.49     0.178 HD
ENDBRANCH   4   5
ENDBRANCH   3   4
ENDBRANCH   2   3
ENDBRANCH   1   2
END_RES ARG D 557
BEGIN_RES GLU D 570
REMARK  3 active torsions:
REMARK  status: ('A' for Active; 'I' for Inactive)
REMARK    5  A    between atoms: CA   and  CB  
REMARK    6  A    between atoms: CB   and  CG  
REMARK    7  A    between atoms: CG   and  CD  
ROOT
ATOM     14  CA  GLU D 570     -18.033  -6.348 -13.375  1.00 32.92     0.160 C 
ENDROOT
BRANCH  14  15
ATOM     15  CB  GLU D 570     -19.500  -6.345 -13.794  1.00 32.92     0.043 C 
BRANCH  15  16
ATOM     16  CG  GLU D 570     -20.447  -5.557 -12.964  1.00 32.92     0.100 C 
BRANCH  16  17
ATOM     17  CD  GLU D 570     -21.741  -5.247 -13.680  1.00 32.92     0.185 C 
ATOM     18  OE1 GLU D 570     -22.256  -6.120 -14.405  1.00 32.92    -0.647 OA
ATOM     19  OE2 GLU D 570     -22.237  -4.114 -13.527  1.00 32.92    -0.647 OA
ENDBRANCH  16  17
ENDBRANCH  15  16
ENDBRANCH  14  15
END_RES GLU D 570
ENDMDL
MODEL 6
REMARK VINA RESULT:      -9.2      5.115     12.380
REMARK  9 active torsions:
REMARK  status: ('A' for Active; 'I' for Inactive)
REMARK    1  A    between atoms: C_3  and  C_10 
REMARK    2  A    between atoms: C_11  and  C_12 
REMARK    3  A    between atoms: C_13  and  C_14 
REMARK    4  A    between atoms: C_15  and  C_16 
REMARK    5  A    between atoms: C_17  and  C_18 
REMARK    6  A    between atoms: C_18  and  O_20 
REMARK    7  A    between atoms: O_20  and  C_21 
REMARK    8  A    between atoms: C_21  and  C_22 
REMARK    9  A    between atoms: C_22  and  C_24 
ROOT
HETATM    1  C   UNL     1     -16.726 -10.419  -2.655  1.00  0.00     0.001 C 
HETATM    2  C   UNL     1     -17.046 -10.852  -3.887  1.00  0.00     0.007 C 
ENDROOT
BRANCH   1   3
HETATM    3  C   UNL     1     -16.621 -11.288  -1.515  1.00  0.00     0.007 C 
HETATM    4  C   UNL     1     -17.620 -11.724  -0.729  1.00  0.00    -0.062 C 
HETATM    5  C   UNL     1     -17.290 -12.606   0.445  1.00  0.00     0.048 C 
BRANCH   4   6
HETATM    6  C   UNL     1     -19.052 -11.511  -0.992  1.00  0.00     0.007 C 
HETATM    7  C   UNL     1     -19.886 -11.283   0.032  1.00  0.00     0.009 C 
BRANCH   7   8
HETATM    8  C   UNL     1     -21.319 -11.016   0.165  1.00  0.00    -0.048 C 
HETATM    9  C   UNL     1     -22.114 -12.091   0.471  1.00  0.00    -0.077 C 
HETATM   10  C   UNL     1     -21.682 -13.501   0.855  1.00  0.00     0.044 C 
HETATM   11  C   UNL     1     -23.624 -12.030   0.448  1.00  0.00     0.034 C 
HETATM   12  C   UNL     1     -24.131 -10.832  -0.325  1.00  0.00     0.005 C 
HETATM   13  C   UNL     1     -23.469  -9.598   0.260  1.00  0.00     0.014 C 
HETATM   14  C   UNL     1     -21.933  -9.578  -0.029  1.00  0.00    -0.020 C 
HETATM   15  C   UNL     1     -21.347  -8.533   0.958  1.00  0.00     0.020 C 
HETATM   16  C   UNL     1     -21.759  -8.973  -1.447  1.00  0.00     0.020 C 
ENDBRANCH   7   8
ENDBRANCH   4   6
ENDBRANCH   1   3
BRANCH   2  17
HETATM   17  C   UNL     1     -17.034  -9.992  -5.041  1.00  0.00    -0.056 C 
HETATM   18  C   UNL     1     -18.161  -9.579  -5.660  1.00  0.00     0.089 C 
HETATM   19  C   UNL     1     -15.663  -9.608  -5.560  1.00  0.00     0.048 C 
BRANCH  18  20
HETATM   20  C   UNL     1     -19.593  -9.808  -5.315  1.00  0.00     0.283 C 
HETATM   21  O   UNL     1     -20.182 -10.785  -5.771  1.00  0.00    -0.260 OA
BRANCH  20  22
HETATM   22  O   UNL     1     -20.166  -8.849  -4.540  1.00  0.00    -0.311 OA
BRANCH  22  23
HETATM   23  C   UNL     1     -21.261  -8.133  -5.131  1.00  0.00     0.258 C 
BRANCH  23  24
HETATM   24  C   UNL     1     -21.450  -6.589  -4.933  1.00  0.00     0.158 C 
HETATM   25  O   UNL     1     -22.157  -6.177  -4.012  1.00  0.00    -0.295 OA
BRANCH  24  26
HETATM   26  C   UNL     1     -20.834  -5.597  -5.956  1.00  0.00     0.012 C 
HETATM   27  C   UNL     1     -20.027  -4.530  -5.205  1.00  0.00     0.022 C 
HETATM   28  C   UNL     1     -19.862  -6.286  -6.948  1.00  0.00     0.022 C 
HETATM   29  C   UNL     1     -21.957  -4.986  -6.792  1.00  0.00     0.022 C 
ENDBRANCH  24  26
ENDBRANCH  23  24
ENDBRANCH  22  23
ENDBRANCH  20  22
ENDBRANCH  18  20
ENDBRANCH   2  17
TORSDOF 9
BEGIN_RES ARG D 557
REMARK  4 active torsions:
REMARK  status: ('A' for Active; 'I' for Inactive)
REMARK    1  A    between atoms: CA   and  CB  
REMARK    2  A    between atoms: CB   and  CG  
REMARK    3  A    between atoms: CG   and  CD  
REMARK    4  A    between atoms: CD   and  NE  
REMARK       I    between atoms: NE   and  CZ  
REMARK       I    between atoms: CZ   and  NH1 
REMARK       I    between atoms: CZ   and  NH2 
ROOT
ATOM      1  CA  ARG D 557     -26.217   2.705 -17.014  1.00 35.49     0.159 C 
ENDROOT
BRANCH   1   2
ATOM      2  CB  ARG D 557     -26.789   1.319 -17.183  1.00 35.49     0.034 C 
BRANCH   2   3
ATOM      3  CG  ARG D 557     -25.928   0.197 -16.791  1.00 35.49     0.027 C 
BRANCH   3   4
ATOM      4  CD  ARG D 557     -26.678  -0.873 -16.094  1.00 35.49     0.116 C 
BRANCH   4   5
ATOM      5  NE  ARG D 557     -25.892  -1.507 -15.068  1.00 35.49    -0.212 N 
ATOM      6  CZ  ARG D 557     -25.927  -2.782 -14.751  1.00 35.49     0.666 C 
ATOM      7  NH1 ARG D 557     -26.728  -3.641 -15.354  1.00 35.49    -0.235 N 
ATOM      8  NH2 ARG D 557     -25.128  -3.188 -13.808  1.00 35.49    -0.235 N 
ATOM      9  HH  ARG D 557     -27.261  -3.396 -15.978  1.00 35.49     0.174 HD
ATOM     10  HH  ARG D 557     -26.706  -4.461 -15.106  1.00 35.49     0.174 HD
ATOM     11  HH  ARG D 557     -24.616  -2.612 -13.441  1.00 35.49     0.174 HD
ATOM     12  HH  ARG D 557     -25.119  -4.004 -13.578  1.00 35.49     0.174 HD
ATOM     13  HE  ARG D 557     -25.400  -1.014 -14.580  1.00 35.49     0.178 HD
ENDBRANCH   4   5
ENDBRANCH   3   4
ENDBRANCH   2   3
ENDBRANCH   1   2
END_RES ARG D 557
BEGIN_RES GLU D 570
REMARK  3 active torsions:
REMARK  status: ('A' for Active; 'I' for Inactive)
REMARK    5  A    between atoms: CA   and  CB  
REMARK    6  A    between atoms: CB   and  CG  
REMARK    7  A    between atoms: CG   and  CD  
ROOT
ATOM     14  CA  GLU D 570     -18.033  -6.348 -13.375  1.00 32.92     0.160 C 
ENDROOT
BRANCH  14  15
ATOM     15  CB  GLU D 570     -19.500  -6.345 -13.794  1.00 32.92     0.043 C 
BRANCH  15  16
ATOM     16  CG  GLU D 570     -20.441  -5.526 -12.987  1.00 32.92     0.100 C 
BRANCH  16  17
ATOM     17  CD  GLU D 570     -21.735  -5.232 -13.709  1.00 32.92     0.185 C 
ATOM     18  OE1 GLU D 570     -22.147  -6.037 -14.565  1.00 32.92    -0.647 OA
ATOM     19  OE2 GLU D 570     -22.335  -4.176 -13.426  1.00 32.92    -0.647 OA
ENDBRANCH  16  17
ENDBRANCH  15  16
ENDBRANCH  14  15
END_RES GLU D 570
ENDMDL
MODEL 7
REMARK VINA RESULT:      -9.2      4.353     11.543
REMARK  9 active torsions:
REMARK  status: ('A' for Active; 'I' for Inactive)
REMARK    1  A    between atoms: C_3  and  C_10 
REMARK    2  A    between atoms: C_11  and  C_12 
REMARK    3  A    between atoms: C_13  and  C_14 
REMARK    4  A    between atoms: C_15  and  C_16 
REMARK    5  A    between atoms: C_17  and  C_18 
REMARK    6  A    between atoms: C_18  and  O_20 
REMARK    7  A    between atoms: O_20  and  C_21 
REMARK    8  A    between atoms: C_21  and  C_22 
REMARK    9  A    between atoms: C_22  and  C_24 
ROOT
HETATM    1  C   UNL     1     -21.205  -6.935  -2.648  1.00  0.00     0.001 C 
HETATM    2  C   UNL     1     -21.751  -6.854  -3.874  1.00  0.00     0.007 C 
ENDROOT
BRANCH   1   3
HETATM    3  C   UNL     1     -21.972  -6.853  -1.435  1.00  0.00     0.007 C 
HETATM    4  C   UNL     1     -22.296  -7.861  -0.607  1.00  0.00    -0.062 C 
HETATM    5  C   UNL     1     -23.143  -7.567   0.601  1.00  0.00     0.048 C 
BRANCH   4   6
HETATM    6  C   UNL     1     -21.782  -9.236  -0.714  1.00  0.00     0.007 C 
HETATM    7  C   UNL     1     -22.578 -10.204  -1.190  1.00  0.00     0.009 C 
BRANCH   7   8
HETATM    8  C   UNL     1     -22.428 -11.635  -1.455  1.00  0.00    -0.048 C 
HETATM    9  C   UNL     1     -22.466 -12.021  -2.771  1.00  0.00    -0.077 C 
HETATM   10  C   UNL     1     -22.480 -11.133  -4.010  1.00  0.00     0.044 C 
HETATM   11  C   UNL     1     -22.527 -13.468  -3.203  1.00  0.00     0.034 C 
HETATM   12  C   UNL     1     -22.949 -14.379  -2.072  1.00  0.00     0.005 C 
HETATM   13  C   UNL     1     -22.016 -14.120  -0.903  1.00  0.00     0.014 C 
HETATM   14  C   UNL     1     -22.231 -12.692  -0.303  1.00  0.00    -0.020 C 
HETATM   15  C   UNL     1     -20.968 -12.419   0.559  1.00  0.00     0.020 C 
HETATM   16  C   UNL     1     -23.413 -12.808   0.695  1.00  0.00     0.020 C 
ENDBRANCH   7   8
ENDBRANCH   4   6
ENDBRANCH   1   3
BRANCH   2  17
HETATM   17  C   UNL     1     -20.990  -7.054  -5.078  1.00  0.00    -0.056 C 
HETATM   18  C   UNL     1     -21.189  -6.328  -6.200  1.00  0.00     0.089 C 
HETATM   19  C   UNL     1     -19.970  -8.173  -5.033  1.00  0.00     0.048 C 
BRANCH  18  20
HETATM   20  C   UNL     1     -22.104  -5.180  -6.460  1.00  0.00     0.283 C 
HETATM   21  O   UNL     1     -23.280  -5.246  -6.112  1.00  0.00    -0.260 OA
BRANCH  20  22
HETATM   22  O   UNL     1     -21.553  -4.137  -7.138  1.00  0.00    -0.311 OA
BRANCH  22  23
HETATM   23  C   UNL     1     -22.253  -3.712  -8.316  1.00  0.00     0.258 C 
BRANCH  23  24
HETATM   24  C   UNL     1     -21.717  -4.014  -9.758  1.00  0.00     0.158 C 
HETATM   25  O   UNL     1     -20.502  -4.059  -9.957  1.00  0.00    -0.295 OA
BRANCH  24  26
HETATM   26  C   UNL     1     -22.713  -4.149 -10.941  1.00  0.00     0.012 C 
HETATM   27  C   UNL     1     -23.287  -2.767 -11.281  1.00  0.00     0.022 C 
HETATM   28  C   UNL     1     -22.044  -4.693 -12.230  1.00  0.00     0.022 C 
HETATM   29  C   UNL     1     -23.805  -5.147 -10.558  1.00  0.00     0.022 C 
ENDBRANCH  24  26
ENDBRANCH  23  24
ENDBRANCH  22  23
ENDBRANCH  20  22
ENDBRANCH  18  20
ENDBRANCH   2  17
TORSDOF 9
BEGIN_RES ARG D 557
REMARK  4 active torsions:
REMARK  status: ('A' for Active; 'I' for Inactive)
REMARK    1  A    between atoms: CA   and  CB  
REMARK    2  A    between atoms: CB   and  CG  
REMARK    3  A    between atoms: CG   and  CD  
REMARK    4  A    between atoms: CD   and  NE  
REMARK       I    between atoms: NE   and  CZ  
REMARK       I    between atoms: CZ   and  NH1 
REMARK       I    between atoms: CZ   and  NH2 
ROOT
ATOM      1  CA  ARG D 557     -26.217   2.705 -17.014  1.00 35.49     0.159 C 
ENDROOT
BRANCH   1   2
ATOM      2  CB  ARG D 557     -26.789   1.319 -17.183  1.00 35.49     0.034 C 
BRANCH   2   3
ATOM      3  CG  ARG D 557     -28.236   1.225 -17.410  1.00 35.49     0.027 C 
BRANCH   3   4
ATOM      4  CD  ARG D 557     -28.892   0.274 -16.484  1.00 35.49     0.116 C 
BRANCH   4   5
ATOM      5  NE  ARG D 557     -29.257  -0.955 -17.137  1.00 35.49    -0.212 N 
ATOM      6  CZ  ARG D 557     -28.622  -2.101 -17.027  1.00 35.49     0.666 C 
ATOM      7  NH1 ARG D 557     -27.536  -2.242 -16.289  1.00 35.49    -0.235 N 
ATOM      8  NH2 ARG D 557     -29.107  -3.120 -17.674  1.00 35.49    -0.235 N 
ATOM      9  HH  ARG D 557     -27.201  -1.585 -15.853  1.00 35.49     0.174 HD
ATOM     10  HH  ARG D 557     -27.166  -3.014 -16.253  1.00 35.49     0.174 HD
ATOM     11  HH  ARG D 557     -29.814  -3.001 -18.136  1.00 35.49     0.174 HD
ATOM     12  HH  ARG D 557     -28.728  -3.877 -17.625  1.00 35.49     0.174 HD
ATOM     13  HE  ARG D 557     -29.903  -0.938 -17.689  1.00 35.49     0.178 HD
ENDBRANCH   4   5
ENDBRANCH   3   4
ENDBRANCH   2   3
ENDBRANCH   1   2
END_RES ARG D 557
BEGIN_RES GLU D 570
REMARK  3 active torsions:
REMARK  status: ('A' for Active; 'I' for Inactive)
REMARK    5  A    between atoms: CA   and  CB  
REMARK    6  A    between atoms: CB   and  CG  
REMARK    7  A    between atoms: CG   and  CD  
ROOT
ATOM     14  CA  GLU D 570     -18.033  -6.348 -13.375  1.00 32.92     0.160 C 
ENDROOT
BRANCH  14  15
ATOM     15  CB  GLU D 570     -19.500  -6.345 -13.794  1.00 32.92     0.043 C 
BRANCH  15  16
ATOM     16  CG  GLU D 570     -20.080  -7.629 -14.265  1.00 32.92     0.100 C 
BRANCH  16  17
ATOM     17  CD  GLU D 570     -21.061  -7.451 -15.401  1.00 32.92     0.185 C 
ATOM     18  OE1 GLU D 570     -21.192  -8.367 -16.236  1.00 32.92    -0.647 OA
ATOM     19  OE2 GLU D 570     -21.692  -6.378 -15.466  1.00 32.92    -0.647 OA
ENDBRANCH  16  17
ENDBRANCH  15  16
ENDBRANCH  14  15
END_RES GLU D 570
ENDMDL
MODEL 8
REMARK VINA RESULT:      -9.2      5.434     12.504
REMARK  9 active torsions:
REMARK  status: ('A' for Active; 'I' for Inactive)
REMARK    1  A    between atoms: C_3  and  C_10 
REMARK    2  A    between atoms: C_11  and  C_12 
REMARK    3  A    between atoms: C_13  and  C_14 
REMARK    4  A    between atoms: C_15  and  C_16 
REMARK    5  A    between atoms: C_17  and  C_18 
REMARK    6  A    between atoms: C_18  and  O_20 
REMARK    7  A    between atoms: O_20  and  C_21 
REMARK    8  A    between atoms: C_21  and  C_22 
REMARK    9  A    between atoms: C_22  and  C_24 
ROOT
HETATM    1  C   UNL     1     -21.364 -12.118  -0.032  1.00  0.00     0.001 C 
HETATM    2  C   UNL     1     -21.793 -10.879   0.264  1.00  0.00     0.007 C 
ENDROOT
BRANCH   1   3
HETATM    3  C   UNL     1     -20.098 -12.641   0.405  1.00  0.00     0.007 C 
HETATM    4  C   UNL     1     -18.897 -12.449  -0.166  1.00  0.00    -0.062 C 
HETATM    5  C   UNL     1     -17.691 -13.121   0.432  1.00  0.00     0.048 C 
BRANCH   4   6
HETATM    6  C   UNL     1     -18.632 -11.521  -1.278  1.00  0.00     0.007 C 
HETATM    7  C   UNL     1     -18.005 -11.966  -2.375  1.00  0.00     0.009 C 
BRANCH   7   8
HETATM    8  C   UNL     1     -17.596 -11.373  -3.649  1.00  0.00    -0.048 C 
HETATM    9  C   UNL     1     -18.472 -11.510  -4.696  1.00  0.00    -0.077 C 
HETATM   10  C   UNL     1     -19.895 -12.057  -4.666  1.00  0.00     0.044 C 
HETATM   11  C   UNL     1     -18.120 -11.136  -6.118  1.00  0.00     0.034 C 
HETATM   12  C   UNL     1     -16.627 -11.001  -6.315  1.00  0.00     0.005 C 
HETATM   13  C   UNL     1     -16.115 -10.024  -5.272  1.00  0.00     0.014 C 
HETATM   14  C   UNL     1     -16.227 -10.615  -3.828  1.00  0.00    -0.020 C 
HETATM   15  C   UNL     1     -16.083  -9.395  -2.878  1.00  0.00     0.020 C 
HETATM   16  C   UNL     1     -14.959 -11.481  -3.608  1.00  0.00     0.020 C 
ENDBRANCH   7   8
ENDBRANCH   4   6
ENDBRANCH   1   3
BRANCH   2  17
HETATM   17  C   UNL     1     -23.109 -10.409  -0.079  1.00  0.00    -0.056 C 
HETATM   18  C   UNL     1     -23.441  -9.100  -0.088  1.00  0.00     0.089 C 
HETATM   19  C   UNL     1     -24.130 -11.484  -0.389  1.00  0.00     0.048 C 
BRANCH  18  20
HETATM   20  C   UNL     1     -22.606  -7.889   0.154  1.00  0.00     0.283 C 
HETATM   21  O   UNL     1     -21.809  -7.874   1.089  1.00  0.00    -0.260 OA
BRANCH  20  22
HETATM   22  O   UNL     1     -22.846  -6.839  -0.678  1.00  0.00    -0.311 OA
BRANCH  22  23
HETATM   23  C   UNL     1     -21.755  -6.444  -1.523  1.00  0.00     0.258 C 
BRANCH  23  24
HETATM   24  C   UNL     1     -21.629  -6.939  -3.006  1.00  0.00     0.158 C 
HETATM   25  O   UNL     1     -22.217  -6.331  -3.901  1.00  0.00    -0.295 OA
BRANCH  24  26
HETATM   26  C   UNL     1     -20.854  -8.248  -3.320  1.00  0.00     0.012 C 
HETATM   27  C   UNL     1     -19.847  -8.523  -2.196  1.00  0.00     0.022 C 
HETATM   28  C   UNL     1     -21.782  -9.487  -3.412  1.00  0.00     0.022 C 
HETATM   29  C   UNL     1     -20.173  -8.105  -4.681  1.00  0.00     0.022 C 
ENDBRANCH  24  26
ENDBRANCH  23  24
ENDBRANCH  22  23
ENDBRANCH  20  22
ENDBRANCH  18  20
ENDBRANCH   2  17
TORSDOF 9
BEGIN_RES ARG D 557
REMARK  4 active torsions:
REMARK  status: ('A' for Active; 'I' for Inactive)
REMARK    1  A    between atoms: CA   and  CB  
REMARK    2  A    between atoms: CB   and  CG  
REMARK    3  A    between atoms: CG   and  CD  
REMARK    4  A    between atoms: CD   and  NE  
REMARK       I    between atoms: NE   and  CZ  
REMARK       I    between atoms: CZ   and  NH1 
REMARK       I    between atoms: CZ   and  NH2 
ROOT
ATOM      1  CA  ARG D 557     -26.217   2.705 -17.014  1.00 35.49     0.159 C 
ENDROOT
BRANCH   1   2
ATOM      2  CB  ARG D 557     -26.789   1.319 -17.183  1.00 35.49     0.034 C 
BRANCH   2   3
ATOM      3  CG  ARG D 557     -28.226   1.161 -16.927  1.00 35.49     0.027 C 
BRANCH   3   4
ATOM      4  CD  ARG D 557     -28.618  -0.257 -16.767  1.00 35.49     0.116 C 
BRANCH   4   5
ATOM      5  NE  ARG D 557     -27.618  -1.022 -16.070  1.00 35.49    -0.212 N 
ATOM      6  CZ  ARG D 557     -27.468  -2.326 -16.129  1.00 35.49     0.666 C 
ATOM      7  NH1 ARG D 557     -28.259  -3.099 -16.851  1.00 35.49    -0.235 N 
ATOM      8  NH2 ARG D 557     -26.492  -2.850 -15.446  1.00 35.49    -0.235 N 
ATOM      9  HH  ARG D 557     -28.906  -2.775 -17.310  1.00 35.49     0.174 HD
ATOM     10  HH  ARG D 557     -28.112  -3.943 -16.853  1.00 35.49     0.174 HD
ATOM     11  HH  ARG D 557     -25.993  -2.326 -14.995  1.00 35.49     0.174 HD
ATOM     12  HH  ARG D 557     -26.362  -3.688 -15.462  1.00 35.49     0.174 HD
ATOM     13  HE  ARG D 557     -27.111  -0.612 -15.524  1.00 35.49     0.178 HD
ENDBRANCH   4   5
ENDBRANCH   3   4
ENDBRANCH   2   3
ENDBRANCH   1   2
END_RES ARG D 557
BEGIN_RES GLU D 570
REMARK  3 active torsions:
REMARK  status: ('A' for Active; 'I' for Inactive)
REMARK    5  A    between atoms: CA   and  CB  
REMARK    6  A    between atoms: CB   and  CG  
REMARK    7  A    between atoms: CG   and  CD  
ROOT
ATOM     14  CA  GLU D 570     -18.033  -6.348 -13.375  1.00 32.92     0.160 C 
ENDROOT
BRANCH  14  15
ATOM     15  CB  GLU D 570     -19.500  -6.345 -13.794  1.00 32.92     0.043 C 
BRANCH  15  16
ATOM     16  CG  GLU D 570     -20.443  -5.536 -12.979  1.00 32.92     0.100 C 
BRANCH  16  17
ATOM     17  CD  GLU D 570     -21.731  -5.224 -13.705  1.00 32.92     0.185 C 
ATOM     18  OE1 GLU D 570     -22.548  -4.444 -13.180  1.00 32.92    -0.647 OA
ATOM     19  OE2 GLU D 570     -21.933  -5.780 -14.802  1.00 32.92    -0.647 OA
ENDBRANCH  16  17
ENDBRANCH  15  16
ENDBRANCH  14  15
END_RES GLU D 570
ENDMDL
MODEL 9
REMARK VINA RESULT:      -9.1      3.786     11.169
REMARK  9 active torsions:
REMARK  status: ('A' for Active; 'I' for Inactive)
REMARK    1  A    between atoms: C_3  and  C_10 
REMARK    2  A    between atoms: C_11  and  C_12 
REMARK    3  A    between atoms: C_13  and  C_14 
REMARK    4  A    between atoms: C_15  and  C_16 
REMARK    5  A    between atoms: C_17  and  C_18 
REMARK    6  A    between atoms: C_18  and  O_20 
REMARK    7  A    between atoms: O_20  and  C_21 
REMARK    8  A    between atoms: C_21  and  C_22 
REMARK    9  A    between atoms: C_22  and  C_24 
ROOT
HETATM    1  C   UNL     1     -20.574  -6.716  -5.516  1.00  0.00     0.001 C 
HETATM    2  C   UNL     1     -20.730  -5.391  -5.687  1.00  0.00     0.007 C 
ENDROOT
BRANCH   1   3
HETATM    3  C   UNL     1     -20.901  -7.399  -4.294  1.00  0.00     0.007 C 
HETATM    4  C   UNL     1     -20.230  -8.414  -3.724  1.00  0.00    -0.062 C 
HETATM    5  C   UNL     1     -20.763  -9.017  -2.453  1.00  0.00     0.048 C 
BRANCH   4   6
HETATM    6  C   UNL     1     -18.924  -8.919  -4.178  1.00  0.00     0.007 C 
HETATM    7  C   UNL     1     -18.454 -10.073  -3.685  1.00  0.00     0.009 C 
BRANCH   7   8
HETATM    8  C   UNL     1     -17.251 -10.880  -3.897  1.00  0.00    -0.048 C 
HETATM    9  C   UNL     1     -16.716 -11.481  -2.787  1.00  0.00    -0.077 C 
HETATM   10  C   UNL     1     -17.303 -11.556  -1.383  1.00  0.00     0.044 C 
HETATM   11  C   UNL     1     -15.374 -12.178  -2.795  1.00  0.00     0.034 C 
HETATM   12  C   UNL     1     -14.541 -11.788  -3.996  1.00  0.00     0.005 C 
HETATM   13  C   UNL     1     -15.378 -12.040  -5.235  1.00  0.00     0.014 C 
HETATM   14  C   UNL     1     -16.593 -11.059  -5.318  1.00  0.00    -0.020 C 
HETATM   15  C   UNL     1     -17.559 -11.694  -6.355  1.00  0.00     0.020 C 
HETATM   16  C   UNL     1     -16.063  -9.755  -5.968  1.00  0.00     0.020 C 
ENDBRANCH   7   8
ENDBRANCH   4   6
ENDBRANCH   1   3
BRANCH   2  17
HETATM   17  C   UNL     1     -20.511  -4.739  -6.950  1.00  0.00    -0.056 C 
HETATM   18  C   UNL     1     -21.519  -4.311  -7.740  1.00  0.00     0.089 C 
HETATM   19  C   UNL     1     -19.063  -4.599  -7.374  1.00  0.00     0.048 C 
BRANCH  18  20
HETATM   20  C   UNL     1     -22.993  -4.320  -7.516  1.00  0.00     0.283 C 
HETATM   21  O   UNL     1     -23.455  -4.860  -6.514  1.00  0.00    -0.260 OA
BRANCH  20  22
HETATM   22  O   UNL     1     -23.737  -3.760  -8.508  1.00  0.00    -0.311 OA
BRANCH  22  23
HETATM   23  C   UNL     1     -23.781  -4.484  -9.747  1.00  0.00     0.258 C 
BRANCH  23  24
HETATM   24  C   UNL     1     -23.908  -3.757 -11.131  1.00  0.00     0.158 C 
HETATM   25  O   UNL     1     -24.973  -3.222 -11.440  1.00  0.00    -0.295 OA
BRANCH  24  26
HETATM   26  C   UNL     1     -22.730  -3.808 -12.141  1.00  0.00     0.012 C 
HETATM   27  C   UNL     1     -22.755  -2.546 -13.014  1.00  0.00     0.022 C 
HETATM   28  C   UNL     1     -21.345  -3.852 -11.446  1.00  0.00     0.022 C 
HETATM   29  C   UNL     1     -22.846  -5.084 -12.973  1.00  0.00     0.022 C 
ENDBRANCH  24  26
ENDBRANCH  23  24
ENDBRANCH  22  23
ENDBRANCH  20  22
ENDBRANCH  18  20
ENDBRANCH   2  17
TORSDOF 9
BEGIN_RES ARG D 557
REMARK  4 active torsions:
REMARK  status: ('A' for Active; 'I' for Inactive)
REMARK    1  A    between atoms: CA   and  CB  
REMARK    2  A    between atoms: CB   and  CG  
REMARK    3  A    between atoms: CG   and  CD  
REMARK    4  A    between atoms: CD   and  NE  
REMARK       I    between atoms: NE   and  CZ  
REMARK       I    between atoms: CZ   and  NH1 
REMARK       I    between atoms: CZ   and  NH2 
ROOT
ATOM      1  CA  ARG D 557     -26.217   2.705 -17.014  1.00 35.49     0.159 C 
ENDROOT
BRANCH   1   2
ATOM      2  CB  ARG D 557     -26.789   1.319 -17.183  1.00 35.49     0.034 C 
BRANCH   2   3
ATOM      3  CG  ARG D 557     -26.043   0.216 -16.564  1.00 35.49     0.027 C 
BRANCH   3   4
ATOM      4  CD  ARG D 557     -26.927  -0.893 -16.138  1.00 35.49     0.116 C 
BRANCH   4   5
ATOM      5  NE  ARG D 557     -26.246  -1.832 -15.285  1.00 35.49    -0.212 N 
ATOM      6  CZ  ARG D 557     -26.464  -3.127 -15.241  1.00 35.49     0.666 C 
ATOM      7  NH1 ARG D 557     -27.373  -3.719 -15.992  1.00 35.49    -0.235 N 
ATOM      8  NH2 ARG D 557     -25.737  -3.830 -14.421  1.00 35.49    -0.235 N 
ATOM      9  HH  ARG D 557     -27.861  -3.277 -16.540  1.00 35.49     0.174 HD
ATOM     10  HH  ARG D 557     -27.469  -4.568 -15.922  1.00 35.49     0.174 HD
ATOM     11  HH  ARG D 557     -25.152  -3.421 -13.954  1.00 35.49     0.174 HD
ATOM     12  HH  ARG D 557     -25.846  -4.669 -14.367  1.00 35.49     0.174 HD
ATOM     13  HE  ARG D 557     -25.693  -1.526 -14.716  1.00 35.49     0.178 HD
ENDBRANCH   4   5
ENDBRANCH   3   4
ENDBRANCH   2   3
ENDBRANCH   1   2
END_RES ARG D 557
BEGIN_RES GLU D 570
REMARK  3 active torsions:
REMARK  status: ('A' for Active; 'I' for Inactive)
REMARK    5  A    between atoms: CA   and  CB  
REMARK    6  A    between atoms: CB   and  CG  
REMARK    7  A    between atoms: CG   and  CD  
ROOT
ATOM     14  CA  GLU D 570     -18.033  -6.348 -13.375  1.00 32.92     0.160 C 
ENDROOT
BRANCH  14  15
ATOM     15  CB  GLU D 570     -19.500  -6.345 -13.794  1.00 32.92     0.043 C 
BRANCH  15  16
ATOM     16  CG  GLU D 570     -20.086  -7.634 -14.244  1.00 32.92     0.100 C 
BRANCH  16  17
ATOM     17  CD  GLU D 570     -20.785  -7.529 -15.579  1.00 32.92     0.185 C 
ATOM     18  OE1 GLU D 570     -21.206  -8.567 -16.125  1.00 32.92    -0.647 OA
ATOM     19  OE2 GLU D 570     -20.899  -6.399 -16.093  1.00 32.92    -0.647 OA
ENDBRANCH  16  17
ENDBRANCH  15  16
ENDBRANCH  14  15
END_RES GLU D 570
ENDMDL
