MODEL 1
REMARK VINA RESULT:      -8.4      0.000      0.000
REMARK  12 active torsions:
REMARK  status: ('A' for Active; 'I' for Inactive)
REMARK    1  A    between atoms: C_2  and  N_3 
REMARK    2  A    between atoms: N_3  and  C_4 
REMARK    3  A    between atoms: N_3  and  S_6 
REMARK    4  A    between atoms: S_6  and  C_9 
REMARK    5  A    between atoms: C_11  and  N_17 
REMARK    6  A    between atoms: C_12  and  O_15 
REMARK    7  A    between atoms: N_19  and  C_21 
REMARK    8  A    between atoms: C_22  and  O_45 
REMARK    9  A    between atoms: C_23  and  C_31 
REMARK       I    between atoms: C_31  and  N_33 
REMARK   10  A    between atoms: N_33  and  C_34 
REMARK   11  A    between atoms: C_37  and  O_42 
REMARK   12  A    between atoms: C_39  and  O_40 
ROOT
HETATM    1  C   UNL     1     -20.369  -7.243  -4.318  1.00  0.00     0.093 C 
HETATM    2  C   UNL     1     -19.750  -8.442  -4.777  1.00  0.00     0.110 C 
HETATM    3  C   UNL     1     -19.692  -9.582  -3.956  1.00  0.00     0.068 C 
HETATM    4  C   UNL     1     -19.928  -9.413  -2.593  1.00  0.00     0.032 C 
HETATM    5  C   UNL     1     -20.496  -8.240  -2.116  1.00  0.00    -0.022 C 
HETATM    6  C   UNL     1     -20.789  -8.142  -0.763  1.00  0.00     0.012 C 
HETATM    7  C   UNL     1     -21.966  -7.528  -0.378  1.00  0.00     0.001 C 
HETATM    8  C   UNL     1     -22.557  -6.648  -1.270  1.00  0.00     0.001 C 
HETATM    9  C   UNL     1     -21.956  -6.403  -2.514  1.00  0.00     0.014 C 
HETATM   10  C   UNL     1     -20.933  -7.252  -3.006  1.00  0.00     0.005 C 
ENDROOT
BRANCH   1  11
HETATM   11  N   UNL     1     -20.519  -6.126  -5.205  1.00  0.00    -0.297 N 
HETATM   12  N   UNL     1     -21.139  -6.463  -6.246  1.00  0.00    -0.297 N 
ATOM     13  HN  UNL     1     -21.570  -7.383  -6.334  1.00  0.00     0.187 HD
ATOM     14  HN  UNL     1     -20.171  -5.186  -5.017  1.00  0.00     0.187 HD
BRANCH  12  15
HETATM   15  C   UNL     1     -21.215  -5.503  -7.298  1.00  0.00     0.082 A 
HETATM   16  C   UNL     1     -22.393  -5.280  -8.051  1.00  0.00     0.058 A 
HETATM   17  C   UNL     1     -22.445  -4.293  -9.055  1.00  0.00     0.077 A 
HETATM   18  C   UNL     1     -21.349  -3.484  -9.327  1.00  0.00     0.028 A 
HETATM   19  C   UNL     1     -20.186  -3.682  -8.600  1.00  0.00     0.040 A 
HETATM   20  C   UNL     1     -20.101  -4.675  -7.600  1.00  0.00     0.096 A 
BRANCH  17  21
HETATM   21  S   UNL     1     -23.916  -4.049 -10.025  1.00  0.00     0.243 S 
HETATM   22  O   UNL     1     -24.557  -2.850  -9.521  1.00  0.00    -0.206 OA
HETATM   23  O   UNL     1     -24.618  -5.320 -10.120  1.00  0.00    -0.206 OA
BRANCH  21  24
HETATM   24  N   UNL     1     -23.285  -3.686 -11.584  1.00  0.00    -0.207 NA
BRANCH  24  25
HETATM   25  C   UNL     1     -22.592  -4.833 -12.239  1.00  0.00     0.103 C 
HETATM   26  C   UNL     1     -23.448  -5.545 -13.275  1.00  0.00     0.021 C 
ENDBRANCH  24  25
BRANCH  24  27
HETATM   27  C   UNL     1     -24.211  -2.904 -12.467  1.00  0.00     0.103 C 
HETATM   28  C   UNL     1     -23.505  -2.173 -13.593  1.00  0.00     0.021 C 
ENDBRANCH  24  27
ENDBRANCH  21  24
ENDBRANCH  17  21
BRANCH  20  29
HETATM   29  O   UNL     1     -18.854  -4.646  -7.024  1.00  0.00    -0.354 OA
HETATM   30  C   UNL     1     -17.779  -4.024  -7.701  1.00  0.00     0.210 C 
ENDBRANCH  20  29
ENDBRANCH  12  15
ENDBRANCH   1  11
BRANCH   2  31
HETATM   31  O   UNL     1     -19.205  -8.495  -6.039  1.00  0.00    -0.357 OA
HETATM   32  H   UNL     1     -19.111  -9.442  -6.266  1.00  0.00     0.217 HD
ENDBRANCH   2  31
BRANCH   3  33
HETATM   33  C   UNL     1     -19.498 -11.002  -4.386  1.00  0.00     0.259 C 
HETATM   34  O   UNL     1     -19.202 -11.837  -3.511  1.00  0.00    -0.267 OA
HETATM   35  N   UNL     1     -19.596 -11.284  -5.714  1.00  0.00    -0.320 N 
HETATM   36  H   UNL     1     -19.630 -10.499  -6.344  1.00  0.00     0.169 HD
BRANCH  35  37
HETATM   37  C   UNL     1     -19.136 -12.523  -6.222  1.00  0.00     0.070 A 
HETATM   38  C   UNL     1     -20.025 -13.612  -6.281  1.00  0.00     0.059 A 
HETATM   39  C   UNL     1     -19.656 -14.833  -6.864  1.00  0.00     0.069 A 
HETATM   40  C   UNL     1     -18.364 -14.991  -7.370  1.00  0.00     0.092 A 
HETATM   41 CL   UNL     1     -20.918 -16.008  -6.976  1.00  0.00    -0.081 Cl
HETATM   42  C   UNL     1     -17.470 -13.905  -7.291  1.00  0.00     0.077 A 
HETATM   43  C   UNL     1     -17.832 -12.683  -6.708  1.00  0.00     0.097 A 
BRANCH  40  44
HETATM   44  O   UNL     1     -17.828 -16.064  -8.033  1.00  0.00    -0.354 OA
HETATM   45  C   UNL     1     -16.765 -16.780  -7.419  1.00  0.00     0.210 C 
ENDBRANCH  40  44
BRANCH  43  46
HETATM   46  O   UNL     1     -16.849 -11.728  -6.693  1.00  0.00    -0.354 OA
HETATM   47  C   UNL     1     -15.929 -11.778  -5.603  1.00  0.00     0.210 C 
ENDBRANCH  43  46
ENDBRANCH  35  37
ENDBRANCH   3  33
TORSDOF 12
BEGIN_RES ARG D 557
REMARK  4 active torsions:
REMARK  status: ('A' for Active; 'I' for Inactive)
REMARK    1  A    between atoms: CA   and  CB  
REMARK    2  A    between atoms: CB   and  CG  
REMARK    3  A    between atoms: CG   and  CD  
REMARK    4  A    between atoms: CD   and  NE  
REMARK       I    between atoms: NE   and  CZ  
REMARK       I    between atoms: CZ   and  NH1 
REMARK       I    between atoms: CZ   and  NH2 
ROOT
ATOM      1  CA  ARG D 557     -26.217   2.705 -17.014  1.00 35.49     0.159 C 
ENDROOT
BRANCH   1   2
ATOM      2  CB  ARG D 557     -26.789   1.319 -17.183  1.00 35.49     0.034 C 
BRANCH   2   3
ATOM      3  CG  ARG D 557     -28.246   1.187 -17.066  1.00 35.49     0.027 C 
BRANCH   3   4
ATOM      4  CD  ARG D 557     -28.664  -0.200 -16.758  1.00 35.49     0.116 C 
BRANCH   4   5
ATOM      5  NE  ARG D 557     -27.633  -0.939 -16.079  1.00 35.49    -0.212 N 
ATOM      6  CZ  ARG D 557     -27.450  -2.239 -16.144  1.00 35.49     0.666 C 
ATOM      7  NH1 ARG D 557     -28.231  -3.030 -16.855  1.00 35.49    -0.235 N 
ATOM      8  NH2 ARG D 557     -26.449  -2.738 -15.478  1.00 35.49    -0.235 N 
ATOM      9  HH  ARG D 557     -28.894  -2.723 -17.303  1.00 35.49     0.174 HD
ATOM     10  HH  ARG D 557     -28.062  -3.870 -16.862  1.00 35.49     0.174 HD
ATOM     11  HH  ARG D 557     -25.957  -2.202 -15.034  1.00 35.49     0.174 HD
ATOM     12  HH  ARG D 557     -26.297  -3.572 -15.499  1.00 35.49     0.174 HD
ATOM     13  HE  ARG D 557     -27.128  -0.517 -15.540  1.00 35.49     0.178 HD
ENDBRANCH   4   5
ENDBRANCH   3   4
ENDBRANCH   2   3
ENDBRANCH   1   2
END_RES ARG D 557
BEGIN_RES GLU D 570
REMARK  3 active torsions:
REMARK  status: ('A' for Active; 'I' for Inactive)
REMARK    5  A    between atoms: CA   and  CB  
REMARK    6  A    between atoms: CB   and  CG  
REMARK    7  A    between atoms: CG   and  CD  
ROOT
ATOM     14  CA  GLU D 570     -18.033  -6.348 -13.375  1.00 32.92     0.160 C 
ENDROOT
BRANCH  14  15
ATOM     15  CB  GLU D 570     -19.500  -6.345 -13.794  1.00 32.92     0.043 C 
BRANCH  15  16
ATOM     16  CG  GLU D 570     -19.796  -6.354 -15.250  1.00 32.92     0.100 C 
BRANCH  16  17
ATOM     17  CD  GLU D 570     -20.837  -7.380 -15.634  1.00 32.92     0.185 C 
ATOM     18  OE1 GLU D 570     -20.550  -8.590 -15.557  1.00 32.92    -0.647 OA
ATOM     19  OE2 GLU D 570     -21.945  -6.968 -16.031  1.00 32.92    -0.647 OA
ENDBRANCH  16  17
ENDBRANCH  15  16
ENDBRANCH  14  15
END_RES GLU D 570
ENDMDL
MODEL 2
REMARK VINA RESULT:      -7.8      4.266      9.806
REMARK  12 active torsions:
REMARK  status: ('A' for Active; 'I' for Inactive)
REMARK    1  A    between atoms: C_2  and  N_3 
REMARK    2  A    between atoms: N_3  and  C_4 
REMARK    3  A    between atoms: N_3  and  S_6 
REMARK    4  A    between atoms: S_6  and  C_9 
REMARK    5  A    between atoms: C_11  and  N_17 
REMARK    6  A    between atoms: C_12  and  O_15 
REMARK    7  A    between atoms: N_19  and  C_21 
REMARK    8  A    between atoms: C_22  and  O_45 
REMARK    9  A    between atoms: C_23  and  C_31 
REMARK       I    between atoms: C_31  and  N_33 
REMARK   10  A    between atoms: N_33  and  C_34 
REMARK   11  A    between atoms: C_37  and  O_42 
REMARK   12  A    between atoms: C_39  and  O_40 
ROOT
HETATM    1  C   UNL     1     -19.985  -9.195  -2.746  1.00  0.00     0.093 C 
HETATM    2  C   UNL     1     -20.090  -8.541  -4.007  1.00  0.00     0.110 C 
HETATM    3  C   UNL     1     -20.914  -7.412  -4.166  1.00  0.00     0.068 C 
HETATM    4  C   UNL     1     -21.873  -7.165  -3.185  1.00  0.00     0.032 C 
HETATM    5  C   UNL     1     -21.814  -7.817  -1.961  1.00  0.00    -0.022 C 
HETATM    6  C   UNL     1     -22.740  -7.485  -0.983  1.00  0.00     0.012 C 
HETATM    7  C   UNL     1     -22.319  -7.394   0.330  1.00  0.00     0.001 C 
HETATM    8  C   UNL     1     -21.163  -8.068   0.686  1.00  0.00     0.001 C 
HETATM    9  C   UNL     1     -20.464  -8.815  -0.275  1.00  0.00     0.014 C 
HETATM   10  C   UNL     1     -20.735  -8.654  -1.657  1.00  0.00     0.005 C 
ENDROOT
BRANCH   1  11
HETATM   11  N   UNL     1     -19.057 -10.275  -2.570  1.00  0.00    -0.297 N 
HETATM   12  N   UNL     1     -17.872  -9.856  -2.607  1.00  0.00    -0.297 N 
ATOM     13  HN  UNL     1     -17.661  -8.858  -2.627  1.00  0.00     0.187 HD
ATOM     14  HN  UNL     1     -19.323 -11.251  -2.434  1.00  0.00     0.187 HD
BRANCH  12  15
HETATM   15  C   UNL     1     -16.835 -10.836  -2.621  1.00  0.00     0.082 A 
HETATM   16  C   UNL     1     -16.815 -11.943  -1.739  1.00  0.00     0.058 A 
HETATM   17  C   UNL     1     -15.798 -12.916  -1.809  1.00  0.00     0.077 A 
HETATM   18  C   UNL     1     -14.791 -12.838  -2.763  1.00  0.00     0.028 A 
HETATM   19  C   UNL     1     -14.793 -11.764  -3.639  1.00  0.00     0.040 A 
HETATM   20  C   UNL     1     -15.790 -10.766  -3.580  1.00  0.00     0.096 A 
BRANCH  17  21
HETATM   21  S   UNL     1     -15.756 -14.281  -0.670  1.00  0.00     0.243 S 
HETATM   22  O   UNL     1     -15.002 -15.340  -1.310  1.00  0.00    -0.206 OA
HETATM   23  O   UNL     1     -17.102 -14.490  -0.156  1.00  0.00    -0.206 OA
BRANCH  21  24
HETATM   24  N   UNL     1     -14.797 -13.667   0.621  1.00  0.00    -0.207 NA
BRANCH  24  25
HETATM   25  C   UNL     1     -15.589 -13.036   1.717  1.00  0.00     0.103 C 
HETATM   26  C   UNL     1     -15.595 -13.849   3.002  1.00  0.00     0.021 C 
ENDBRANCH  24  25
BRANCH  24  27
HETATM   27  C   UNL     1     -13.692 -14.576   1.067  1.00  0.00     0.103 C 
HETATM   28  C   UNL     1     -12.305 -14.044   0.758  1.00  0.00     0.021 C 
ENDBRANCH  24  27
ENDBRANCH  21  24
ENDBRANCH  17  21
BRANCH  20  29
HETATM   29  O   UNL     1     -15.571  -9.834  -4.566  1.00  0.00    -0.354 OA
HETATM   30  C   UNL     1     -16.038 -10.073  -5.879  1.00  0.00     0.210 C 
ENDBRANCH  20  29
ENDBRANCH  12  15
ENDBRANCH   1  11
BRANCH   2  31
HETATM   31  O   UNL     1     -19.377  -9.008  -5.086  1.00  0.00    -0.357 OA
HETATM   32  H   UNL     1     -19.995  -9.035  -5.843  1.00  0.00     0.217 HD
ENDBRANCH   2  31
BRANCH   3  33
HETATM   33  C   UNL     1     -20.824  -6.365  -5.231  1.00  0.00     0.259 C 
HETATM   34  O   UNL     1     -20.809  -5.173  -4.872  1.00  0.00    -0.267 OA
HETATM   35  N   UNL     1     -20.826  -6.775  -6.529  1.00  0.00    -0.320 N 
HETATM   36  H   UNL     1     -21.052  -7.742  -6.699  1.00  0.00     0.169 HD
BRANCH  35  37
HETATM   37  C   UNL     1     -21.044  -5.847  -7.576  1.00  0.00     0.070 A 
HETATM   38  C   UNL     1     -22.356  -5.619  -8.027  1.00  0.00     0.059 A 
HETATM   39  C   UNL     1     -22.644  -4.642  -8.991  1.00  0.00     0.069 A 
HETATM   40  C   UNL     1     -21.603  -3.896  -9.548  1.00  0.00     0.092 A 
HETATM   41 CL   UNL     1     -24.324  -4.402  -9.321  1.00  0.00    -0.081 Cl
HETATM   42  C   UNL     1     -20.287  -4.142  -9.108  1.00  0.00     0.077 A 
HETATM   43  C   UNL     1     -19.992  -5.118  -8.147  1.00  0.00     0.097 A 
BRANCH  40  44
HETATM   44  O   UNL     1     -21.672  -2.861 -10.442  1.00  0.00    -0.354 OA
HETATM   45  C   UNL     1     -20.538  -2.589 -11.256  1.00  0.00     0.210 C 
ENDBRANCH  40  44
BRANCH  43  46
HETATM   46  O   UNL     1     -18.665  -5.249  -7.833  1.00  0.00    -0.354 OA
HETATM   47  C   UNL     1     -18.047  -4.127  -7.202  1.00  0.00     0.210 C 
ENDBRANCH  43  46
ENDBRANCH  35  37
ENDBRANCH   3  33
TORSDOF 12
BEGIN_RES ARG D 557
REMARK  4 active torsions:
REMARK  status: ('A' for Active; 'I' for Inactive)
REMARK    1  A    between atoms: CA   and  CB  
REMARK    2  A    between atoms: CB   and  CG  
REMARK    3  A    between atoms: CG   and  CD  
REMARK    4  A    between atoms: CD   and  NE  
REMARK       I    between atoms: NE   and  CZ  
REMARK       I    between atoms: CZ   and  NH1 
REMARK       I    between atoms: CZ   and  NH2 
ROOT
ATOM      1  CA  ARG D 557     -26.217   2.705 -17.014  1.00 35.49     0.159 C 
ENDROOT
BRANCH   1   2
ATOM      2  CB  ARG D 557     -26.789   1.319 -17.183  1.00 35.49     0.034 C 
BRANCH   2   3
ATOM      3  CG  ARG D 557     -25.864   0.195 -16.996  1.00 35.49     0.027 C 
BRANCH   3   4
ATOM      4  CD  ARG D 557     -26.267  -0.688 -15.878  1.00 35.49     0.116 C 
BRANCH   4   5
ATOM      5  NE  ARG D 557     -25.189  -0.921 -14.954  1.00 35.49    -0.212 N 
ATOM      6  CZ  ARG D 557     -24.940  -2.053 -14.334  1.00 35.49     0.666 C 
ATOM      7  NH1 ARG D 557     -25.690  -3.128 -14.491  1.00 35.49    -0.235 N 
ATOM      8  NH2 ARG D 557     -23.904  -2.091 -13.547  1.00 35.49    -0.235 N 
ATOM      9  HH  ARG D 557     -26.375  -3.126 -15.006  1.00 35.49     0.174 HD
ATOM     10  HH  ARG D 557     -25.478  -3.839 -14.063  1.00 35.49     0.174 HD
ATOM     11  HH  ARG D 557     -23.433  -1.384 -13.471  1.00 35.49     0.174 HD
ATOM     12  HH  ARG D 557     -23.709  -2.805 -13.133  1.00 35.49     0.174 HD
ATOM     13  HE  ARG D 557     -24.698  -0.261 -14.738  1.00 35.49     0.178 HD
ENDBRANCH   4   5
ENDBRANCH   3   4
ENDBRANCH   2   3
ENDBRANCH   1   2
END_RES ARG D 557
BEGIN_RES GLU D 570
REMARK  3 active torsions:
REMARK  status: ('A' for Active; 'I' for Inactive)
REMARK    5  A    between atoms: CA   and  CB  
REMARK    6  A    between atoms: CB   and  CG  
REMARK    7  A    between atoms: CG   and  CD  
ROOT
ATOM     14  CA  GLU D 570     -18.033  -6.348 -13.375  1.00 32.92     0.160 C 
ENDROOT
BRANCH  14  15
ATOM     15  CB  GLU D 570     -19.500  -6.345 -13.794  1.00 32.92     0.043 C 
BRANCH  15  16
ATOM     16  CG  GLU D 570     -20.453  -5.586 -12.944  1.00 32.92     0.100 C 
BRANCH  16  17
ATOM     17  CD  GLU D 570     -21.703  -5.172 -13.685  1.00 32.92     0.185 C 
ATOM     18  OE1 GLU D 570     -21.663  -5.062 -14.925  1.00 32.92    -0.647 OA
ATOM     19  OE2 GLU D 570     -22.730  -4.940 -13.016  1.00 32.92    -0.647 OA
ENDBRANCH  16  17
ENDBRANCH  15  16
ENDBRANCH  14  15
END_RES GLU D 570
ENDMDL
MODEL 3
REMARK VINA RESULT:      -7.7      3.398      8.979
REMARK  12 active torsions:
REMARK  status: ('A' for Active; 'I' for Inactive)
REMARK    1  A    between atoms: C_2  and  N_3 
REMARK    2  A    between atoms: N_3  and  C_4 
REMARK    3  A    between atoms: N_3  and  S_6 
REMARK    4  A    between atoms: S_6  and  C_9 
REMARK    5  A    between atoms: C_11  and  N_17 
REMARK    6  A    between atoms: C_12  and  O_15 
REMARK    7  A    between atoms: N_19  and  C_21 
REMARK    8  A    between atoms: C_22  and  O_45 
REMARK    9  A    between atoms: C_23  and  C_31 
REMARK       I    between atoms: C_31  and  N_33 
REMARK   10  A    between atoms: N_33  and  C_34 
REMARK   11  A    between atoms: C_37  and  O_42 
REMARK   12  A    between atoms: C_39  and  O_40 
ROOT
HETATM    1  C   UNL     1     -20.044  -9.183  -2.763  1.00  0.00     0.093 C 
HETATM    2  C   UNL     1     -20.178  -8.508  -4.011  1.00  0.00     0.110 C 
HETATM    3  C   UNL     1     -21.000  -7.373  -4.131  1.00  0.00     0.068 C 
HETATM    4  C   UNL     1     -21.932  -7.138  -3.122  1.00  0.00     0.032 C 
HETATM    5  C   UNL     1     -21.846  -7.809  -1.910  1.00  0.00    -0.022 C 
HETATM    6  C   UNL     1     -22.744  -7.488  -0.904  1.00  0.00     0.012 C 
HETATM    7  C   UNL     1     -22.289  -7.420   0.400  1.00  0.00     0.001 C 
HETATM    8  C   UNL     1     -21.127  -8.105   0.715  1.00  0.00     0.001 C 
HETATM    9  C   UNL     1     -20.457  -8.840  -0.275  1.00  0.00     0.014 C 
HETATM   10  C   UNL     1     -20.762  -8.656  -1.647  1.00  0.00     0.005 C 
ENDROOT
BRANCH   1  11
HETATM   11  N   UNL     1     -19.117 -10.270  -2.629  1.00  0.00    -0.297 N 
HETATM   12  N   UNL     1     -17.948  -9.895  -2.903  1.00  0.00    -0.297 N 
ATOM     13  HN  UNL     1     -17.727  -8.912  -3.061  1.00  0.00     0.187 HD
ATOM     14  HN  UNL     1     -19.372 -11.217  -2.350  1.00  0.00     0.187 HD
BRANCH  12  15
HETATM   15  C   UNL     1     -16.944 -10.905  -2.982  1.00  0.00     0.082 A 
HETATM   16  C   UNL     1     -16.251 -11.206  -4.180  1.00  0.00     0.058 A 
HETATM   17  C   UNL     1     -15.234 -12.181  -4.213  1.00  0.00     0.077 A 
HETATM   18  C   UNL     1     -14.855 -12.866  -3.065  1.00  0.00     0.028 A 
HETATM   19  C   UNL     1     -15.518 -12.585  -1.880  1.00  0.00     0.040 A 
HETATM   20  C   UNL     1     -16.552 -11.626  -1.822  1.00  0.00     0.096 A 
BRANCH  17  21
HETATM   21  S   UNL     1     -14.399 -12.582  -5.731  1.00  0.00     0.243 S 
HETATM   22  O   UNL     1     -12.999 -12.255  -5.539  1.00  0.00    -0.206 OA
HETATM   23  O   UNL     1     -15.175 -12.044  -6.838  1.00  0.00    -0.206 OA
BRANCH  21  24
HETATM   24  N   UNL     1     -14.528 -14.297  -5.792  1.00  0.00    -0.207 NA
BRANCH  24  25
HETATM   25  C   UNL     1     -15.803 -14.787  -6.391  1.00  0.00     0.103 C 
HETATM   26  C   UNL     1     -16.767 -15.369  -5.369  1.00  0.00     0.021 C 
ENDBRANCH  24  25
BRANCH  24  27
HETATM   27  C   UNL     1     -13.287 -15.002  -6.252  1.00  0.00     0.103 C 
HETATM   28  C   UNL     1     -12.835 -16.108  -5.318  1.00  0.00     0.021 C 
ENDBRANCH  24  27
ENDBRANCH  21  24
ENDBRANCH  17  21
BRANCH  20  29
HETATM   29  O   UNL     1     -17.021 -11.529  -0.535  1.00  0.00    -0.354 OA
HETATM   30  C   UNL     1     -16.208 -11.943   0.545  1.00  0.00     0.210 C 
ENDBRANCH  20  29
ENDBRANCH  12  15
ENDBRANCH   1  11
BRANCH   2  31
HETATM   31  O   UNL     1     -19.496  -8.961  -5.116  1.00  0.00    -0.357 OA
HETATM   32  H   UNL     1     -20.131  -9.479  -5.648  1.00  0.00     0.217 HD
ENDBRANCH   2  31
BRANCH   3  33
HETATM   33  C   UNL     1     -20.933  -6.310  -5.182  1.00  0.00     0.259 C 
HETATM   34  O   UNL     1     -21.114  -5.131  -4.825  1.00  0.00    -0.267 OA
HETATM   35  N   UNL     1     -20.738  -6.699  -6.471  1.00  0.00    -0.320 N 
HETATM   36  H   UNL     1     -20.814  -7.685  -6.663  1.00  0.00     0.169 HD
BRANCH  35  37
HETATM   37  C   UNL     1     -20.960  -5.795  -7.537  1.00  0.00     0.070 A 
HETATM   38  C   UNL     1     -22.273  -5.583  -7.994  1.00  0.00     0.059 A 
HETATM   39  C   UNL     1     -22.566  -4.628  -8.979  1.00  0.00     0.069 A 
HETATM   40  C   UNL     1     -21.527  -3.889  -9.550  1.00  0.00     0.092 A 
HETATM   41 CL   UNL     1     -24.246  -4.405  -9.315  1.00  0.00    -0.081 Cl
HETATM   42  C   UNL     1     -20.210  -4.119  -9.104  1.00  0.00     0.077 A 
HETATM   43  C   UNL     1     -19.912  -5.072  -8.122  1.00  0.00     0.097 A 
BRANCH  40  44
HETATM   44  O   UNL     1     -21.601  -2.873 -10.465  1.00  0.00    -0.354 OA
HETATM   45  C   UNL     1     -22.044  -3.174 -11.782  1.00  0.00     0.210 C 
ENDBRANCH  40  44
BRANCH  43  46
HETATM   46  O   UNL     1     -18.584  -5.189  -7.804  1.00  0.00    -0.354 OA
HETATM   47  C   UNL     1     -17.968  -4.045  -7.213  1.00  0.00     0.210 C 
ENDBRANCH  43  46
ENDBRANCH  35  37
ENDBRANCH   3  33
TORSDOF 12
BEGIN_RES ARG D 557
REMARK  4 active torsions:
REMARK  status: ('A' for Active; 'I' for Inactive)
REMARK    1  A    between atoms: CA   and  CB  
REMARK    2  A    between atoms: CB   and  CG  
REMARK    3  A    between atoms: CG   and  CD  
REMARK    4  A    between atoms: CD   and  NE  
REMARK       I    between atoms: NE   and  CZ  
REMARK       I    between atoms: CZ   and  NH1 
REMARK       I    between atoms: CZ   and  NH2 
ROOT
ATOM      1  CA  ARG D 557     -26.217   2.705 -17.014  1.00 35.49     0.159 C 
ENDROOT
BRANCH   1   2
ATOM      2  CB  ARG D 557     -26.789   1.319 -17.183  1.00 35.49     0.034 C 
BRANCH   2   3
ATOM      3  CG  ARG D 557     -28.238   1.224 -17.396  1.00 35.49     0.027 C 
BRANCH   3   4
ATOM      4  CD  ARG D 557     -28.885   0.277 -16.459  1.00 35.49     0.116 C 
BRANCH   4   5
ATOM      5  NE  ARG D 557     -29.289  -0.941 -17.111  1.00 35.49    -0.212 N 
ATOM      6  CZ  ARG D 557     -28.663  -2.094 -17.041  1.00 35.49     0.666 C 
ATOM      7  NH1 ARG D 557     -27.549  -2.255 -16.351  1.00 35.49    -0.235 N 
ATOM      8  NH2 ARG D 557     -29.184  -3.100 -17.680  1.00 35.49    -0.235 N 
ATOM      9  HH  ARG D 557     -27.189  -1.607 -15.920  1.00 35.49     0.174 HD
ATOM     10  HH  ARG D 557     -27.186  -3.031 -16.339  1.00 35.49     0.174 HD
ATOM     11  HH  ARG D 557     -29.908  -2.968 -18.112  1.00 35.49     0.174 HD
ATOM     12  HH  ARG D 557     -28.810  -3.861 -17.655  1.00 35.49     0.174 HD
ATOM     13  HE  ARG D 557     -29.957  -0.910 -17.636  1.00 35.49     0.178 HD
ENDBRANCH   4   5
ENDBRANCH   3   4
ENDBRANCH   2   3
ENDBRANCH   1   2
END_RES ARG D 557
BEGIN_RES GLU D 570
REMARK  3 active torsions:
REMARK  status: ('A' for Active; 'I' for Inactive)
REMARK    5  A    between atoms: CA   and  CB  
REMARK    6  A    between atoms: CB   and  CG  
REMARK    7  A    between atoms: CG   and  CD  
ROOT
ATOM     14  CA  GLU D 570     -18.033  -6.348 -13.375  1.00 32.92     0.160 C 
ENDROOT
BRANCH  14  15
ATOM     15  CB  GLU D 570     -19.500  -6.345 -13.794  1.00 32.92     0.043 C 
BRANCH  15  16
ATOM     16  CG  GLU D 570     -19.796  -6.270 -15.248  1.00 32.92     0.100 C 
BRANCH  16  17
ATOM     17  CD  GLU D 570     -21.126  -5.618 -15.546  1.00 32.92     0.185 C 
ATOM     18  OE1 GLU D 570     -21.314  -5.110 -16.668  1.00 32.92    -0.647 OA
ATOM     19  OE2 GLU D 570     -21.984  -5.599 -14.641  1.00 32.92    -0.647 OA
ENDBRANCH  16  17
ENDBRANCH  15  16
ENDBRANCH  14  15
END_RES GLU D 570
ENDMDL
MODEL 4
REMARK VINA RESULT:      -7.6      3.642      5.952
REMARK  12 active torsions:
REMARK  status: ('A' for Active; 'I' for Inactive)
REMARK    1  A    between atoms: C_2  and  N_3 
REMARK    2  A    between atoms: N_3  and  C_4 
REMARK    3  A    between atoms: N_3  and  S_6 
REMARK    4  A    between atoms: S_6  and  C_9 
REMARK    5  A    between atoms: C_11  and  N_17 
REMARK    6  A    between atoms: C_12  and  O_15 
REMARK    7  A    between atoms: N_19  and  C_21 
REMARK    8  A    between atoms: C_22  and  O_45 
REMARK    9  A    between atoms: C_23  and  C_31 
REMARK       I    between atoms: C_31  and  N_33 
REMARK   10  A    between atoms: N_33  and  C_34 
REMARK   11  A    between atoms: C_37  and  O_42 
REMARK   12  A    between atoms: C_39  and  O_40 
ROOT
HETATM    1  C   UNL     1     -20.699 -10.600  -5.263  1.00  0.00     0.093 C 
HETATM    2  C   UNL     1     -21.450 -11.110  -4.165  1.00  0.00     0.110 C 
HETATM    3  C   UNL     1     -21.766 -12.478  -4.083  1.00  0.00     0.068 C 
HETATM    4  C   UNL     1     -21.641 -13.244  -5.240  1.00  0.00     0.032 C 
HETATM    5  C   UNL     1     -20.945 -12.755  -6.338  1.00  0.00    -0.022 C 
HETATM    6  C   UNL     1     -20.773 -13.579  -7.440  1.00  0.00     0.012 C 
HETATM    7  C   UNL     1     -19.558 -13.569  -8.098  1.00  0.00     0.001 C 
HETATM    8  C   UNL     1     -18.752 -12.452  -7.949  1.00  0.00     0.001 C 
HETATM    9  C   UNL     1     -19.183 -11.379  -7.154  1.00  0.00     0.014 C 
HETATM   10  C   UNL     1     -20.273 -11.530  -6.260  1.00  0.00     0.005 C 
ENDROOT
BRANCH   1  11
HETATM   11  N   UNL     1     -20.288  -9.225  -5.278  1.00  0.00    -0.297 N 
HETATM   12  N   UNL     1     -21.225  -8.485  -5.676  1.00  0.00    -0.297 N 
ATOM     13  HN  UNL     1     -22.165  -8.850  -5.825  1.00  0.00     0.187 HD
ATOM     14  HN  UNL     1     -19.364  -8.893  -5.003  1.00  0.00     0.187 HD
BRANCH  12  15
HETATM   15  C   UNL     1     -20.914  -7.113  -5.909  1.00  0.00     0.082 A 
HETATM   16  C   UNL     1     -20.845  -6.551  -7.208  1.00  0.00     0.058 A 
HETATM   17  C   UNL     1     -20.578  -5.181  -7.400  1.00  0.00     0.077 A 
HETATM   18  C   UNL     1     -20.397  -4.325  -6.321  1.00  0.00     0.028 A 
HETATM   19  C   UNL     1     -20.463  -4.852  -5.041  1.00  0.00     0.040 A 
HETATM   20  C   UNL     1     -20.712  -6.224  -4.820  1.00  0.00     0.096 A 
BRANCH  17  21
HETATM   21  S   UNL     1     -20.452  -4.493  -9.035  1.00  0.00     0.243 S 
HETATM   22  O   UNL     1     -19.695  -5.439  -9.831  1.00  0.00    -0.206 OA
HETATM   23  O   UNL     1     -20.065  -3.096  -8.916  1.00  0.00    -0.206 OA
BRANCH  21  24
HETATM   24  N   UNL     1     -22.081  -4.535  -9.589  1.00  0.00    -0.207 NA
BRANCH  24  25
HETATM   25  C   UNL     1     -23.008  -3.663  -8.811  1.00  0.00     0.103 C 
HETATM   26  C   UNL     1     -24.393  -3.549  -9.429  1.00  0.00     0.021 C 
ENDBRANCH  24  25
BRANCH  24  27
HETATM   27  C   UNL     1     -22.237  -4.473 -11.079  1.00  0.00     0.103 C 
HETATM   28  C   UNL     1     -21.670  -3.209 -11.697  1.00  0.00     0.021 C 
ENDBRANCH  24  27
ENDBRANCH  21  24
ENDBRANCH  17  21
BRANCH  20  29
HETATM   29  O   UNL     1     -20.745  -6.476  -3.470  1.00  0.00    -0.354 OA
HETATM   30  C   UNL     1     -21.956  -6.328  -2.755  1.00  0.00     0.210 C 
ENDBRANCH  20  29
ENDBRANCH  12  15
ENDBRANCH   1  11
BRANCH   2  31
HETATM   31  O   UNL     1     -21.871 -10.263  -3.167  1.00  0.00    -0.357 OA
HETATM   32  H   UNL     1     -22.757  -9.940  -3.424  1.00  0.00     0.217 HD
ENDBRANCH   2  31
BRANCH   3  33
HETATM   33  C   UNL     1     -22.138 -13.252  -2.857  1.00  0.00     0.259 C 
HETATM   34  O   UNL     1     -23.032 -14.111  -2.964  1.00  0.00    -0.267 OA
HETATM   35  N   UNL     1     -21.520 -12.929  -1.689  1.00  0.00    -0.320 N 
HETATM   36  H   UNL     1     -20.973 -12.083  -1.683  1.00  0.00     0.169 HD
BRANCH  35  37
HETATM   37  C   UNL     1     -22.026 -13.401  -0.453  1.00  0.00     0.070 A 
HETATM   38  C   UNL     1     -21.316 -14.396   0.243  1.00  0.00     0.059 A 
HETATM   39  C   UNL     1     -21.714 -14.831   1.515  1.00  0.00     0.069 A 
HETATM   40  C   UNL     1     -22.863 -14.293   2.098  1.00  0.00     0.092 A 
HETATM   41 CL   UNL     1     -20.646 -15.955   2.278  1.00  0.00    -0.081 Cl
HETATM   42  C   UNL     1     -23.583 -13.311   1.389  1.00  0.00     0.077 A 
HETATM   43  C   UNL     1     -23.192 -12.873   0.117  1.00  0.00     0.097 A 
BRANCH  40  44
HETATM   44  O   UNL     1     -23.383 -14.526   3.344  1.00  0.00    -0.354 OA
HETATM   45  C   UNL     1     -24.554 -15.324   3.454  1.00  0.00     0.210 C 
ENDBRANCH  40  44
BRANCH  43  46
HETATM   46  O   UNL     1     -24.002 -11.924  -0.450  1.00  0.00    -0.354 OA
HETATM   47  C   UNL     1     -23.710 -10.565  -0.127  1.00  0.00     0.210 C 
ENDBRANCH  43  46
ENDBRANCH  35  37
ENDBRANCH   3  33
TORSDOF 12
BEGIN_RES ARG D 557
REMARK  4 active torsions:
REMARK  status: ('A' for Active; 'I' for Inactive)
REMARK    1  A    between atoms: CA   and  CB  
REMARK    2  A    between atoms: CB   and  CG  
REMARK    3  A    between atoms: CG   and  CD  
REMARK    4  A    between atoms: CD   and  NE  
REMARK       I    between atoms: NE   and  CZ  
REMARK       I    between atoms: CZ   and  NH1 
REMARK       I    between atoms: CZ   and  NH2 
ROOT
ATOM      1  CA  ARG D 557     -26.217   2.705 -17.014  1.00 35.49     0.159 C 
ENDROOT
BRANCH   1   2
ATOM      2  CB  ARG D 557     -26.789   1.319 -17.183  1.00 35.49     0.034 C 
BRANCH   2   3
ATOM      3  CG  ARG D 557     -28.236   1.225 -17.413  1.00 35.49     0.027 C 
BRANCH   3   4
ATOM      4  CD  ARG D 557     -28.897   0.288 -16.476  1.00 35.49     0.116 C 
BRANCH   4   5
ATOM      5  NE  ARG D 557     -29.269  -0.946 -17.116  1.00 35.49    -0.212 N 
ATOM      6  CZ  ARG D 557     -28.628  -2.089 -17.012  1.00 35.49     0.666 C 
ATOM      7  NH1 ARG D 557     -27.528  -2.222 -16.295  1.00 35.49    -0.235 N 
ATOM      8  NH2 ARG D 557     -29.121  -3.113 -17.645  1.00 35.49    -0.235 N 
ATOM      9  HH  ARG D 557     -27.187  -1.562 -15.869  1.00 35.49     0.174 HD
ATOM     10  HH  ARG D 557     -27.154  -2.993 -16.262  1.00 35.49     0.174 HD
ATOM     11  HH  ARG D 557     -29.837  -3.000 -18.095  1.00 35.49     0.174 HD
ATOM     12  HH  ARG D 557     -28.738  -3.868 -17.599  1.00 35.49     0.174 HD
ATOM     13  HE  ARG D 557     -29.926  -0.934 -17.656  1.00 35.49     0.178 HD
ENDBRANCH   4   5
ENDBRANCH   3   4
ENDBRANCH   2   3
ENDBRANCH   1   2
END_RES ARG D 557
BEGIN_RES GLU D 570
REMARK  3 active torsions:
REMARK  status: ('A' for Active; 'I' for Inactive)
REMARK    5  A    between atoms: CA   and  CB  
REMARK    6  A    between atoms: CB   and  CG  
REMARK    7  A    between atoms: CG   and  CD  
ROOT
ATOM     14  CA  GLU D 570     -18.033  -6.348 -13.375  1.00 32.92     0.160 C 
ENDROOT
BRANCH  14  15
ATOM     15  CB  GLU D 570     -19.500  -6.345 -13.794  1.00 32.92     0.043 C 
BRANCH  15  16
ATOM     16  CG  GLU D 570     -19.798  -6.211 -15.243  1.00 32.92     0.100 C 
BRANCH  16  17
ATOM     17  CD  GLU D 570     -20.676  -7.322 -15.770  1.00 32.92     0.185 C 
ATOM     18  OE1 GLU D 570     -20.595  -8.454 -15.254  1.00 32.92    -0.647 OA
ATOM     19  OE2 GLU D 570     -21.441  -7.063 -16.720  1.00 32.92    -0.647 OA
ENDBRANCH  16  17
ENDBRANCH  15  16
ENDBRANCH  14  15
END_RES GLU D 570
ENDMDL
MODEL 5
REMARK VINA RESULT:      -7.6      4.274      9.914
REMARK  12 active torsions:
REMARK  status: ('A' for Active; 'I' for Inactive)
REMARK    1  A    between atoms: C_2  and  N_3 
REMARK    2  A    between atoms: N_3  and  C_4 
REMARK    3  A    between atoms: N_3  and  S_6 
REMARK    4  A    between atoms: S_6  and  C_9 
REMARK    5  A    between atoms: C_11  and  N_17 
REMARK    6  A    between atoms: C_12  and  O_15 
REMARK    7  A    between atoms: N_19  and  C_21 
REMARK    8  A    between atoms: C_22  and  O_45 
REMARK    9  A    between atoms: C_23  and  C_31 
REMARK       I    between atoms: C_31  and  N_33 
REMARK   10  A    between atoms: N_33  and  C_34 
REMARK   11  A    between atoms: C_37  and  O_42 
REMARK   12  A    between atoms: C_39  and  O_40 
ROOT
HETATM    1  C   UNL     1     -19.989  -9.263  -2.484  1.00  0.00     0.093 C 
HETATM    2  C   UNL     1     -20.091  -8.580  -3.730  1.00  0.00     0.110 C 
HETATM    3  C   UNL     1     -20.911  -7.445  -3.863  1.00  0.00     0.068 C 
HETATM    4  C   UNL     1     -21.869  -7.217  -2.877  1.00  0.00     0.032 C 
HETATM    5  C   UNL     1     -21.813  -7.897  -1.668  1.00  0.00    -0.022 C 
HETATM    6  C   UNL     1     -22.738  -7.584  -0.683  1.00  0.00     0.012 C 
HETATM    7  C   UNL     1     -22.317  -7.525   0.632  1.00  0.00     0.001 C 
HETATM    8  C   UNL     1     -21.163  -8.211   0.973  1.00  0.00     0.001 C 
HETATM    9  C   UNL     1     -20.467  -8.939  -0.005  1.00  0.00     0.014 C 
HETATM   10  C   UNL     1     -20.737  -8.745  -1.383  1.00  0.00     0.005 C 
ENDROOT
BRANCH   1  11
HETATM   11  N   UNL     1     -19.065 -10.351  -2.333  1.00  0.00    -0.297 N 
HETATM   12  N   UNL     1     -17.879  -9.947  -2.444  1.00  0.00    -0.297 N 
ATOM     13  HN  UNL     1     -17.658  -8.953  -2.498  1.00  0.00     0.187 HD
ATOM     14  HN  UNL     1     -19.334 -11.319  -2.161  1.00  0.00     0.187 HD
BRANCH  12  15
HETATM   15  C   UNL     1     -16.856 -10.940  -2.490  1.00  0.00     0.082 A 
HETATM   16  C   UNL     1     -16.804 -12.031  -1.590  1.00  0.00     0.058 A 
HETATM   17  C   UNL     1     -15.803 -13.018  -1.692  1.00  0.00     0.077 A 
HETATM   18  C   UNL     1     -14.844 -12.969  -2.695  1.00  0.00     0.028 A 
HETATM   19  C   UNL     1     -14.877 -11.911  -3.589  1.00  0.00     0.040 A 
HETATM   20  C   UNL     1     -15.858 -10.900  -3.501  1.00  0.00     0.096 A 
BRANCH  17  21
HETATM   21  S   UNL     1     -15.721 -14.363  -0.531  1.00  0.00     0.243 S 
HETATM   22  O   UNL     1     -14.988 -15.433  -1.178  1.00  0.00    -0.206 OA
HETATM   23  O   UNL     1     -17.048 -14.564   0.033  1.00  0.00    -0.206 OA
BRANCH  21  24
HETATM   24  N   UNL     1     -14.719 -13.726   0.716  1.00  0.00    -0.207 NA
BRANCH  24  25
HETATM   25  C   UNL     1     -15.475 -13.104   1.841  1.00  0.00     0.103 C 
HETATM   26  C   UNL     1     -15.520 -13.971   3.090  1.00  0.00     0.021 C 
ENDBRANCH  24  25
BRANCH  24  27
HETATM   27  C   UNL     1     -13.580 -14.613   1.117  1.00  0.00     0.103 C 
HETATM   28  C   UNL     1     -12.221 -14.080   0.708  1.00  0.00     0.021 C 
ENDBRANCH  24  27
ENDBRANCH  21  24
ENDBRANCH  17  21
BRANCH  20  29
HETATM   29  O   UNL     1     -15.677  -9.989  -4.513  1.00  0.00    -0.354 OA
HETATM   30  C   UNL     1     -15.677 -10.421  -5.859  1.00  0.00     0.210 C 
ENDBRANCH  20  29
ENDBRANCH  12  15
ENDBRANCH   1  11
BRANCH   2  31
HETATM   31  O   UNL     1     -19.380  -9.024  -4.820  1.00  0.00    -0.357 OA
HETATM   32  H   UNL     1     -18.868  -8.262  -5.153  1.00  0.00     0.217 HD
ENDBRANCH   2  31
BRANCH   3  33
HETATM   33  C   UNL     1     -20.817  -6.374  -4.904  1.00  0.00     0.259 C 
HETATM   34  O   UNL     1     -20.549  -5.219  -4.524  1.00  0.00    -0.267 OA
HETATM   35  N   UNL     1     -21.090  -6.713  -6.193  1.00  0.00    -0.320 N 
HETATM   36  H   UNL     1     -21.497  -7.622  -6.347  1.00  0.00     0.169 HD
BRANCH  35  37
HETATM   37  C   UNL     1     -21.313  -5.712  -7.169  1.00  0.00     0.070 A 
HETATM   38  C   UNL     1     -20.445  -5.624  -8.272  1.00  0.00     0.059 A 
HETATM   39  C   UNL     1     -20.673  -4.719  -9.318  1.00  0.00     0.069 A 
HETATM   40  C   UNL     1     -21.769  -3.855  -9.255  1.00  0.00     0.092 A 
HETATM   41 CL   UNL     1     -19.586  -4.847 -10.655  1.00  0.00    -0.081 Cl
HETATM   42  C   UNL     1     -22.625  -3.932  -8.138  1.00  0.00     0.077 A 
HETATM   43  C   UNL     1     -22.402  -4.832  -7.088  1.00  0.00     0.097 A 
BRANCH  40  44
HETATM   44  O   UNL     1     -22.205  -2.953 -10.189  1.00  0.00    -0.354 OA
HETATM   45  C   UNL     1     -22.924  -3.436 -11.316  1.00  0.00     0.210 C 
ENDBRANCH  40  44
BRANCH  43  46
HETATM   46  O   UNL     1     -23.313  -4.778  -6.067  1.00  0.00    -0.354 OA
HETATM   47  C   UNL     1     -24.091  -5.955  -5.846  1.00  0.00     0.210 C 
ENDBRANCH  43  46
ENDBRANCH  35  37
ENDBRANCH   3  33
TORSDOF 12
BEGIN_RES ARG D 557
REMARK  4 active torsions:
REMARK  status: ('A' for Active; 'I' for Inactive)
REMARK    1  A    between atoms: CA   and  CB  
REMARK    2  A    between atoms: CB   and  CG  
REMARK    3  A    between atoms: CG   and  CD  
REMARK    4  A    between atoms: CD   and  NE  
REMARK       I    between atoms: NE   and  CZ  
REMARK       I    between atoms: CZ   and  NH1 
REMARK       I    between atoms: CZ   and  NH2 
ROOT
ATOM      1  CA  ARG D 557     -26.217   2.705 -17.014  1.00 35.49     0.159 C 
ENDROOT
BRANCH   1   2
ATOM      2  CB  ARG D 557     -26.789   1.319 -17.183  1.00 35.49     0.034 C 
BRANCH   2   3
ATOM      3  CG  ARG D 557     -28.237   1.224 -17.402  1.00 35.49     0.027 C 
BRANCH   3   4
ATOM      4  CD  ARG D 557     -28.889   0.276 -16.470  1.00 35.49     0.116 C 
BRANCH   4   5
ATOM      5  NE  ARG D 557     -29.262  -0.953 -17.119  1.00 35.49    -0.212 N 
ATOM      6  CZ  ARG D 557     -28.626  -2.098 -17.020  1.00 35.49     0.666 C 
ATOM      7  NH1 ARG D 557     -27.529  -2.240 -16.299  1.00 35.49    -0.235 N 
ATOM      8  NH2 ARG D 557     -29.120  -3.117 -17.662  1.00 35.49    -0.235 N 
ATOM      9  HH  ARG D 557     -27.188  -1.584 -15.866  1.00 35.49     0.174 HD
ATOM     10  HH  ARG D 557     -27.159  -3.012 -16.269  1.00 35.49     0.174 HD
ATOM     11  HH  ARG D 557     -29.833  -2.998 -18.114  1.00 35.49     0.174 HD
ATOM     12  HH  ARG D 557     -28.739  -3.873 -17.619  1.00 35.49     0.174 HD
ATOM     13  HE  ARG D 557     -29.917  -0.935 -17.662  1.00 35.49     0.178 HD
ENDBRANCH   4   5
ENDBRANCH   3   4
ENDBRANCH   2   3
ENDBRANCH   1   2
END_RES ARG D 557
BEGIN_RES GLU D 570
REMARK  3 active torsions:
REMARK  status: ('A' for Active; 'I' for Inactive)
REMARK    5  A    between atoms: CA   and  CB  
REMARK    6  A    between atoms: CB   and  CG  
REMARK    7  A    between atoms: CG   and  CD  
ROOT
ATOM     14  CA  GLU D 570     -18.033  -6.348 -13.375  1.00 32.92     0.160 C 
ENDROOT
BRANCH  14  15
ATOM     15  CB  GLU D 570     -19.500  -6.345 -13.794  1.00 32.92     0.043 C 
BRANCH  15  16
ATOM     16  CG  GLU D 570     -19.796  -6.285 -15.249  1.00 32.92     0.100 C 
BRANCH  16  17
ATOM     17  CD  GLU D 570     -21.022  -5.461 -15.567  1.00 32.92     0.185 C 
ATOM     18  OE1 GLU D 570     -21.755  -5.081 -14.633  1.00 32.92    -0.647 OA
ATOM     19  OE2 GLU D 570     -21.262  -5.207 -16.764  1.00 32.92    -0.647 OA
ENDBRANCH  16  17
ENDBRANCH  15  16
ENDBRANCH  14  15
END_RES GLU D 570
ENDMDL
MODEL 6
REMARK VINA RESULT:      -7.6      6.516     10.109
REMARK  12 active torsions:
REMARK  status: ('A' for Active; 'I' for Inactive)
REMARK    1  A    between atoms: C_2  and  N_3 
REMARK    2  A    between atoms: N_3  and  C_4 
REMARK    3  A    between atoms: N_3  and  S_6 
REMARK    4  A    between atoms: S_6  and  C_9 
REMARK    5  A    between atoms: C_11  and  N_17 
REMARK    6  A    between atoms: C_12  and  O_15 
REMARK    7  A    between atoms: N_19  and  C_21 
REMARK    8  A    between atoms: C_22  and  O_45 
REMARK    9  A    between atoms: C_23  and  C_31 
REMARK       I    between atoms: C_31  and  N_33 
REMARK   10  A    between atoms: N_33  and  C_34 
REMARK   11  A    between atoms: C_37  and  O_42 
REMARK   12  A    between atoms: C_39  and  O_40 
ROOT
HETATM    1  C   UNL     1     -15.065 -12.701  -2.717  1.00  0.00     0.093 C 
HETATM    2  C   UNL     1     -14.626 -13.491  -1.616  1.00  0.00     0.110 C 
HETATM    3  C   UNL     1     -13.646 -14.484  -1.788  1.00  0.00     0.068 C 
HETATM    4  C   UNL     1     -13.375 -14.911  -3.087  1.00  0.00     0.032 C 
HETATM    5  C   UNL     1     -13.823 -14.178  -4.178  1.00  0.00    -0.022 C 
HETATM    6  C   UNL     1     -13.464 -14.592  -5.452  1.00  0.00     0.012 C 
HETATM    7  C   UNL     1     -13.125 -13.638  -6.393  1.00  0.00     0.001 C 
HETATM    8  C   UNL     1     -13.589 -12.347  -6.200  1.00  0.00     0.001 C 
HETATM    9  C   UNL     1     -14.379 -12.047  -5.080  1.00  0.00     0.014 C 
HETATM   10  C   UNL     1     -14.463 -12.948  -3.988  1.00  0.00     0.005 C 
ENDROOT
BRANCH   1  11
HETATM   11  N   UNL     1     -15.983 -11.618  -2.506  1.00  0.00    -0.297 N 
HETATM   12  N   UNL     1     -17.160 -12.047  -2.398  1.00  0.00    -0.297 N 
ATOM     13  HN  UNL     1     -17.360 -13.046  -2.341  1.00  0.00     0.187 HD
ATOM     14  HN  UNL     1     -15.717 -10.635  -2.450  1.00  0.00     0.187 HD
BRANCH  12  15
HETATM   15  C   UNL     1     -18.205 -11.076  -2.357  1.00  0.00     0.082 A 
HETATM   16  C   UNL     1     -19.265 -11.128  -1.420  1.00  0.00     0.058 A 
HETATM   17  C   UNL     1     -20.257 -10.128  -1.381  1.00  0.00     0.077 A 
HETATM   18  C   UNL     1     -20.218  -9.040  -2.243  1.00  0.00     0.028 A 
HETATM   19  C   UNL     1     -19.187  -8.967  -3.167  1.00  0.00     0.040 A 
HETATM   20  C   UNL     1     -18.189  -9.964  -3.240  1.00  0.00     0.096 A 
BRANCH  17  21
HETATM   21  S   UNL     1     -21.608 -10.224  -0.228  1.00  0.00     0.243 S 
HETATM   22  O   UNL     1     -22.708  -9.476  -0.807  1.00  0.00    -0.206 OA
HETATM   23  O   UNL     1     -21.095  -9.940   1.104  1.00  0.00    -0.206 OA
BRANCH  21  24
HETATM   24  N   UNL     1     -22.030 -11.892  -0.278  1.00  0.00    -0.207 NA
BRANCH  24  25
HETATM   25  C   UNL     1     -21.922 -12.582   1.040  1.00  0.00     0.103 C 
HETATM   26  C   UNL     1     -23.176 -13.351   1.424  1.00  0.00     0.021 C 
ENDBRANCH  24  25
BRANCH  24  27
HETATM   27  C   UNL     1     -23.266 -12.201  -1.067  1.00  0.00     0.103 C 
HETATM   28  C   UNL     1     -23.014 -13.099  -2.263  1.00  0.00     0.021 C 
ENDBRANCH  24  27
ENDBRANCH  21  24
ENDBRANCH  17  21
BRANCH  20  29
HETATM   29  O   UNL     1     -17.283  -9.640  -4.221  1.00  0.00    -0.354 OA
HETATM   30  C   UNL     1     -17.526 -10.026  -5.560  1.00  0.00     0.210 C 
ENDBRANCH  20  29
ENDBRANCH  12  15
ENDBRANCH   1  11
BRANCH   2  31
HETATM   31  O   UNL     1     -15.158 -13.284  -0.364  1.00  0.00    -0.357 OA
HETATM   32  H   UNL     1     -15.039 -14.116   0.135  1.00  0.00     0.217 HD
ENDBRANCH   2  31
BRANCH   3  33
HETATM   33  C   UNL     1     -12.768 -15.087  -0.736  1.00  0.00     0.259 C 
HETATM   34  O   UNL     1     -12.516 -16.302  -0.819  1.00  0.00    -0.267 OA
HETATM   35  N   UNL     1     -12.349 -14.284   0.280  1.00  0.00    -0.320 N 
HETATM   36  H   UNL     1     -12.784 -13.378   0.352  1.00  0.00     0.169 HD
BRANCH  35  37
HETATM   37  C   UNL     1     -11.777 -14.841   1.449  1.00  0.00     0.070 A 
HETATM   38  C   UNL     1     -10.415 -14.619   1.719  1.00  0.00     0.059 A 
HETATM   39  C   UNL     1      -9.818 -15.062   2.908  1.00  0.00     0.069 A 
HETATM   40  C   UNL     1     -10.581 -15.772   3.838  1.00  0.00     0.092 A 
HETATM   41 CL   UNL     1      -8.175 -14.578   3.134  1.00  0.00    -0.081 Cl
HETATM   42  C   UNL     1     -11.940 -16.011   3.554  1.00  0.00     0.077 A 
HETATM   43  C   UNL     1     -12.542 -15.573   2.367  1.00  0.00     0.097 A 
BRANCH  40  44
HETATM   44  O   UNL     1     -10.216 -16.230   5.076  1.00  0.00    -0.354 OA
HETATM   45  C   UNL     1     -10.330 -15.351   6.187  1.00  0.00     0.210 C 
ENDBRANCH  40  44
BRANCH  43  46
HETATM   46  O   UNL     1     -13.867 -15.893   2.230  1.00  0.00    -0.354 OA
HETATM   47  C   UNL     1     -14.802 -15.015   2.856  1.00  0.00     0.210 C 
ENDBRANCH  43  46
ENDBRANCH  35  37
ENDBRANCH   3  33
TORSDOF 12
BEGIN_RES ARG D 557
REMARK  4 active torsions:
REMARK  status: ('A' for Active; 'I' for Inactive)
REMARK    1  A    between atoms: CA   and  CB  
REMARK    2  A    between atoms: CB   and  CG  
REMARK    3  A    between atoms: CG   and  CD  
REMARK    4  A    between atoms: CD   and  NE  
REMARK       I    between atoms: NE   and  CZ  
REMARK       I    between atoms: CZ   and  NH1 
REMARK       I    between atoms: CZ   and  NH2 
ROOT
ATOM      1  CA  ARG D 557     -26.217   2.705 -17.014  1.00 35.49     0.159 C 
ENDROOT
BRANCH   1   2
ATOM      2  CB  ARG D 557     -26.789   1.319 -17.183  1.00 35.49     0.034 C 
BRANCH   2   3
ATOM      3  CG  ARG D 557     -25.860   0.195 -17.012  1.00 35.49     0.027 C 
BRANCH   3   4
ATOM      4  CD  ARG D 557     -26.244  -0.689 -15.889  1.00 35.49     0.116 C 
BRANCH   4   5
ATOM      5  NE  ARG D 557     -25.184  -0.836 -14.927  1.00 35.49    -0.212 N 
ATOM      6  CZ  ARG D 557     -24.796  -1.965 -14.378  1.00 35.49     0.666 C 
ATOM      7  NH1 ARG D 557     -25.369  -3.122 -14.653  1.00 35.49    -0.235 N 
ATOM      8  NH2 ARG D 557     -23.801  -1.914 -13.540  1.00 35.49    -0.235 N 
ATOM      9  HH  ARG D 557     -26.024  -3.179 -15.204  1.00 35.49     0.174 HD
ATOM     10  HH  ARG D 557     -25.071  -3.826 -14.267  1.00 35.49     0.174 HD
ATOM     11  HH  ARG D 557     -23.445  -1.154 -13.386  1.00 35.49     0.174 HD
ATOM     12  HH  ARG D 557     -23.520  -2.623 -13.168  1.00 35.49     0.174 HD
ATOM     13  HE  ARG D 557     -24.807  -0.130 -14.637  1.00 35.49     0.178 HD
ENDBRANCH   4   5
ENDBRANCH   3   4
ENDBRANCH   2   3
ENDBRANCH   1   2
END_RES ARG D 557
BEGIN_RES GLU D 570
REMARK  3 active torsions:
REMARK  status: ('A' for Active; 'I' for Inactive)
REMARK    5  A    between atoms: CA   and  CB  
REMARK    6  A    between atoms: CB   and  CG  
REMARK    7  A    between atoms: CG   and  CD  
ROOT
ATOM     14  CA  GLU D 570     -18.033  -6.348 -13.375  1.00 32.92     0.160 C 
ENDROOT
BRANCH  14  15
ATOM     15  CB  GLU D 570     -19.500  -6.345 -13.794  1.00 32.92     0.043 C 
BRANCH  15  16
ATOM     16  CG  GLU D 570     -20.439  -5.519 -12.992  1.00 32.92     0.100 C 
BRANCH  16  17
ATOM     17  CD  GLU D 570     -21.646  -5.066 -13.780  1.00 32.92     0.185 C 
ATOM     18  OE1 GLU D 570     -22.650  -4.656 -13.167  1.00 32.92    -0.647 OA
ATOM     19  OE2 GLU D 570     -21.592  -5.137 -15.024  1.00 32.92    -0.647 OA
ENDBRANCH  16  17
ENDBRANCH  15  16
ENDBRANCH  14  15
END_RES GLU D 570
ENDMDL
MODEL 7
REMARK VINA RESULT:      -7.5      6.438      9.923
REMARK  12 active torsions:
REMARK  status: ('A' for Active; 'I' for Inactive)
REMARK    1  A    between atoms: C_2  and  N_3 
REMARK    2  A    between atoms: N_3  and  C_4 
REMARK    3  A    between atoms: N_3  and  S_6 
REMARK    4  A    between atoms: S_6  and  C_9 
REMARK    5  A    between atoms: C_11  and  N_17 
REMARK    6  A    between atoms: C_12  and  O_15 
REMARK    7  A    between atoms: N_19  and  C_21 
REMARK    8  A    between atoms: C_22  and  O_45 
REMARK    9  A    between atoms: C_23  and  C_31 
REMARK       I    between atoms: C_31  and  N_33 
REMARK   10  A    between atoms: N_33  and  C_34 
REMARK   11  A    between atoms: C_37  and  O_42 
REMARK   12  A    between atoms: C_39  and  O_40 
ROOT
HETATM    1  C   UNL     1     -16.633 -12.568  -1.394  1.00  0.00     0.093 C 
HETATM    2  C   UNL     1     -15.712 -13.547  -0.924  1.00  0.00     0.110 C 
HETATM    3  C   UNL     1     -14.464 -13.721  -1.549  1.00  0.00     0.068 C 
HETATM    4  C   UNL     1     -14.294 -13.177  -2.820  1.00  0.00     0.032 C 
HETATM    5  C   UNL     1     -15.197 -12.248  -3.317  1.00  0.00    -0.022 C 
HETATM    6  C   UNL     1     -14.949 -11.670  -4.553  1.00  0.00     0.012 C 
HETATM    7  C   UNL     1     -15.210 -10.324  -4.725  1.00  0.00     0.001 C 
HETATM    8  C   UNL     1     -16.113  -9.726  -3.862  1.00  0.00     0.001 C 
HETATM    9  C   UNL     1     -16.731 -10.487  -2.857  1.00  0.00     0.014 C 
HETATM   10  C   UNL     1     -16.234 -11.768  -2.509  1.00  0.00     0.005 C 
ENDROOT
BRANCH   1  11
HETATM   11  N   UNL     1     -17.854 -12.326  -0.680  1.00  0.00    -0.297 N 
HETATM   12  N   UNL     1     -18.652 -13.286  -0.825  1.00  0.00    -0.297 N 
ATOM     13  HN  UNL     1     -18.368 -14.151  -1.285  1.00  0.00     0.187 HD
ATOM     14  HN  UNL     1     -18.047 -11.489  -0.131  1.00  0.00     0.187 HD
BRANCH  12  15
HETATM   15  C   UNL     1     -19.974 -13.115  -0.317  1.00  0.00     0.082 A 
HETATM   16  C   UNL     1     -20.854 -12.111  -0.789  1.00  0.00     0.058 A 
HETATM   17  C   UNL     1     -22.168 -11.997  -0.295  1.00  0.00     0.077 A 
HETATM   18  C   UNL     1     -22.659 -12.882   0.656  1.00  0.00     0.028 A 
HETATM   19  C   UNL     1     -21.817 -13.875   1.131  1.00  0.00     0.040 A 
HETATM   20  C   UNL     1     -20.490 -14.002   0.666  1.00  0.00     0.096 A 
BRANCH  17  21
HETATM   21  S   UNL     1     -23.252 -10.707  -0.864  1.00  0.00     0.243 S 
HETATM   22  O   UNL     1     -24.253 -10.513   0.167  1.00  0.00    -0.206 OA
HETATM   23  O   UNL     1     -23.609 -10.984  -2.248  1.00  0.00    -0.206 OA
BRANCH  21  24
HETATM   24  N   UNL     1     -22.228  -9.323  -0.860  1.00  0.00    -0.207 NA
BRANCH  24  25
HETATM   25  C   UNL     1     -21.717  -8.945  -2.209  1.00  0.00     0.103 C 
HETATM   26  C   UNL     1     -20.301  -8.391  -2.185  1.00  0.00     0.021 C 
ENDBRANCH  24  25
BRANCH  24  27
HETATM   27  C   UNL     1     -22.716  -8.186  -0.014  1.00  0.00     0.103 C 
HETATM   28  C   UNL     1     -21.876  -7.948   1.227  1.00  0.00     0.021 C 
ENDBRANCH  24  27
ENDBRANCH  21  24
ENDBRANCH  17  21
BRANCH  20  29
HETATM   29  O   UNL     1     -19.884 -15.071   1.280  1.00  0.00    -0.354 OA
HETATM   30  C   UNL     1     -19.995 -16.363   0.716  1.00  0.00     0.210 C 
ENDBRANCH  20  29
ENDBRANCH  12  15
ENDBRANCH   1  11
BRANCH   2  31
HETATM   31  O   UNL     1     -16.036 -14.334   0.157  1.00  0.00    -0.357 OA
HETATM   32  H   UNL     1     -16.419 -13.741   0.833  1.00  0.00     0.217 HD
ENDBRANCH   2  31
BRANCH   3  33
HETATM   33  C   UNL     1     -13.236 -14.349  -0.967  1.00  0.00     0.259 C 
HETATM   34  O   UNL     1     -12.561 -15.091  -1.703  1.00  0.00    -0.267 OA
HETATM   35  N   UNL     1     -12.965 -14.119   0.347  1.00  0.00    -0.320 N 
HETATM   36  H   UNL     1     -13.690 -13.678   0.889  1.00  0.00     0.169 HD
BRANCH  35  37
HETATM   37  C   UNL     1     -12.009 -14.906   1.032  1.00  0.00     0.070 A 
HETATM   38  C   UNL     1     -10.651 -14.547   0.965  1.00  0.00     0.059 A 
HETATM   39  C   UNL     1      -9.671 -15.228   1.702  1.00  0.00     0.069 A 
HETATM   40  C   UNL     1     -10.040 -16.315   2.498  1.00  0.00     0.092 A 
HETATM   41 CL   UNL     1      -8.079 -14.561   1.607  1.00  0.00    -0.081 Cl
HETATM   42  C   UNL     1     -11.399 -16.685   2.547  1.00  0.00     0.077 A 
HETATM   43  C   UNL     1     -12.382 -16.009   1.812  1.00  0.00     0.097 A 
BRANCH  40  44
HETATM   44  O   UNL     1      -9.262 -17.066   3.339  1.00  0.00    -0.354 OA
HETATM   45  C   UNL     1      -9.413 -16.891   4.741  1.00  0.00     0.210 C 
ENDBRANCH  40  44
BRANCH  43  46
HETATM   46  O   UNL     1     -13.656 -16.495   1.953  1.00  0.00    -0.354 OA
HETATM   47  C   UNL     1     -14.400 -16.015   3.072  1.00  0.00     0.210 C 
ENDBRANCH  43  46
ENDBRANCH  35  37
ENDBRANCH   3  33
TORSDOF 12
BEGIN_RES ARG D 557
REMARK  4 active torsions:
REMARK  status: ('A' for Active; 'I' for Inactive)
REMARK    1  A    between atoms: CA   and  CB  
REMARK    2  A    between atoms: CB   and  CG  
REMARK    3  A    between atoms: CG   and  CD  
REMARK    4  A    between atoms: CD   and  NE  
REMARK       I    between atoms: NE   and  CZ  
REMARK       I    between atoms: CZ   and  NH1 
REMARK       I    between atoms: CZ   and  NH2 
ROOT
ATOM      1  CA  ARG D 557     -26.217   2.705 -17.014  1.00 35.49     0.159 C 
ENDROOT
BRANCH   1   2
ATOM      2  CB  ARG D 557     -26.789   1.319 -17.183  1.00 35.49     0.034 C 
BRANCH   2   3
ATOM      3  CG  ARG D 557     -28.231   1.226 -17.441  1.00 35.49     0.027 C 
BRANCH   3   4
ATOM      4  CD  ARG D 557     -28.914   0.307 -16.502  1.00 35.49     0.116 C 
BRANCH   4   5
ATOM      5  NE  ARG D 557     -29.293  -0.929 -17.133  1.00 35.49    -0.212 N 
ATOM      6  CZ  ARG D 557     -28.654  -2.073 -17.027  1.00 35.49     0.666 C 
ATOM      7  NH1 ARG D 557     -27.550  -2.205 -16.316  1.00 35.49    -0.235 N 
ATOM      8  NH2 ARG D 557     -29.154  -3.100 -17.652  1.00 35.49    -0.235 N 
ATOM      9  HH  ARG D 557     -27.205  -1.543 -15.895  1.00 35.49     0.174 HD
ATOM     10  HH  ARG D 557     -27.178  -2.976 -16.281  1.00 35.49     0.174 HD
ATOM     11  HH  ARG D 557     -29.872  -2.986 -18.097  1.00 35.49     0.174 HD
ATOM     12  HH  ARG D 557     -28.772  -3.855 -17.604  1.00 35.49     0.174 HD
ATOM     13  HE  ARG D 557     -29.953  -0.918 -17.669  1.00 35.49     0.178 HD
ENDBRANCH   4   5
ENDBRANCH   3   4
ENDBRANCH   2   3
ENDBRANCH   1   2
END_RES ARG D 557
BEGIN_RES GLU D 570
REMARK  3 active torsions:
REMARK  status: ('A' for Active; 'I' for Inactive)
REMARK    5  A    between atoms: CA   and  CB  
REMARK    6  A    between atoms: CB   and  CG  
REMARK    7  A    between atoms: CG   and  CD  
ROOT
ATOM     14  CA  GLU D 570     -18.033  -6.348 -13.375  1.00 32.92     0.160 C 
ENDROOT
BRANCH  14  15
ATOM     15  CB  GLU D 570     -19.500  -6.345 -13.794  1.00 32.92     0.043 C 
BRANCH  15  16
ATOM     16  CG  GLU D 570     -20.104  -7.646 -14.180  1.00 32.92     0.100 C 
BRANCH  16  17
ATOM     17  CD  GLU D 570     -21.018  -7.540 -15.379  1.00 32.92     0.185 C 
ATOM     18  OE1 GLU D 570     -21.946  -6.709 -15.360  1.00 32.92    -0.647 OA
ATOM     19  OE2 GLU D 570     -20.812  -8.307 -16.340  1.00 32.92    -0.647 OA
ENDBRANCH  16  17
ENDBRANCH  15  16
ENDBRANCH  14  15
END_RES GLU D 570
ENDMDL
MODEL 8
REMARK VINA RESULT:      -7.5      3.092      8.511
REMARK  12 active torsions:
REMARK  status: ('A' for Active; 'I' for Inactive)
REMARK    1  A    between atoms: C_2  and  N_3 
REMARK    2  A    between atoms: N_3  and  C_4 
REMARK    3  A    between atoms: N_3  and  S_6 
REMARK    4  A    between atoms: S_6  and  C_9 
REMARK    5  A    between atoms: C_11  and  N_17 
REMARK    6  A    between atoms: C_12  and  O_15 
REMARK    7  A    between atoms: N_19  and  C_21 
REMARK    8  A    between atoms: C_22  and  O_45 
REMARK    9  A    between atoms: C_23  and  C_31 
REMARK       I    between atoms: C_31  and  N_33 
REMARK   10  A    between atoms: N_33  and  C_34 
REMARK   11  A    between atoms: C_37  and  O_42 
REMARK   12  A    between atoms: C_39  and  O_40 
ROOT
HETATM    1  C   UNL     1     -20.212  -9.094  -3.251  1.00  0.00     0.093 C 
HETATM    2  C   UNL     1     -20.356  -8.421  -4.498  1.00  0.00     0.110 C 
HETATM    3  C   UNL     1     -21.111  -7.238  -4.595  1.00  0.00     0.068 C 
HETATM    4  C   UNL     1     -21.984  -6.939  -3.551  1.00  0.00     0.032 C 
HETATM    5  C   UNL     1     -21.889  -7.606  -2.338  1.00  0.00    -0.022 C 
HETATM    6  C   UNL     1     -22.723  -7.223  -1.298  1.00  0.00     0.012 C 
HETATM    7  C   UNL     1     -22.212  -7.174  -0.015  1.00  0.00     0.001 C 
HETATM    8  C   UNL     1     -21.082  -7.928   0.259  1.00  0.00     0.001 C 
HETATM    9  C   UNL     1     -20.500  -8.710  -0.751  1.00  0.00     0.014 C 
HETATM   10  C   UNL     1     -20.850  -8.516  -2.111  1.00  0.00     0.005 C 
ENDROOT
BRANCH   1  11
HETATM   11  N   UNL     1     -19.349 -10.236  -3.145  1.00  0.00    -0.297 N 
HETATM   12  N   UNL     1     -18.158  -9.919  -3.396  1.00  0.00    -0.297 N 
ATOM     13  HN  UNL     1     -17.881  -8.946  -3.519  1.00  0.00     0.187 HD
ATOM     14  HN  UNL     1     -19.660 -11.176  -2.899  1.00  0.00     0.187 HD
BRANCH  12  15
HETATM   15  C   UNL     1     -17.211 -10.981  -3.500  1.00  0.00     0.082 A 
HETATM   16  C   UNL     1     -16.757 -11.485  -4.743  1.00  0.00     0.058 A 
HETATM   17  C   UNL     1     -15.788 -12.506  -4.808  1.00  0.00     0.077 A 
HETATM   18  C   UNL     1     -15.224 -13.039  -3.657  1.00  0.00     0.028 A 
HETATM   19  C   UNL     1     -15.652 -12.559  -2.429  1.00  0.00     0.040 A 
HETATM   20  C   UNL     1     -16.633 -11.549  -2.333  1.00  0.00     0.096 A 
BRANCH  17  21
HETATM   21  S   UNL     1     -15.254 -13.162  -6.373  1.00  0.00     0.243 S 
HETATM   22  O   UNL     1     -14.309 -14.223  -6.084  1.00  0.00    -0.206 OA
HETATM   23  O   UNL     1     -14.924 -12.048  -7.249  1.00  0.00    -0.206 OA
BRANCH  21  24
HETATM   24  N   UNL     1     -16.687 -13.896  -6.984  1.00  0.00    -0.207 NA
BRANCH  24  25
HETATM   25  C   UNL     1     -17.281 -13.182  -8.151  1.00  0.00     0.103 C 
HETATM   26  C   UNL     1     -18.593 -12.485  -7.829  1.00  0.00     0.021 C 
ENDBRANCH  24  25
BRANCH  24  27
HETATM   27  C   UNL     1     -16.622 -15.388  -7.106  1.00  0.00     0.103 C 
HETATM   28  C   UNL     1     -17.355 -15.931  -8.319  1.00  0.00     0.021 C 
ENDBRANCH  24  27
ENDBRANCH  21  24
ENDBRANCH  17  21
BRANCH  20  29
HETATM   29  O   UNL     1     -16.857 -11.245  -1.012  1.00  0.00    -0.354 OA
HETATM   30  C   UNL     1     -16.208 -11.987   0.002  1.00  0.00     0.210 C 
ENDBRANCH  20  29
ENDBRANCH  12  15
ENDBRANCH   1  11
BRANCH   2  31
HETATM   31  O   UNL     1     -19.749  -8.923  -5.626  1.00  0.00    -0.357 OA
HETATM   32  H   UNL     1     -19.428  -9.818  -5.399  1.00  0.00     0.217 HD
ENDBRANCH   2  31
BRANCH   3  33
HETATM   33  C   UNL     1     -21.022  -6.188  -5.658  1.00  0.00     0.259 C 
HETATM   34  O   UNL     1     -21.037  -4.997  -5.297  1.00  0.00    -0.267 OA
HETATM   35  N   UNL     1     -20.991  -6.596  -6.955  1.00  0.00    -0.320 N 
HETATM   36  H   UNL     1     -21.194  -7.567  -7.131  1.00  0.00     0.169 HD
BRANCH  35  37
HETATM   37  C   UNL     1     -21.207  -5.672  -8.006  1.00  0.00     0.070 A 
HETATM   38  C   UNL     1     -22.517  -5.456  -8.470  1.00  0.00     0.059 A 
HETATM   39  C   UNL     1     -22.805  -4.482  -9.438  1.00  0.00     0.069 A 
HETATM   40  C   UNL     1     -21.764  -3.728  -9.985  1.00  0.00     0.092 A 
HETATM   41 CL   UNL     1     -24.483  -4.259  -9.784  1.00  0.00    -0.081 Cl
HETATM   42  C   UNL     1     -20.451  -3.962  -9.532  1.00  0.00     0.077 A 
HETATM   43  C   UNL     1     -20.156  -4.933  -8.567  1.00  0.00     0.097 A 
BRANCH  40  44
HETATM   44  O   UNL     1     -21.834  -2.694 -10.881  1.00  0.00    -0.354 OA
HETATM   45  C   UNL     1     -22.280  -2.968 -12.202  1.00  0.00     0.210 C 
ENDBRANCH  40  44
BRANCH  43  46
HETATM   46  O   UNL     1     -18.831  -5.051  -8.240  1.00  0.00    -0.354 OA
HETATM   47  C   UNL     1     -18.329  -4.127  -7.275  1.00  0.00     0.210 C 
ENDBRANCH  43  46
ENDBRANCH  35  37
ENDBRANCH   3  33
TORSDOF 12
BEGIN_RES ARG D 557
REMARK  4 active torsions:
REMARK  status: ('A' for Active; 'I' for Inactive)
REMARK    1  A    between atoms: CA   and  CB  
REMARK    2  A    between atoms: CB   and  CG  
REMARK    3  A    between atoms: CG   and  CD  
REMARK    4  A    between atoms: CD   and  NE  
REMARK       I    between atoms: NE   and  CZ  
REMARK       I    between atoms: CZ   and  NH1 
REMARK       I    between atoms: CZ   and  NH2 
ROOT
ATOM      1  CA  ARG D 557     -26.217   2.705 -17.014  1.00 35.49     0.159 C 
ENDROOT
BRANCH   1   2
ATOM      2  CB  ARG D 557     -26.789   1.319 -17.183  1.00 35.49     0.034 C 
BRANCH   2   3
ATOM      3  CG  ARG D 557     -28.216   1.152 -16.882  1.00 35.49     0.027 C 
BRANCH   3   4
ATOM      4  CD  ARG D 557     -28.605  -0.272 -16.765  1.00 35.49     0.116 C 
BRANCH   4   5
ATOM      5  NE  ARG D 557     -27.617  -1.049 -16.064  1.00 35.49    -0.212 N 
ATOM      6  CZ  ARG D 557     -27.470  -2.353 -16.139  1.00 35.49     0.666 C 
ATOM      7  NH1 ARG D 557     -28.252  -3.113 -16.882  1.00 35.49    -0.235 N 
ATOM      8  NH2 ARG D 557     -26.505  -2.888 -15.449  1.00 35.49    -0.235 N 
ATOM      9  HH  ARG D 557     -28.892  -2.781 -17.346  1.00 35.49     0.174 HD
ATOM     10  HH  ARG D 557     -28.107  -3.957 -16.894  1.00 35.49     0.174 HD
ATOM     11  HH  ARG D 557     -26.011  -2.372 -14.984  1.00 35.49     0.174 HD
ATOM     12  HH  ARG D 557     -26.377  -3.726 -15.475  1.00 35.49     0.174 HD
ATOM     13  HE  ARG D 557     -27.117  -0.648 -15.505  1.00 35.49     0.178 HD
ENDBRANCH   4   5
ENDBRANCH   3   4
ENDBRANCH   2   3
ENDBRANCH   1   2
END_RES ARG D 557
BEGIN_RES GLU D 570
REMARK  3 active torsions:
REMARK  status: ('A' for Active; 'I' for Inactive)
REMARK    5  A    between atoms: CA   and  CB  
REMARK    6  A    between atoms: CB   and  CG  
REMARK    7  A    between atoms: CG   and  CD  
ROOT
ATOM     14  CA  GLU D 570     -18.033  -6.348 -13.375  1.00 32.92     0.160 C 
ENDROOT
BRANCH  14  15
ATOM     15  CB  GLU D 570     -19.500  -6.345 -13.794  1.00 32.92     0.043 C 
BRANCH  15  16
ATOM     16  CG  GLU D 570     -20.086  -7.634 -14.244  1.00 32.92     0.100 C 
BRANCH  16  17
ATOM     17  CD  GLU D 570     -20.762  -7.536 -15.592  1.00 32.92     0.185 C 
ATOM     18  OE1 GLU D 570     -20.960  -6.411 -16.089  1.00 32.92    -0.647 OA
ATOM     19  OE2 GLU D 570     -21.112  -8.595 -16.149  1.00 32.92    -0.647 OA
ENDBRANCH  16  17
ENDBRANCH  15  16
ENDBRANCH  14  15
END_RES GLU D 570
ENDMDL
MODEL 9
REMARK VINA RESULT:      -7.5      3.467      9.135
REMARK  12 active torsions:
REMARK  status: ('A' for Active; 'I' for Inactive)
REMARK    1  A    between atoms: C_2  and  N_3 
REMARK    2  A    between atoms: N_3  and  C_4 
REMARK    3  A    between atoms: N_3  and  S_6 
REMARK    4  A    between atoms: S_6  and  C_9 
REMARK    5  A    between atoms: C_11  and  N_17 
REMARK    6  A    between atoms: C_12  and  O_15 
REMARK    7  A    between atoms: N_19  and  C_21 
REMARK    8  A    between atoms: C_22  and  O_45 
REMARK    9  A    between atoms: C_23  and  C_31 
REMARK       I    between atoms: C_31  and  N_33 
REMARK   10  A    between atoms: N_33  and  C_34 
REMARK   11  A    between atoms: C_37  and  O_42 
REMARK   12  A    between atoms: C_39  and  O_40 
ROOT
HETATM    1  C   UNL     1     -19.907  -9.294  -2.556  1.00  0.00     0.093 C 
HETATM    2  C   UNL     1     -20.038  -8.593  -3.789  1.00  0.00     0.110 C 
HETATM    3  C   UNL     1     -20.881  -7.472  -3.895  1.00  0.00     0.068 C 
HETATM    4  C   UNL     1     -21.831  -7.279  -2.894  1.00  0.00     0.032 C 
HETATM    5  C   UNL     1     -21.746  -7.976  -1.696  1.00  0.00    -0.022 C 
HETATM    6  C   UNL     1     -22.664  -7.696  -0.695  1.00  0.00     0.012 C 
HETATM    7  C   UNL     1     -22.228  -7.648   0.616  1.00  0.00     0.001 C 
HETATM    8  C   UNL     1     -21.057  -8.317   0.931  1.00  0.00     0.001 C 
HETATM    9  C   UNL     1     -20.359  -9.016  -0.066  1.00  0.00     0.014 C 
HETATM   10  C   UNL     1     -20.650  -8.807  -1.438  1.00  0.00     0.005 C 
ENDROOT
BRANCH   1  11
HETATM   11  N   UNL     1     -18.960 -10.365  -2.434  1.00  0.00    -0.297 N 
HETATM   12  N   UNL     1     -17.812  -9.987  -2.780  1.00  0.00    -0.297 N 
ATOM     13  HN  UNL     1     -17.612  -9.008  -2.982  1.00  0.00     0.187 HD
ATOM     14  HN  UNL     1     -19.188 -11.305  -2.110  1.00  0.00     0.187 HD
BRANCH  12  15
HETATM   15  C   UNL     1     -16.800 -10.988  -2.878  1.00  0.00     0.082 A 
HETATM   16  C   UNL     1     -16.162 -11.317  -4.099  1.00  0.00     0.058 A 
HETATM   17  C   UNL     1     -15.135 -12.281  -4.151  1.00  0.00     0.077 A 
HETATM   18  C   UNL     1     -14.693 -12.926  -3.003  1.00  0.00     0.028 A 
HETATM   19  C   UNL     1     -15.302 -12.618  -1.797  1.00  0.00     0.040 A 
HETATM   20  C   UNL     1     -16.344 -11.668  -1.717  1.00  0.00     0.096 A 
BRANCH  17  21
HETATM   21  S   UNL     1     -14.369 -12.719  -5.695  1.00  0.00     0.243 S 
HETATM   22  O   UNL     1     -12.955 -12.429  -5.559  1.00  0.00    -0.206 OA
HETATM   23  O   UNL     1     -15.171 -12.169  -6.778  1.00  0.00    -0.206 OA
BRANCH  21  24
HETATM   24  N   UNL     1     -14.547 -14.431  -5.734  1.00  0.00    -0.207 NA
BRANCH  24  25
HETATM   25  C   UNL     1     -15.826 -14.892  -6.347  1.00  0.00     0.103 C 
HETATM   26  C   UNL     1     -16.831 -15.410  -5.330  1.00  0.00     0.021 C 
ENDBRANCH  24  25
BRANCH  24  27
HETATM   27  C   UNL     1     -13.320 -15.177  -6.164  1.00  0.00     0.103 C 
HETATM   28  C   UNL     1     -12.800 -16.144  -5.118  1.00  0.00     0.021 C 
ENDBRANCH  24  27
ENDBRANCH  21  24
ENDBRANCH  17  21
BRANCH  20  29
HETATM   29  O   UNL     1     -16.752 -11.538  -0.412  1.00  0.00    -0.354 OA
HETATM   30  C   UNL     1     -16.015 -12.158   0.623  1.00  0.00     0.210 C 
ENDBRANCH  20  29
ENDBRANCH  12  15
ENDBRANCH   1  11
BRANCH   2  31
HETATM   31  O   UNL     1     -19.332  -9.007  -4.895  1.00  0.00    -0.357 OA
HETATM   32  H   UNL     1     -18.387  -9.004  -4.644  1.00  0.00     0.217 HD
ENDBRANCH   2  31
BRANCH   3  33
HETATM   33  C   UNL     1     -20.821  -6.384  -4.920  1.00  0.00     0.259 C 
HETATM   34  O   UNL     1     -20.595  -5.226  -4.523  1.00  0.00    -0.267 OA
HETATM   35  N   UNL     1     -21.077  -6.714  -6.215  1.00  0.00    -0.320 N 
HETATM   36  H   UNL     1     -21.451  -7.634  -6.384  1.00  0.00     0.169 HD
BRANCH  35  37
HETATM   37  C   UNL     1     -21.331  -5.708  -7.177  1.00  0.00     0.070 A 
HETATM   38  C   UNL     1     -20.484  -5.597  -8.294  1.00  0.00     0.059 A 
HETATM   39  C   UNL     1     -20.743  -4.686  -9.328  1.00  0.00     0.069 A 
HETATM   40  C   UNL     1     -21.850  -3.839  -9.238  1.00  0.00     0.092 A 
HETATM   41 CL   UNL     1     -19.677  -4.786 -10.685  1.00  0.00    -0.081 Cl
HETATM   42  C   UNL     1     -22.685  -3.938  -8.107  1.00  0.00     0.077 A 
HETATM   43  C   UNL     1     -22.431  -4.845  -7.070  1.00  0.00     0.097 A 
BRANCH  40  44
HETATM   44  O   UNL     1     -22.316  -2.935 -10.156  1.00  0.00    -0.354 OA
HETATM   45  C   UNL     1     -22.852  -3.423 -11.378  1.00  0.00     0.210 C 
ENDBRANCH  40  44
BRANCH  43  46
HETATM   46  O   UNL     1     -23.326  -4.814  -6.033  1.00  0.00    -0.354 OA
HETATM   47  C   UNL     1     -24.031  -6.026  -5.765  1.00  0.00     0.210 C 
ENDBRANCH  43  46
ENDBRANCH  35  37
ENDBRANCH   3  33
TORSDOF 12
BEGIN_RES ARG D 557
REMARK  4 active torsions:
REMARK  status: ('A' for Active; 'I' for Inactive)
REMARK    1  A    between atoms: CA   and  CB  
REMARK    2  A    between atoms: CB   and  CG  
REMARK    3  A    between atoms: CG   and  CD  
REMARK    4  A    between atoms: CD   and  NE  
REMARK       I    between atoms: NE   and  CZ  
REMARK       I    between atoms: CZ   and  NH1 
REMARK       I    between atoms: CZ   and  NH2 
ROOT
ATOM      1  CA  ARG D 557     -26.217   2.705 -17.014  1.00 35.49     0.159 C 
ENDROOT
BRANCH   1   2
ATOM      2  CB  ARG D 557     -26.789   1.319 -17.183  1.00 35.49     0.034 C 
BRANCH   2   3
ATOM      3  CG  ARG D 557     -28.233   1.226 -17.428  1.00 35.49     0.027 C 
BRANCH   3   4
ATOM      4  CD  ARG D 557     -28.906   0.298 -16.491  1.00 35.49     0.116 C 
BRANCH   4   5
ATOM      5  NE  ARG D 557     -29.311  -0.924 -17.135  1.00 35.49    -0.212 N 
ATOM      6  CZ  ARG D 557     -28.693  -2.080 -17.047  1.00 35.49     0.666 C 
ATOM      7  NH1 ARG D 557     -27.587  -2.241 -16.345  1.00 35.49    -0.235 N 
ATOM      8  NH2 ARG D 557     -29.215  -3.090 -17.681  1.00 35.49    -0.235 N 
ATOM      9  HH  ARG D 557     -27.227  -1.591 -15.918  1.00 35.49     0.174 HD
ATOM     10  HH  ARG D 557     -27.229  -3.019 -16.322  1.00 35.49     0.174 HD
ATOM     11  HH  ARG D 557     -29.933  -2.958 -18.121  1.00 35.49     0.174 HD
ATOM     12  HH  ARG D 557     -28.846  -3.853 -17.645  1.00 35.49     0.174 HD
ATOM     13  HE  ARG D 557     -29.974  -0.894 -17.666  1.00 35.49     0.178 HD
ENDBRANCH   4   5
ENDBRANCH   3   4
ENDBRANCH   2   3
ENDBRANCH   1   2
END_RES ARG D 557
BEGIN_RES GLU D 570
REMARK  3 active torsions:
REMARK  status: ('A' for Active; 'I' for Inactive)
REMARK    5  A    between atoms: CA   and  CB  
REMARK    6  A    between atoms: CB   and  CG  
REMARK    7  A    between atoms: CG   and  CD  
ROOT
ATOM     14  CA  GLU D 570     -18.033  -6.348 -13.375  1.00 32.92     0.160 C 
ENDROOT
BRANCH  14  15
ATOM     15  CB  GLU D 570     -19.500  -6.345 -13.794  1.00 32.92     0.043 C 
BRANCH  15  16
ATOM     16  CG  GLU D 570     -20.098  -7.643 -14.201  1.00 32.92     0.100 C 
BRANCH  16  17
ATOM     17  CD  GLU D 570     -20.731  -7.596 -15.572  1.00 32.92     0.185 C 
ATOM     18  OE1 GLU D 570     -20.962  -6.488 -16.094  1.00 32.92    -0.647 OA
ATOM     19  OE2 GLU D 570     -21.013  -8.678 -16.123  1.00 32.92    -0.647 OA
ENDBRANCH  16  17
ENDBRANCH  15  16
ENDBRANCH  14  15
END_RES GLU D 570
ENDMDL
