MODEL 1
REMARK VINA RESULT:      -6.9      0.000      0.000
REMARK  5 active torsions:
REMARK  status: ('A' for Active; 'I' for Inactive)
REMARK    1  A    between atoms: C_2  and  C_3 
REMARK    2  A    between atoms: C_3  and  O_4 
REMARK    3  A    between atoms: O_4  and  C_5 
REMARK    4  A    between atoms: C_5  and  C_7 
REMARK    5  A    between atoms: C_10  and  O_13 
ROOT
HETATM    1  C   UNL     1     -23.798  -3.760 -11.562  1.00  0.00     0.039 A 
HETATM    2  C   UNL     1     -23.524  -2.571 -12.257  1.00  0.00     0.020 A 
HETATM    3  C   UNL     1     -22.969  -2.613 -13.538  1.00  0.00     0.037 A 
HETATM    4  C   UNL     1     -22.687  -3.845 -14.120  1.00  0.00     0.065 A 
HETATM    5  C   UNL     1     -22.958  -5.032 -13.447  1.00  0.00     0.037 A 
HETATM    6  C   UNL     1     -23.522  -4.992 -12.168  1.00  0.00     0.020 A 
ENDROOT
BRANCH   1   7
HETATM    7  C   UNL     1     -24.452  -3.746 -10.224  1.00  0.00     0.293 C 
HETATM    8  O   UNL     1     -25.491  -3.157  -9.984  1.00  0.00    -0.259 OA
BRANCH   7   9
HETATM    9  O   UNL     1     -23.687  -4.427  -9.334  1.00  0.00    -0.318 OA
BRANCH   9  10
HETATM   10  C   UNL     1     -22.553  -3.725  -8.808  1.00  0.00     0.178 C 
BRANCH  10  11
HETATM   11  C   UNL     1     -21.285  -4.565  -8.874  1.00  0.00     0.022 C 
HETATM   12  C   UNL     1     -20.493  -4.225 -10.127  1.00  0.00     0.007 C 
ENDBRANCH  10  11
ENDBRANCH   9  10
ENDBRANCH   7   9
ENDBRANCH   1   7
BRANCH   4  13
HETATM   13  O   UNL     1     -22.144  -3.931 -15.367  1.00  0.00    -0.361 OA
HETATM   14  H   UNL     1     -22.819  -3.683 -16.021  1.00  0.00     0.217 HD
ENDBRANCH   4  13
TORSDOF 5
BEGIN_RES ARG D 557
REMARK  4 active torsions:
REMARK  status: ('A' for Active; 'I' for Inactive)
REMARK    1  A    between atoms: CA   and  CB  
REMARK    2  A    between atoms: CB   and  CG  
REMARK    3  A    between atoms: CG   and  CD  
REMARK    4  A    between atoms: CD   and  NE  
REMARK       I    between atoms: NE   and  CZ  
REMARK       I    between atoms: CZ   and  NH1 
REMARK       I    between atoms: CZ   and  NH2 
ROOT
ATOM      1  CA  ARG D 557     -26.217   2.705 -17.014  1.00 35.49     0.159 C 
ENDROOT
BRANCH   1   2
ATOM      2  CB  ARG D 557     -26.789   1.319 -17.183  1.00 35.49     0.034 C 
BRANCH   2   3
ATOM      3  CG  ARG D 557     -28.211   1.147 -16.861  1.00 35.49     0.027 C 
BRANCH   3   4
ATOM      4  CD  ARG D 557     -28.560  -0.265 -16.585  1.00 35.49     0.116 C 
BRANCH   4   5
ATOM      5  NE  ARG D 557     -27.508  -0.957 -15.888  1.00 35.49    -0.212 N 
ATOM      6  CZ  ARG D 557     -27.266  -2.248 -15.950  1.00 35.49     0.666 C 
ATOM      7  NH1 ARG D 557     -27.999  -3.073 -16.674  1.00 35.49    -0.235 N 
ATOM      8  NH2 ARG D 557     -26.255  -2.702 -15.268  1.00 35.49    -0.235 N 
ATOM      9  HH  ARG D 557     -28.668  -2.795 -17.132  1.00 35.49     0.174 HD
ATOM     10  HH  ARG D 557     -27.792  -3.904 -16.678  1.00 35.49     0.174 HD
ATOM     11  HH  ARG D 557     -25.795  -2.145 -14.815  1.00 35.49     0.174 HD
ATOM     12  HH  ARG D 557     -26.065  -3.528 -15.286  1.00 35.49     0.174 HD
ATOM     13  HE  ARG D 557     -27.032  -0.514 -15.341  1.00 35.49     0.178 HD
ENDBRANCH   4   5
ENDBRANCH   3   4
ENDBRANCH   2   3
ENDBRANCH   1   2
END_RES ARG D 557
BEGIN_RES GLU D 570
REMARK  3 active torsions:
REMARK  status: ('A' for Active; 'I' for Inactive)
REMARK    5  A    between atoms: CA   and  CB  
REMARK    6  A    between atoms: CB   and  CG  
REMARK    7  A    between atoms: CG   and  CD  
ROOT
ATOM     14  CA  GLU D 570     -18.033  -6.348 -13.375  1.00 32.92     0.160 C 
ENDROOT
BRANCH  14  15
ATOM     15  CB  GLU D 570     -19.500  -6.345 -13.794  1.00 32.92     0.043 C 
BRANCH  15  16
ATOM     16  CG  GLU D 570     -19.796  -6.271 -15.248  1.00 32.92     0.100 C 
BRANCH  16  17
ATOM     17  CD  GLU D 570     -20.842  -7.270 -15.688  1.00 32.92     0.185 C 
ATOM     18  OE1 GLU D 570     -20.656  -8.480 -15.460  1.00 32.92    -0.647 OA
ATOM     19  OE2 GLU D 570     -21.850  -6.838 -16.281  1.00 32.92    -0.647 OA
ENDBRANCH  16  17
ENDBRANCH  15  16
ENDBRANCH  14  15
END_RES GLU D 570
ENDMDL
MODEL 2
REMARK VINA RESULT:      -6.7      2.416      3.455
REMARK  5 active torsions:
REMARK  status: ('A' for Active; 'I' for Inactive)
REMARK    1  A    between atoms: C_2  and  C_3 
REMARK    2  A    between atoms: C_3  and  O_4 
REMARK    3  A    between atoms: O_4  and  C_5 
REMARK    4  A    between atoms: C_5  and  C_7 
REMARK    5  A    between atoms: C_10  and  O_13 
ROOT
HETATM    1  C   UNL     1     -21.959  -4.117  -8.761  1.00  0.00     0.039 A 
HETATM    2  C   UNL     1     -20.724  -4.195  -9.425  1.00  0.00     0.020 A 
HETATM    3  C   UNL     1     -20.642  -3.943 -10.796  1.00  0.00     0.037 A 
HETATM    4  C   UNL     1     -21.796  -3.615 -11.501  1.00  0.00     0.065 A 
HETATM    5  C   UNL     1     -23.026  -3.528 -10.856  1.00  0.00     0.037 A 
HETATM    6  C   UNL     1     -23.109  -3.772  -9.483  1.00  0.00     0.020 A 
ENDROOT
BRANCH   1   7
HETATM    7  C   UNL     1     -22.064  -4.316  -7.289  1.00  0.00     0.293 C 
HETATM    8  O   UNL     1     -23.104  -4.584  -6.713  1.00  0.00    -0.259 OA
BRANCH   7   9
HETATM    9  O   UNL     1     -20.856  -4.097  -6.711  1.00  0.00    -0.318 OA
BRANCH   9  10
HETATM   10  C   UNL     1     -20.486  -4.998  -5.660  1.00  0.00     0.178 C 
BRANCH  10  11
HETATM   11  C   UNL     1     -20.186  -6.394  -6.189  1.00  0.00     0.022 C 
HETATM   12  C   UNL     1     -21.069  -7.421  -5.495  1.00  0.00     0.007 C 
ENDBRANCH  10  11
ENDBRANCH   9  10
ENDBRANCH   7   9
ENDBRANCH   1   7
BRANCH   4  13
HETATM   13  O   UNL     1     -21.760  -3.361 -12.839  1.00  0.00    -0.361 OA
HETATM   14  H   UNL     1     -21.248  -2.550 -12.991  1.00  0.00     0.217 HD
ENDBRANCH   4  13
TORSDOF 5
BEGIN_RES ARG D 557
REMARK  4 active torsions:
REMARK  status: ('A' for Active; 'I' for Inactive)
REMARK    1  A    between atoms: CA   and  CB  
REMARK    2  A    between atoms: CB   and  CG  
REMARK    3  A    between atoms: CG   and  CD  
REMARK    4  A    between atoms: CD   and  NE  
REMARK       I    between atoms: NE   and  CZ  
REMARK       I    between atoms: CZ   and  NH1 
REMARK       I    between atoms: CZ   and  NH2 
ROOT
ATOM      1  CA  ARG D 557     -26.217   2.705 -17.014  1.00 35.49     0.159 C 
ENDROOT
BRANCH   1   2
ATOM      2  CB  ARG D 557     -26.789   1.319 -17.183  1.00 35.49     0.034 C 
BRANCH   2   3
ATOM      3  CG  ARG D 557     -25.834   0.205 -17.176  1.00 35.49     0.027 C 
BRANCH   3   4
ATOM      4  CD  ARG D 557     -24.767   0.383 -16.164  1.00 35.49     0.116 C 
BRANCH   4   5
ATOM      5  NE  ARG D 557     -24.944  -0.486 -15.030  1.00 35.49    -0.212 N 
ATOM      6  CZ  ARG D 557     -24.131  -1.452 -14.668  1.00 35.49     0.666 C 
ATOM      7  NH1 ARG D 557     -23.034  -1.746 -15.342  1.00 35.49    -0.235 N 
ATOM      8  NH2 ARG D 557     -24.438  -2.126 -13.598  1.00 35.49    -0.235 N 
ATOM      9  HH  ARG D 557     -22.811  -1.314 -16.048  1.00 35.49     0.174 HD
ATOM     10  HH  ARG D 557     -22.540  -2.385 -15.057  1.00 35.49     0.174 HD
ATOM     11  HH  ARG D 557     -25.149  -1.910 -13.179  1.00 35.49     0.174 HD
ATOM     12  HH  ARG D 557     -23.935  -2.755 -13.331  1.00 35.49     0.174 HD
ATOM     13  HE  ARG D 557     -25.663  -0.414 -14.581  1.00 35.49     0.178 HD
ENDBRANCH   4   5
ENDBRANCH   3   4
ENDBRANCH   2   3
ENDBRANCH   1   2
END_RES ARG D 557
BEGIN_RES GLU D 570
REMARK  3 active torsions:
REMARK  status: ('A' for Active; 'I' for Inactive)
REMARK    5  A    between atoms: CA   and  CB  
REMARK    6  A    between atoms: CB   and  CG  
REMARK    7  A    between atoms: CG   and  CD  
ROOT
ATOM     14  CA  GLU D 570     -18.033  -6.348 -13.375  1.00 32.92     0.160 C 
ENDROOT
BRANCH  14  15
ATOM     15  CB  GLU D 570     -19.500  -6.345 -13.794  1.00 32.92     0.043 C 
BRANCH  15  16
ATOM     16  CG  GLU D 570     -19.820  -5.864 -15.163  1.00 32.92     0.100 C 
BRANCH  16  17
ATOM     17  CD  GLU D 570     -21.302  -5.677 -15.390  1.00 32.92     0.185 C 
ATOM     18  OE1 GLU D 570     -22.049  -6.674 -15.362  1.00 32.92    -0.647 OA
ATOM     19  OE2 GLU D 570     -21.718  -4.523 -15.616  1.00 32.92    -0.647 OA
ENDBRANCH  16  17
ENDBRANCH  15  16
ENDBRANCH  14  15
END_RES GLU D 570
ENDMDL
MODEL 3
REMARK VINA RESULT:      -6.5      1.570      3.565
REMARK  5 active torsions:
REMARK  status: ('A' for Active; 'I' for Inactive)
REMARK    1  A    between atoms: C_2  and  C_3 
REMARK    2  A    between atoms: C_3  and  O_4 
REMARK    3  A    between atoms: O_4  and  C_5 
REMARK    4  A    between atoms: C_5  and  C_7 
REMARK    5  A    between atoms: C_10  and  O_13 
ROOT
HETATM    1  C   UNL     1     -22.713  -3.543 -10.574  1.00  0.00     0.039 A 
HETATM    2  C   UNL     1     -21.452  -3.840 -11.115  1.00  0.00     0.020 A 
HETATM    3  C   UNL     1     -20.418  -4.291 -10.292  1.00  0.00     0.037 A 
HETATM    4  C   UNL     1     -20.648  -4.444  -8.929  1.00  0.00     0.065 A 
HETATM    5  C   UNL     1     -21.894  -4.160  -8.378  1.00  0.00     0.037 A 
HETATM    6  C   UNL     1     -22.932  -3.716  -9.201  1.00  0.00     0.020 A 
ENDROOT
BRANCH   1   7
HETATM    7  C   UNL     1     -23.851  -3.124 -11.439  1.00  0.00     0.293 C 
HETATM    8  O   UNL     1     -25.020  -3.188 -11.100  1.00  0.00    -0.259 OA
BRANCH   7   9
HETATM    9  O   UNL     1     -23.383  -2.728 -12.650  1.00  0.00    -0.318 OA
BRANCH   9  10
HETATM   10  C   UNL     1     -23.952  -3.382 -13.791  1.00  0.00     0.178 C 
BRANCH  10  11
HETATM   11  C   UNL     1     -23.032  -4.462 -14.343  1.00  0.00     0.022 C 
HETATM   12  C   UNL     1     -23.524  -5.838 -13.921  1.00  0.00     0.007 C 
ENDBRANCH  10  11
ENDBRANCH   9  10
ENDBRANCH   7   9
ENDBRANCH   1   7
BRANCH   4  13
HETATM   13  O   UNL     1     -19.667  -4.881  -8.089  1.00  0.00    -0.361 OA
HETATM   14  H   UNL     1     -20.041  -4.991  -7.200  1.00  0.00     0.217 HD
ENDBRANCH   4  13
TORSDOF 5
BEGIN_RES ARG D 557
REMARK  4 active torsions:
REMARK  status: ('A' for Active; 'I' for Inactive)
REMARK    1  A    between atoms: CA   and  CB  
REMARK    2  A    between atoms: CB   and  CG  
REMARK    3  A    between atoms: CG   and  CD  
REMARK    4  A    between atoms: CD   and  NE  
REMARK       I    between atoms: NE   and  CZ  
REMARK       I    between atoms: CZ   and  NH1 
REMARK       I    between atoms: CZ   and  NH2 
ROOT
ATOM      1  CA  ARG D 557     -26.217   2.705 -17.014  1.00 35.49     0.159 C 
ENDROOT
BRANCH   1   2
ATOM      2  CB  ARG D 557     -26.789   1.319 -17.183  1.00 35.49     0.034 C 
BRANCH   2   3
ATOM      3  CG  ARG D 557     -28.231   1.227 -17.444  1.00 35.49     0.027 C 
BRANCH   3   4
ATOM      4  CD  ARG D 557     -28.917   0.310 -16.505  1.00 35.49     0.116 C 
BRANCH   4   5
ATOM      5  NE  ARG D 557     -29.297  -0.927 -17.134  1.00 35.49    -0.212 N 
ATOM      6  CZ  ARG D 557     -28.658  -2.071 -17.027  1.00 35.49     0.666 C 
ATOM      7  NH1 ARG D 557     -27.554  -2.203 -16.317  1.00 35.49    -0.235 N 
ATOM      8  NH2 ARG D 557     -29.158  -3.098 -17.651  1.00 35.49    -0.235 N 
ATOM      9  HH  ARG D 557     -27.208  -1.541 -15.896  1.00 35.49     0.174 HD
ATOM     10  HH  ARG D 557     -27.182  -2.974 -16.281  1.00 35.49     0.174 HD
ATOM     11  HH  ARG D 557     -29.877  -2.985 -18.096  1.00 35.49     0.174 HD
ATOM     12  HH  ARG D 557     -28.777  -3.853 -17.602  1.00 35.49     0.174 HD
ATOM     13  HE  ARG D 557     -29.957  -0.916 -17.670  1.00 35.49     0.178 HD
ENDBRANCH   4   5
ENDBRANCH   3   4
ENDBRANCH   2   3
ENDBRANCH   1   2
END_RES ARG D 557
BEGIN_RES GLU D 570
REMARK  3 active torsions:
REMARK  status: ('A' for Active; 'I' for Inactive)
REMARK    5  A    between atoms: CA   and  CB  
REMARK    6  A    between atoms: CB   and  CG  
REMARK    7  A    between atoms: CG   and  CD  
ROOT
ATOM     14  CA  GLU D 570     -18.033  -6.348 -13.375  1.00 32.92     0.160 C 
ENDROOT
BRANCH  14  15
ATOM     15  CB  GLU D 570     -19.500  -6.345 -13.794  1.00 32.92     0.043 C 
BRANCH  15  16
ATOM     16  CG  GLU D 570     -20.088  -7.636 -14.237  1.00 32.92     0.100 C 
BRANCH  16  17
ATOM     17  CD  GLU D 570     -20.678  -7.568 -15.627  1.00 32.92     0.185 C 
ATOM     18  OE1 GLU D 570     -21.182  -8.595 -16.120  1.00 32.92    -0.647 OA
ATOM     19  OE2 GLU D 570     -20.620  -6.481 -16.234  1.00 32.92    -0.647 OA
ENDBRANCH  16  17
ENDBRANCH  15  16
ENDBRANCH  14  15
END_RES GLU D 570
ENDMDL
MODEL 4
REMARK VINA RESULT:      -6.4      3.020      4.557
REMARK  5 active torsions:
REMARK  status: ('A' for Active; 'I' for Inactive)
REMARK    1  A    between atoms: C_2  and  C_3 
REMARK    2  A    between atoms: C_3  and  O_4 
REMARK    3  A    between atoms: O_4  and  C_5 
REMARK    4  A    between atoms: C_5  and  C_7 
REMARK    5  A    between atoms: C_10  and  O_13 
ROOT
HETATM    1  C   UNL     1     -21.134  -4.684  -7.727  1.00  0.00     0.039 A 
HETATM    2  C   UNL     1     -22.517  -4.465  -7.611  1.00  0.00     0.020 A 
HETATM    3  C   UNL     1     -23.246  -3.967  -8.692  1.00  0.00     0.037 A 
HETATM    4  C   UNL     1     -22.592  -3.687  -9.887  1.00  0.00     0.065 A 
HETATM    5  C   UNL     1     -21.224  -3.905 -10.021  1.00  0.00     0.037 A 
HETATM    6  C   UNL     1     -20.493  -4.411  -8.942  1.00  0.00     0.020 A 
ENDROOT
BRANCH   1   7
HETATM    7  C   UNL     1     -20.345  -5.276  -6.612  1.00  0.00     0.293 C 
HETATM    8  O   UNL     1     -19.683  -4.620  -5.827  1.00  0.00    -0.259 OA
BRANCH   7   9
HETATM    9  O   UNL     1     -20.437  -6.629  -6.654  1.00  0.00    -0.318 OA
BRANCH   9  10
HETATM   10  C   UNL     1     -20.613  -7.290  -5.395  1.00  0.00     0.178 C 
BRANCH  10  11
HETATM   11  C   UNL     1     -21.966  -6.974  -4.773  1.00  0.00     0.022 C 
HETATM   12  C   UNL     1     -21.786  -6.469  -3.349  1.00  0.00     0.007 C 
ENDBRANCH  10  11
ENDBRANCH   9  10
ENDBRANCH   7   9
ENDBRANCH   1   7
BRANCH   4  13
HETATM   13  O   UNL     1     -23.266  -3.200 -10.967  1.00  0.00    -0.361 OA
HETATM   14  H   UNL     1     -22.636  -2.749 -11.553  1.00  0.00     0.217 HD
ENDBRANCH   4  13
TORSDOF 5
BEGIN_RES ARG D 557
REMARK  4 active torsions:
REMARK  status: ('A' for Active; 'I' for Inactive)
REMARK    1  A    between atoms: CA   and  CB  
REMARK    2  A    between atoms: CB   and  CG  
REMARK    3  A    between atoms: CG   and  CD  
REMARK    4  A    between atoms: CD   and  NE  
REMARK       I    between atoms: NE   and  CZ  
REMARK       I    between atoms: CZ   and  NH1 
REMARK       I    between atoms: CZ   and  NH2 
ROOT
ATOM      1  CA  ARG D 557     -26.217   2.705 -17.014  1.00 35.49     0.159 C 
ENDROOT
BRANCH   1   2
ATOM      2  CB  ARG D 557     -26.789   1.319 -17.183  1.00 35.49     0.034 C 
BRANCH   2   3
ATOM      3  CG  ARG D 557     -25.837   0.202 -17.146  1.00 35.49     0.027 C 
BRANCH   3   4
ATOM      4  CD  ARG D 557     -24.757   0.415 -16.155  1.00 35.49     0.116 C 
BRANCH   4   5
ATOM      5  NE  ARG D 557     -24.899  -0.440 -15.006  1.00 35.49    -0.212 N 
ATOM      6  CZ  ARG D 557     -24.080  -1.410 -14.664  1.00 35.49     0.666 C 
ATOM      7  NH1 ARG D 557     -23.011  -1.719 -15.375  1.00 35.49    -0.235 N 
ATOM      8  NH2 ARG D 557     -24.353  -2.070 -13.577  1.00 35.49    -0.235 N 
ATOM      9  HH  ARG D 557     -22.812  -1.297 -16.093  1.00 35.49     0.174 HD
ATOM     10  HH  ARG D 557     -22.512  -2.360 -15.102  1.00 35.49     0.174 HD
ATOM     11  HH  ARG D 557     -25.046  -1.844 -13.134  1.00 35.49     0.174 HD
ATOM     12  HH  ARG D 557     -23.846  -2.700 -13.322  1.00 35.49     0.174 HD
ATOM     13  HE  ARG D 557     -25.600  -0.359 -14.532  1.00 35.49     0.178 HD
ENDBRANCH   4   5
ENDBRANCH   3   4
ENDBRANCH   2   3
ENDBRANCH   1   2
END_RES ARG D 557
BEGIN_RES GLU D 570
REMARK  3 active torsions:
REMARK  status: ('A' for Active; 'I' for Inactive)
REMARK    5  A    between atoms: CA   and  CB  
REMARK    6  A    between atoms: CB   and  CG  
REMARK    7  A    between atoms: CG   and  CD  
ROOT
ATOM     14  CA  GLU D 570     -18.033  -6.348 -13.375  1.00 32.92     0.160 C 
ENDROOT
BRANCH  14  15
ATOM     15  CB  GLU D 570     -19.500  -6.345 -13.794  1.00 32.92     0.043 C 
BRANCH  15  16
ATOM     16  CG  GLU D 570     -20.442  -5.533 -12.982  1.00 32.92     0.100 C 
BRANCH  16  17
ATOM     17  CD  GLU D 570     -21.745  -5.252 -13.695  1.00 32.92     0.185 C 
ATOM     18  OE1 GLU D 570     -22.234  -6.132 -14.429  1.00 32.92    -0.647 OA
ATOM     19  OE2 GLU D 570     -22.272  -4.135 -13.530  1.00 32.92    -0.647 OA
ENDBRANCH  16  17
ENDBRANCH  15  16
ENDBRANCH  14  15
END_RES GLU D 570
ENDMDL
MODEL 5
REMARK VINA RESULT:      -6.3      2.143      3.043
REMARK  5 active torsions:
REMARK  status: ('A' for Active; 'I' for Inactive)
REMARK    1  A    between atoms: C_2  and  C_3 
REMARK    2  A    between atoms: C_3  and  O_4 
REMARK    3  A    between atoms: O_4  and  C_5 
REMARK    4  A    between atoms: C_5  and  C_7 
REMARK    5  A    between atoms: C_10  and  O_13 
ROOT
HETATM    1  C   UNL     1     -22.125  -3.976  -8.769  1.00  0.00     0.039 A 
HETATM    2  C   UNL     1     -23.291  -3.634  -9.472  1.00  0.00     0.020 A 
HETATM    3  C   UNL     1     -23.251  -3.438 -10.854  1.00  0.00     0.037 A 
HETATM    4  C   UNL     1     -22.044  -3.583 -11.530  1.00  0.00     0.065 A 
HETATM    5  C   UNL     1     -20.881  -3.928 -10.849  1.00  0.00     0.037 A 
HETATM    6  C   UNL     1     -20.920  -4.132  -9.467  1.00  0.00     0.020 A 
ENDROOT
BRANCH   1   7
HETATM    7  C   UNL     1     -22.153  -4.256  -7.306  1.00  0.00     0.293 C 
HETATM    8  O   UNL     1     -23.148  -4.619  -6.705  1.00  0.00    -0.259 OA
BRANCH   7   9
HETATM    9  O   UNL     1     -20.937  -3.989  -6.767  1.00  0.00    -0.318 OA
BRANCH   9  10
HETATM   10  C   UNL     1     -20.492  -4.883  -5.739  1.00  0.00     0.178 C 
BRANCH  10  11
HETATM   11  C   UNL     1     -20.122  -6.250  -6.298  1.00  0.00     0.022 C 
HETATM   12  C   UNL     1     -20.914  -7.340  -5.591  1.00  0.00     0.007 C 
ENDBRANCH  10  11
ENDBRANCH   9  10
ENDBRANCH   7   9
ENDBRANCH   1   7
BRANCH   4  13
HETATM   13  O   UNL     1     -21.961  -3.401 -12.878  1.00  0.00    -0.361 OA
HETATM   14  H   UNL     1     -22.486  -4.088 -13.321  1.00  0.00     0.217 HD
ENDBRANCH   4  13
TORSDOF 5
BEGIN_RES ARG D 557
REMARK  4 active torsions:
REMARK  status: ('A' for Active; 'I' for Inactive)
REMARK    1  A    between atoms: CA   and  CB  
REMARK    2  A    between atoms: CB   and  CG  
REMARK    3  A    between atoms: CG   and  CD  
REMARK    4  A    between atoms: CD   and  NE  
REMARK       I    between atoms: NE   and  CZ  
REMARK       I    between atoms: CZ   and  NH1 
REMARK       I    between atoms: CZ   and  NH2 
ROOT
ATOM      1  CA  ARG D 557     -26.217   2.705 -17.014  1.00 35.49     0.159 C 
ENDROOT
BRANCH   1   2
ATOM      2  CB  ARG D 557     -26.789   1.319 -17.183  1.00 35.49     0.034 C 
BRANCH   2   3
ATOM      3  CG  ARG D 557     -25.923   0.196 -16.803  1.00 35.49     0.027 C 
BRANCH   3   4
ATOM      4  CD  ARG D 557     -26.653  -0.849 -16.049  1.00 35.49     0.116 C 
BRANCH   4   5
ATOM      5  NE  ARG D 557     -25.807  -1.526 -15.102  1.00 35.49    -0.212 N 
ATOM      6  CZ  ARG D 557     -25.851  -2.807 -14.811  1.00 35.49     0.666 C 
ATOM      7  NH1 ARG D 557     -26.719  -3.631 -15.368  1.00 35.49    -0.235 N 
ATOM      8  NH2 ARG D 557     -24.991  -3.255 -13.943  1.00 35.49    -0.235 N 
ATOM      9  HH  ARG D 557     -27.292  -3.358 -15.943  1.00 35.49     0.174 HD
ATOM     10  HH  ARG D 557     -26.699  -4.457 -15.141  1.00 35.49     0.174 HD
ATOM     11  HH  ARG D 557     -24.438  -2.701 -13.605  1.00 35.49     0.174 HD
ATOM     12  HH  ARG D 557     -24.987  -4.076 -13.732  1.00 35.49     0.174 HD
ATOM     13  HE  ARG D 557     -25.266  -1.057 -14.644  1.00 35.49     0.178 HD
ENDBRANCH   4   5
ENDBRANCH   3   4
ENDBRANCH   2   3
ENDBRANCH   1   2
END_RES ARG D 557
BEGIN_RES GLU D 570
REMARK  3 active torsions:
REMARK  status: ('A' for Active; 'I' for Inactive)
REMARK    5  A    between atoms: CA   and  CB  
REMARK    6  A    between atoms: CB   and  CG  
REMARK    7  A    between atoms: CG   and  CD  
ROOT
ATOM     14  CA  GLU D 570     -18.033  -6.348 -13.375  1.00 32.92     0.160 C 
ENDROOT
BRANCH  14  15
ATOM     15  CB  GLU D 570     -19.500  -6.345 -13.794  1.00 32.92     0.043 C 
BRANCH  15  16
ATOM     16  CG  GLU D 570     -19.802  -6.106 -15.229  1.00 32.92     0.100 C 
BRANCH  16  17
ATOM     17  CD  GLU D 570     -21.212  -5.618 -15.462  1.00 32.92     0.185 C 
ATOM     18  OE1 GLU D 570     -22.062  -5.774 -14.564  1.00 32.92    -0.647 OA
ATOM     19  OE2 GLU D 570     -21.474  -5.089 -16.560  1.00 32.92    -0.647 OA
ENDBRANCH  16  17
ENDBRANCH  15  16
ENDBRANCH  14  15
END_RES GLU D 570
ENDMDL
MODEL 6
REMARK VINA RESULT:      -6.1      2.400      3.800
REMARK  5 active torsions:
REMARK  status: ('A' for Active; 'I' for Inactive)
REMARK    1  A    between atoms: C_2  and  C_3 
REMARK    2  A    between atoms: C_3  and  O_4 
REMARK    3  A    between atoms: O_4  and  C_5 
REMARK    4  A    between atoms: C_5  and  C_7 
REMARK    5  A    between atoms: C_10  and  O_13 
ROOT
HETATM    1  C   UNL     1     -21.528  -4.420  -8.871  1.00  0.00     0.039 A 
HETATM    2  C   UNL     1     -22.750  -4.189  -8.218  1.00  0.00     0.020 A 
HETATM    3  C   UNL     1     -23.877  -3.802  -8.946  1.00  0.00     0.037 A 
HETATM    4  C   UNL     1     -23.779  -3.645 -10.325  1.00  0.00     0.065 A 
HETATM    5  C   UNL     1     -22.578  -3.875 -10.987  1.00  0.00     0.037 A 
HETATM    6  C   UNL     1     -21.450  -4.271 -10.261  1.00  0.00     0.020 A 
ENDROOT
BRANCH   1   7
HETATM    7  C   UNL     1     -20.329  -4.897  -8.128  1.00  0.00     0.293 C 
HETATM    8  O   UNL     1     -19.278  -4.283  -8.070  1.00  0.00    -0.259 OA
BRANCH   7   9
HETATM    9  O   UNL     1     -20.578  -6.120  -7.594  1.00  0.00    -0.318 OA
BRANCH   9  10
HETATM   10  C   UNL     1     -20.152  -6.317  -6.240  1.00  0.00     0.178 C 
BRANCH  10  11
HETATM   11  C   UNL     1     -20.959  -5.475  -5.263  1.00  0.00     0.022 C 
HETATM   12  C   UNL     1     -21.331  -6.299  -4.040  1.00  0.00     0.007 C 
ENDBRANCH  10  11
ENDBRANCH   9  10
ENDBRANCH   7   9
ENDBRANCH   1   7
BRANCH   4  13
HETATM   13  O   UNL     1     -24.855  -3.268 -11.073  1.00  0.00    -0.361 OA
HETATM   14  H   UNL     1     -25.433  -2.707 -10.530  1.00  0.00     0.217 HD
ENDBRANCH   4  13
TORSDOF 5
BEGIN_RES ARG D 557
REMARK  4 active torsions:
REMARK  status: ('A' for Active; 'I' for Inactive)
REMARK    1  A    between atoms: CA   and  CB  
REMARK    2  A    between atoms: CB   and  CG  
REMARK    3  A    between atoms: CG   and  CD  
REMARK    4  A    between atoms: CD   and  NE  
REMARK       I    between atoms: NE   and  CZ  
REMARK       I    between atoms: CZ   and  NH1 
REMARK       I    between atoms: CZ   and  NH2 
ROOT
ATOM      1  CA  ARG D 557     -26.217   2.705 -17.014  1.00 35.49     0.159 C 
ENDROOT
BRANCH   1   2
ATOM      2  CB  ARG D 557     -26.789   1.319 -17.183  1.00 35.49     0.034 C 
BRANCH   2   3
ATOM      3  CG  ARG D 557     -25.858   0.196 -17.023  1.00 35.49     0.027 C 
BRANCH   3   4
ATOM      4  CD  ARG D 557     -26.201  -0.661 -15.865  1.00 35.49     0.116 C 
BRANCH   4   5
ATOM      5  NE  ARG D 557     -25.075  -0.871 -14.993  1.00 35.49    -0.212 N 
ATOM      6  CZ  ARG D 557     -24.848  -1.951 -14.278  1.00 35.49     0.666 C 
ATOM      7  NH1 ARG D 557     -25.669  -2.985 -14.276  1.00 35.49    -0.235 N 
ATOM      8  NH2 ARG D 557     -23.764  -1.977 -13.559  1.00 35.49    -0.235 N 
ATOM      9  HH  ARG D 557     -26.387  -2.990 -14.744  1.00 35.49     0.174 HD
ATOM     10  HH  ARG D 557     -25.467  -3.663 -13.792  1.00 35.49     0.174 HD
ATOM     11  HH  ARG D 557     -23.250  -1.298 -13.585  1.00 35.49     0.174 HD
ATOM     12  HH  ARG D 557     -23.582  -2.658 -13.088  1.00 35.49     0.174 HD
ATOM     13  HE  ARG D 557     -24.534  -0.226 -14.878  1.00 35.49     0.178 HD
ENDBRANCH   4   5
ENDBRANCH   3   4
ENDBRANCH   2   3
ENDBRANCH   1   2
END_RES ARG D 557
BEGIN_RES GLU D 570
REMARK  3 active torsions:
REMARK  status: ('A' for Active; 'I' for Inactive)
REMARK    5  A    between atoms: CA   and  CB  
REMARK    6  A    between atoms: CB   and  CG  
REMARK    7  A    between atoms: CG   and  CD  
ROOT
ATOM     14  CA  GLU D 570     -18.033  -6.348 -13.375  1.00 32.92     0.160 C 
ENDROOT
BRANCH  14  15
ATOM     15  CB  GLU D 570     -19.500  -6.345 -13.794  1.00 32.92     0.043 C 
BRANCH  15  16
ATOM     16  CG  GLU D 570     -19.810  -5.978 -15.200  1.00 32.92     0.100 C 
BRANCH  16  17
ATOM     17  CD  GLU D 570     -21.287  -5.780 -15.446  1.00 32.92     0.185 C 
ATOM     18  OE1 GLU D 570     -22.069  -6.725 -15.227  1.00 32.92    -0.647 OA
ATOM     19  OE2 GLU D 570     -21.665  -4.673 -15.878  1.00 32.92    -0.647 OA
ENDBRANCH  16  17
ENDBRANCH  15  16
ENDBRANCH  14  15
END_RES GLU D 570
ENDMDL
MODEL 7
REMARK VINA RESULT:      -6.0      1.530      2.144
REMARK  5 active torsions:
REMARK  status: ('A' for Active; 'I' for Inactive)
REMARK    1  A    between atoms: C_2  and  C_3 
REMARK    2  A    between atoms: C_3  and  O_4 
REMARK    3  A    between atoms: O_4  and  C_5 
REMARK    4  A    between atoms: C_5  and  C_7 
REMARK    5  A    between atoms: C_10  and  O_13 
ROOT
HETATM    1  C   UNL     1     -22.721  -3.738  -9.673  1.00  0.00     0.039 A 
HETATM    2  C   UNL     1     -23.856  -3.365 -10.411  1.00  0.00     0.020 A 
HETATM    3  C   UNL     1     -23.759  -3.127 -11.784  1.00  0.00     0.037 A 
HETATM    4  C   UNL     1     -22.527  -3.260 -12.415  1.00  0.00     0.065 A 
HETATM    5  C   UNL     1     -21.394  -3.635 -11.700  1.00  0.00     0.037 A 
HETATM    6  C   UNL     1     -21.490  -3.882 -10.327  1.00  0.00     0.020 A 
ENDROOT
BRANCH   1   7
HETATM    7  C   UNL     1     -22.809  -4.062  -8.222  1.00  0.00     0.293 C 
HETATM    8  O   UNL     1     -23.846  -4.360  -7.656  1.00  0.00    -0.259 OA
BRANCH   7   9
HETATM    9  O   UNL     1     -21.589  -3.917  -7.646  1.00  0.00    -0.318 OA
BRANCH   9  10
HETATM   10  C   UNL     1     -21.283  -4.821  -6.577  1.00  0.00     0.178 C 
BRANCH  10  11
HETATM   11  C   UNL     1     -19.815  -4.754  -6.180  1.00  0.00     0.022 C 
HETATM   12  C   UNL     1     -18.946  -4.543  -7.411  1.00  0.00     0.007 C 
ENDBRANCH  10  11
ENDBRANCH   9  10
ENDBRANCH   7   9
ENDBRANCH   1   7
BRANCH   4  13
HETATM   13  O   UNL     1     -22.389  -3.037 -13.753  1.00  0.00    -0.361 OA
HETATM   14  H   UNL     1     -22.836  -2.204 -13.979  1.00  0.00     0.217 HD
ENDBRANCH   4  13
TORSDOF 5
BEGIN_RES ARG D 557
REMARK  4 active torsions:
REMARK  status: ('A' for Active; 'I' for Inactive)
REMARK    1  A    between atoms: CA   and  CB  
REMARK    2  A    between atoms: CB   and  CG  
REMARK    3  A    between atoms: CG   and  CD  
REMARK    4  A    between atoms: CD   and  NE  
REMARK       I    between atoms: NE   and  CZ  
REMARK       I    between atoms: CZ   and  NH1 
REMARK       I    between atoms: CZ   and  NH2 
ROOT
ATOM      1  CA  ARG D 557     -26.217   2.705 -17.014  1.00 35.49     0.159 C 
ENDROOT
BRANCH   1   2
ATOM      2  CB  ARG D 557     -26.789   1.319 -17.183  1.00 35.49     0.034 C 
BRANCH   2   3
ATOM      3  CG  ARG D 557     -28.219   1.155 -16.897  1.00 35.49     0.027 C 
BRANCH   3   4
ATOM      4  CD  ARG D 557     -28.591  -0.260 -16.671  1.00 35.49     0.116 C 
BRANCH   4   5
ATOM      5  NE  ARG D 557     -27.574  -0.980 -15.952  1.00 35.49    -0.212 N 
ATOM      6  CZ  ARG D 557     -27.354  -2.274 -16.021  1.00 35.49     0.666 C 
ATOM      7  NH1 ARG D 557     -28.081  -3.078 -16.775  1.00 35.49    -0.235 N 
ATOM      8  NH2 ARG D 557     -26.372  -2.755 -15.314  1.00 35.49    -0.235 N 
ATOM      9  HH  ARG D 557     -28.730  -2.783 -17.250  1.00 35.49     0.174 HD
ATOM     10  HH  ARG D 557     -27.890  -3.913 -16.782  1.00 35.49     0.174 HD
ATOM     11  HH  ARG D 557     -25.915  -2.211 -14.842  1.00 35.49     0.174 HD
ATOM     12  HH  ARG D 557     -26.198  -3.584 -15.336  1.00 35.49     0.174 HD
ATOM     13  HE  ARG D 557     -27.105  -0.551 -15.386  1.00 35.49     0.178 HD
ENDBRANCH   4   5
ENDBRANCH   3   4
ENDBRANCH   2   3
ENDBRANCH   1   2
END_RES ARG D 557
BEGIN_RES GLU D 570
REMARK  3 active torsions:
REMARK  status: ('A' for Active; 'I' for Inactive)
REMARK    5  A    between atoms: CA   and  CB  
REMARK    6  A    between atoms: CB   and  CG  
REMARK    7  A    between atoms: CG   and  CD  
ROOT
ATOM     14  CA  GLU D 570     -18.033  -6.348 -13.375  1.00 32.92     0.160 C 
ENDROOT
BRANCH  14  15
ATOM     15  CB  GLU D 570     -19.500  -6.345 -13.794  1.00 32.92     0.043 C 
BRANCH  15  16
ATOM     16  CG  GLU D 570     -19.813  -5.939 -15.189  1.00 32.92     0.100 C 
BRANCH  16  17
ATOM     17  CD  GLU D 570     -21.292  -5.745 -15.428  1.00 32.92     0.185 C 
ATOM     18  OE1 GLU D 570     -21.674  -5.302 -16.528  1.00 32.92    -0.647 OA
ATOM     19  OE2 GLU D 570     -22.076  -6.024 -14.500  1.00 32.92    -0.647 OA
ENDBRANCH  16  17
ENDBRANCH  15  16
ENDBRANCH  14  15
END_RES GLU D 570
ENDMDL
MODEL 8
REMARK VINA RESULT:      -5.9      1.770      2.637
REMARK  5 active torsions:
REMARK  status: ('A' for Active; 'I' for Inactive)
REMARK    1  A    between atoms: C_2  and  C_3 
REMARK    2  A    between atoms: C_3  and  O_4 
REMARK    3  A    between atoms: O_4  and  C_5 
REMARK    4  A    between atoms: C_5  and  C_7 
REMARK    5  A    between atoms: C_10  and  O_13 
ROOT
HETATM    1  C   UNL     1     -21.828  -4.064 -10.784  1.00  0.00     0.039 A 
HETATM    2  C   UNL     1     -21.732  -3.785 -12.157  1.00  0.00     0.020 A 
HETATM    3  C   UNL     1     -22.824  -3.258 -12.849  1.00  0.00     0.037 A 
HETATM    4  C   UNL     1     -24.011  -3.013 -12.166  1.00  0.00     0.065 A 
HETATM    5  C   UNL     1     -24.121  -3.279 -10.805  1.00  0.00     0.037 A 
HETATM    6  C   UNL     1     -23.026  -3.799 -10.109  1.00  0.00     0.020 A 
ENDROOT
BRANCH   1   7
HETATM    7  C   UNL     1     -20.658  -4.564 -10.008  1.00  0.00     0.293 C 
HETATM    8  O   UNL     1     -19.603  -4.901 -10.516  1.00  0.00    -0.259 OA
BRANCH   7   9
HETATM    9  O   UNL     1     -20.979  -4.633  -8.692  1.00  0.00    -0.318 OA
BRANCH   9  10
HETATM   10  C   UNL     1     -19.989  -4.150  -7.774  1.00  0.00     0.178 C 
BRANCH  10  11
HETATM   11  C   UNL     1     -20.265  -4.608  -6.349  1.00  0.00     0.022 C 
HETATM   12  C   UNL     1     -20.663  -6.076  -6.336  1.00  0.00     0.007 C 
ENDBRANCH  10  11
ENDBRANCH   9  10
ENDBRANCH   7   9
ENDBRANCH   1   7
BRANCH   4  13
HETATM   13  O   UNL     1     -25.101  -2.500 -12.804  1.00  0.00    -0.361 OA
HETATM   14  H   UNL     1     -24.801  -1.871 -13.481  1.00  0.00     0.217 HD
ENDBRANCH   4  13
TORSDOF 5
BEGIN_RES ARG D 557
REMARK  4 active torsions:
REMARK  status: ('A' for Active; 'I' for Inactive)
REMARK    1  A    between atoms: CA   and  CB  
REMARK    2  A    between atoms: CB   and  CG  
REMARK    3  A    between atoms: CG   and  CD  
REMARK    4  A    between atoms: CD   and  NE  
REMARK       I    between atoms: NE   and  CZ  
REMARK       I    between atoms: CZ   and  NH1 
REMARK       I    between atoms: CZ   and  NH2 
ROOT
ATOM      1  CA  ARG D 557     -26.217   2.705 -17.014  1.00 35.49     0.159 C 
ENDROOT
BRANCH   1   2
ATOM      2  CB  ARG D 557     -26.789   1.319 -17.183  1.00 35.49     0.034 C 
BRANCH   2   3
ATOM      3  CG  ARG D 557     -28.211   1.147 -16.861  1.00 35.49     0.027 C 
BRANCH   3   4
ATOM      4  CD  ARG D 557     -28.588  -0.277 -16.716  1.00 35.49     0.116 C 
BRANCH   4   5
ATOM      5  NE  ARG D 557     -27.586  -1.036 -16.015  1.00 35.49    -0.212 N 
ATOM      6  CZ  ARG D 557     -27.412  -2.336 -16.093  1.00 35.49     0.666 C 
ATOM      7  NH1 ARG D 557     -28.177  -3.110 -16.841  1.00 35.49    -0.235 N 
ATOM      8  NH2 ARG D 557     -26.438  -2.854 -15.403  1.00 35.49    -0.235 N 
ATOM      9  HH  ARG D 557     -28.822  -2.790 -17.305  1.00 35.49     0.174 HD
ATOM     10  HH  ARG D 557     -28.015  -3.951 -16.855  1.00 35.49     0.174 HD
ATOM     11  HH  ARG D 557     -25.956  -2.329 -14.935  1.00 35.49     0.174 HD
ATOM     12  HH  ARG D 557     -26.293  -3.689 -15.431  1.00 35.49     0.174 HD
ATOM     13  HE  ARG D 557     -27.096  -0.626 -15.454  1.00 35.49     0.178 HD
ENDBRANCH   4   5
ENDBRANCH   3   4
ENDBRANCH   2   3
ENDBRANCH   1   2
END_RES ARG D 557
BEGIN_RES GLU D 570
REMARK  3 active torsions:
REMARK  status: ('A' for Active; 'I' for Inactive)
REMARK    5  A    between atoms: CA   and  CB  
REMARK    6  A    between atoms: CB   and  CG  
REMARK    7  A    between atoms: CG   and  CD  
ROOT
ATOM     14  CA  GLU D 570     -18.033  -6.348 -13.375  1.00 32.92     0.160 C 
ENDROOT
BRANCH  14  15
ATOM     15  CB  GLU D 570     -19.500  -6.345 -13.794  1.00 32.92     0.043 C 
BRANCH  15  16
ATOM     16  CG  GLU D 570     -19.815  -5.916 -15.181  1.00 32.92     0.100 C 
BRANCH  16  17
ATOM     17  CD  GLU D 570     -21.287  -5.652 -15.397  1.00 32.92     0.185 C 
ATOM     18  OE1 GLU D 570     -22.122  -6.386 -14.834  1.00 32.92    -0.647 OA
ATOM     19  OE2 GLU D 570     -21.608  -4.712 -16.150  1.00 32.92    -0.647 OA
ENDBRANCH  16  17
ENDBRANCH  15  16
ENDBRANCH  14  15
END_RES GLU D 570
ENDMDL
MODEL 9
REMARK VINA RESULT:      -5.8      7.812      9.871
REMARK  5 active torsions:
REMARK  status: ('A' for Active; 'I' for Inactive)
REMARK    1  A    between atoms: C_2  and  C_3 
REMARK    2  A    between atoms: C_3  and  O_4 
REMARK    3  A    between atoms: O_4  and  C_5 
REMARK    4  A    between atoms: C_5  and  C_7 
REMARK    5  A    between atoms: C_10  and  O_13 
ROOT
HETATM    1  C   UNL     1     -21.294  -9.112  -0.130  1.00  0.00     0.039 A 
HETATM    2  C   UNL     1     -22.341  -8.310   0.354  1.00  0.00     0.020 A 
HETATM    3  C   UNL     1     -22.727  -7.159  -0.337  1.00  0.00     0.037 A 
HETATM    4  C   UNL     1     -22.063  -6.811  -1.508  1.00  0.00     0.065 A 
HETATM    5  C   UNL     1     -21.029  -7.598  -2.005  1.00  0.00     0.037 A 
HETATM    6  C   UNL     1     -20.647  -8.755  -1.320  1.00  0.00     0.020 A 
ENDROOT
BRANCH   1   7
HETATM    7  C   UNL     1     -20.908 -10.380   0.549  1.00  0.00     0.293 C 
HETATM    8  O   UNL     1     -20.251 -10.426   1.575  1.00  0.00    -0.259 OA
BRANCH   7   9
HETATM    9  O   UNL     1     -21.346 -11.439  -0.176  1.00  0.00    -0.318 OA
BRANCH   9  10
HETATM   10  C   UNL     1     -22.268 -12.318   0.482  1.00  0.00     0.178 C 
BRANCH  10  11
HETATM   11  C   UNL     1     -23.711 -11.879   0.279  1.00  0.00     0.022 C 
HETATM   12  C   UNL     1     -23.949 -11.505  -1.176  1.00  0.00     0.007 C 
ENDBRANCH  10  11
ENDBRANCH   9  10
ENDBRANCH   7   9
ENDBRANCH   1   7
BRANCH   4  13
HETATM   13  O   UNL     1     -22.408  -5.696  -2.213  1.00  0.00    -0.361 OA
HETATM   14  H   UNL     1     -23.363  -5.718  -2.387  1.00  0.00     0.217 HD
ENDBRANCH   4  13
TORSDOF 5
BEGIN_RES ARG D 557
REMARK  4 active torsions:
REMARK  status: ('A' for Active; 'I' for Inactive)
REMARK    1  A    between atoms: CA   and  CB  
REMARK    2  A    between atoms: CB   and  CG  
REMARK    3  A    between atoms: CG   and  CD  
REMARK    4  A    between atoms: CD   and  NE  
REMARK       I    between atoms: NE   and  CZ  
REMARK       I    between atoms: CZ   and  NH1 
REMARK       I    between atoms: CZ   and  NH2 
ROOT
ATOM      1  CA  ARG D 557     -26.217   2.705 -17.014  1.00 35.49     0.159 C 
ENDROOT
BRANCH   1   2
ATOM      2  CB  ARG D 557     -26.789   1.319 -17.183  1.00 35.49     0.034 C 
BRANCH   2   3
ATOM      3  CG  ARG D 557     -25.864   0.195 -16.995  1.00 35.49     0.027 C 
BRANCH   3   4
ATOM      4  CD  ARG D 557     -26.285  -0.706 -15.898  1.00 35.49     0.116 C 
BRANCH   4   5
ATOM      5  NE  ARG D 557     -25.230  -0.933 -14.947  1.00 35.49    -0.212 N 
ATOM      6  CZ  ARG D 557     -24.970  -2.072 -14.344  1.00 35.49     0.666 C 
ATOM      7  NH1 ARG D 557     -25.687  -3.161 -14.549  1.00 35.49    -0.235 N 
ATOM      8  NH2 ARG D 557     -23.959  -2.101 -13.526  1.00 35.49    -0.235 N 
ATOM      9  HH  ARG D 557     -26.356  -3.165 -15.085  1.00 35.49     0.174 HD
ATOM     10  HH  ARG D 557     -25.469  -3.876 -14.130  1.00 35.49     0.174 HD
ATOM     11  HH  ARG D 557     -23.509  -1.384 -13.419  1.00 35.49     0.174 HD
ATOM     12  HH  ARG D 557     -23.758  -2.819 -13.122  1.00 35.49     0.174 HD
ATOM     13  HE  ARG D 557     -24.763  -0.265 -14.701  1.00 35.49     0.178 HD
ENDBRANCH   4   5
ENDBRANCH   3   4
ENDBRANCH   2   3
ENDBRANCH   1   2
END_RES ARG D 557
BEGIN_RES GLU D 570
REMARK  3 active torsions:
REMARK  status: ('A' for Active; 'I' for Inactive)
REMARK    5  A    between atoms: CA   and  CB  
REMARK    6  A    between atoms: CB   and  CG  
REMARK    7  A    between atoms: CG   and  CD  
ROOT
ATOM     14  CA  GLU D 570     -18.033  -6.348 -13.375  1.00 32.92     0.160 C 
ENDROOT
BRANCH  14  15
ATOM     15  CB  GLU D 570     -19.500  -6.345 -13.794  1.00 32.92     0.043 C 
BRANCH  15  16
ATOM     16  CG  GLU D 570     -20.448  -5.560 -12.962  1.00 32.92     0.100 C 
BRANCH  16  17
ATOM     17  CD  GLU D 570     -21.681  -5.129 -13.721  1.00 32.92     0.185 C 
ATOM     18  OE1 GLU D 570     -22.733  -4.909 -13.091  1.00 32.92    -0.647 OA
ATOM     19  OE2 GLU D 570     -21.598  -5.027 -14.961  1.00 32.92    -0.647 OA
ENDBRANCH  16  17
ENDBRANCH  15  16
ENDBRANCH  14  15
END_RES GLU D 570
ENDMDL
