MODEL 1
REMARK VINA RESULT:      -7.6      0.000      0.000
REMARK WARNING: 32 MAX_TORS EXCEEDED!!!
REMARK  40 active torsions:
REMARK  status: ('A' for Active; 'I' for Inactive)
REMARK    1  A    between atoms: C_2  and  C_3 
REMARK    2  A    between atoms: C_3  and  C_4 
REMARK    3  A    between atoms: C_4  and  C_5 
REMARK    4  A    between atoms: C_5  and  C_6 
REMARK    5  A    between atoms: C_6  and  C_7 
REMARK    6  A    between atoms: C_7  and  C_8 
REMARK    7  A    between atoms: C_8  and  C_9 
REMARK    8  A    between atoms: C_10  and  C_11 
REMARK    9  A    between atoms: C_11  and  C_12 
REMARK   10  A    between atoms: C_12  and  C_13 
REMARK   11  A    between atoms: C_13  and  C_14 
REMARK   12  A    between atoms: C_14  and  C_15 
REMARK   13  A    between atoms: C_15  and  C_16 
REMARK   14  A    between atoms: C_16  and  C_17 
REMARK   15  A    between atoms: C_17  and  C_18 
REMARK   16  A    between atoms: C_18  and  C_19 
REMARK   17  A    between atoms: C_19  and  C_20 
REMARK       I    between atoms: C_20  and  N_22 
REMARK   18  A    between atoms: N_22  and  C_23 
REMARK   19  A    between atoms: C_23  and  C_24 
REMARK   20  A    between atoms: C_23  and  C_37 
REMARK   21  A    between atoms: C_24  and  O_25 
REMARK   22  A    between atoms: O_25  and  C_26 
REMARK   23  A    between atoms: C_27  and  O_36 
REMARK   24  A    between atoms: C_28  and  O_35 
REMARK   25  A    between atoms: C_29  and  O_34 
REMARK   26  A    between atoms: C_30  and  C_32 
REMARK   27  A    between atoms: C_32  and  O_33 
REMARK   28  A    between atoms: C_37  and  C_38 
REMARK   29  A    between atoms: C_37  and  O_53 
REMARK   30  A    between atoms: C_39  and  C_40 
REMARK   31  A    between atoms: C_40  and  C_41 
REMARK   32  A    between atoms: C_41  and  C_42 
REMARK   33  A    between atoms: C_42  and  C_43 
REMARK   34  A    between atoms: C_43  and  C_44 
REMARK   35  A    between atoms: C_44  and  C_45 
REMARK   36  A    between atoms: C_45  and  C_46 
REMARK   37  A    between atoms: C_46  and  C_47 
REMARK   38  A    between atoms: C_47  and  C_48 
REMARK   39  A    between atoms: C_49  and  C_50 
REMARK   40  A    between atoms: C_50  and  C_51 
ROOT
HETATM    1  C   UNL     1     -28.537  -6.400 -17.828  1.00  0.00     0.140 C 
ENDROOT
BRANCH   1   2
HETATM    2  N   UNL     1     -27.327  -6.781 -17.099  1.00  0.00    -0.352 N 
HETATM    3  C   UNL     1     -26.831  -5.998 -16.064  1.00  0.00     0.218 C 
HETATM    4  O   UNL     1     -27.384  -4.998 -15.615  1.00  0.00    -0.274 OA
HETATM    5  H   UNL     1     -26.667  -7.362 -17.606  1.00  0.00     0.163 HD
BRANCH   3   6
HETATM    6  C   UNL     1     -25.539  -6.527 -15.474  1.00  0.00     0.103 C 
BRANCH   6   7
HETATM    7  C   UNL     1     -24.653  -5.394 -14.985  1.00  0.00     0.009 C 
BRANCH   7   8
HETATM    8  C   UNL     1     -23.394  -5.925 -14.320  1.00  0.00     0.000 C 
BRANCH   8   9
HETATM    9  C   UNL     1     -22.880  -4.895 -13.326  1.00  0.00     0.000 C 
BRANCH   9  10
HETATM   10  C   UNL     1     -23.914  -3.805 -13.122  1.00  0.00     0.000 C 
BRANCH  10  11
HETATM   11  C   UNL     1     -23.950  -3.380 -11.664  1.00  0.00     0.000 C 
BRANCH  11  12
HETATM   12  C   UNL     1     -23.502  -4.531 -10.782  1.00  0.00     0.000 C 
BRANCH  12  13
HETATM   13  C   UNL     1     -22.566  -4.032  -9.695  1.00  0.00     0.004 C 
BRANCH  13  14
HETATM   14  C   UNL     1     -21.123  -4.134 -10.168  1.00  0.00     0.027 C 
BRANCH  14  15
HETATM   15  C   UNL     1     -20.205  -4.173  -8.992  1.00  0.00    -0.031 C 
HETATM   16  C   UNL     1     -20.579  -4.638  -7.794  1.00  0.00    -0.031 C 
BRANCH  16  17
HETATM   17  C   UNL     1     -19.657  -4.673  -6.620  1.00  0.00     0.027 C 
BRANCH  17  18
HETATM   18  C   UNL     1     -20.414  -5.135  -5.383  1.00  0.00     0.004 C 
BRANCH  18  19
HETATM   19  C   UNL     1     -21.559  -6.053  -5.783  1.00  0.00     0.000 C 
BRANCH  19  20
HETATM   20  C   UNL     1     -22.342  -6.493  -4.556  1.00  0.00     0.000 C 
BRANCH  20  21
HETATM   21  C   UNL     1     -21.464  -6.426  -3.314  1.00  0.00     0.000 C 
BRANCH  21  22
HETATM   22  C   UNL     1     -22.325  -6.400  -2.059  1.00  0.00    -0.000 C 
BRANCH  22  23
HETATM   23  C   UNL     1     -21.709  -7.258  -0.960  1.00  0.00    -0.005 C 
HETATM   24  C   UNL     1     -20.591  -8.119  -1.516  1.00  0.00     0.005 C 
ENDBRANCH  22  23
ENDBRANCH  21  22
ENDBRANCH  20  21
ENDBRANCH  19  20
ENDBRANCH  18  19
ENDBRANCH  17  18
ENDBRANCH  16  17
ENDBRANCH  14  15
ENDBRANCH  13  14
ENDBRANCH  12  13
ENDBRANCH  11  12
ENDBRANCH  10  11
ENDBRANCH   9  10
ENDBRANCH   8   9
ENDBRANCH   7   8
ENDBRANCH   6   7
ENDBRANCH   3   6
ENDBRANCH   1   2
BRANCH   1  25
HETATM   25  C   UNL     1     -28.135  -6.055 -19.271  1.00  0.00     0.199 C 
BRANCH  25  26
HETATM   26  O   UNL     1     -27.158  -6.936 -19.839  1.00  0.00    -0.356 OA
BRANCH  26  27
HETATM   27  C   UNL     1     -25.975  -6.216 -20.200  1.00  0.00     0.291 C 
HETATM   28  C   UNL     1     -25.485  -6.726 -21.537  1.00  0.00     0.204 C 
HETATM   29  C   UNL     1     -24.925  -8.128 -21.342  1.00  0.00     0.183 C 
HETATM   30  C   UNL     1     -23.826  -8.160 -20.261  1.00  0.00     0.180 C 
HETATM   31  C   UNL     1     -24.408  -7.610 -18.980  1.00  0.00     0.179 C 
HETATM   32  O   UNL     1     -24.868  -6.272 -19.271  1.00  0.00    -0.348 OA
BRANCH  28  33
HETATM   33  O   UNL     1     -24.497  -5.842 -22.022  1.00  0.00    -0.388 OA
HETATM   34  H   UNL     1     -23.638  -6.312 -21.974  1.00  0.00     0.210 HD
ENDBRANCH  28  33
BRANCH  29  35
HETATM   35  O   UNL     1     -24.422  -8.505 -22.608  1.00  0.00    -0.390 OA
HETATM   36  H   UNL     1     -24.643  -9.459 -22.600  1.00  0.00     0.210 HD
ENDBRANCH  29  35
BRANCH  30  37
HETATM   37  O   UNL     1     -22.741  -7.286 -20.570  1.00  0.00    -0.390 OA
HETATM   38  H   UNL     1     -22.595  -7.392 -21.537  1.00  0.00     0.210 HD
ENDBRANCH  30  37
BRANCH  31  39
HETATM   39  C   UNL     1     -23.368  -7.471 -17.874  1.00  0.00     0.198 C 
BRANCH  39  40
HETATM   40  O   UNL     1     -22.803  -6.200 -18.109  1.00  0.00    -0.398 OA
HETATM   41  H   UNL     1     -21.846  -6.368 -18.017  1.00  0.00     0.209 HD
ENDBRANCH  39  40
ENDBRANCH  31  39
ENDBRANCH  26  27
ENDBRANCH  25  26
ENDBRANCH   1  25
BRANCH   1  42
HETATM   42  C   UNL     1     -29.620  -7.503 -17.771  1.00  0.00     0.165 C 
BRANCH  42  43
HETATM   43  C   UNL     1     -30.963  -6.870 -17.690  1.00  0.00     0.003 C 
HETATM   44  C   UNL     1     -31.182  -5.786 -16.945  1.00  0.00    -0.028 C 
BRANCH  44  45
HETATM   45  C   UNL     1     -32.459  -5.008 -16.995  1.00  0.00     0.027 C 
BRANCH  45  46
HETATM   46  C   UNL     1     -32.645  -4.315 -15.656  1.00  0.00     0.004 C 
BRANCH  46  47
HETATM   47  C   UNL     1     -34.120  -4.259 -15.280  1.00  0.00     0.000 C 
BRANCH  47  48
HETATM   48  C   UNL     1     -34.328  -4.544 -13.798  1.00  0.00     0.000 C 
BRANCH  48  49
HETATM   49  C   UNL     1     -33.054  -4.274 -13.005  1.00  0.00     0.000 C 
BRANCH  49  50
HETATM   50  C   UNL     1     -33.224  -4.664 -11.552  1.00  0.00     0.000 C 
BRANCH  50  51
HETATM   51  C   UNL     1     -34.273  -3.774 -10.900  1.00  0.00     0.004 C 
BRANCH  51  52
HETATM   52  C   UNL     1     -33.671  -2.409 -10.599  1.00  0.00     0.027 C 
BRANCH  52  53
HETATM   53  C   UNL     1     -34.263  -1.371 -11.494  1.00  0.00    -0.031 C 
HETATM   54  C   UNL     1     -35.397  -1.563 -12.182  1.00  0.00    -0.031 C 
BRANCH  54  55
HETATM   55  C   UNL     1     -35.988  -0.529 -13.087  1.00  0.00     0.026 C 
BRANCH  55  56
HETATM   56  C   UNL     1     -34.915   0.451 -13.552  1.00  0.00    -0.001 C 
HETATM   57  C   UNL     1     -35.312   1.107 -14.863  1.00  0.00     0.005 C 
ENDBRANCH  55  56
ENDBRANCH  54  55
ENDBRANCH  52  53
ENDBRANCH  51  52
ENDBRANCH  50  51
ENDBRANCH  49  50
ENDBRANCH  48  49
ENDBRANCH  47  48
ENDBRANCH  46  47
ENDBRANCH  45  46
ENDBRANCH  44  45
ENDBRANCH  42  43
BRANCH  42  58
HETATM   58  O   UNL     1     -29.573  -8.327 -18.925  1.00  0.00    -0.390 OA
HETATM   59  H   UNL     1     -30.460  -8.634 -19.173  1.00  0.00     0.210 HD
ENDBRANCH  42  58
ENDBRANCH   1  42
TORSDOF 40
BEGIN_RES ARG D 557
REMARK  4 active torsions:
REMARK  status: ('A' for Active; 'I' for Inactive)
REMARK    1  A    between atoms: CA   and  CB  
REMARK    2  A    between atoms: CB   and  CG  
REMARK    3  A    between atoms: CG   and  CD  
REMARK    4  A    between atoms: CD   and  NE  
REMARK       I    between atoms: NE   and  CZ  
REMARK       I    between atoms: CZ   and  NH1 
REMARK       I    between atoms: CZ   and  NH2 
ROOT
ATOM      1  CA  ARG D 557     -26.217   2.705 -17.014  1.00 35.49     0.159 C 
ENDROOT
BRANCH   1   2
ATOM      2  CB  ARG D 557     -26.789   1.319 -17.183  1.00 35.49     0.034 C 
BRANCH   2   3
ATOM      3  CG  ARG D 557     -28.220   1.229 -17.496  1.00 35.49     0.027 C 
BRANCH   3   4
ATOM      4  CD  ARG D 557     -28.952   0.361 -16.545  1.00 35.49     0.116 C 
BRANCH   4   5
ATOM      5  NE  ARG D 557     -29.320  -0.900 -17.133  1.00 35.49    -0.212 N 
ATOM      6  CZ  ARG D 557     -28.657  -2.028 -17.008  1.00 35.49     0.666 C 
ATOM      7  NH1 ARG D 557     -27.537  -2.119 -16.316  1.00 35.49    -0.235 N 
ATOM      8  NH2 ARG D 557     -29.149  -3.081 -17.594  1.00 35.49    -0.235 N 
ATOM      9  HH  ARG D 557     -27.197  -1.439 -15.920  1.00 35.49     0.174 HD
ATOM     10  HH  ARG D 557     -27.150  -2.882 -16.267  1.00 35.49     0.174 HD
ATOM     11  HH  ARG D 557     -29.878  -2.994 -18.028  1.00 35.49     0.174 HD
ATOM     12  HH  ARG D 557     -28.752  -3.827 -17.532  1.00 35.49     0.174 HD
ATOM     13  HE  ARG D 557     -29.990  -0.916 -17.656  1.00 35.49     0.178 HD
ENDBRANCH   4   5
ENDBRANCH   3   4
ENDBRANCH   2   3
ENDBRANCH   1   2
END_RES ARG D 557
BEGIN_RES GLU D 570
REMARK  3 active torsions:
REMARK  status: ('A' for Active; 'I' for Inactive)
REMARK    5  A    between atoms: CA   and  CB  
REMARK    6  A    between atoms: CB   and  CG  
REMARK    7  A    between atoms: CG   and  CD  
ROOT
ATOM     14  CA  GLU D 570     -18.033  -6.348 -13.375  1.00 32.92     0.160 C 
ENDROOT
BRANCH  14  15
ATOM     15  CB  GLU D 570     -19.500  -6.345 -13.794  1.00 32.92     0.043 C 
BRANCH  15  16
ATOM     16  CG  GLU D 570     -20.090  -7.637 -14.229  1.00 32.92     0.100 C 
BRANCH  16  17
ATOM     17  CD  GLU D 570     -20.453  -7.655 -15.696  1.00 32.92     0.185 C 
ATOM     18  OE1 GLU D 570     -20.509  -6.578 -16.319  1.00 32.92    -0.647 OA
ATOM     19  OE2 GLU D 570     -20.700  -8.758 -16.223  1.00 32.92    -0.647 OA
ENDBRANCH  16  17
ENDBRANCH  15  16
ENDBRANCH  14  15
END_RES GLU D 570
ENDMDL
MODEL 2
REMARK VINA RESULT:      -7.5      5.485     14.297
REMARK WARNING: 32 MAX_TORS EXCEEDED!!!
REMARK  40 active torsions:
REMARK  status: ('A' for Active; 'I' for Inactive)
REMARK    1  A    between atoms: C_2  and  C_3 
REMARK    2  A    between atoms: C_3  and  C_4 
REMARK    3  A    between atoms: C_4  and  C_5 
REMARK    4  A    between atoms: C_5  and  C_6 
REMARK    5  A    between atoms: C_6  and  C_7 
REMARK    6  A    between atoms: C_7  and  C_8 
REMARK    7  A    between atoms: C_8  and  C_9 
REMARK    8  A    between atoms: C_10  and  C_11 
REMARK    9  A    between atoms: C_11  and  C_12 
REMARK   10  A    between atoms: C_12  and  C_13 
REMARK   11  A    between atoms: C_13  and  C_14 
REMARK   12  A    between atoms: C_14  and  C_15 
REMARK   13  A    between atoms: C_15  and  C_16 
REMARK   14  A    between atoms: C_16  and  C_17 
REMARK   15  A    between atoms: C_17  and  C_18 
REMARK   16  A    between atoms: C_18  and  C_19 
REMARK   17  A    between atoms: C_19  and  C_20 
REMARK       I    between atoms: C_20  and  N_22 
REMARK   18  A    between atoms: N_22  and  C_23 
REMARK   19  A    between atoms: C_23  and  C_24 
REMARK   20  A    between atoms: C_23  and  C_37 
REMARK   21  A    between atoms: C_24  and  O_25 
REMARK   22  A    between atoms: O_25  and  C_26 
REMARK   23  A    between atoms: C_27  and  O_36 
REMARK   24  A    between atoms: C_28  and  O_35 
REMARK   25  A    between atoms: C_29  and  O_34 
REMARK   26  A    between atoms: C_30  and  C_32 
REMARK   27  A    between atoms: C_32  and  O_33 
REMARK   28  A    between atoms: C_37  and  C_38 
REMARK   29  A    between atoms: C_37  and  O_53 
REMARK   30  A    between atoms: C_39  and  C_40 
REMARK   31  A    between atoms: C_40  and  C_41 
REMARK   32  A    between atoms: C_41  and  C_42 
REMARK   33  A    between atoms: C_42  and  C_43 
REMARK   34  A    between atoms: C_43  and  C_44 
REMARK   35  A    between atoms: C_44  and  C_45 
REMARK   36  A    between atoms: C_45  and  C_46 
REMARK   37  A    between atoms: C_46  and  C_47 
REMARK   38  A    between atoms: C_47  and  C_48 
REMARK   39  A    between atoms: C_49  and  C_50 
REMARK   40  A    between atoms: C_50  and  C_51 
ROOT
HETATM    1  C   UNL     1     -19.064  -9.330  -4.560  1.00  0.00     0.140 C 
ENDROOT
BRANCH   1   2
HETATM    2  N   UNL     1     -19.691  -8.083  -5.000  1.00  0.00    -0.352 N 
HETATM    3  C   UNL     1     -21.068  -7.908  -4.944  1.00  0.00     0.218 C 
HETATM    4  O   UNL     1     -21.857  -8.713  -4.456  1.00  0.00    -0.274 OA
HETATM    5  H   UNL     1     -19.177  -7.547  -5.693  1.00  0.00     0.163 HD
BRANCH   3   6
HETATM    6  C   UNL     1     -21.530  -6.574  -5.498  1.00  0.00     0.103 C 
BRANCH   6   7
HETATM    7  C   UNL     1     -20.563  -6.050  -6.546  1.00  0.00     0.009 C 
BRANCH   7   8
HETATM    8  C   UNL     1     -20.489  -4.533  -6.519  1.00  0.00     0.000 C 
BRANCH   8   9
HETATM    9  C   UNL     1     -21.083  -3.979  -7.805  1.00  0.00     0.000 C 
BRANCH   9  10
HETATM   10  C   UNL     1     -20.140  -4.231  -8.965  1.00  0.00     0.000 C 
BRANCH  10  11
HETATM   11  C   UNL     1     -20.914  -4.275 -10.272  1.00  0.00     0.000 C 
BRANCH  11  12
HETATM   12  C   UNL     1     -22.399  -4.403  -9.985  1.00  0.00     0.000 C 
BRANCH  12  13
HETATM   13  C   UNL     1     -23.198  -4.282 -11.271  1.00  0.00     0.004 C 
BRANCH  13  14
HETATM   14  C   UNL     1     -22.253  -4.156 -12.456  1.00  0.00     0.027 C 
BRANCH  14  15
HETATM   15  C   UNL     1     -22.908  -4.687 -13.688  1.00  0.00    -0.031 C 
HETATM   16  C   UNL     1     -23.461  -5.904 -13.749  1.00  0.00    -0.031 C 
BRANCH  16  17
HETATM   17  C   UNL     1     -24.113  -6.431 -14.983  1.00  0.00     0.027 C 
BRANCH  17  18
HETATM   18  C   UNL     1     -25.307  -5.562 -15.349  1.00  0.00     0.004 C 
BRANCH  18  19
HETATM   19  C   UNL     1     -26.163  -6.262 -16.394  1.00  0.00     0.000 C 
BRANCH  19  20
HETATM   20  C   UNL     1     -27.297  -7.024 -15.729  1.00  0.00     0.000 C 
BRANCH  20  21
HETATM   21  C   UNL     1     -28.643  -6.537 -16.251  1.00  0.00     0.000 C 
BRANCH  21  22
HETATM   22  C   UNL     1     -28.706  -6.679 -17.765  1.00  0.00    -0.000 C 
BRANCH  22  23
HETATM   23  C   UNL     1     -30.074  -7.186 -18.205  1.00  0.00    -0.005 C 
HETATM   24  C   UNL     1     -31.166  -6.633 -17.308  1.00  0.00     0.005 C 
ENDBRANCH  22  23
ENDBRANCH  21  22
ENDBRANCH  20  21
ENDBRANCH  19  20
ENDBRANCH  18  19
ENDBRANCH  17  18
ENDBRANCH  16  17
ENDBRANCH  14  15
ENDBRANCH  13  14
ENDBRANCH  12  13
ENDBRANCH  11  12
ENDBRANCH  10  11
ENDBRANCH   9  10
ENDBRANCH   8   9
ENDBRANCH   7   8
ENDBRANCH   6   7
ENDBRANCH   3   6
ENDBRANCH   1   2
BRANCH   1  25
HETATM   25  C   UNL     1     -17.977  -9.701  -5.581  1.00  0.00     0.199 C 
BRANCH  25  26
HETATM   26  O   UNL     1     -18.420 -10.574  -6.627  1.00  0.00    -0.356 OA
BRANCH  26  27
HETATM   27  C   UNL     1     -18.429 -11.935  -6.182  1.00  0.00     0.291 C 
HETATM   28  C   UNL     1     -17.811 -12.801  -7.256  1.00  0.00     0.204 C 
HETATM   29  C   UNL     1     -18.776 -12.873  -8.432  1.00  0.00     0.183 C 
HETATM   30  C   UNL     1     -20.168 -13.375  -7.999  1.00  0.00     0.180 C 
HETATM   31  C   UNL     1     -20.682 -12.461  -6.912  1.00  0.00     0.179 C 
HETATM   32  O   UNL     1     -19.715 -12.502  -5.840  1.00  0.00    -0.348 OA
BRANCH  28  33
HETATM   33  O   UNL     1     -17.564 -14.083  -6.717  1.00  0.00    -0.388 OA
HETATM   34  H   UNL     1     -18.326 -14.308  -6.143  1.00  0.00     0.210 HD
ENDBRANCH  28  33
BRANCH  29  35
HETATM   35  O   UNL     1     -18.169 -13.753  -9.356  1.00  0.00    -0.390 OA
HETATM   36  H   UNL     1     -17.283 -13.843  -8.946  1.00  0.00     0.210 HD
ENDBRANCH  29  35
BRANCH  30  37
HETATM   37  O   UNL     1     -20.111 -14.664  -7.391  1.00  0.00    -0.390 OA
HETATM   38  H   UNL     1     -19.813 -14.500  -6.469  1.00  0.00     0.210 HD
ENDBRANCH  30  37
BRANCH  31  39
HETATM   39  C   UNL     1     -22.000 -12.943  -6.314  1.00  0.00     0.198 C 
BRANCH  39  40
HETATM   40  O   UNL     1     -21.604 -13.615  -5.139  1.00  0.00    -0.398 OA
HETATM   41  H   UNL     1     -22.428 -13.638  -4.616  1.00  0.00     0.209 HD
ENDBRANCH  39  40
ENDBRANCH  31  39
ENDBRANCH  26  27
ENDBRANCH  25  26
ENDBRANCH   1  25
BRANCH   1  42
HETATM   42  C   UNL     1     -18.505  -9.223  -3.123  1.00  0.00     0.165 C 
BRANCH  42  43
HETATM   43  C   UNL     1     -19.051 -10.333  -2.298  1.00  0.00     0.003 C 
HETATM   44  C   UNL     1     -20.135 -11.014  -2.671  1.00  0.00    -0.028 C 
BRANCH  44  45
HETATM   45  C   UNL     1     -20.594 -12.258  -1.978  1.00  0.00     0.027 C 
BRANCH  45  46
HETATM   46  C   UNL     1     -19.410 -12.853  -1.237  1.00  0.00     0.004 C 
BRANCH  46  47
HETATM   47  C   UNL     1     -19.846 -13.416   0.110  1.00  0.00     0.000 C 
BRANCH  47  48
HETATM   48  C   UNL     1     -20.950 -12.574   0.734  1.00  0.00     0.000 C 
BRANCH  48  49
HETATM   49  C   UNL     1     -21.969 -13.452   1.451  1.00  0.00     0.000 C 
BRANCH  49  50
HETATM   50  C   UNL     1     -23.384 -13.023   1.123  1.00  0.00     0.000 C 
BRANCH  50  51
HETATM   51  C   UNL     1     -23.688 -13.326  -0.337  1.00  0.00     0.004 C 
BRANCH  51  52
HETATM   52  C   UNL     1     -24.174 -12.062  -1.032  1.00  0.00     0.027 C 
BRANCH  52  53
HETATM   53  C   UNL     1     -23.985 -10.876  -0.144  1.00  0.00    -0.031 C 
HETATM   54  C   UNL     1     -23.224  -9.826  -0.484  1.00  0.00    -0.031 C 
BRANCH  54  55
HETATM   55  C   UNL     1     -23.024  -8.641   0.406  1.00  0.00     0.026 C 
BRANCH  55  56
HETATM   56  C   UNL     1     -21.613  -8.084   0.248  1.00  0.00    -0.001 C 
HETATM   57  C   UNL     1     -21.359  -7.652  -1.186  1.00  0.00     0.005 C 
ENDBRANCH  55  56
ENDBRANCH  54  55
ENDBRANCH  52  53
ENDBRANCH  51  52
ENDBRANCH  50  51
ENDBRANCH  49  50
ENDBRANCH  48  49
ENDBRANCH  47  48
ENDBRANCH  46  47
ENDBRANCH  45  46
ENDBRANCH  44  45
ENDBRANCH  42  43
BRANCH  42  58
HETATM   58  O   UNL     1     -17.088  -9.304  -3.117  1.00  0.00    -0.390 OA
HETATM   59  H   UNL     1     -16.772  -9.863  -2.389  1.00  0.00     0.210 HD
ENDBRANCH  42  58
ENDBRANCH   1  42
TORSDOF 40
BEGIN_RES ARG D 557
REMARK  4 active torsions:
REMARK  status: ('A' for Active; 'I' for Inactive)
REMARK    1  A    between atoms: CA   and  CB  
REMARK    2  A    between atoms: CB   and  CG  
REMARK    3  A    between atoms: CG   and  CD  
REMARK    4  A    between atoms: CD   and  NE  
REMARK       I    between atoms: NE   and  CZ  
REMARK       I    between atoms: CZ   and  NH1 
REMARK       I    between atoms: CZ   and  NH2 
ROOT
ATOM      1  CA  ARG D 557     -26.217   2.705 -17.014  1.00 35.49     0.159 C 
ENDROOT
BRANCH   1   2
ATOM      2  CB  ARG D 557     -26.789   1.319 -17.183  1.00 35.49     0.034 C 
BRANCH   2   3
ATOM      3  CG  ARG D 557     -28.235   1.225 -17.417  1.00 35.49     0.027 C 
BRANCH   3   4
ATOM      4  CD  ARG D 557     -28.894   0.269 -16.497  1.00 35.49     0.116 C 
BRANCH   4   5
ATOM      5  NE  ARG D 557     -29.257  -0.957 -17.158  1.00 35.49    -0.212 N 
ATOM      6  CZ  ARG D 557     -28.624  -2.103 -17.051  1.00 35.49     0.666 C 
ATOM      7  NH1 ARG D 557     -27.542  -2.249 -16.309  1.00 35.49    -0.235 N 
ATOM      8  NH2 ARG D 557     -29.107  -3.119 -17.706  1.00 35.49    -0.235 N 
ATOM      9  HH  ARG D 557     -27.208  -1.595 -15.867  1.00 35.49     0.174 HD
ATOM     10  HH  ARG D 557     -27.173  -3.022 -16.275  1.00 35.49     0.174 HD
ATOM     11  HH  ARG D 557     -29.811  -2.997 -18.171  1.00 35.49     0.174 HD
ATOM     12  HH  ARG D 557     -28.728  -3.876 -17.658  1.00 35.49     0.174 HD
ATOM     13  HE  ARG D 557     -29.900  -0.936 -17.714  1.00 35.49     0.178 HD
ENDBRANCH   4   5
ENDBRANCH   3   4
ENDBRANCH   2   3
ENDBRANCH   1   2
END_RES ARG D 557
BEGIN_RES GLU D 570
REMARK  3 active torsions:
REMARK  status: ('A' for Active; 'I' for Inactive)
REMARK    5  A    between atoms: CA   and  CB  
REMARK    6  A    between atoms: CB   and  CG  
REMARK    7  A    between atoms: CG   and  CD  
ROOT
ATOM     14  CA  GLU D 570     -18.033  -6.348 -13.375  1.00 32.92     0.160 C 
ENDROOT
BRANCH  14  15
ATOM     15  CB  GLU D 570     -19.500  -6.345 -13.794  1.00 32.92     0.043 C 
BRANCH  15  16
ATOM     16  CG  GLU D 570     -20.076  -7.626 -14.279  1.00 32.92     0.100 C 
BRANCH  16  17
ATOM     17  CD  GLU D 570     -20.617  -7.533 -15.687  1.00 32.92     0.185 C 
ATOM     18  OE1 GLU D 570     -20.744  -6.411 -16.214  1.00 32.92    -0.647 OA
ATOM     19  OE2 GLU D 570     -20.934  -8.593 -16.262  1.00 32.92    -0.647 OA
ENDBRANCH  16  17
ENDBRANCH  15  16
ENDBRANCH  14  15
END_RES GLU D 570
ENDMDL
MODEL 3
REMARK VINA RESULT:      -7.5      8.266     17.068
REMARK WARNING: 32 MAX_TORS EXCEEDED!!!
REMARK  40 active torsions:
REMARK  status: ('A' for Active; 'I' for Inactive)
REMARK    1  A    between atoms: C_2  and  C_3 
REMARK    2  A    between atoms: C_3  and  C_4 
REMARK    3  A    between atoms: C_4  and  C_5 
REMARK    4  A    between atoms: C_5  and  C_6 
REMARK    5  A    between atoms: C_6  and  C_7 
REMARK    6  A    between atoms: C_7  and  C_8 
REMARK    7  A    between atoms: C_8  and  C_9 
REMARK    8  A    between atoms: C_10  and  C_11 
REMARK    9  A    between atoms: C_11  and  C_12 
REMARK   10  A    between atoms: C_12  and  C_13 
REMARK   11  A    between atoms: C_13  and  C_14 
REMARK   12  A    between atoms: C_14  and  C_15 
REMARK   13  A    between atoms: C_15  and  C_16 
REMARK   14  A    between atoms: C_16  and  C_17 
REMARK   15  A    between atoms: C_17  and  C_18 
REMARK   16  A    between atoms: C_18  and  C_19 
REMARK   17  A    between atoms: C_19  and  C_20 
REMARK       I    between atoms: C_20  and  N_22 
REMARK   18  A    between atoms: N_22  and  C_23 
REMARK   19  A    between atoms: C_23  and  C_24 
REMARK   20  A    between atoms: C_23  and  C_37 
REMARK   21  A    between atoms: C_24  and  O_25 
REMARK   22  A    between atoms: O_25  and  C_26 
REMARK   23  A    between atoms: C_27  and  O_36 
REMARK   24  A    between atoms: C_28  and  O_35 
REMARK   25  A    between atoms: C_29  and  O_34 
REMARK   26  A    between atoms: C_30  and  C_32 
REMARK   27  A    between atoms: C_32  and  O_33 
REMARK   28  A    between atoms: C_37  and  C_38 
REMARK   29  A    between atoms: C_37  and  O_53 
REMARK   30  A    between atoms: C_39  and  C_40 
REMARK   31  A    between atoms: C_40  and  C_41 
REMARK   32  A    between atoms: C_41  and  C_42 
REMARK   33  A    between atoms: C_42  and  C_43 
REMARK   34  A    between atoms: C_43  and  C_44 
REMARK   35  A    between atoms: C_44  and  C_45 
REMARK   36  A    between atoms: C_45  and  C_46 
REMARK   37  A    between atoms: C_46  and  C_47 
REMARK   38  A    between atoms: C_47  and  C_48 
REMARK   39  A    between atoms: C_49  and  C_50 
REMARK   40  A    between atoms: C_50  and  C_51 
ROOT
HETATM    1  C   UNL     1     -19.196 -13.783  -1.621  1.00  0.00     0.140 C 
ENDROOT
BRANCH   1   2
HETATM    2  N   UNL     1     -20.323 -13.202  -0.889  1.00  0.00    -0.352 N 
HETATM    3  C   UNL     1     -20.133 -12.196   0.050  1.00  0.00     0.218 C 
HETATM    4  O   UNL     1     -19.057 -11.653   0.287  1.00  0.00    -0.274 OA
HETATM    5  H   UNL     1     -21.137 -13.799  -0.781  1.00  0.00     0.163 HD
BRANCH   3   6
HETATM    6  C   UNL     1     -21.412 -11.768   0.742  1.00  0.00     0.103 C 
BRANCH   6   7
HETATM    7  C   UNL     1     -22.630 -12.389   0.080  1.00  0.00     0.009 C 
BRANCH   7   8
HETATM    8  C   UNL     1     -23.738 -11.367  -0.107  1.00  0.00     0.000 C 
BRANCH   8   9
HETATM    9  C   UNL     1     -23.137 -10.061  -0.604  1.00  0.00     0.000 C 
BRANCH   9  10
HETATM   10  C   UNL     1     -23.533  -8.922   0.314  1.00  0.00     0.000 C 
BRANCH  10  11
HETATM   11  C   UNL     1     -22.612  -7.731   0.103  1.00  0.00     0.000 C 
BRANCH  11  12
HETATM   12  C   UNL     1     -21.221  -8.217  -0.259  1.00  0.00     0.000 C 
BRANCH  12  13
HETATM   13  C   UNL     1     -20.764  -7.587  -1.563  1.00  0.00     0.004 C 
BRANCH  13  14
HETATM   14  C   UNL     1     -21.817  -6.605  -2.058  1.00  0.00     0.027 C 
BRANCH  14  15
HETATM   15  C   UNL     1     -21.457  -6.121  -3.424  1.00  0.00    -0.031 C 
HETATM   16  C   UNL     1     -21.975  -6.646  -4.540  1.00  0.00    -0.031 C 
BRANCH  16  17
HETATM   17  C   UNL     1     -21.610  -6.160  -5.903  1.00  0.00     0.027 C 
BRANCH  17  18
HETATM   18  C   UNL     1     -20.501  -5.122  -5.802  1.00  0.00     0.004 C 
BRANCH  18  19
HETATM   19  C   UNL     1     -20.644  -4.094  -6.915  1.00  0.00     0.000 C 
BRANCH  19  20
HETATM   20  C   UNL     1     -19.687  -4.406  -8.053  1.00  0.00     0.000 C 
BRANCH  20  21
HETATM   21  C   UNL     1     -20.425  -4.402  -9.385  1.00  0.00     0.000 C 
BRANCH  21  22
HETATM   22  C   UNL     1     -21.927  -4.299  -9.158  1.00  0.00    -0.000 C 
BRANCH  22  23
HETATM   23  C   UNL     1     -22.613  -3.649 -10.353  1.00  0.00    -0.005 C 
HETATM   24  C   UNL     1     -24.038  -4.151 -10.492  1.00  0.00     0.005 C 
ENDBRANCH  22  23
ENDBRANCH  21  22
ENDBRANCH  20  21
ENDBRANCH  19  20
ENDBRANCH  18  19
ENDBRANCH  17  18
ENDBRANCH  16  17
ENDBRANCH  14  15
ENDBRANCH  13  14
ENDBRANCH  12  13
ENDBRANCH  11  12
ENDBRANCH  10  11
ENDBRANCH   9  10
ENDBRANCH   8   9
ENDBRANCH   7   8
ENDBRANCH   6   7
ENDBRANCH   3   6
ENDBRANCH   1   2
BRANCH   1  25
HETATM   25  C   UNL     1     -18.623 -14.933  -0.777  1.00  0.00     0.199 C 
BRANCH  25  26
HETATM   26  O   UNL     1     -17.218 -15.152  -0.953  1.00  0.00    -0.356 OA
BRANCH  26  27
HETATM   27  C   UNL     1     -16.575 -15.353   0.310  1.00  0.00     0.291 C 
HETATM   28  C   UNL     1     -16.727 -14.097   1.138  1.00  0.00     0.204 C 
HETATM   29  C   UNL     1     -15.848 -13.012   0.533  1.00  0.00     0.183 C 
HETATM   30  C   UNL     1     -14.379 -13.465   0.416  1.00  0.00     0.180 C 
HETATM   31  C   UNL     1     -14.341 -14.733  -0.404  1.00  0.00     0.179 C 
HETATM   32  O   UNL     1     -15.171 -15.697   0.281  1.00  0.00    -0.348 OA
BRANCH  28  33
HETATM   33  O   UNL     1     -16.346 -14.384   2.468  1.00  0.00    -0.388 OA
HETATM   34  H   UNL     1     -17.068 -14.910   2.870  1.00  0.00     0.210 HD
ENDBRANCH  28  33
BRANCH  29  35
HETATM   35  O   UNL     1     -15.983 -11.901   1.397  1.00  0.00    -0.390 OA
HETATM   36  H   UNL     1     -16.960 -11.833   1.432  1.00  0.00     0.210 HD
ENDBRANCH  29  35
BRANCH  30  37
HETATM   37  O   UNL     1     -13.826 -13.833   1.678  1.00  0.00    -0.390 OA
HETATM   38  H   UNL     1     -12.884 -13.553   1.636  1.00  0.00     0.210 HD
ENDBRANCH  30  37
BRANCH  31  39
HETATM   39  C   UNL     1     -12.946 -15.346  -0.473  1.00  0.00     0.198 C 
BRANCH  39  40
HETATM   40  O   UNL     1     -12.100 -14.229  -0.633  1.00  0.00    -0.398 OA
HETATM   41  H   UNL     1     -11.788 -14.324  -1.552  1.00  0.00     0.209 HD
ENDBRANCH  39  40
ENDBRANCH  31  39
ENDBRANCH  26  27
ENDBRANCH  25  26
ENDBRANCH   1  25
BRANCH   1  42
HETATM   42  C   UNL     1     -19.602 -14.245  -3.039  1.00  0.00     0.165 C 
BRANCH  42  43
HETATM   43  C   UNL     1     -19.155 -13.233  -4.033  1.00  0.00     0.003 C 
HETATM   44  C   UNL     1     -18.341 -13.553  -5.039  1.00  0.00    -0.028 C 
BRANCH  44  45
HETATM   45  C   UNL     1     -18.032 -12.617  -6.166  1.00  0.00     0.027 C 
BRANCH  45  46
HETATM   46  C   UNL     1     -16.586 -12.831  -6.577  1.00  0.00     0.004 C 
BRANCH  46  47
HETATM   47  C   UNL     1     -15.787 -11.543  -6.424  1.00  0.00     0.000 C 
BRANCH  47  48
HETATM   48  C   UNL     1     -14.495 -11.778  -5.654  1.00  0.00     0.000 C 
BRANCH  48  49
HETATM   49  C   UNL     1     -14.699 -12.798  -4.541  1.00  0.00     0.000 C 
BRANCH  49  50
HETATM   50  C   UNL     1     -14.670 -12.134  -3.181  1.00  0.00     0.000 C 
BRANCH  50  51
HETATM   51  C   UNL     1     -16.090 -11.811  -2.736  1.00  0.00     0.004 C 
BRANCH  51  52
HETATM   52  C   UNL     1     -16.212 -10.321  -2.455  1.00  0.00     0.027 C 
BRANCH  52  53
HETATM   53  C   UNL     1     -16.992  -9.651  -3.538  1.00  0.00    -0.031 C 
HETATM   54  C   UNL     1     -18.332  -9.648  -3.576  1.00  0.00    -0.031 C 
BRANCH  54  55
HETATM   55  C   UNL     1     -19.115  -8.985  -4.664  1.00  0.00     0.026 C 
BRANCH  55  56
HETATM   56  C   UNL     1     -20.255  -9.887  -5.130  1.00  0.00    -0.001 C 
HETATM   57  C   UNL     1     -21.185 -10.223  -3.977  1.00  0.00     0.005 C 
ENDBRANCH  55  56
ENDBRANCH  54  55
ENDBRANCH  52  53
ENDBRANCH  51  52
ENDBRANCH  50  51
ENDBRANCH  49  50
ENDBRANCH  48  49
ENDBRANCH  47  48
ENDBRANCH  46  47
ENDBRANCH  45  46
ENDBRANCH  44  45
ENDBRANCH  42  43
BRANCH  42  58
HETATM   58  O   UNL     1     -19.008 -15.493  -3.361  1.00  0.00    -0.390 OA
HETATM   59  H   UNL     1     -18.132 -15.580  -2.950  1.00  0.00     0.210 HD
ENDBRANCH  42  58
ENDBRANCH   1  42
TORSDOF 40
BEGIN_RES ARG D 557
REMARK  4 active torsions:
REMARK  status: ('A' for Active; 'I' for Inactive)
REMARK    1  A    between atoms: CA   and  CB  
REMARK    2  A    between atoms: CB   and  CG  
REMARK    3  A    between atoms: CG   and  CD  
REMARK    4  A    between atoms: CD   and  NE  
REMARK       I    between atoms: NE   and  CZ  
REMARK       I    between atoms: CZ   and  NH1 
REMARK       I    between atoms: CZ   and  NH2 
ROOT
ATOM      1  CA  ARG D 557     -26.217   2.705 -17.014  1.00 35.49     0.159 C 
ENDROOT
BRANCH   1   2
ATOM      2  CB  ARG D 557     -26.789   1.319 -17.183  1.00 35.49     0.034 C 
BRANCH   2   3
ATOM      3  CG  ARG D 557     -25.895   0.194 -16.884  1.00 35.49     0.027 C 
BRANCH   3   4
ATOM      4  CD  ARG D 557     -26.488  -0.757 -15.916  1.00 35.49     0.116 C 
BRANCH   4   5
ATOM      5  NE  ARG D 557     -25.493  -1.359 -15.068  1.00 35.49    -0.212 N 
ATOM      6  CZ  ARG D 557     -25.453  -2.622 -14.709  1.00 35.49     0.666 C 
ATOM      7  NH1 ARG D 557     -26.363  -3.498 -15.093  1.00 35.49    -0.235 N 
ATOM      8  NH2 ARG D 557     -24.465  -3.000 -13.951  1.00 35.49    -0.235 N 
ATOM      9  HH  ARG D 557     -27.021  -3.272 -15.593  1.00 35.49     0.174 HD
ATOM     10  HH  ARG D 557     -26.284  -4.310 -14.830  1.00 35.49     0.174 HD
ATOM     11  HH  ARG D 557     -23.887  -2.414 -13.725  1.00 35.49     0.174 HD
ATOM     12  HH  ARG D 557     -24.403  -3.808 -13.702  1.00 35.49     0.174 HD
ATOM     13  HE  ARG D 557     -24.909  -0.851 -14.715  1.00 35.49     0.178 HD
ENDBRANCH   4   5
ENDBRANCH   3   4
ENDBRANCH   2   3
ENDBRANCH   1   2
END_RES ARG D 557
BEGIN_RES GLU D 570
REMARK  3 active torsions:
REMARK  status: ('A' for Active; 'I' for Inactive)
REMARK    5  A    between atoms: CA   and  CB  
REMARK    6  A    between atoms: CB   and  CG  
REMARK    7  A    between atoms: CG   and  CD  
ROOT
ATOM     14  CA  GLU D 570     -18.033  -6.348 -13.375  1.00 32.92     0.160 C 
ENDROOT
BRANCH  14  15
ATOM     15  CB  GLU D 570     -19.500  -6.345 -13.794  1.00 32.92     0.043 C 
BRANCH  15  16
ATOM     16  CG  GLU D 570     -20.427  -5.467 -13.035  1.00 32.92     0.100 C 
BRANCH  16  17
ATOM     17  CD  GLU D 570     -21.714  -5.188 -13.775  1.00 32.92     0.185 C 
ATOM     18  OE1 GLU D 570     -22.772  -5.703 -13.366  1.00 32.92    -0.647 OA
ATOM     19  OE2 GLU D 570     -21.661  -4.459 -14.786  1.00 32.92    -0.647 OA
ENDBRANCH  16  17
ENDBRANCH  15  16
ENDBRANCH  14  15
END_RES GLU D 570
ENDMDL
MODEL 4
REMARK VINA RESULT:      -7.4      2.060      3.762
REMARK WARNING: 32 MAX_TORS EXCEEDED!!!
REMARK  40 active torsions:
REMARK  status: ('A' for Active; 'I' for Inactive)
REMARK    1  A    between atoms: C_2  and  C_3 
REMARK    2  A    between atoms: C_3  and  C_4 
REMARK    3  A    between atoms: C_4  and  C_5 
REMARK    4  A    between atoms: C_5  and  C_6 
REMARK    5  A    between atoms: C_6  and  C_7 
REMARK    6  A    between atoms: C_7  and  C_8 
REMARK    7  A    between atoms: C_8  and  C_9 
REMARK    8  A    between atoms: C_10  and  C_11 
REMARK    9  A    between atoms: C_11  and  C_12 
REMARK   10  A    between atoms: C_12  and  C_13 
REMARK   11  A    between atoms: C_13  and  C_14 
REMARK   12  A    between atoms: C_14  and  C_15 
REMARK   13  A    between atoms: C_15  and  C_16 
REMARK   14  A    between atoms: C_16  and  C_17 
REMARK   15  A    between atoms: C_17  and  C_18 
REMARK   16  A    between atoms: C_18  and  C_19 
REMARK   17  A    between atoms: C_19  and  C_20 
REMARK       I    between atoms: C_20  and  N_22 
REMARK   18  A    between atoms: N_22  and  C_23 
REMARK   19  A    between atoms: C_23  and  C_24 
REMARK   20  A    between atoms: C_23  and  C_37 
REMARK   21  A    between atoms: C_24  and  O_25 
REMARK   22  A    between atoms: O_25  and  C_26 
REMARK   23  A    between atoms: C_27  and  O_36 
REMARK   24  A    between atoms: C_28  and  O_35 
REMARK   25  A    between atoms: C_29  and  O_34 
REMARK   26  A    between atoms: C_30  and  C_32 
REMARK   27  A    between atoms: C_32  and  O_33 
REMARK   28  A    between atoms: C_37  and  C_38 
REMARK   29  A    between atoms: C_37  and  O_53 
REMARK   30  A    between atoms: C_39  and  C_40 
REMARK   31  A    between atoms: C_40  and  C_41 
REMARK   32  A    between atoms: C_41  and  C_42 
REMARK   33  A    between atoms: C_42  and  C_43 
REMARK   34  A    between atoms: C_43  and  C_44 
REMARK   35  A    between atoms: C_44  and  C_45 
REMARK   36  A    between atoms: C_45  and  C_46 
REMARK   37  A    between atoms: C_46  and  C_47 
REMARK   38  A    between atoms: C_47  and  C_48 
REMARK   39  A    between atoms: C_49  and  C_50 
REMARK   40  A    between atoms: C_50  and  C_51 
ROOT
HETATM    1  C   UNL     1     -25.912  -5.204 -16.235  1.00  0.00     0.140 C 
ENDROOT
BRANCH   1   2
HETATM    2  N   UNL     1     -25.292  -5.683 -15.000  1.00  0.00    -0.352 N 
HETATM    3  C   UNL     1     -23.975  -5.371 -14.685  1.00  0.00     0.218 C 
HETATM    4  O   UNL     1     -23.258  -4.618 -15.339  1.00  0.00    -0.274 OA
HETATM    5  H   UNL     1     -25.678  -6.537 -14.611  1.00  0.00     0.163 HD
BRANCH   3   6
HETATM    6  C   UNL     1     -23.496  -6.007 -13.395  1.00  0.00     0.103 C 
BRANCH   6   7
HETATM    7  C   UNL     1     -22.485  -5.122 -12.687  1.00  0.00     0.009 C 
BRANCH   7   8
HETATM    8  C   UNL     1     -23.126  -4.355 -11.544  1.00  0.00     0.000 C 
BRANCH   8   9
HETATM    9  C   UNL     1     -22.083  -3.459 -10.893  1.00  0.00     0.000 C 
BRANCH   9  10
HETATM   10  C   UNL     1     -20.764  -4.197 -10.772  1.00  0.00     0.000 C 
BRANCH  10  11
HETATM   11  C   UNL     1     -20.300  -4.212  -9.326  1.00  0.00     0.000 C 
BRANCH  11  12
HETATM   12  C   UNL     1     -21.477  -3.938  -8.407  1.00  0.00     0.000 C 
BRANCH  12  13
HETATM   13  C   UNL     1     -21.011  -3.854  -6.963  1.00  0.00     0.004 C 
BRANCH  13  14
HETATM   14  C   UNL     1     -19.878  -4.842  -6.728  1.00  0.00     0.027 C 
BRANCH  14  15
HETATM   15  C   UNL     1     -20.392  -6.042  -6.005  1.00  0.00    -0.031 C 
HETATM   16  C   UNL     1     -21.259  -5.961  -4.989  1.00  0.00    -0.031 C 
BRANCH  16  17
HETATM   17  C   UNL     1     -21.768  -7.164  -4.267  1.00  0.00     0.027 C 
BRANCH  17  18
HETATM   18  C   UNL     1     -21.167  -7.220  -2.870  1.00  0.00     0.004 C 
BRANCH  18  19
HETATM   19  C   UNL     1     -21.955  -6.325  -1.925  1.00  0.00     0.000 C 
BRANCH  19  20
HETATM   20  C   UNL     1     -22.465  -7.125  -0.737  1.00  0.00     0.000 C 
BRANCH  20  21
HETATM   21  C   UNL     1     -21.357  -8.005  -0.173  1.00  0.00     0.000 C 
BRANCH  21  22
HETATM   22  C   UNL     1     -21.939  -9.296   0.386  1.00  0.00    -0.000 C 
BRANCH  22  23
HETATM   23  C   UNL     1     -23.400  -9.452  -0.020  1.00  0.00    -0.005 C 
HETATM   24  C   UNL     1     -23.721 -10.905  -0.319  1.00  0.00     0.005 C 
ENDBRANCH  22  23
ENDBRANCH  21  22
ENDBRANCH  20  21
ENDBRANCH  19  20
ENDBRANCH  18  19
ENDBRANCH  17  18
ENDBRANCH  16  17
ENDBRANCH  14  15
ENDBRANCH  13  14
ENDBRANCH  12  13
ENDBRANCH  11  12
ENDBRANCH  10  11
ENDBRANCH   9  10
ENDBRANCH   8   9
ENDBRANCH   7   8
ENDBRANCH   6   7
ENDBRANCH   3   6
ENDBRANCH   1   2
BRANCH   1  25
HETATM   25  C   UNL     1     -26.600  -6.398 -16.917  1.00  0.00     0.199 C 
BRANCH  25  26
HETATM   26  O   UNL     1     -25.762  -7.121 -17.828  1.00  0.00    -0.356 OA
BRANCH  26  27
HETATM   27  C   UNL     1     -25.483  -6.334 -18.991  1.00  0.00     0.291 C 
HETATM   28  C   UNL     1     -26.466  -6.707 -20.078  1.00  0.00     0.204 C 
HETATM   29  C   UNL     1     -26.123  -8.103 -20.580  1.00  0.00     0.183 C 
HETATM   30  C   UNL     1     -24.659  -8.196 -21.054  1.00  0.00     0.180 C 
HETATM   31  C   UNL     1     -23.765  -7.781 -19.910  1.00  0.00     0.179 C 
HETATM   32  O   UNL     1     -24.151  -6.437 -19.545  1.00  0.00    -0.348 OA
BRANCH  28  33
HETATM   33  O   UNL     1     -26.377  -5.753 -21.114  1.00  0.00    -0.388 OA
HETATM   34  H   UNL     1     -25.535  -5.915 -21.587  1.00  0.00     0.210 HD
ENDBRANCH  28  33
BRANCH  29  35
HETATM   35  O   UNL     1     -27.029  -8.349 -21.636  1.00  0.00    -0.390 OA
HETATM   36  H   UNL     1     -27.550  -9.081 -21.245  1.00  0.00     0.210 HD
ENDBRANCH  29  35
BRANCH  30  37
HETATM   37  O   UNL     1     -24.370  -7.264 -22.096  1.00  0.00    -0.390 OA
HETATM   38  H   UNL     1     -23.886  -7.784 -22.776  1.00  0.00     0.210 HD
ENDBRANCH  30  37
BRANCH  31  39
HETATM   39  C   UNL     1     -22.295  -7.707 -20.308  1.00  0.00     0.198 C 
BRANCH  39  40
HETATM   40  O   UNL     1     -21.617  -7.674 -19.072  1.00  0.00    -0.398 OA
HETATM   41  H   UNL     1     -21.916  -6.830 -18.684  1.00  0.00     0.209 HD
ENDBRANCH  39  40
ENDBRANCH  31  39
ENDBRANCH  26  27
ENDBRANCH  25  26
ENDBRANCH   1  25
BRANCH   1  42
HETATM   42  C   UNL     1     -26.892  -4.036 -15.977  1.00  0.00     0.165 C 
BRANCH  42  43
HETATM   43  C   UNL     1     -28.274  -4.471 -16.310  1.00  0.00     0.003 C 
HETATM   44  C   UNL     1     -29.029  -3.797 -17.180  1.00  0.00    -0.028 C 
BRANCH  44  45
HETATM   45  C   UNL     1     -30.339  -4.311 -17.690  1.00  0.00     0.027 C 
BRANCH  45  46
HETATM   46  C   UNL     1     -31.241  -4.578 -16.497  1.00  0.00     0.004 C 
BRANCH  46  47
HETATM   47  C   UNL     1     -32.693  -4.705 -16.939  1.00  0.00     0.000 C 
BRANCH  47  48
HETATM   48  C   UNL     1     -33.606  -3.804 -16.117  1.00  0.00     0.000 C 
BRANCH  48  49
HETATM   49  C   UNL     1     -34.196  -4.558 -14.932  1.00  0.00     0.000 C 
BRANCH  49  50
HETATM   50  C   UNL     1     -34.152  -3.717 -13.674  1.00  0.00     0.000 C 
BRANCH  50  51
HETATM   51  C   UNL     1     -33.025  -4.201 -12.772  1.00  0.00     0.004 C 
BRANCH  51  52
HETATM   52  C   UNL     1     -33.092  -3.476 -11.436  1.00  0.00     0.027 C 
BRANCH  52  53
HETATM   53  C   UNL     1     -33.837  -4.298 -10.436  1.00  0.00    -0.031 C 
HETATM   54  C   UNL     1     -34.170  -5.579 -10.648  1.00  0.00    -0.031 C 
BRANCH  54  55
HETATM   55  C   UNL     1     -34.923  -6.402  -9.652  1.00  0.00     0.026 C 
BRANCH  55  56
HETATM   56  C   UNL     1     -34.988  -7.859 -10.101  1.00  0.00    -0.001 C 
HETATM   57  C   UNL     1     -33.611  -8.498 -10.067  1.00  0.00     0.005 C 
ENDBRANCH  55  56
ENDBRANCH  54  55
ENDBRANCH  52  53
ENDBRANCH  51  52
ENDBRANCH  50  51
ENDBRANCH  49  50
ENDBRANCH  48  49
ENDBRANCH  47  48
ENDBRANCH  46  47
ENDBRANCH  45  46
ENDBRANCH  44  45
ENDBRANCH  42  43
BRANCH  42  58
HETATM   58  O   UNL     1     -26.857  -3.629 -14.618  1.00  0.00    -0.390 OA
HETATM   59  H   UNL     1     -27.754  -3.540 -14.256  1.00  0.00     0.210 HD
ENDBRANCH  42  58
ENDBRANCH   1  42
TORSDOF 40
BEGIN_RES ARG D 557
REMARK  4 active torsions:
REMARK  status: ('A' for Active; 'I' for Inactive)
REMARK    1  A    between atoms: CA   and  CB  
REMARK    2  A    between atoms: CB   and  CG  
REMARK    3  A    between atoms: CG   and  CD  
REMARK    4  A    between atoms: CD   and  NE  
REMARK       I    between atoms: NE   and  CZ  
REMARK       I    between atoms: CZ   and  NH1 
REMARK       I    between atoms: CZ   and  NH2 
ROOT
ATOM      1  CA  ARG D 557     -26.217   2.705 -17.014  1.00 35.49     0.159 C 
ENDROOT
BRANCH   1   2
ATOM      2  CB  ARG D 557     -26.789   1.319 -17.183  1.00 35.49     0.034 C 
BRANCH   2   3
ATOM      3  CG  ARG D 557     -25.835   0.203 -17.159  1.00 35.49     0.027 C 
BRANCH   3   4
ATOM      4  CD  ARG D 557     -24.741   0.417 -16.184  1.00 35.49     0.116 C 
BRANCH   4   5
ATOM      5  NE  ARG D 557     -24.873  -0.428 -15.027  1.00 35.49    -0.212 N 
ATOM      6  CZ  ARG D 557     -24.047  -1.390 -14.681  1.00 35.49     0.666 C 
ATOM      7  NH1 ARG D 557     -22.980  -1.700 -15.394  1.00 35.49    -0.235 N 
ATOM      8  NH2 ARG D 557     -24.310  -2.042 -13.586  1.00 35.49    -0.235 N 
ATOM      9  HH  ARG D 557     -22.786  -1.282 -16.117  1.00 35.49     0.174 HD
ATOM     10  HH  ARG D 557     -22.476  -2.335 -15.118  1.00 35.49     0.174 HD
ATOM     11  HH  ARG D 557     -25.002  -1.816 -13.141  1.00 35.49     0.174 HD
ATOM     12  HH  ARG D 557     -23.798  -2.667 -13.328  1.00 35.49     0.174 HD
ATOM     13  HE  ARG D 557     -25.572  -0.346 -14.549  1.00 35.49     0.178 HD
ENDBRANCH   4   5
ENDBRANCH   3   4
ENDBRANCH   2   3
ENDBRANCH   1   2
END_RES ARG D 557
BEGIN_RES GLU D 570
REMARK  3 active torsions:
REMARK  status: ('A' for Active; 'I' for Inactive)
REMARK    5  A    between atoms: CA   and  CB  
REMARK    6  A    between atoms: CB   and  CG  
REMARK    7  A    between atoms: CG   and  CD  
ROOT
ATOM     14  CA  GLU D 570     -18.033  -6.348 -13.375  1.00 32.92     0.160 C 
ENDROOT
BRANCH  14  15
ATOM     15  CB  GLU D 570     -19.500  -6.345 -13.794  1.00 32.92     0.043 C 
BRANCH  15  16
ATOM     16  CG  GLU D 570     -20.032  -7.576 -14.434  1.00 32.92     0.100 C 
BRANCH  16  17
ATOM     17  CD  GLU D 570     -20.767  -7.299 -15.725  1.00 32.92     0.185 C 
ATOM     18  OE1 GLU D 570     -20.506  -6.258 -16.358  1.00 32.92    -0.647 OA
ATOM     19  OE2 GLU D 570     -21.624  -8.124 -16.098  1.00 32.92    -0.647 OA
ENDBRANCH  16  17
ENDBRANCH  15  16
ENDBRANCH  14  15
END_RES GLU D 570
ENDMDL
MODEL 5
REMARK VINA RESULT:      -7.4      1.836      3.386
REMARK WARNING: 32 MAX_TORS EXCEEDED!!!
REMARK  40 active torsions:
REMARK  status: ('A' for Active; 'I' for Inactive)
REMARK    1  A    between atoms: C_2  and  C_3 
REMARK    2  A    between atoms: C_3  and  C_4 
REMARK    3  A    between atoms: C_4  and  C_5 
REMARK    4  A    between atoms: C_5  and  C_6 
REMARK    5  A    between atoms: C_6  and  C_7 
REMARK    6  A    between atoms: C_7  and  C_8 
REMARK    7  A    between atoms: C_8  and  C_9 
REMARK    8  A    between atoms: C_10  and  C_11 
REMARK    9  A    between atoms: C_11  and  C_12 
REMARK   10  A    between atoms: C_12  and  C_13 
REMARK   11  A    between atoms: C_13  and  C_14 
REMARK   12  A    between atoms: C_14  and  C_15 
REMARK   13  A    between atoms: C_15  and  C_16 
REMARK   14  A    between atoms: C_16  and  C_17 
REMARK   15  A    between atoms: C_17  and  C_18 
REMARK   16  A    between atoms: C_18  and  C_19 
REMARK   17  A    between atoms: C_19  and  C_20 
REMARK       I    between atoms: C_20  and  N_22 
REMARK   18  A    between atoms: N_22  and  C_23 
REMARK   19  A    between atoms: C_23  and  C_24 
REMARK   20  A    between atoms: C_23  and  C_37 
REMARK   21  A    between atoms: C_24  and  O_25 
REMARK   22  A    between atoms: O_25  and  C_26 
REMARK   23  A    between atoms: C_27  and  O_36 
REMARK   24  A    between atoms: C_28  and  O_35 
REMARK   25  A    between atoms: C_29  and  O_34 
REMARK   26  A    between atoms: C_30  and  C_32 
REMARK   27  A    between atoms: C_32  and  O_33 
REMARK   28  A    between atoms: C_37  and  C_38 
REMARK   29  A    between atoms: C_37  and  O_53 
REMARK   30  A    between atoms: C_39  and  C_40 
REMARK   31  A    between atoms: C_40  and  C_41 
REMARK   32  A    between atoms: C_41  and  C_42 
REMARK   33  A    between atoms: C_42  and  C_43 
REMARK   34  A    between atoms: C_43  and  C_44 
REMARK   35  A    between atoms: C_44  and  C_45 
REMARK   36  A    between atoms: C_45  and  C_46 
REMARK   37  A    between atoms: C_46  and  C_47 
REMARK   38  A    between atoms: C_47  and  C_48 
REMARK   39  A    between atoms: C_49  and  C_50 
REMARK   40  A    between atoms: C_50  and  C_51 
ROOT
HETATM    1  C   UNL     1     -26.499  -5.932 -16.734  1.00  0.00     0.140 C 
ENDROOT
BRANCH   1   2
HETATM    2  N   UNL     1     -25.492  -6.391 -15.777  1.00  0.00    -0.352 N 
HETATM    3  C   UNL     1     -24.767  -5.493 -15.005  1.00  0.00     0.218 C 
HETATM    4  O   UNL     1     -24.953  -4.279 -14.983  1.00  0.00    -0.274 OA
HETATM    5  H   UNL     1     -25.065  -7.290 -15.979  1.00  0.00     0.163 HD
BRANCH   3   6
HETATM    6  C   UNL     1     -23.732  -6.158 -14.118  1.00  0.00     0.103 C 
BRANCH   6   7
HETATM    7  C   UNL     1     -22.789  -5.134 -13.510  1.00  0.00     0.009 C 
BRANCH   7   8
HETATM    8  C   UNL     1     -23.111  -4.886 -12.047  1.00  0.00     0.000 C 
BRANCH   8   9
HETATM    9  C   UNL     1     -22.226  -3.767 -11.521  1.00  0.00     0.000 C 
BRANCH   9  10
HETATM   10  C   UNL     1     -21.906  -3.998 -10.057  1.00  0.00     0.000 C 
BRANCH  10  11
HETATM   11  C   UNL     1     -20.460  -4.437  -9.897  1.00  0.00     0.000 C 
BRANCH  11  12
HETATM   12  C   UNL     1     -19.947  -4.023  -8.529  1.00  0.00     0.000 C 
BRANCH  12  13
HETATM   13  C   UNL     1     -20.559  -4.898  -7.449  1.00  0.00     0.004 C 
BRANCH  13  14
HETATM   14  C   UNL     1     -19.740  -4.790  -6.171  1.00  0.00     0.027 C 
BRANCH  14  15
HETATM   15  C   UNL     1     -20.532  -5.300  -5.014  1.00  0.00    -0.031 C 
HETATM   16  C   UNL     1     -21.232  -6.439  -5.060  1.00  0.00    -0.031 C 
BRANCH  16  17
HETATM   17  C   UNL     1     -22.026  -6.944  -3.901  1.00  0.00     0.027 C 
BRANCH  17  18
HETATM   18  C   UNL     1     -21.323  -6.586  -2.598  1.00  0.00     0.004 C 
BRANCH  18  19
HETATM   19  C   UNL     1     -22.335  -6.499  -1.465  1.00  0.00     0.000 C 
BRANCH  19  20
HETATM   20  C   UNL     1     -21.969  -7.465  -0.350  1.00  0.00     0.000 C 
BRANCH  20  21
HETATM   21  C   UNL     1     -23.205  -8.213   0.132  1.00  0.00     0.000 C 
BRANCH  21  22
HETATM   22  C   UNL     1     -23.000  -9.716  -0.001  1.00  0.00    -0.000 C 
BRANCH  22  23
HETATM   23  C   UNL     1     -22.396 -10.063  -1.357  1.00  0.00    -0.005 C 
HETATM   24  C   UNL     1     -23.243 -11.098  -2.072  1.00  0.00     0.005 C 
ENDBRANCH  22  23
ENDBRANCH  21  22
ENDBRANCH  20  21
ENDBRANCH  19  20
ENDBRANCH  18  19
ENDBRANCH  17  18
ENDBRANCH  16  17
ENDBRANCH  14  15
ENDBRANCH  13  14
ENDBRANCH  12  13
ENDBRANCH  11  12
ENDBRANCH  10  11
ENDBRANCH   9  10
ENDBRANCH   8   9
ENDBRANCH   7   8
ENDBRANCH   6   7
ENDBRANCH   3   6
ENDBRANCH   1   2
BRANCH   1  25
HETATM   25  C   UNL     1     -26.285  -6.693 -18.052  1.00  0.00     0.199 C 
BRANCH  25  26
HETATM   26  O   UNL     1     -24.910  -6.934 -18.379  1.00  0.00    -0.356 OA
BRANCH  26  27
HETATM   27  C   UNL     1     -24.578  -6.341 -19.639  1.00  0.00     0.291 C 
HETATM   28  C   UNL     1     -25.754  -6.503 -20.577  1.00  0.00     0.204 C 
HETATM   29  C   UNL     1     -25.861  -7.971 -20.965  1.00  0.00     0.183 C 
HETATM   30  C   UNL     1     -24.547  -8.500 -21.572  1.00  0.00     0.180 C 
HETATM   31  C   UNL     1     -23.439  -8.269 -20.572  1.00  0.00     0.179 C 
HETATM   32  O   UNL     1     -23.403  -6.848 -20.311  1.00  0.00    -0.348 OA
BRANCH  28  33
HETATM   33  O   UNL     1     -25.544  -5.687 -21.710  1.00  0.00    -0.388 OA
HETATM   34  H   UNL     1     -25.504  -4.760 -21.397  1.00  0.00     0.210 HD
ENDBRANCH  28  33
BRANCH  29  35
HETATM   35  O   UNL     1     -26.926  -8.031 -21.893  1.00  0.00    -0.390 OA
HETATM   36  H   UNL     1     -26.724  -8.887 -22.327  1.00  0.00     0.210 HD
ENDBRANCH  29  35
BRANCH  30  37
HETATM   37  O   UNL     1     -24.152  -7.763 -22.728  1.00  0.00    -0.390 OA
HETATM   38  H   UNL     1     -23.263  -7.403 -22.510  1.00  0.00     0.210 HD
ENDBRANCH  30  37
BRANCH  31  39
HETATM   39  C   UNL     1     -22.065  -8.634 -21.123  1.00  0.00     0.198 C 
BRANCH  39  40
HETATM   40  O   UNL     1     -22.330  -9.724 -21.979  1.00  0.00    -0.398 OA
HETATM   41  H   UNL     1     -21.573  -9.703 -22.595  1.00  0.00     0.209 HD
ENDBRANCH  39  40
ENDBRANCH  31  39
ENDBRANCH  26  27
ENDBRANCH  25  26
ENDBRANCH   1  25
BRANCH   1  42
HETATM   42  C   UNL     1     -27.937  -6.100 -16.189  1.00  0.00     0.165 C 
BRANCH  42  43
HETATM   43  C   UNL     1     -28.873  -5.292 -17.015  1.00  0.00     0.003 C 
HETATM   44  C   UNL     1     -30.174  -5.222 -16.731  1.00  0.00    -0.028 C 
BRANCH  44  45
HETATM   45  C   UNL     1     -31.106  -4.269 -17.410  1.00  0.00     0.027 C 
BRANCH  45  46
HETATM   46  C   UNL     1     -32.453  -4.343 -16.712  1.00  0.00     0.004 C 
BRANCH  46  47
HETATM   47  C   UNL     1     -33.399  -3.279 -17.255  1.00  0.00     0.000 C 
BRANCH  47  48
HETATM   48  C   UNL     1     -34.480  -2.928 -16.242  1.00  0.00     0.000 C 
BRANCH  48  49
HETATM   49  C   UNL     1     -35.335  -1.766 -16.735  1.00  0.00     0.000 C 
BRANCH  49  50
HETATM   50  C   UNL     1     -35.149  -0.544 -15.861  1.00  0.00     0.000 C 
BRANCH  50  51
HETATM   51  C   UNL     1     -35.886  -0.737 -14.543  1.00  0.00     0.004 C 
BRANCH  51  52
HETATM   52  C   UNL     1     -35.474   0.350 -13.562  1.00  0.00     0.027 C 
BRANCH  52  53
HETATM   53  C   UNL     1     -34.891  -0.258 -12.328  1.00  0.00    -0.031 C 
HETATM   54  C   UNL     1     -34.570  -1.556 -12.237  1.00  0.00    -0.031 C 
BRANCH  54  55
HETATM   55  C   UNL     1     -33.995  -2.170 -11.000  1.00  0.00     0.026 C 
BRANCH  55  56
HETATM   56  C   UNL     1     -33.164  -3.401 -11.350  1.00  0.00    -0.001 C 
HETATM   57  C   UNL     1     -33.537  -3.934 -12.722  1.00  0.00     0.005 C 
ENDBRANCH  55  56
ENDBRANCH  54  55
ENDBRANCH  52  53
ENDBRANCH  51  52
ENDBRANCH  50  51
ENDBRANCH  49  50
ENDBRANCH  48  49
ENDBRANCH  47  48
ENDBRANCH  46  47
ENDBRANCH  45  46
ENDBRANCH  44  45
ENDBRANCH  42  43
BRANCH  42  58
HETATM   58  O   UNL     1     -28.346  -7.458 -16.233  1.00  0.00    -0.390 OA
HETATM   59  H   UNL     1     -29.177  -7.590 -15.748  1.00  0.00     0.210 HD
ENDBRANCH  42  58
ENDBRANCH   1  42
TORSDOF 40
BEGIN_RES ARG D 557
REMARK  4 active torsions:
REMARK  status: ('A' for Active; 'I' for Inactive)
REMARK    1  A    between atoms: CA   and  CB  
REMARK    2  A    between atoms: CB   and  CG  
REMARK    3  A    between atoms: CG   and  CD  
REMARK    4  A    between atoms: CD   and  NE  
REMARK       I    between atoms: NE   and  CZ  
REMARK       I    between atoms: CZ   and  NH1 
REMARK       I    between atoms: CZ   and  NH2 
ROOT
ATOM      1  CA  ARG D 557     -26.217   2.705 -17.014  1.00 35.49     0.159 C 
ENDROOT
BRANCH   1   2
ATOM      2  CB  ARG D 557     -26.789   1.319 -17.183  1.00 35.49     0.034 C 
BRANCH   2   3
ATOM      3  CG  ARG D 557     -25.833   0.205 -17.182  1.00 35.49     0.027 C 
BRANCH   3   4
ATOM      4  CD  ARG D 557     -24.688   0.445 -16.274  1.00 35.49     0.116 C 
BRANCH   4   5
ATOM      5  NE  ARG D 557     -24.797  -0.308 -15.053  1.00 35.49    -0.212 N 
ATOM      6  CZ  ARG D 557     -24.016  -1.302 -14.692  1.00 35.49     0.666 C 
ATOM      7  NH1 ARG D 557     -23.025  -1.736 -15.447  1.00 35.49    -0.235 N 
ATOM      8  NH2 ARG D 557     -24.248  -1.858 -13.538  1.00 35.49    -0.235 N 
ATOM      9  HH  ARG D 557     -22.853  -1.384 -16.209  1.00 35.49     0.174 HD
ATOM     10  HH  ARG D 557     -22.547  -2.387 -15.158  1.00 35.49     0.174 HD
ATOM     11  HH  ARG D 557     -24.890  -1.552 -13.068  1.00 35.49     0.174 HD
ATOM     12  HH  ARG D 557     -23.763  -2.500 -13.269  1.00 35.49     0.174 HD
ATOM     13  HE  ARG D 557     -25.454  -0.143 -14.539  1.00 35.49     0.178 HD
ENDBRANCH   4   5
ENDBRANCH   3   4
ENDBRANCH   2   3
ENDBRANCH   1   2
END_RES ARG D 557
BEGIN_RES GLU D 570
REMARK  3 active torsions:
REMARK  status: ('A' for Active; 'I' for Inactive)
REMARK    5  A    between atoms: CA   and  CB  
REMARK    6  A    between atoms: CB   and  CG  
REMARK    7  A    between atoms: CG   and  CD  
ROOT
ATOM     14  CA  GLU D 570     -18.033  -6.348 -13.375  1.00 32.92     0.160 C 
ENDROOT
BRANCH  14  15
ATOM     15  CB  GLU D 570     -19.500  -6.345 -13.794  1.00 32.92     0.043 C 
BRANCH  15  16
ATOM     16  CG  GLU D 570     -20.080  -7.629 -14.264  1.00 32.92     0.100 C 
BRANCH  16  17
ATOM     17  CD  GLU D 570     -20.629  -7.549 -15.669  1.00 32.92     0.185 C 
ATOM     18  OE1 GLU D 570     -20.663  -6.444 -16.244  1.00 32.92    -0.647 OA
ATOM     19  OE2 GLU D 570     -21.045  -8.600 -16.196  1.00 32.92    -0.647 OA
ENDBRANCH  16  17
ENDBRANCH  15  16
ENDBRANCH  14  15
END_RES GLU D 570
ENDMDL
MODEL 6
REMARK VINA RESULT:      -7.3      8.785     19.359
REMARK WARNING: 32 MAX_TORS EXCEEDED!!!
REMARK  40 active torsions:
REMARK  status: ('A' for Active; 'I' for Inactive)
REMARK    1  A    between atoms: C_2  and  C_3 
REMARK    2  A    between atoms: C_3  and  C_4 
REMARK    3  A    between atoms: C_4  and  C_5 
REMARK    4  A    between atoms: C_5  and  C_6 
REMARK    5  A    between atoms: C_6  and  C_7 
REMARK    6  A    between atoms: C_7  and  C_8 
REMARK    7  A    between atoms: C_8  and  C_9 
REMARK    8  A    between atoms: C_10  and  C_11 
REMARK    9  A    between atoms: C_11  and  C_12 
REMARK   10  A    between atoms: C_12  and  C_13 
REMARK   11  A    between atoms: C_13  and  C_14 
REMARK   12  A    between atoms: C_14  and  C_15 
REMARK   13  A    between atoms: C_15  and  C_16 
REMARK   14  A    between atoms: C_16  and  C_17 
REMARK   15  A    between atoms: C_17  and  C_18 
REMARK   16  A    between atoms: C_18  and  C_19 
REMARK   17  A    between atoms: C_19  and  C_20 
REMARK       I    between atoms: C_20  and  N_22 
REMARK   18  A    between atoms: N_22  and  C_23 
REMARK   19  A    between atoms: C_23  and  C_24 
REMARK   20  A    between atoms: C_23  and  C_37 
REMARK   21  A    between atoms: C_24  and  O_25 
REMARK   22  A    between atoms: O_25  and  C_26 
REMARK   23  A    between atoms: C_27  and  O_36 
REMARK   24  A    between atoms: C_28  and  O_35 
REMARK   25  A    between atoms: C_29  and  O_34 
REMARK   26  A    between atoms: C_30  and  C_32 
REMARK   27  A    between atoms: C_32  and  O_33 
REMARK   28  A    between atoms: C_37  and  C_38 
REMARK   29  A    between atoms: C_37  and  O_53 
REMARK   30  A    between atoms: C_39  and  C_40 
REMARK   31  A    between atoms: C_40  and  C_41 
REMARK   32  A    between atoms: C_41  and  C_42 
REMARK   33  A    between atoms: C_42  and  C_43 
REMARK   34  A    between atoms: C_43  and  C_44 
REMARK   35  A    between atoms: C_44  and  C_45 
REMARK   36  A    between atoms: C_45  and  C_46 
REMARK   37  A    between atoms: C_46  and  C_47 
REMARK   38  A    between atoms: C_47  and  C_48 
REMARK   39  A    between atoms: C_49  and  C_50 
REMARK   40  A    between atoms: C_50  and  C_51 
ROOT
HETATM    1  C   UNL     1     -17.232 -12.652  -0.465  1.00  0.00     0.140 C 
ENDROOT
BRANCH   1   2
HETATM    2  N   UNL     1     -18.270 -11.981   0.317  1.00  0.00    -0.352 N 
HETATM    3  C   UNL     1     -19.613 -12.092  -0.020  1.00  0.00     0.218 C 
HETATM    4  O   UNL     1     -20.053 -12.807  -0.917  1.00  0.00    -0.274 OA
HETATM    5  H   UNL     1     -17.980 -11.149   0.821  1.00  0.00     0.163 HD
BRANCH   3   6
HETATM    6  C   UNL     1     -20.529 -11.278   0.873  1.00  0.00     0.103 C 
BRANCH   6   7
HETATM    7  C   UNL     1     -20.907  -9.960   0.219  1.00  0.00     0.009 C 
BRANCH   7   8
HETATM    8  C   UNL     1     -21.036  -8.850   1.247  1.00  0.00     0.000 C 
BRANCH   8   9
HETATM    9  C   UNL     1     -22.134  -7.891   0.815  1.00  0.00     0.000 C 
BRANCH   9  10
HETATM   10  C   UNL     1     -22.376  -8.013  -0.677  1.00  0.00     0.000 C 
BRANCH  10  11
HETATM   11  C   UNL     1     -22.302  -6.645  -1.335  1.00  0.00     0.000 C 
BRANCH  11  12
HETATM   12  C   UNL     1     -21.256  -6.661  -2.434  1.00  0.00     0.000 C 
BRANCH  12  13
HETATM   13  C   UNL     1     -21.394  -7.916  -3.278  1.00  0.00     0.004 C 
BRANCH  13  14
HETATM   14  C   UNL     1     -21.901  -7.552  -4.666  1.00  0.00     0.027 C 
BRANCH  14  15
HETATM   15  C   UNL     1     -21.456  -6.172  -5.023  1.00  0.00    -0.031 C 
HETATM   16  C   UNL     1     -20.480  -5.930  -5.905  1.00  0.00    -0.031 C 
BRANCH  16  17
HETATM   17  C   UNL     1     -20.037  -4.549  -6.257  1.00  0.00     0.027 C 
BRANCH  17  18
HETATM   18  C   UNL     1     -20.766  -4.075  -7.507  1.00  0.00     0.004 C 
BRANCH  18  19
HETATM   19  C   UNL     1     -20.603  -5.094  -8.625  1.00  0.00     0.000 C 
BRANCH  19  20
HETATM   20  C   UNL     1     -20.348  -4.394  -9.950  1.00  0.00     0.000 C 
BRANCH  20  21
HETATM   21  C   UNL     1     -21.579  -3.609 -10.382  1.00  0.00     0.000 C 
BRANCH  21  22
HETATM   22  C   UNL     1     -22.452  -4.455 -11.299  1.00  0.00    -0.000 C 
BRANCH  22  23
HETATM   23  C   UNL     1     -23.698  -4.938 -10.568  1.00  0.00    -0.005 C 
HETATM   24  C   UNL     1     -24.269  -3.837  -9.695  1.00  0.00     0.005 C 
ENDBRANCH  22  23
ENDBRANCH  21  22
ENDBRANCH  20  21
ENDBRANCH  19  20
ENDBRANCH  18  19
ENDBRANCH  17  18
ENDBRANCH  16  17
ENDBRANCH  14  15
ENDBRANCH  13  14
ENDBRANCH  12  13
ENDBRANCH  11  12
ENDBRANCH  10  11
ENDBRANCH   9  10
ENDBRANCH   8   9
ENDBRANCH   7   8
ENDBRANCH   6   7
ENDBRANCH   3   6
ENDBRANCH   1   2
BRANCH   1  25
HETATM   25  C   UNL     1     -16.090 -11.649  -0.699  1.00  0.00     0.199 C 
BRANCH  25  26
HETATM   26  O   UNL     1     -16.118 -11.011  -1.982  1.00  0.00    -0.356 OA
BRANCH  26  27
HETATM   27  C   UNL     1     -16.701 -11.874  -2.965  1.00  0.00     0.291 C 
HETATM   28  C   UNL     1     -15.605 -12.381  -3.876  1.00  0.00     0.204 C 
HETATM   29  C   UNL     1     -15.131 -11.226  -4.747  1.00  0.00     0.183 C 
HETATM   30  C   UNL     1     -16.294 -10.582  -5.527  1.00  0.00     0.180 C 
HETATM   31  C   UNL     1     -17.339 -10.135  -4.532  1.00  0.00     0.179 C 
HETATM   32  O   UNL     1     -17.742 -11.310  -3.794  1.00  0.00    -0.348 OA
BRANCH  28  33
HETATM   33  O   UNL     1     -16.122 -13.436  -4.660  1.00  0.00    -0.388 OA
HETATM   34  H   UNL     1     -15.580 -13.485  -5.475  1.00  0.00     0.210 HD
ENDBRANCH  28  33
BRANCH  29  35
HETATM   35  O   UNL     1     -14.170 -11.790  -5.617  1.00  0.00    -0.390 OA
HETATM   36  H   UNL     1     -14.093 -12.685  -5.226  1.00  0.00     0.210 HD
ENDBRANCH  29  35
BRANCH  30  37
HETATM   37  O   UNL     1     -16.968 -11.522  -6.363  1.00  0.00    -0.390 OA
HETATM   38  H   UNL     1     -17.782 -11.059  -6.664  1.00  0.00     0.210 HD
ENDBRANCH  30  37
BRANCH  31  39
HETATM   39  C   UNL     1     -18.600  -9.602  -5.203  1.00  0.00     0.198 C 
BRANCH  39  40
HETATM   40  O   UNL     1     -18.119  -9.007  -6.388  1.00  0.00    -0.398 OA
HETATM   41  H   UNL     1     -17.459  -9.654  -6.702  1.00  0.00     0.209 HD
ENDBRANCH  39  40
ENDBRANCH  31  39
ENDBRANCH  26  27
ENDBRANCH  25  26
ENDBRANCH   1  25
BRANCH   1  42
HETATM   42  C   UNL     1     -16.738 -13.949   0.218  1.00  0.00     0.165 C 
BRANCH  42  43
HETATM   43  C   UNL     1     -16.322 -13.643   1.612  1.00  0.00     0.003 C 
HETATM   44  C   UNL     1     -15.890 -14.596   2.438  1.00  0.00    -0.028 C 
BRANCH  44  45
HETATM   45  C   UNL     1     -15.277 -14.303   3.772  1.00  0.00     0.027 C 
BRANCH  45  46
HETATM   46  C   UNL     1     -14.521 -15.537   4.228  1.00  0.00     0.004 C 
BRANCH  46  47
HETATM   47  C   UNL     1     -14.804 -15.829   5.697  1.00  0.00     0.000 C 
BRANCH  47  48
HETATM   48  C   UNL     1     -13.553 -15.664   6.549  1.00  0.00     0.000 C 
BRANCH  48  49
HETATM   49  C   UNL     1     -12.293 -15.760   5.696  1.00  0.00     0.000 C 
BRANCH  49  50
HETATM   50  C   UNL     1     -11.049 -15.605   6.544  1.00  0.00     0.000 C 
BRANCH  50  51
HETATM   51  C   UNL     1     -10.405 -14.253   6.269  1.00  0.00     0.004 C 
BRANCH  51  52
HETATM   52  C   UNL     1      -8.894 -14.367   6.412  1.00  0.00     0.027 C 
BRANCH  52  53
HETATM   53  C   UNL     1      -8.265 -14.624   5.082  1.00  0.00    -0.031 C 
HETATM   54  C   UNL     1      -8.785 -14.176   3.931  1.00  0.00    -0.031 C 
BRANCH  54  55
HETATM   55  C   UNL     1      -8.162 -14.439   2.597  1.00  0.00     0.026 C 
BRANCH  55  56
HETATM   56  C   UNL     1      -9.195 -14.289   1.484  1.00  0.00    -0.001 C 
HETATM   57  C   UNL     1      -9.901 -12.948   1.578  1.00  0.00     0.005 C 
ENDBRANCH  55  56
ENDBRANCH  54  55
ENDBRANCH  52  53
ENDBRANCH  51  52
ENDBRANCH  50  51
ENDBRANCH  49  50
ENDBRANCH  48  49
ENDBRANCH  47  48
ENDBRANCH  46  47
ENDBRANCH  45  46
ENDBRANCH  44  45
ENDBRANCH  42  43
BRANCH  42  58
HETATM   58  O   UNL     1     -17.762 -14.931   0.253  1.00  0.00    -0.390 OA
HETATM   59  H   UNL     1     -18.570 -14.581   0.663  1.00  0.00     0.210 HD
ENDBRANCH  42  58
ENDBRANCH   1  42
TORSDOF 40
BEGIN_RES ARG D 557
REMARK  4 active torsions:
REMARK  status: ('A' for Active; 'I' for Inactive)
REMARK    1  A    between atoms: CA   and  CB  
REMARK    2  A    between atoms: CB   and  CG  
REMARK    3  A    between atoms: CG   and  CD  
REMARK    4  A    between atoms: CD   and  NE  
REMARK       I    between atoms: NE   and  CZ  
REMARK       I    between atoms: CZ   and  NH1 
REMARK       I    between atoms: CZ   and  NH2 
ROOT
ATOM      1  CA  ARG D 557     -26.217   2.705 -17.014  1.00 35.49     0.159 C 
ENDROOT
BRANCH   1   2
ATOM      2  CB  ARG D 557     -26.789   1.319 -17.183  1.00 35.49     0.034 C 
BRANCH   2   3
ATOM      3  CG  ARG D 557     -25.948   0.199 -16.743  1.00 35.49     0.027 C 
BRANCH   3   4
ATOM      4  CD  ARG D 557     -26.730  -0.863 -16.069  1.00 35.49     0.116 C 
BRANCH   4   5
ATOM      5  NE  ARG D 557     -27.999  -1.091 -16.710  1.00 35.49    -0.212 N 
ATOM      6  CZ  ARG D 557     -28.533  -2.266 -16.960  1.00 35.49     0.666 C 
ATOM      7  NH1 ARG D 557     -27.931  -3.399 -16.649  1.00 35.49    -0.235 N 
ATOM      8  NH2 ARG D 557     -29.703  -2.284 -17.529  1.00 35.49    -0.235 N 
ATOM      9  HH  ARG D 557     -27.162  -3.410 -16.272  1.00 35.49     0.174 HD
ATOM     10  HH  ARG D 557     -28.329  -4.135 -16.834  1.00 35.49     0.174 HD
ATOM     11  HH  ARG D 557     -30.071  -1.537 -17.712  1.00 35.49     0.174 HD
ATOM     12  HH  ARG D 557     -30.081  -3.023 -17.703  1.00 35.49     0.174 HD
ATOM     13  HE  ARG D 557     -28.422  -0.417 -17.009  1.00 35.49     0.178 HD
ENDBRANCH   4   5
ENDBRANCH   3   4
ENDBRANCH   2   3
ENDBRANCH   1   2
END_RES ARG D 557
BEGIN_RES GLU D 570
REMARK  3 active torsions:
REMARK  status: ('A' for Active; 'I' for Inactive)
REMARK    5  A    between atoms: CA   and  CB  
REMARK    6  A    between atoms: CB   and  CG  
REMARK    7  A    between atoms: CG   and  CD  
ROOT
ATOM     14  CA  GLU D 570     -18.033  -6.348 -13.375  1.00 32.92     0.160 C 
ENDROOT
BRANCH  14  15
ATOM     15  CB  GLU D 570     -19.500  -6.345 -13.794  1.00 32.92     0.043 C 
BRANCH  15  16
ATOM     16  CG  GLU D 570     -19.809  -5.989 -15.203  1.00 32.92     0.100 C 
BRANCH  16  17
ATOM     17  CD  GLU D 570     -21.267  -5.660 -15.422  1.00 32.92     0.185 C 
ATOM     18  OE1 GLU D 570     -22.118  -6.140 -14.649  1.00 32.92    -0.647 OA
ATOM     19  OE2 GLU D 570     -21.563  -4.929 -16.387  1.00 32.92    -0.647 OA
ENDBRANCH  16  17
ENDBRANCH  15  16
ENDBRANCH  14  15
END_RES GLU D 570
ENDMDL
MODEL 7
REMARK VINA RESULT:      -7.2      6.324     14.906
REMARK WARNING: 32 MAX_TORS EXCEEDED!!!
REMARK  40 active torsions:
REMARK  status: ('A' for Active; 'I' for Inactive)
REMARK    1  A    between atoms: C_2  and  C_3 
REMARK    2  A    between atoms: C_3  and  C_4 
REMARK    3  A    between atoms: C_4  and  C_5 
REMARK    4  A    between atoms: C_5  and  C_6 
REMARK    5  A    between atoms: C_6  and  C_7 
REMARK    6  A    between atoms: C_7  and  C_8 
REMARK    7  A    between atoms: C_8  and  C_9 
REMARK    8  A    between atoms: C_10  and  C_11 
REMARK    9  A    between atoms: C_11  and  C_12 
REMARK   10  A    between atoms: C_12  and  C_13 
REMARK   11  A    between atoms: C_13  and  C_14 
REMARK   12  A    between atoms: C_14  and  C_15 
REMARK   13  A    between atoms: C_15  and  C_16 
REMARK   14  A    between atoms: C_16  and  C_17 
REMARK   15  A    between atoms: C_17  and  C_18 
REMARK   16  A    between atoms: C_18  and  C_19 
REMARK   17  A    between atoms: C_19  and  C_20 
REMARK       I    between atoms: C_20  and  N_22 
REMARK   18  A    between atoms: N_22  and  C_23 
REMARK   19  A    between atoms: C_23  and  C_24 
REMARK   20  A    between atoms: C_23  and  C_37 
REMARK   21  A    between atoms: C_24  and  O_25 
REMARK   22  A    between atoms: O_25  and  C_26 
REMARK   23  A    between atoms: C_27  and  O_36 
REMARK   24  A    between atoms: C_28  and  O_35 
REMARK   25  A    between atoms: C_29  and  O_34 
REMARK   26  A    between atoms: C_30  and  C_32 
REMARK   27  A    between atoms: C_32  and  O_33 
REMARK   28  A    between atoms: C_37  and  C_38 
REMARK   29  A    between atoms: C_37  and  O_53 
REMARK   30  A    between atoms: C_39  and  C_40 
REMARK   31  A    between atoms: C_40  and  C_41 
REMARK   32  A    between atoms: C_41  and  C_42 
REMARK   33  A    between atoms: C_42  and  C_43 
REMARK   34  A    between atoms: C_43  and  C_44 
REMARK   35  A    between atoms: C_44  and  C_45 
REMARK   36  A    between atoms: C_45  and  C_46 
REMARK   37  A    between atoms: C_46  and  C_47 
REMARK   38  A    between atoms: C_47  and  C_48 
REMARK   39  A    between atoms: C_49  and  C_50 
REMARK   40  A    between atoms: C_50  and  C_51 
ROOT
HETATM    1  C   UNL     1     -19.051 -12.415  -6.184  1.00  0.00     0.140 C 
ENDROOT
BRANCH   1   2
HETATM    2  N   UNL     1     -18.592 -11.336  -5.308  1.00  0.00    -0.352 N 
HETATM    3  C   UNL     1     -19.243 -10.110  -5.271  1.00  0.00     0.218 C 
HETATM    4  O   UNL     1     -20.279  -9.848  -5.877  1.00  0.00    -0.274 OA
HETATM    5  H   UNL     1     -17.608 -11.354  -5.059  1.00  0.00     0.163 HD
BRANCH   3   6
HETATM    6  C   UNL     1     -18.585  -9.105  -4.347  1.00  0.00     0.103 C 
BRANCH   6   7
HETATM    7  C   UNL     1     -18.991  -9.338  -2.901  1.00  0.00     0.009 C 
BRANCH   7   8
HETATM    8  C   UNL     1     -20.424  -8.898  -2.652  1.00  0.00     0.000 C 
BRANCH   8   9
HETATM    9  C   UNL     1     -20.422  -7.509  -2.034  1.00  0.00     0.000 C 
BRANCH   9  10
HETATM   10  C   UNL     1     -21.457  -6.634  -2.713  1.00  0.00     0.000 C 
BRANCH  10  11
HETATM   11  C   UNL     1     -21.960  -7.302  -3.982  1.00  0.00     0.000 C 
BRANCH  11  12
HETATM   12  C   UNL     1     -21.813  -6.350  -5.155  1.00  0.00     0.000 C 
BRANCH  12  13
HETATM   13  C   UNL     1     -20.346  -6.157  -5.497  1.00  0.00     0.004 C 
BRANCH  13  14
HETATM   14  C   UNL     1     -20.095  -4.709  -5.895  1.00  0.00     0.027 C 
BRANCH  14  15
HETATM   15  C   UNL     1     -20.548  -4.482  -7.299  1.00  0.00    -0.031 C 
HETATM   16  C   UNL     1     -21.690  -3.852  -7.600  1.00  0.00    -0.031 C 
BRANCH  16  17
HETATM   17  C   UNL     1     -22.140  -3.630  -9.006  1.00  0.00     0.027 C 
BRANCH  17  18
HETATM   18  C   UNL     1     -21.238  -4.395  -9.965  1.00  0.00     0.004 C 
BRANCH  18  19
HETATM   19  C   UNL     1     -20.848  -3.506 -11.136  1.00  0.00     0.000 C 
BRANCH  19  20
HETATM   20  C   UNL     1     -22.055  -2.730 -11.640  1.00  0.00     0.000 C 
BRANCH  20  21
HETATM   21  C   UNL     1     -22.699  -3.453 -12.815  1.00  0.00     0.000 C 
BRANCH  21  22
HETATM   22  C   UNL     1     -23.330  -4.759 -12.351  1.00  0.00    -0.000 C 
BRANCH  22  23
HETATM   23  C   UNL     1     -23.518  -5.716 -13.522  1.00  0.00    -0.005 C 
HETATM   24  C   UNL     1     -23.195  -5.028 -14.835  1.00  0.00     0.005 C 
ENDBRANCH  22  23
ENDBRANCH  21  22
ENDBRANCH  20  21
ENDBRANCH  19  20
ENDBRANCH  18  19
ENDBRANCH  17  18
ENDBRANCH  16  17
ENDBRANCH  14  15
ENDBRANCH  13  14
ENDBRANCH  12  13
ENDBRANCH  11  12
ENDBRANCH  10  11
ENDBRANCH   9  10
ENDBRANCH   8   9
ENDBRANCH   7   8
ENDBRANCH   6   7
ENDBRANCH   3   6
ENDBRANCH   1   2
BRANCH   1  25
HETATM   25  C   UNL     1     -17.860 -12.865  -7.046  1.00  0.00     0.199 C 
BRANCH  25  26
HETATM   26  O   UNL     1     -16.876 -13.631  -6.341  1.00  0.00    -0.356 OA
BRANCH  26  27
HETATM   27  C   UNL     1     -15.664 -12.884  -6.192  1.00  0.00     0.291 C 
HETATM   28  C   UNL     1     -14.499 -13.848  -6.168  1.00  0.00     0.204 C 
HETATM   29  C   UNL     1     -14.533 -14.613  -4.852  1.00  0.00     0.183 C 
HETATM   30  C   UNL     1     -14.536 -13.662  -3.638  1.00  0.00     0.180 C 
HETATM   31  C   UNL     1     -15.717 -12.730  -3.771  1.00  0.00     0.179 C 
HETATM   32  O   UNL     1     -15.559 -12.034  -5.027  1.00  0.00    -0.348 OA
BRANCH  28  33
HETATM   33  O   UNL     1     -13.301 -13.113  -6.302  1.00  0.00    -0.388 OA
HETATM   34  H   UNL     1     -13.009 -13.200  -7.234  1.00  0.00     0.210 HD
ENDBRANCH  28  33
BRANCH  29  35
HETATM   35  O   UNL     1     -13.382 -15.432  -4.870  1.00  0.00    -0.390 OA
HETATM   36  H   UNL     1     -13.110 -15.363  -3.931  1.00  0.00     0.210 HD
ENDBRANCH  29  35
BRANCH  30  37
HETATM   37  O   UNL     1     -13.396 -12.804  -3.624  1.00  0.00    -0.390 OA
HETATM   38  H   UNL     1     -12.659 -13.351  -3.976  1.00  0.00     0.210 HD
ENDBRANCH  30  37
BRANCH  31  39
HETATM   39  C   UNL     1     -15.742 -11.656  -2.690  1.00  0.00     0.198 C 
BRANCH  39  40
HETATM   40  O   UNL     1     -15.505 -10.462  -3.402  1.00  0.00    -0.398 OA
HETATM   41  H   UNL     1     -15.463  -9.792  -2.694  1.00  0.00     0.209 HD
ENDBRANCH  39  40
ENDBRANCH  31  39
ENDBRANCH  26  27
ENDBRANCH  25  26
ENDBRANCH   1  25
BRANCH   1  42
HETATM   42  C   UNL     1     -19.671 -13.586  -5.387  1.00  0.00     0.165 C 
BRANCH  42  43
HETATM   43  C   UNL     1     -21.070 -13.243  -5.017  1.00  0.00     0.003 C 
HETATM   44  C   UNL     1     -21.376 -12.756  -3.814  1.00  0.00    -0.028 C 
BRANCH  44  45
HETATM   45  C   UNL     1     -22.729 -12.214  -3.474  1.00  0.00     0.027 C 
BRANCH  45  46
HETATM   46  C   UNL     1     -22.606 -11.392  -2.204  1.00  0.00     0.004 C 
BRANCH  46  47
HETATM   47  C   UNL     1     -23.578 -11.893  -1.143  1.00  0.00     0.000 C 
BRANCH  47  48
HETATM   48  C   UNL     1     -24.014 -10.769  -0.212  1.00  0.00     0.000 C 
BRANCH  48  49
HETATM   49  C   UNL     1     -23.206  -9.502  -0.469  1.00  0.00     0.000 C 
BRANCH  49  50
HETATM   50  C   UNL     1     -22.914  -8.771   0.824  1.00  0.00     0.000 C 
BRANCH  50  51
HETATM   51  C   UNL     1     -21.456  -8.332   0.848  1.00  0.00     0.004 C 
BRANCH  51  52
HETATM   52  C   UNL     1     -20.651  -9.279   1.725  1.00  0.00     0.027 C 
BRANCH  52  53
HETATM   53  C   UNL     1     -20.662 -10.657   1.149  1.00  0.00    -0.031 C 
HETATM   54  C   UNL     1     -19.696 -11.118   0.343  1.00  0.00    -0.031 C 
BRANCH  54  55
HETATM   55  C   UNL     1     -19.709 -12.494  -0.243  1.00  0.00     0.026 C 
BRANCH  55  56
HETATM   56  C   UNL     1     -18.408 -13.224   0.074  1.00  0.00    -0.001 C 
HETATM   57  C   UNL     1     -17.333 -12.247   0.518  1.00  0.00     0.005 C 
ENDBRANCH  55  56
ENDBRANCH  54  55
ENDBRANCH  52  53
ENDBRANCH  51  52
ENDBRANCH  50  51
ENDBRANCH  49  50
ENDBRANCH  48  49
ENDBRANCH  47  48
ENDBRANCH  46  47
ENDBRANCH  45  46
ENDBRANCH  44  45
ENDBRANCH  42  43
BRANCH  42  58
HETATM   58  O   UNL     1     -19.682 -14.780  -6.155  1.00  0.00    -0.390 OA
HETATM   59  H   UNL     1     -20.449 -15.332  -5.932  1.00  0.00     0.210 HD
ENDBRANCH  42  58
ENDBRANCH   1  42
TORSDOF 40
BEGIN_RES ARG D 557
REMARK  4 active torsions:
REMARK  status: ('A' for Active; 'I' for Inactive)
REMARK    1  A    between atoms: CA   and  CB  
REMARK    2  A    between atoms: CB   and  CG  
REMARK    3  A    between atoms: CG   and  CD  
REMARK    4  A    between atoms: CD   and  NE  
REMARK       I    between atoms: NE   and  CZ  
REMARK       I    between atoms: CZ   and  NH1 
REMARK       I    between atoms: CZ   and  NH2 
ROOT
ATOM      1  CA  ARG D 557     -26.217   2.705 -17.014  1.00 35.49     0.159 C 
ENDROOT
BRANCH   1   2
ATOM      2  CB  ARG D 557     -26.789   1.319 -17.183  1.00 35.49     0.034 C 
BRANCH   2   3
ATOM      3  CG  ARG D 557     -28.252   1.200 -17.158  1.00 35.49     0.027 C 
BRANCH   3   4
ATOM      4  CD  ARG D 557     -28.712   0.074 -16.314  1.00 35.49     0.116 C 
BRANCH   4   5
ATOM      5  NE  ARG D 557     -29.350  -0.958 -17.088  1.00 35.49    -0.212 N 
ATOM      6  CZ  ARG D 557     -28.975  -2.216 -17.148  1.00 35.49     0.666 C 
ATOM      7  NH1 ARG D 557     -27.927  -2.676 -16.491  1.00 35.49    -0.235 N 
ATOM      8  NH2 ARG D 557     -29.685  -3.020 -17.886  1.00 35.49    -0.235 N 
ATOM      9  HH  ARG D 557     -27.447  -2.165 -15.998  1.00 35.49     0.174 HD
ATOM     10  HH  ARG D 557     -27.731  -3.507 -16.566  1.00 35.49     0.174 HD
ATOM     11  HH  ARG D 557     -30.362  -2.696 -18.293  1.00 35.49     0.174 HD
ATOM     12  HH  ARG D 557     -29.477  -3.839 -17.946  1.00 35.49     0.174 HD
ATOM     13  HE  ARG D 557     -29.992  -0.734 -17.600  1.00 35.49     0.178 HD
ENDBRANCH   4   5
ENDBRANCH   3   4
ENDBRANCH   2   3
ENDBRANCH   1   2
END_RES ARG D 557
BEGIN_RES GLU D 570
REMARK  3 active torsions:
REMARK  status: ('A' for Active; 'I' for Inactive)
REMARK    5  A    between atoms: CA   and  CB  
REMARK    6  A    between atoms: CB   and  CG  
REMARK    7  A    between atoms: CG   and  CD  
ROOT
ATOM     14  CA  GLU D 570     -18.033  -6.348 -13.375  1.00 32.92     0.160 C 
ENDROOT
BRANCH  14  15
ATOM     15  CB  GLU D 570     -19.500  -6.345 -13.794  1.00 32.92     0.043 C 
BRANCH  15  16
ATOM     16  CG  GLU D 570     -19.796  -6.286 -15.249  1.00 32.92     0.100 C 
BRANCH  16  17
ATOM     17  CD  GLU D 570     -20.624  -7.455 -15.730  1.00 32.92     0.185 C 
ATOM     18  OE1 GLU D 570     -20.593  -8.523 -15.088  1.00 32.92    -0.647 OA
ATOM     19  OE2 GLU D 570     -21.298  -7.306 -16.768  1.00 32.92    -0.647 OA
ENDBRANCH  16  17
ENDBRANCH  15  16
ENDBRANCH  14  15
END_RES GLU D 570
ENDMDL
MODEL 8
REMARK VINA RESULT:      -7.2      2.146      5.237
REMARK WARNING: 32 MAX_TORS EXCEEDED!!!
REMARK  40 active torsions:
REMARK  status: ('A' for Active; 'I' for Inactive)
REMARK    1  A    between atoms: C_2  and  C_3 
REMARK    2  A    between atoms: C_3  and  C_4 
REMARK    3  A    between atoms: C_4  and  C_5 
REMARK    4  A    between atoms: C_5  and  C_6 
REMARK    5  A    between atoms: C_6  and  C_7 
REMARK    6  A    between atoms: C_7  and  C_8 
REMARK    7  A    between atoms: C_8  and  C_9 
REMARK    8  A    between atoms: C_10  and  C_11 
REMARK    9  A    between atoms: C_11  and  C_12 
REMARK   10  A    between atoms: C_12  and  C_13 
REMARK   11  A    between atoms: C_13  and  C_14 
REMARK   12  A    between atoms: C_14  and  C_15 
REMARK   13  A    between atoms: C_15  and  C_16 
REMARK   14  A    between atoms: C_16  and  C_17 
REMARK   15  A    between atoms: C_17  and  C_18 
REMARK   16  A    between atoms: C_18  and  C_19 
REMARK   17  A    between atoms: C_19  and  C_20 
REMARK       I    between atoms: C_20  and  N_22 
REMARK   18  A    between atoms: N_22  and  C_23 
REMARK   19  A    between atoms: C_23  and  C_24 
REMARK   20  A    between atoms: C_23  and  C_37 
REMARK   21  A    between atoms: C_24  and  O_25 
REMARK   22  A    between atoms: O_25  and  C_26 
REMARK   23  A    between atoms: C_27  and  O_36 
REMARK   24  A    between atoms: C_28  and  O_35 
REMARK   25  A    between atoms: C_29  and  O_34 
REMARK   26  A    between atoms: C_30  and  C_32 
REMARK   27  A    between atoms: C_32  and  O_33 
REMARK   28  A    between atoms: C_37  and  C_38 
REMARK   29  A    between atoms: C_37  and  O_53 
REMARK   30  A    between atoms: C_39  and  C_40 
REMARK   31  A    between atoms: C_40  and  C_41 
REMARK   32  A    between atoms: C_41  and  C_42 
REMARK   33  A    between atoms: C_42  and  C_43 
REMARK   34  A    between atoms: C_43  and  C_44 
REMARK   35  A    between atoms: C_44  and  C_45 
REMARK   36  A    between atoms: C_45  and  C_46 
REMARK   37  A    between atoms: C_46  and  C_47 
REMARK   38  A    between atoms: C_47  and  C_48 
REMARK   39  A    between atoms: C_49  and  C_50 
REMARK   40  A    between atoms: C_50  and  C_51 
ROOT
HETATM    1  C   UNL     1     -23.895  -4.348 -14.051  1.00  0.00     0.140 C 
ENDROOT
BRANCH   1   2
HETATM    2  N   UNL     1     -24.348  -4.248 -12.663  1.00  0.00    -0.352 N 
HETATM    3  C   UNL     1     -23.895  -3.236 -11.827  1.00  0.00     0.218 C 
HETATM    4  O   UNL     1     -23.169  -2.310 -12.178  1.00  0.00    -0.274 OA
HETATM    5  H   UNL     1     -24.650  -5.116 -12.231  1.00  0.00     0.163 HD
BRANCH   3   6
HETATM    6  C   UNL     1     -24.432  -3.337 -10.413  1.00  0.00     0.103 C 
BRANCH   6   7
HETATM    7  C   UNL     1     -23.754  -4.458  -9.644  1.00  0.00     0.009 C 
BRANCH   7   8
HETATM    8  C   UNL     1     -22.369  -4.046  -9.175  1.00  0.00     0.000 C 
BRANCH   8   9
HETATM    9  C   UNL     1     -22.225  -4.369  -7.695  1.00  0.00     0.000 C 
BRANCH   9  10
HETATM   10  C   UNL     1     -20.939  -3.775  -7.155  1.00  0.00     0.000 C 
BRANCH  10  11
HETATM   11  C   UNL     1     -20.489  -4.533  -5.917  1.00  0.00     0.000 C 
BRANCH  11  12
HETATM   12  C   UNL     1     -21.235  -5.851  -5.823  1.00  0.00     0.000 C 
BRANCH  12  13
HETATM   13  C   UNL     1     -20.256  -7.012  -5.812  1.00  0.00     0.004 C 
BRANCH  13  14
HETATM   14  C   UNL     1     -20.605  -7.971  -4.683  1.00  0.00     0.027 C 
BRANCH  14  15
HETATM   15  C   UNL     1     -21.561  -7.319  -3.740  1.00  0.00    -0.031 C 
HETATM   16  C   UNL     1     -21.266  -7.081  -2.457  1.00  0.00    -0.031 C 
BRANCH  16  17
HETATM   17  C   UNL     1     -22.226  -6.431  -1.517  1.00  0.00     0.027 C 
BRANCH  17  18
HETATM   18  C   UNL     1     -22.560  -7.384  -0.378  1.00  0.00     0.004 C 
BRANCH  18  19
HETATM   19  C   UNL     1     -21.355  -8.256  -0.057  1.00  0.00     0.000 C 
BRANCH  19  20
HETATM   20  C   UNL     1     -21.801  -9.655   0.340  1.00  0.00     0.000 C 
BRANCH  20  21
HETATM   21  C   UNL     1     -23.207  -9.931  -0.177  1.00  0.00     0.000 C 
BRANCH  21  22
HETATM   22  C   UNL     1     -23.210 -11.164  -1.069  1.00  0.00    -0.000 C 
BRANCH  22  23
HETATM   23  C   UNL     1     -22.981 -10.781  -2.526  1.00  0.00    -0.005 C 
HETATM   24  C   UNL     1     -21.576 -11.148  -2.963  1.00  0.00     0.005 C 
ENDBRANCH  22  23
ENDBRANCH  21  22
ENDBRANCH  20  21
ENDBRANCH  19  20
ENDBRANCH  18  19
ENDBRANCH  17  18
ENDBRANCH  16  17
ENDBRANCH  14  15
ENDBRANCH  13  14
ENDBRANCH  12  13
ENDBRANCH  11  12
ENDBRANCH  10  11
ENDBRANCH   9  10
ENDBRANCH   8   9
ENDBRANCH   7   8
ENDBRANCH   6   7
ENDBRANCH   3   6
ENDBRANCH   1   2
BRANCH   1  25
HETATM   25  C   UNL     1     -23.684  -5.835 -14.377  1.00  0.00     0.199 C 
BRANCH  25  26
HETATM   26  O   UNL     1     -24.154  -6.229 -15.672  1.00  0.00    -0.356 OA
BRANCH  26  27
HETATM   27  C   UNL     1     -23.432  -7.371 -16.147  1.00  0.00     0.291 C 
HETATM   28  C   UNL     1     -21.955  -7.049 -16.141  1.00  0.00     0.204 C 
HETATM   29  C   UNL     1     -21.676  -6.046 -17.252  1.00  0.00     0.183 C 
HETATM   30  C   UNL     1     -22.161  -6.560 -18.622  1.00  0.00     0.180 C 
HETATM   31  C   UNL     1     -23.634  -6.875 -18.513  1.00  0.00     0.179 C 
HETATM   32  O   UNL     1     -23.775  -7.859 -17.464  1.00  0.00    -0.348 OA
BRANCH  28  33
HETATM   33  O   UNL     1     -21.231  -8.245 -16.337  1.00  0.00    -0.388 OA
HETATM   34  H   UNL     1     -21.602  -8.914 -15.725  1.00  0.00     0.210 HD
ENDBRANCH  28  33
BRANCH  29  35
HETATM   35  O   UNL     1     -20.276  -5.853 -17.233  1.00  0.00    -0.390 OA
HETATM   36  H   UNL     1     -20.151  -5.618 -16.290  1.00  0.00     0.210 HD
ENDBRANCH  29  35
BRANCH  30  37
HETATM   37  O   UNL     1     -21.551  -7.800 -18.978  1.00  0.00    -0.390 OA
HETATM   38  H   UNL     1     -21.291  -7.695 -19.921  1.00  0.00     0.210 HD
ENDBRANCH  30  37
BRANCH  31  39
HETATM   39  C   UNL     1     -24.193  -7.519 -19.777  1.00  0.00     0.198 C 
BRANCH  39  40
HETATM   40  O   UNL     1     -25.326  -6.735 -20.077  1.00  0.00    -0.398 OA
HETATM   41  H   UNL     1     -25.869  -7.338 -20.618  1.00  0.00     0.209 HD
ENDBRANCH  39  40
ENDBRANCH  31  39
ENDBRANCH  26  27
ENDBRANCH  25  26
ENDBRANCH   1  25
BRANCH   1  42
HETATM   42  C   UNL     1     -24.878  -3.669 -15.033  1.00  0.00     0.165 C 
BRANCH  42  43
HETATM   43  C   UNL     1     -26.267  -4.082 -14.702  1.00  0.00     0.003 C 
HETATM   44  C   UNL     1     -26.998  -4.816 -15.542  1.00  0.00    -0.028 C 
BRANCH  44  45
HETATM   45  C   UNL     1     -28.316  -5.417 -15.164  1.00  0.00     0.027 C 
BRANCH  45  46
HETATM   46  C   UNL     1     -28.509  -6.685 -15.976  1.00  0.00     0.004 C 
BRANCH  46  47
HETATM   47  C   UNL     1     -28.571  -6.367 -17.465  1.00  0.00     0.000 C 
BRANCH  47  48
HETATM   48  C   UNL     1     -29.807  -6.976 -18.113  1.00  0.00     0.000 C 
BRANCH  48  49
HETATM   49  C   UNL     1     -31.046  -6.742 -17.257  1.00  0.00     0.000 C 
BRANCH  49  50
HETATM   50  C   UNL     1     -31.597  -5.348 -17.465  1.00  0.00     0.000 C 
BRANCH  50  51
HETATM   51  C   UNL     1     -32.047  -4.769 -16.132  1.00  0.00     0.004 C 
BRANCH  51  52
HETATM   52  C   UNL     1     -33.458  -4.215 -16.263  1.00  0.00     0.027 C 
BRANCH  52  53
HETATM   53  C   UNL     1     -34.187  -4.335 -14.965  1.00  0.00    -0.031 C 
HETATM   54  C   UNL     1     -33.633  -4.017 -13.787  1.00  0.00    -0.031 C 
BRANCH  54  55
HETATM   55  C   UNL     1     -34.357  -4.145 -12.484  1.00  0.00     0.026 C 
BRANCH  55  56
HETATM   56  C   UNL     1     -33.422  -3.836 -11.319  1.00  0.00    -0.001 C 
HETATM   57  C   UNL     1     -33.570  -2.391 -10.875  1.00  0.00     0.005 C 
ENDBRANCH  55  56
ENDBRANCH  54  55
ENDBRANCH  52  53
ENDBRANCH  51  52
ENDBRANCH  50  51
ENDBRANCH  49  50
ENDBRANCH  48  49
ENDBRANCH  47  48
ENDBRANCH  46  47
ENDBRANCH  45  46
ENDBRANCH  44  45
ENDBRANCH  42  43
BRANCH  42  58
HETATM   58  O   UNL     1     -24.791  -2.255 -14.950  1.00  0.00    -0.390 OA
HETATM   59  H   UNL     1     -24.106  -1.983 -14.317  1.00  0.00     0.210 HD
ENDBRANCH  42  58
ENDBRANCH   1  42
TORSDOF 40
BEGIN_RES ARG D 557
REMARK  4 active torsions:
REMARK  status: ('A' for Active; 'I' for Inactive)
REMARK    1  A    between atoms: CA   and  CB  
REMARK    2  A    between atoms: CB   and  CG  
REMARK    3  A    between atoms: CG   and  CD  
REMARK    4  A    between atoms: CD   and  NE  
REMARK       I    between atoms: NE   and  CZ  
REMARK       I    between atoms: CZ   and  NH1 
REMARK       I    between atoms: CZ   and  NH2 
ROOT
ATOM      1  CA  ARG D 557     -26.217   2.705 -17.014  1.00 35.49     0.159 C 
ENDROOT
BRANCH   1   2
ATOM      2  CB  ARG D 557     -26.789   1.319 -17.183  1.00 35.49     0.034 C 
BRANCH   2   3
ATOM      3  CG  ARG D 557     -28.146   1.227 -17.735  1.00 35.49     0.027 C 
BRANCH   3   4
ATOM      4  CD  ARG D 557     -29.092   0.573 -16.803  1.00 35.49     0.116 C 
BRANCH   4   5
ATOM      5  NE  ARG D 557     -29.456  -0.749 -17.239  1.00 35.49    -0.212 N 
ATOM      6  CZ  ARG D 557     -28.733  -1.836 -17.083  1.00 35.49     0.666 C 
ATOM      7  NH1 ARG D 557     -27.548  -1.822 -16.502  1.00 35.49    -0.235 N 
ATOM      8  NH2 ARG D 557     -29.230  -2.956 -17.522  1.00 35.49    -0.235 N 
ATOM      9  HH  ARG D 557     -27.202  -1.096 -16.203  1.00 35.49     0.174 HD
ATOM     10  HH  ARG D 557     -27.123  -2.562 -16.426  1.00 35.49     0.174 HD
ATOM     11  HH  ARG D 557     -30.001  -2.936 -17.886  1.00 35.49     0.174 HD
ATOM     12  HH  ARG D 557     -28.794  -3.678 -17.436  1.00 35.49     0.174 HD
ATOM     13  HE  ARG D 557     -30.173  -0.839 -17.688  1.00 35.49     0.178 HD
ENDBRANCH   4   5
ENDBRANCH   3   4
ENDBRANCH   2   3
ENDBRANCH   1   2
END_RES ARG D 557
BEGIN_RES GLU D 570
REMARK  3 active torsions:
REMARK  status: ('A' for Active; 'I' for Inactive)
REMARK    5  A    between atoms: CA   and  CB  
REMARK    6  A    between atoms: CB   and  CG  
REMARK    7  A    between atoms: CG   and  CD  
ROOT
ATOM     14  CA  GLU D 570     -18.033  -6.348 -13.375  1.00 32.92     0.160 C 
ENDROOT
BRANCH  14  15
ATOM     15  CB  GLU D 570     -19.500  -6.345 -13.794  1.00 32.92     0.043 C 
BRANCH  15  16
ATOM     16  CG  GLU D 570     -20.503  -5.951 -12.771  1.00 32.92     0.100 C 
BRANCH  16  17
ATOM     17  CD  GLU D 570     -19.956  -4.980 -11.752  1.00 32.92     0.185 C 
ATOM     18  OE1 GLU D 570     -19.395  -5.425 -10.732  1.00 32.92    -0.647 OA
ATOM     19  OE2 GLU D 570     -20.104  -3.761 -11.967  1.00 32.92    -0.647 OA
ENDBRANCH  16  17
ENDBRANCH  15  16
ENDBRANCH  14  15
END_RES GLU D 570
ENDMDL
MODEL 9
REMARK VINA RESULT:      -7.1      5.558     14.178
REMARK WARNING: 32 MAX_TORS EXCEEDED!!!
REMARK  40 active torsions:
REMARK  status: ('A' for Active; 'I' for Inactive)
REMARK    1  A    between atoms: C_2  and  C_3 
REMARK    2  A    between atoms: C_3  and  C_4 
REMARK    3  A    between atoms: C_4  and  C_5 
REMARK    4  A    between atoms: C_5  and  C_6 
REMARK    5  A    between atoms: C_6  and  C_7 
REMARK    6  A    between atoms: C_7  and  C_8 
REMARK    7  A    between atoms: C_8  and  C_9 
REMARK    8  A    between atoms: C_10  and  C_11 
REMARK    9  A    between atoms: C_11  and  C_12 
REMARK   10  A    between atoms: C_12  and  C_13 
REMARK   11  A    between atoms: C_13  and  C_14 
REMARK   12  A    between atoms: C_14  and  C_15 
REMARK   13  A    between atoms: C_15  and  C_16 
REMARK   14  A    between atoms: C_16  and  C_17 
REMARK   15  A    between atoms: C_17  and  C_18 
REMARK   16  A    between atoms: C_18  and  C_19 
REMARK   17  A    between atoms: C_19  and  C_20 
REMARK       I    between atoms: C_20  and  N_22 
REMARK   18  A    between atoms: N_22  and  C_23 
REMARK   19  A    between atoms: C_23  and  C_24 
REMARK   20  A    between atoms: C_23  and  C_37 
REMARK   21  A    between atoms: C_24  and  O_25 
REMARK   22  A    between atoms: O_25  and  C_26 
REMARK   23  A    between atoms: C_27  and  O_36 
REMARK   24  A    between atoms: C_28  and  O_35 
REMARK   25  A    between atoms: C_29  and  O_34 
REMARK   26  A    between atoms: C_30  and  C_32 
REMARK   27  A    between atoms: C_32  and  O_33 
REMARK   28  A    between atoms: C_37  and  C_38 
REMARK   29  A    between atoms: C_37  and  O_53 
REMARK   30  A    between atoms: C_39  and  C_40 
REMARK   31  A    between atoms: C_40  and  C_41 
REMARK   32  A    between atoms: C_41  and  C_42 
REMARK   33  A    between atoms: C_42  and  C_43 
REMARK   34  A    between atoms: C_43  and  C_44 
REMARK   35  A    between atoms: C_44  and  C_45 
REMARK   36  A    between atoms: C_45  and  C_46 
REMARK   37  A    between atoms: C_46  and  C_47 
REMARK   38  A    between atoms: C_47  and  C_48 
REMARK   39  A    between atoms: C_49  and  C_50 
REMARK   40  A    between atoms: C_50  and  C_51 
ROOT
HETATM    1  C   UNL     1     -19.047  -9.563  -4.703  1.00  0.00     0.140 C 
ENDROOT
BRANCH   1   2
HETATM    2  N   UNL     1     -19.599  -8.334  -5.275  1.00  0.00    -0.352 N 
HETATM    3  C   UNL     1     -20.963  -8.073  -5.246  1.00  0.00     0.218 C 
HETATM    4  O   UNL     1     -21.799  -8.774  -4.681  1.00  0.00    -0.274 OA
HETATM    5  H   UNL     1     -19.054  -7.905  -6.017  1.00  0.00     0.163 HD
BRANCH   3   6
HETATM    6  C   UNL     1     -21.345  -6.780  -5.939  1.00  0.00     0.103 C 
BRANCH   6   7
HETATM    7  C   UNL     1     -21.041  -5.576  -5.064  1.00  0.00     0.009 C 
BRANCH   7   8
HETATM    8  C   UNL     1     -19.960  -4.704  -5.679  1.00  0.00     0.000 C 
BRANCH   8   9
HETATM    9  C   UNL     1     -19.635  -5.218  -7.073  1.00  0.00     0.000 C 
BRANCH   9  10
HETATM   10  C   UNL     1     -19.631  -4.071  -8.064  1.00  0.00     0.000 C 
BRANCH  10  11
HETATM   11  C   UNL     1     -20.389  -4.460  -9.322  1.00  0.00     0.000 C 
BRANCH  11  12
HETATM   12  C   UNL     1     -21.856  -4.669  -8.993  1.00  0.00     0.000 C 
BRANCH  12  13
HETATM   13  C   UNL     1     -22.703  -3.594  -9.652  1.00  0.00     0.004 C 
BRANCH  13  14
HETATM   14  C   UNL     1     -22.390  -3.529 -11.140  1.00  0.00     0.027 C 
BRANCH  14  15
HETATM   15  C   UNL     1     -22.949  -4.729 -11.830  1.00  0.00    -0.031 C 
HETATM   16  C   UNL     1     -23.033  -4.827 -13.161  1.00  0.00    -0.031 C 
BRANCH  16  17
HETATM   17  C   UNL     1     -23.595  -6.028 -13.846  1.00  0.00     0.027 C 
BRANCH  17  18
HETATM   18  C   UNL     1     -24.584  -5.595 -14.920  1.00  0.00     0.004 C 
BRANCH  18  19
HETATM   19  C   UNL     1     -25.071  -6.806 -15.701  1.00  0.00     0.000 C 
BRANCH  19  20
HETATM   20  C   UNL     1     -26.553  -6.676 -16.015  1.00  0.00     0.000 C 
BRANCH  20  21
HETATM   21  C   UNL     1     -26.954  -5.209 -16.090  1.00  0.00     0.000 C 
BRANCH  21  22
HETATM   22  C   UNL     1     -28.465  -5.078 -16.219  1.00  0.00    -0.000 C 
BRANCH  22  23
HETATM   23  C   UNL     1     -28.838  -4.327 -17.491  1.00  0.00    -0.005 C 
HETATM   24  C   UNL     1     -28.913  -2.834 -17.230  1.00  0.00     0.005 C 
ENDBRANCH  22  23
ENDBRANCH  21  22
ENDBRANCH  20  21
ENDBRANCH  19  20
ENDBRANCH  18  19
ENDBRANCH  17  18
ENDBRANCH  16  17
ENDBRANCH  14  15
ENDBRANCH  13  14
ENDBRANCH  12  13
ENDBRANCH  11  12
ENDBRANCH  10  11
ENDBRANCH   9  10
ENDBRANCH   8   9
ENDBRANCH   7   8
ENDBRANCH   6   7
ENDBRANCH   3   6
ENDBRANCH   1   2
BRANCH   1  25
HETATM   25  C   UNL     1     -17.844  -9.987  -5.560  1.00  0.00     0.199 C 
BRANCH  25  26
HETATM   26  O   UNL     1     -18.173 -10.846  -6.659  1.00  0.00    -0.356 OA
BRANCH  26  27
HETATM   27  C   UNL     1     -18.388 -12.187  -6.207  1.00  0.00     0.291 C 
HETATM   28  C   UNL     1     -18.028 -13.139  -7.326  1.00  0.00     0.204 C 
HETATM   29  C   UNL     1     -19.087 -13.025  -8.414  1.00  0.00     0.183 C 
HETATM   30  C   UNL     1     -20.505 -13.274  -7.862  1.00  0.00     0.180 C 
HETATM   31  C   UNL     1     -20.753 -12.294  -6.740  1.00  0.00     0.179 C 
HETATM   32  O   UNL     1     -19.720 -12.518  -5.754  1.00  0.00    -0.348 OA
BRANCH  28  33
HETATM   33  O   UNL     1     -17.971 -14.449  -6.803  1.00  0.00    -0.388 OA
HETATM   34  H   UNL     1     -17.280 -14.455  -6.108  1.00  0.00     0.210 HD
ENDBRANCH  28  33
BRANCH  29  35
HETATM   35  O   UNL     1     -18.728 -13.990  -9.382  1.00  0.00    -0.390 OA
HETATM   36  H   UNL     1     -19.618 -14.301  -9.650  1.00  0.00     0.210 HD
ENDBRANCH  29  35
BRANCH  30  37
HETATM   37  O   UNL     1     -20.628 -14.559  -7.254  1.00  0.00    -0.390 OA
HETATM   38  H   UNL     1     -20.400 -14.418  -6.308  1.00  0.00     0.210 HD
ENDBRANCH  30  37
BRANCH  31  39
HETATM   39  C   UNL     1     -22.079 -12.538  -6.029  1.00  0.00     0.198 C 
BRANCH  39  40
HETATM   40  O   UNL     1     -21.714 -13.290  -4.893  1.00  0.00    -0.398 OA
HETATM   41  H   UNL     1     -22.095 -14.168  -5.083  1.00  0.00     0.209 HD
ENDBRANCH  39  40
ENDBRANCH  31  39
ENDBRANCH  26  27
ENDBRANCH  25  26
ENDBRANCH   1  25
BRANCH   1  42
HETATM   42  C   UNL     1     -18.672  -9.392  -3.213  1.00  0.00     0.165 C 
BRANCH  42  43
HETATM   43  C   UNL     1     -19.226 -10.530  -2.432  1.00  0.00     0.003 C 
HETATM   44  C   UNL     1     -19.176 -10.555  -1.100  1.00  0.00    -0.028 C 
BRANCH  44  45
HETATM   45  C   UNL     1     -19.895 -11.577  -0.277  1.00  0.00     0.027 C 
BRANCH  45  46
HETATM   46  C   UNL     1     -19.354 -12.948  -0.644  1.00  0.00     0.004 C 
BRANCH  46  47
HETATM   47  C   UNL     1     -20.449 -13.811  -1.257  1.00  0.00     0.000 C 
BRANCH  47  48
HETATM   48  C   UNL     1     -21.673 -13.882  -0.355  1.00  0.00     0.000 C 
BRANCH  48  49
HETATM   49  C   UNL     1     -22.959 -13.789  -1.168  1.00  0.00     0.000 C 
BRANCH  49  50
HETATM   50  C   UNL     1     -23.079 -12.440  -1.845  1.00  0.00     0.000 C 
BRANCH  50  51
HETATM   51  C   UNL     1     -24.313 -11.714  -1.328  1.00  0.00     0.004 C 
BRANCH  51  52
HETATM   52  C   UNL     1     -23.959 -10.928  -0.075  1.00  0.00     0.027 C 
BRANCH  52  53
HETATM   53  C   UNL     1     -22.895  -9.923  -0.375  1.00  0.00    -0.031 C 
HETATM   54  C   UNL     1     -22.640  -8.873   0.417  1.00  0.00    -0.031 C 
BRANCH  54  55
HETATM   55  C   UNL     1     -21.582  -7.860   0.114  1.00  0.00     0.026 C 
BRANCH  55  56
HETATM   56  C   UNL     1     -21.499  -7.605  -1.388  1.00  0.00    -0.001 C 
HETATM   57  C   UNL     1     -22.239  -6.332  -1.763  1.00  0.00     0.005 C 
ENDBRANCH  55  56
ENDBRANCH  54  55
ENDBRANCH  52  53
ENDBRANCH  51  52
ENDBRANCH  50  51
ENDBRANCH  49  50
ENDBRANCH  48  49
ENDBRANCH  47  48
ENDBRANCH  46  47
ENDBRANCH  45  46
ENDBRANCH  44  45
ENDBRANCH  42  43
BRANCH  42  58
HETATM   58  O   UNL     1     -17.264  -9.361  -3.039  1.00  0.00    -0.390 OA
HETATM   59  H   UNL     1     -16.808  -9.746  -3.805  1.00  0.00     0.210 HD
ENDBRANCH  42  58
ENDBRANCH   1  42
TORSDOF 40
BEGIN_RES ARG D 557
REMARK  4 active torsions:
REMARK  status: ('A' for Active; 'I' for Inactive)
REMARK    1  A    between atoms: CA   and  CB  
REMARK    2  A    between atoms: CB   and  CG  
REMARK    3  A    between atoms: CG   and  CD  
REMARK    4  A    between atoms: CD   and  NE  
REMARK       I    between atoms: NE   and  CZ  
REMARK       I    between atoms: CZ   and  NH1 
REMARK       I    between atoms: CZ   and  NH2 
ROOT
ATOM      1  CA  ARG D 557     -26.217   2.705 -17.014  1.00 35.49     0.159 C 
ENDROOT
BRANCH   1   2
ATOM      2  CB  ARG D 557     -26.789   1.319 -17.183  1.00 35.49     0.034 C 
BRANCH   2   3
ATOM      3  CG  ARG D 557     -25.887   0.194 -16.908  1.00 35.49     0.027 C 
BRANCH   3   4
ATOM      4  CD  ARG D 557     -25.023   0.439 -15.730  1.00 35.49     0.116 C 
BRANCH   4   5
ATOM      5  NE  ARG D 557     -23.898  -0.458 -15.687  1.00 35.49    -0.212 N 
ATOM      6  CZ  ARG D 557     -23.765  -1.485 -14.877  1.00 35.49     0.666 C 
ATOM      7  NH1 ARG D 557     -24.678  -1.801 -13.977  1.00 35.49    -0.235 N 
ATOM      8  NH2 ARG D 557     -22.686  -2.204 -14.992  1.00 35.49    -0.235 N 
ATOM      9  HH  ARG D 557     -25.396  -1.344 -13.886  1.00 35.49     0.174 HD
ATOM     10  HH  ARG D 557     -24.538  -2.484 -13.478  1.00 35.49     0.174 HD
ATOM     11  HH  ARG D 557     -22.118  -1.980 -15.587  1.00 35.49     0.174 HD
ATOM     12  HH  ARG D 557     -22.567  -2.876 -14.490  1.00 35.49     0.174 HD
ATOM     13  HE  ARG D 557     -23.230  -0.285 -16.184  1.00 35.49     0.178 HD
ENDBRANCH   4   5
ENDBRANCH   3   4
ENDBRANCH   2   3
ENDBRANCH   1   2
END_RES ARG D 557
BEGIN_RES GLU D 570
REMARK  3 active torsions:
REMARK  status: ('A' for Active; 'I' for Inactive)
REMARK    5  A    between atoms: CA   and  CB  
REMARK    6  A    between atoms: CB   and  CG  
REMARK    7  A    between atoms: CG   and  CD  
ROOT
ATOM     14  CA  GLU D 570     -18.033  -6.348 -13.375  1.00 32.92     0.160 C 
ENDROOT
BRANCH  14  15
ATOM     15  CB  GLU D 570     -19.500  -6.345 -13.794  1.00 32.92     0.043 C 
BRANCH  15  16
ATOM     16  CG  GLU D 570     -19.867  -5.553 -14.996  1.00 32.92     0.100 C 
BRANCH  16  17
ATOM     17  CD  GLU D 570     -20.760  -6.311 -15.951  1.00 32.92     0.185 C 
ATOM     18  OE1 GLU D 570     -21.414  -5.676 -16.801  1.00 32.92    -0.647 OA
ATOM     19  OE2 GLU D 570     -20.820  -7.551 -15.836  1.00 32.92    -0.647 OA
ENDBRANCH  16  17
ENDBRANCH  15  16
ENDBRANCH  14  15
END_RES GLU D 570
ENDMDL
