MODEL 1
REMARK VINA RESULT:      -7.1      0.000      0.000
REMARK  17 active torsions:
REMARK  status: ('A' for Active; 'I' for Inactive)
REMARK    1  A    between atoms: C_2  and  C_3 
REMARK    2  A    between atoms: C_3  and  C_4 
REMARK    3  A    between atoms: C_4  and  C_5 
REMARK    4  A    between atoms: C_5  and  C_6 
REMARK    5  A    between atoms: C_6  and  C_7 
REMARK    6  A    between atoms: C_7  and  C_8 
REMARK    7  A    between atoms: C_7  and  O_22 
REMARK    8  A    between atoms: C_8  and  C_9 
REMARK    9  A    between atoms: C_10  and  C_11 
REMARK   10  A    between atoms: C_11  and  C_12 
REMARK   11  A    between atoms: C_12  and  C_13 
REMARK   12  A    between atoms: C_13  and  C_14 
REMARK   13  A    between atoms: C_14  and  C_15 
REMARK   14  A    between atoms: C_15  and  C_16 
REMARK   15  A    between atoms: C_16  and  C_17 
REMARK   16  A    between atoms: C_17  and  C_18 
REMARK   17  A    between atoms: C_18  and  O_20 
ROOT
HETATM    1  C   UNL     1     -20.934  -6.520  -5.130  1.00  0.00    -0.028 C 
HETATM    2  C   UNL     1     -20.641  -5.215  -5.240  1.00  0.00    -0.031 C 
ENDROOT
BRANCH   2   3
HETATM    3  C   UNL     1     -20.006  -4.612  -6.460  1.00  0.00     0.027 C 
BRANCH   3   4
HETATM    4  C   UNL     1     -21.034  -4.208  -7.511  1.00  0.00     0.004 C 
BRANCH   4   5
HETATM    5  C   UNL     1     -20.498  -4.474  -8.920  1.00  0.00     0.000 C 
BRANCH   5   6
HETATM    6  C   UNL     1     -21.576  -4.204  -9.964  1.00  0.00     0.000 C 
BRANCH   6   7
HETATM    7  C   UNL     1     -20.980  -3.771 -11.302  1.00  0.00     0.000 C 
BRANCH   7   8
HETATM    8  C   UNL     1     -22.095  -3.578 -12.327  1.00  0.00     0.010 C 
BRANCH   8   9
HETATM    9  C   UNL     1     -23.068  -4.751 -12.354  1.00  0.00     0.111 C 
BRANCH   9  10
HETATM   10  C   UNL     1     -23.598  -4.968 -13.753  1.00  0.00     0.258 C 
HETATM   11  O   UNL     1     -23.794  -4.091 -14.580  1.00  0.00    -0.265 OA
BRANCH  10  12
HETATM   12  O   UNL     1     -23.828  -6.297 -13.957  1.00  0.00    -0.326 OA
HETATM   13  C   UNL     1     -24.400  -6.582 -15.233  1.00  0.00     0.213 C 
ENDBRANCH  10  12
ENDBRANCH   9  10
ENDBRANCH   8   9
ENDBRANCH   7   8
ENDBRANCH   6   7
ENDBRANCH   5   6
ENDBRANCH   4   5
ENDBRANCH   3   4
ENDBRANCH   2   3
BRANCH   1  14
HETATM   14  C   UNL     1     -21.737  -7.117  -4.003  1.00  0.00     0.058 C 
BRANCH  14  15
HETATM   15  C   UNL     1     -21.477  -6.518  -2.610  1.00  0.00     0.121 C 
BRANCH  15  16
HETATM   16  C   UNL     1     -21.125  -7.529  -1.512  1.00  0.00     0.032 C 
BRANCH  16  17
HETATM   17  C   UNL     1     -22.083  -7.565  -0.322  1.00  0.00     0.002 C 
BRANCH  17  18
HETATM   18  C   UNL     1     -22.686  -8.945  -0.041  1.00  0.00     0.000 C 
BRANCH  18  19
HETATM   19  C   UNL     1     -22.381  -9.893  -1.204  1.00  0.00    -0.000 C 
BRANCH  19  20
HETATM   20  C   UNL     1     -23.432 -10.989  -1.346  1.00  0.00    -0.005 C 
HETATM   21  C   UNL     1     -24.054 -11.317   0.003  1.00  0.00     0.005 C 
ENDBRANCH  19  20
ENDBRANCH  18  19
ENDBRANCH  17  18
ENDBRANCH  16  17
ENDBRANCH  15  16
BRANCH  15  22
HETATM   22  O   UNL     1     -22.609  -5.752  -2.188  1.00  0.00    -0.395 OA
HETATM   23  H   UNL     1     -22.945  -6.157  -1.370  1.00  0.00     0.210 HD
ENDBRANCH  15  22
ENDBRANCH  14  15
ENDBRANCH   1  14
TORSDOF 17
BEGIN_RES ARG D 557
REMARK  4 active torsions:
REMARK  status: ('A' for Active; 'I' for Inactive)
REMARK    1  A    between atoms: CA   and  CB  
REMARK    2  A    between atoms: CB   and  CG  
REMARK    3  A    between atoms: CG   and  CD  
REMARK    4  A    between atoms: CD   and  NE  
REMARK       I    between atoms: NE   and  CZ  
REMARK       I    between atoms: CZ   and  NH1 
REMARK       I    between atoms: CZ   and  NH2 
ROOT
ATOM      1  CA  ARG D 557     -26.217   2.705 -17.014  1.00 35.49     0.159 C 
ENDROOT
BRANCH   1   2
ATOM      2  CB  ARG D 557     -26.789   1.319 -17.183  1.00 35.49     0.034 C 
BRANCH   2   3
ATOM      3  CG  ARG D 557     -28.245   1.220 -17.337  1.00 35.49     0.027 C 
BRANCH   3   4
ATOM      4  CD  ARG D 557     -28.844   0.226 -16.417  1.00 35.49     0.116 C 
BRANCH   4   5
ATOM      5  NE  ARG D 557     -29.292  -0.954 -17.109  1.00 35.49    -0.212 N 
ATOM      6  CZ  ARG D 557     -28.723  -2.137 -17.058  1.00 35.49     0.666 C 
ATOM      7  NH1 ARG D 557     -27.633  -2.370 -16.351  1.00 35.49    -0.235 N 
ATOM      8  NH2 ARG D 557     -29.279  -3.100 -17.734  1.00 35.49    -0.235 N 
ATOM      9  HH  ARG D 557     -27.251  -1.752 -15.897  1.00 35.49     0.174 HD
ATOM     10  HH  ARG D 557     -27.308  -3.163 -16.354  1.00 35.49     0.174 HD
ATOM     11  HH  ARG D 557     -29.987  -2.922 -18.176  1.00 35.49     0.174 HD
ATOM     12  HH  ARG D 557     -28.943  -3.878 -17.723  1.00 35.49     0.174 HD
ATOM     13  HE  ARG D 557     -29.947  -0.877 -17.646  1.00 35.49     0.178 HD
ENDBRANCH   4   5
ENDBRANCH   3   4
ENDBRANCH   2   3
ENDBRANCH   1   2
END_RES ARG D 557
BEGIN_RES GLU D 570
REMARK  3 active torsions:
REMARK  status: ('A' for Active; 'I' for Inactive)
REMARK    5  A    between atoms: CA   and  CB  
REMARK    6  A    between atoms: CB   and  CG  
REMARK    7  A    between atoms: CG   and  CD  
ROOT
ATOM     14  CA  GLU D 570     -18.033  -6.348 -13.375  1.00 32.92     0.160 C 
ENDROOT
BRANCH  14  15
ATOM     15  CB  GLU D 570     -19.500  -6.345 -13.794  1.00 32.92     0.043 C 
BRANCH  15  16
ATOM     16  CG  GLU D 570     -20.086  -7.634 -14.244  1.00 32.92     0.100 C 
BRANCH  16  17
ATOM     17  CD  GLU D 570     -20.794  -7.527 -15.574  1.00 32.92     0.185 C 
ATOM     18  OE1 GLU D 570     -20.957  -6.402 -16.085  1.00 32.92    -0.647 OA
ATOM     19  OE2 GLU D 570     -21.206  -8.578 -16.104  1.00 32.92    -0.647 OA
ENDBRANCH  16  17
ENDBRANCH  15  16
ENDBRANCH  14  15
END_RES GLU D 570
ENDMDL
MODEL 2
REMARK VINA RESULT:      -7.1      1.680      2.412
REMARK  17 active torsions:
REMARK  status: ('A' for Active; 'I' for Inactive)
REMARK    1  A    between atoms: C_2  and  C_3 
REMARK    2  A    between atoms: C_3  and  C_4 
REMARK    3  A    between atoms: C_4  and  C_5 
REMARK    4  A    between atoms: C_5  and  C_6 
REMARK    5  A    between atoms: C_6  and  C_7 
REMARK    6  A    between atoms: C_7  and  C_8 
REMARK    7  A    between atoms: C_7  and  O_22 
REMARK    8  A    between atoms: C_8  and  C_9 
REMARK    9  A    between atoms: C_10  and  C_11 
REMARK   10  A    between atoms: C_11  and  C_12 
REMARK   11  A    between atoms: C_12  and  C_13 
REMARK   12  A    between atoms: C_13  and  C_14 
REMARK   13  A    between atoms: C_14  and  C_15 
REMARK   14  A    between atoms: C_15  and  C_16 
REMARK   15  A    between atoms: C_16  and  C_17 
REMARK   16  A    between atoms: C_17  and  C_18 
REMARK   17  A    between atoms: C_18  and  O_20 
ROOT
HETATM    1  C   UNL     1     -20.953  -4.912  -6.488  1.00  0.00    -0.028 C 
HETATM    2  C   UNL     1     -22.222  -4.913  -6.927  1.00  0.00    -0.031 C 
ENDROOT
BRANCH   2   3
HETATM    3  C   UNL     1     -22.671  -4.170  -8.153  1.00  0.00     0.027 C 
BRANCH   3   4
HETATM    4  C   UNL     1     -21.502  -3.589  -8.941  1.00  0.00     0.004 C 
BRANCH   4   5
HETATM    5  C   UNL     1     -21.072  -4.547 -10.054  1.00  0.00     0.000 C 
BRANCH   5   6
HETATM    6  C   UNL     1     -20.739  -3.776 -11.326  1.00  0.00     0.000 C 
BRANCH   6   7
HETATM    7  C   UNL     1     -21.943  -2.996 -11.852  1.00  0.00     0.000 C 
BRANCH   7   8
HETATM    8  C   UNL     1     -22.982  -3.964 -12.413  1.00  0.00     0.010 C 
BRANCH   8   9
HETATM    9  C   UNL     1     -22.732  -4.299 -13.879  1.00  0.00     0.111 C 
BRANCH   9  10
HETATM   10  C   UNL     1     -23.139  -3.142 -14.763  1.00  0.00     0.258 C 
HETATM   11  O   UNL     1     -22.389  -2.507 -15.489  1.00  0.00    -0.265 OA
BRANCH  10  12
HETATM   12  O   UNL     1     -24.476  -2.910 -14.630  1.00  0.00    -0.326 OA
HETATM   13  C   UNL     1     -24.813  -1.523 -14.646  1.00  0.00     0.213 C 
ENDBRANCH  10  12
ENDBRANCH   9  10
ENDBRANCH   8   9
ENDBRANCH   7   8
ENDBRANCH   6   7
ENDBRANCH   5   6
ENDBRANCH   4   5
ENDBRANCH   3   4
ENDBRANCH   2   3
BRANCH   1  14
HETATM   14  C   UNL     1     -20.440  -5.792  -5.378  1.00  0.00     0.058 C 
BRANCH  14  15
HETATM   15  C   UNL     1     -21.283  -7.043  -5.076  1.00  0.00     0.121 C 
BRANCH  15  16
HETATM   16  C   UNL     1     -21.450  -7.383  -3.590  1.00  0.00     0.032 C 
BRANCH  16  17
HETATM   17  C   UNL     1     -21.929  -6.234  -2.704  1.00  0.00     0.002 C 
BRANCH  17  18
HETATM   18  C   UNL     1     -22.253  -6.643  -1.263  1.00  0.00     0.000 C 
BRANCH  18  19
HETATM   19  C   UNL     1     -21.354  -7.806  -0.838  1.00  0.00    -0.000 C 
BRANCH  19  20
HETATM   20  C   UNL     1     -21.784  -8.411   0.496  1.00  0.00    -0.005 C 
HETATM   21  C   UNL     1     -23.280  -8.235   0.709  1.00  0.00     0.005 C 
ENDBRANCH  19  20
ENDBRANCH  18  19
ENDBRANCH  17  18
ENDBRANCH  16  17
ENDBRANCH  15  16
BRANCH  15  22
HETATM   22  O   UNL     1     -20.733  -8.178  -5.752  1.00  0.00    -0.395 OA
HETATM   23  H   UNL     1     -21.195  -8.260  -6.605  1.00  0.00     0.210 HD
ENDBRANCH  15  22
ENDBRANCH  14  15
ENDBRANCH   1  14
TORSDOF 17
BEGIN_RES ARG D 557
REMARK  4 active torsions:
REMARK  status: ('A' for Active; 'I' for Inactive)
REMARK    1  A    between atoms: CA   and  CB  
REMARK    2  A    between atoms: CB   and  CG  
REMARK    3  A    between atoms: CG   and  CD  
REMARK    4  A    between atoms: CD   and  NE  
REMARK       I    between atoms: NE   and  CZ  
REMARK       I    between atoms: CZ   and  NH1 
REMARK       I    between atoms: CZ   and  NH2 
ROOT
ATOM      1  CA  ARG D 557     -26.217   2.705 -17.014  1.00 35.49     0.159 C 
ENDROOT
BRANCH   1   2
ATOM      2  CB  ARG D 557     -26.789   1.319 -17.183  1.00 35.49     0.034 C 
BRANCH   2   3
ATOM      3  CG  ARG D 557     -28.210   1.147 -16.859  1.00 35.49     0.027 C 
BRANCH   3   4
ATOM      4  CD  ARG D 557     -28.714  -0.196 -17.226  1.00 35.49     0.116 C 
BRANCH   4   5
ATOM      5  NE  ARG D 557     -27.961  -1.249 -16.597  1.00 35.49    -0.212 N 
ATOM      6  CZ  ARG D 557     -28.167  -2.538 -16.750  1.00 35.49     0.666 C 
ATOM      7  NH1 ARG D 557     -29.133  -3.016 -17.513  1.00 35.49    -0.235 N 
ATOM      8  NH2 ARG D 557     -27.372  -3.352 -16.118  1.00 35.49    -0.235 N 
ATOM      9  HH  ARG D 557     -29.666  -2.499 -17.940  1.00 35.49     0.174 HD
ATOM     10  HH  ARG D 557     -29.218  -3.866 -17.577  1.00 35.49     0.174 HD
ATOM     11  HH  ARG D 557     -26.753  -3.015 -15.638  1.00 35.49     0.174 HD
ATOM     12  HH  ARG D 557     -27.472  -4.191 -16.195  1.00 35.49     0.174 HD
ATOM     13  HE  ARG D 557     -27.365  -1.030 -16.031  1.00 35.49     0.178 HD
ENDBRANCH   4   5
ENDBRANCH   3   4
ENDBRANCH   2   3
ENDBRANCH   1   2
END_RES ARG D 557
BEGIN_RES GLU D 570
REMARK  3 active torsions:
REMARK  status: ('A' for Active; 'I' for Inactive)
REMARK    5  A    between atoms: CA   and  CB  
REMARK    6  A    between atoms: CB   and  CG  
REMARK    7  A    between atoms: CG   and  CD  
ROOT
ATOM     14  CA  GLU D 570     -18.033  -6.348 -13.375  1.00 32.92     0.160 C 
ENDROOT
BRANCH  14  15
ATOM     15  CB  GLU D 570     -19.500  -6.345 -13.794  1.00 32.92     0.043 C 
BRANCH  15  16
ATOM     16  CG  GLU D 570     -20.082  -7.631 -14.258  1.00 32.92     0.100 C 
BRANCH  16  17
ATOM     17  CD  GLU D 570     -20.726  -7.529 -15.621  1.00 32.92     0.185 C 
ATOM     18  OE1 GLU D 570     -21.242  -8.545 -16.125  1.00 32.92    -0.647 OA
ATOM     19  OE2 GLU D 570     -20.698  -6.424 -16.199  1.00 32.92    -0.647 OA
ENDBRANCH  16  17
ENDBRANCH  15  16
ENDBRANCH  14  15
END_RES GLU D 570
ENDMDL
MODEL 3
REMARK VINA RESULT:      -6.9      1.824      2.894
REMARK  17 active torsions:
REMARK  status: ('A' for Active; 'I' for Inactive)
REMARK    1  A    between atoms: C_2  and  C_3 
REMARK    2  A    between atoms: C_3  and  C_4 
REMARK    3  A    between atoms: C_4  and  C_5 
REMARK    4  A    between atoms: C_5  and  C_6 
REMARK    5  A    between atoms: C_6  and  C_7 
REMARK    6  A    between atoms: C_7  and  C_8 
REMARK    7  A    between atoms: C_7  and  O_22 
REMARK    8  A    between atoms: C_8  and  C_9 
REMARK    9  A    between atoms: C_10  and  C_11 
REMARK   10  A    between atoms: C_11  and  C_12 
REMARK   11  A    between atoms: C_12  and  C_13 
REMARK   12  A    between atoms: C_13  and  C_14 
REMARK   13  A    between atoms: C_14  and  C_15 
REMARK   14  A    between atoms: C_15  and  C_16 
REMARK   15  A    between atoms: C_16  and  C_17 
REMARK   16  A    between atoms: C_17  and  C_18 
REMARK   17  A    between atoms: C_18  and  O_20 
ROOT
HETATM    1  C   UNL     1     -21.998  -7.040  -2.940  1.00  0.00    -0.028 C 
HETATM    2  C   UNL     1     -21.459  -6.322  -3.938  1.00  0.00    -0.031 C 
ENDROOT
BRANCH   2   3
HETATM    3  C   UNL     1     -21.346  -6.825  -5.349  1.00  0.00     0.027 C 
BRANCH   3   4
HETATM    4  C   UNL     1     -20.248  -6.114  -6.133  1.00  0.00     0.004 C 
BRANCH   4   5
HETATM    5  C   UNL     1     -20.414  -4.596  -6.039  1.00  0.00     0.000 C 
BRANCH   5   6
HETATM    6  C   UNL     1     -21.346  -4.090  -7.135  1.00  0.00     0.000 C 
BRANCH   6   7
HETATM    7  C   UNL     1     -21.017  -4.705  -8.494  1.00  0.00     0.000 C 
BRANCH   7   8
HETATM    8  C   UNL     1     -22.016  -4.215  -9.539  1.00  0.00     0.010 C 
BRANCH   8   9
HETATM    9  C   UNL     1     -23.376  -3.886  -8.933  1.00  0.00     0.111 C 
BRANCH   9  10
HETATM   10  C   UNL     1     -24.317  -3.363  -9.994  1.00  0.00     0.258 C 
HETATM   11  O   UNL     1     -25.519  -3.197  -9.854  1.00  0.00    -0.265 OA
BRANCH  10  12
HETATM   12  O   UNL     1     -23.622  -3.104 -11.137  1.00  0.00    -0.326 OA
HETATM   13  C   UNL     1     -24.452  -3.015 -12.295  1.00  0.00     0.213 C 
ENDBRANCH  10  12
ENDBRANCH   9  10
ENDBRANCH   8   9
ENDBRANCH   7   8
ENDBRANCH   6   7
ENDBRANCH   5   6
ENDBRANCH   4   5
ENDBRANCH   3   4
ENDBRANCH   2   3
BRANCH   1  14
HETATM   14  C   UNL     1     -22.293  -6.495  -1.567  1.00  0.00     0.058 C 
BRANCH  14  15
HETATM   15  C   UNL     1     -22.302  -7.529  -0.427  1.00  0.00     0.121 C 
BRANCH  15  16
HETATM   16  C   UNL     1     -22.110  -8.988  -0.859  1.00  0.00     0.032 C 
BRANCH  16  17
HETATM   17  C   UNL     1     -23.249  -9.937  -0.489  1.00  0.00     0.002 C 
BRANCH  17  18
HETATM   18  C   UNL     1     -23.470 -11.075  -1.490  1.00  0.00     0.000 C 
BRANCH  18  19
HETATM   19  C   UNL     1     -23.647 -12.399  -0.743  1.00  0.00    -0.000 C 
BRANCH  19  20
HETATM   20  C   UNL     1     -23.482 -12.237   0.766  1.00  0.00    -0.005 C 
HETATM   21  C   UNL     1     -23.204 -13.580   1.423  1.00  0.00     0.005 C 
ENDBRANCH  19  20
ENDBRANCH  18  19
ENDBRANCH  17  18
ENDBRANCH  16  17
ENDBRANCH  15  16
BRANCH  15  22
HETATM   22  O   UNL     1     -23.518  -7.423   0.319  1.00  0.00    -0.395 OA
HETATM   23  H   UNL     1     -24.096  -8.153   0.037  1.00  0.00     0.210 HD
ENDBRANCH  15  22
ENDBRANCH  14  15
ENDBRANCH   1  14
TORSDOF 17
BEGIN_RES ARG D 557
REMARK  4 active torsions:
REMARK  status: ('A' for Active; 'I' for Inactive)
REMARK    1  A    between atoms: CA   and  CB  
REMARK    2  A    between atoms: CB   and  CG  
REMARK    3  A    between atoms: CG   and  CD  
REMARK    4  A    between atoms: CD   and  NE  
REMARK       I    between atoms: NE   and  CZ  
REMARK       I    between atoms: CZ   and  NH1 
REMARK       I    between atoms: CZ   and  NH2 
ROOT
ATOM      1  CA  ARG D 557     -26.217   2.705 -17.014  1.00 35.49     0.159 C 
ENDROOT
BRANCH   1   2
ATOM      2  CB  ARG D 557     -26.789   1.319 -17.183  1.00 35.49     0.034 C 
BRANCH   2   3
ATOM      3  CG  ARG D 557     -28.202   1.230 -17.570  1.00 35.49     0.027 C 
BRANCH   3   4
ATOM      4  CD  ARG D 557     -28.949   0.243 -16.757  1.00 35.49     0.116 C 
BRANCH   4   5
ATOM      5  NE  ARG D 557     -28.150  -0.910 -16.435  1.00 35.49    -0.212 N 
ATOM      6  CZ  ARG D 557     -28.421  -2.151 -16.770  1.00 35.49     0.666 C 
ATOM      7  NH1 ARG D 557     -29.504  -2.481 -17.451  1.00 35.49    -0.235 N 
ATOM      8  NH2 ARG D 557     -27.572  -3.070 -16.412  1.00 35.49    -0.235 N 
ATOM      9  HH  ARG D 557     -30.075  -1.893 -17.699  1.00 35.49     0.174 HD
ATOM     10  HH  ARG D 557     -29.628  -3.307 -17.643  1.00 35.49     0.174 HD
ATOM     11  HH  ARG D 557     -26.878  -2.826 -15.980  1.00 35.49     0.174 HD
ATOM     12  HH  ARG D 557     -27.712  -3.881 -16.613  1.00 35.49     0.174 HD
ATOM     13  HE  ARG D 557     -27.470  -0.798 -15.936  1.00 35.49     0.178 HD
ENDBRANCH   4   5
ENDBRANCH   3   4
ENDBRANCH   2   3
ENDBRANCH   1   2
END_RES ARG D 557
BEGIN_RES GLU D 570
REMARK  3 active torsions:
REMARK  status: ('A' for Active; 'I' for Inactive)
REMARK    5  A    between atoms: CA   and  CB  
REMARK    6  A    between atoms: CB   and  CG  
REMARK    7  A    between atoms: CG   and  CD  
ROOT
ATOM     14  CA  GLU D 570     -18.033  -6.348 -13.375  1.00 32.92     0.160 C 
ENDROOT
BRANCH  14  15
ATOM     15  CB  GLU D 570     -19.500  -6.345 -13.794  1.00 32.92     0.043 C 
BRANCH  15  16
ATOM     16  CG  GLU D 570     -20.439  -5.518 -12.993  1.00 32.92     0.100 C 
BRANCH  16  17
ATOM     17  CD  GLU D 570     -21.741  -5.243 -13.709  1.00 32.92     0.185 C 
ATOM     18  OE1 GLU D 570     -21.715  -4.649 -14.804  1.00 32.92    -0.647 OA
ATOM     19  OE2 GLU D 570     -22.798  -5.611 -13.162  1.00 32.92    -0.647 OA
ENDBRANCH  16  17
ENDBRANCH  15  16
ENDBRANCH  14  15
END_RES GLU D 570
ENDMDL
MODEL 4
REMARK VINA RESULT:      -6.8      1.595      2.082
REMARK  17 active torsions:
REMARK  status: ('A' for Active; 'I' for Inactive)
REMARK    1  A    between atoms: C_2  and  C_3 
REMARK    2  A    between atoms: C_3  and  C_4 
REMARK    3  A    between atoms: C_4  and  C_5 
REMARK    4  A    between atoms: C_5  and  C_6 
REMARK    5  A    between atoms: C_6  and  C_7 
REMARK    6  A    between atoms: C_7  and  C_8 
REMARK    7  A    between atoms: C_7  and  O_22 
REMARK    8  A    between atoms: C_8  and  C_9 
REMARK    9  A    between atoms: C_10  and  C_11 
REMARK   10  A    between atoms: C_11  and  C_12 
REMARK   11  A    between atoms: C_12  and  C_13 
REMARK   12  A    between atoms: C_13  and  C_14 
REMARK   13  A    between atoms: C_14  and  C_15 
REMARK   14  A    between atoms: C_15  and  C_16 
REMARK   15  A    between atoms: C_16  and  C_17 
REMARK   16  A    between atoms: C_17  and  C_18 
REMARK   17  A    between atoms: C_18  and  O_20 
ROOT
HETATM    1  C   UNL     1     -21.419  -7.252  -4.109  1.00  0.00    -0.028 C 
HETATM    2  C   UNL     1     -20.656  -6.639  -5.027  1.00  0.00    -0.031 C 
ENDROOT
BRANCH   2   3
HETATM    3  C   UNL     1     -21.136  -6.308  -6.412  1.00  0.00     0.027 C 
BRANCH   3   4
HETATM    4  C   UNL     1     -20.711  -4.912  -6.856  1.00  0.00     0.004 C 
BRANCH   4   5
HETATM    5  C   UNL     1     -21.921  -4.106  -7.334  1.00  0.00     0.000 C 
BRANCH   5   6
HETATM    6  C   UNL     1     -21.863  -3.895  -8.843  1.00  0.00     0.000 C 
BRANCH   6   7
HETATM    7  C   UNL     1     -20.495  -4.260  -9.418  1.00  0.00     0.000 C 
BRANCH   7   8
HETATM    8  C   UNL     1     -20.562  -4.272 -10.944  1.00  0.00     0.010 C 
BRANCH   8   9
HETATM    9  C   UNL     1     -21.263  -3.039 -11.503  1.00  0.00     0.111 C 
BRANCH   9  10
HETATM   10  C   UNL     1     -22.352  -3.441 -12.471  1.00  0.00     0.258 C 
HETATM   11  O   UNL     1     -22.897  -2.698 -13.273  1.00  0.00    -0.265 OA
BRANCH  10  12
HETATM   12  O   UNL     1     -22.638  -4.765 -12.316  1.00  0.00    -0.326 OA
HETATM   13  C   UNL     1     -23.113  -5.384 -13.512  1.00  0.00     0.213 C 
ENDBRANCH  10  12
ENDBRANCH   9  10
ENDBRANCH   8   9
ENDBRANCH   7   8
ENDBRANCH   6   7
ENDBRANCH   5   6
ENDBRANCH   4   5
ENDBRANCH   3   4
ENDBRANCH   2   3
BRANCH   1  14
HETATM   14  C   UNL     1     -21.031  -7.426  -2.664  1.00  0.00     0.058 C 
BRANCH  14  15
HETATM   15  C   UNL     1     -21.814  -6.568  -1.655  1.00  0.00     0.121 C 
BRANCH  15  16
HETATM   16  C   UNL     1     -22.448  -7.335  -0.488  1.00  0.00     0.032 C 
BRANCH  16  17
HETATM   17  C   UNL     1     -21.495  -8.227   0.306  1.00  0.00     0.002 C 
BRANCH  17  18
HETATM   18  C   UNL     1     -21.936  -9.690   0.403  1.00  0.00     0.000 C 
BRANCH  18  19
HETATM   19  C   UNL     1     -21.920 -10.332  -0.986  1.00  0.00    -0.000 C 
BRANCH  19  20
HETATM   20  C   UNL     1     -23.202 -11.105  -1.280  1.00  0.00    -0.005 C 
HETATM   21  C   UNL     1     -24.190 -10.966  -0.131  1.00  0.00     0.005 C 
ENDBRANCH  19  20
ENDBRANCH  18  19
ENDBRANCH  17  18
ENDBRANCH  16  17
ENDBRANCH  15  16
BRANCH  15  22
HETATM   22  O   UNL     1     -22.835  -5.828  -2.332  1.00  0.00    -0.395 OA
HETATM   23  H   UNL     1     -22.964  -4.997  -1.841  1.00  0.00     0.210 HD
ENDBRANCH  15  22
ENDBRANCH  14  15
ENDBRANCH   1  14
TORSDOF 17
BEGIN_RES ARG D 557
REMARK  4 active torsions:
REMARK  status: ('A' for Active; 'I' for Inactive)
REMARK    1  A    between atoms: CA   and  CB  
REMARK    2  A    between atoms: CB   and  CG  
REMARK    3  A    between atoms: CG   and  CD  
REMARK    4  A    between atoms: CD   and  NE  
REMARK       I    between atoms: NE   and  CZ  
REMARK       I    between atoms: CZ   and  NH1 
REMARK       I    between atoms: CZ   and  NH2 
ROOT
ATOM      1  CA  ARG D 557     -26.217   2.705 -17.014  1.00 35.49     0.159 C 
ENDROOT
BRANCH   1   2
ATOM      2  CB  ARG D 557     -26.789   1.319 -17.183  1.00 35.49     0.034 C 
BRANCH   2   3
ATOM      3  CG  ARG D 557     -25.976   0.203 -16.685  1.00 35.49     0.027 C 
BRANCH   3   4
ATOM      4  CD  ARG D 557     -26.802  -0.932 -16.214  1.00 35.49     0.116 C 
BRANCH   4   5
ATOM      5  NE  ARG D 557     -26.287  -1.512 -15.002  1.00 35.49    -0.212 N 
ATOM      6  CZ  ARG D 557     -26.288  -2.792 -14.703  1.00 35.49     0.666 C 
ATOM      7  NH1 ARG D 557     -26.792  -3.708 -15.508  1.00 35.49    -0.235 N 
ATOM      8  NH2 ARG D 557     -25.759  -3.142 -13.566  1.00 35.49    -0.235 N 
ATOM      9  HH  ARG D 557     -27.143  -3.500 -16.261  1.00 35.49     0.174 HD
ATOM     10  HH  ARG D 557     -26.762  -4.528 -15.261  1.00 35.49     0.174 HD
ATOM     11  HH  ARG D 557     -25.434  -2.529 -13.070  1.00 35.49     0.174 HD
ATOM     12  HH  ARG D 557     -25.737  -3.959 -13.340  1.00 35.49     0.174 HD
ATOM     13  HE  ARG D 557     -26.009  -0.986 -14.395  1.00 35.49     0.178 HD
ENDBRANCH   4   5
ENDBRANCH   3   4
ENDBRANCH   2   3
ENDBRANCH   1   2
END_RES ARG D 557
BEGIN_RES GLU D 570
REMARK  3 active torsions:
REMARK  status: ('A' for Active; 'I' for Inactive)
REMARK    5  A    between atoms: CA   and  CB  
REMARK    6  A    between atoms: CB   and  CG  
REMARK    7  A    between atoms: CG   and  CD  
ROOT
ATOM     14  CA  GLU D 570     -18.033  -6.348 -13.375  1.00 32.92     0.160 C 
ENDROOT
BRANCH  14  15
ATOM     15  CB  GLU D 570     -19.500  -6.345 -13.794  1.00 32.92     0.043 C 
BRANCH  15  16
ATOM     16  CG  GLU D 570     -19.797  -6.251 -15.247  1.00 32.92     0.100 C 
BRANCH  16  17
ATOM     17  CD  GLU D 570     -20.786  -7.294 -15.715  1.00 32.92     0.185 C 
ATOM     18  OE1 GLU D 570     -21.773  -6.934 -16.383  1.00 32.92    -0.647 OA
ATOM     19  OE2 GLU D 570     -20.579  -8.481 -15.395  1.00 32.92    -0.647 OA
ENDBRANCH  16  17
ENDBRANCH  15  16
ENDBRANCH  14  15
END_RES GLU D 570
ENDMDL
MODEL 5
REMARK VINA RESULT:      -6.8      1.946      2.964
REMARK  17 active torsions:
REMARK  status: ('A' for Active; 'I' for Inactive)
REMARK    1  A    between atoms: C_2  and  C_3 
REMARK    2  A    between atoms: C_3  and  C_4 
REMARK    3  A    between atoms: C_4  and  C_5 
REMARK    4  A    between atoms: C_5  and  C_6 
REMARK    5  A    between atoms: C_6  and  C_7 
REMARK    6  A    between atoms: C_7  and  C_8 
REMARK    7  A    between atoms: C_7  and  O_22 
REMARK    8  A    between atoms: C_8  and  C_9 
REMARK    9  A    between atoms: C_10  and  C_11 
REMARK   10  A    between atoms: C_11  and  C_12 
REMARK   11  A    between atoms: C_12  and  C_13 
REMARK   12  A    between atoms: C_13  and  C_14 
REMARK   13  A    between atoms: C_14  and  C_15 
REMARK   14  A    between atoms: C_15  and  C_16 
REMARK   15  A    between atoms: C_16  and  C_17 
REMARK   16  A    between atoms: C_17  and  C_18 
REMARK   17  A    between atoms: C_18  and  O_20 
ROOT
HETATM    1  C   UNL     1     -21.333  -6.666  -2.744  1.00  0.00    -0.028 C 
HETATM    2  C   UNL     1     -21.590  -6.353  -4.024  1.00  0.00    -0.031 C 
ENDROOT
BRANCH   2   3
HETATM    3  C   UNL     1     -20.753  -6.833  -5.175  1.00  0.00     0.027 C 
BRANCH   3   4
HETATM    4  C   UNL     1     -21.078  -6.101  -6.474  1.00  0.00     0.004 C 
BRANCH   4   5
HETATM    5  C   UNL     1     -20.238  -4.828  -6.600  1.00  0.00     0.000 C 
BRANCH   5   6
HETATM    6  C   UNL     1     -21.081  -3.682  -7.147  1.00  0.00     0.000 C 
BRANCH   6   7
HETATM    7  C   UNL     1     -22.032  -4.147  -8.249  1.00  0.00     0.000 C 
BRANCH   7   8
HETATM    8  C   UNL     1     -21.280  -4.245  -9.574  1.00  0.00     0.010 C 
BRANCH   8   9
HETATM    9  C   UNL     1     -22.039  -3.590 -10.722  1.00  0.00     0.111 C 
BRANCH   9  10
HETATM   10  C   UNL     1     -22.915  -4.602 -11.425  1.00  0.00     0.258 C 
HETATM   11  O   UNL     1     -23.811  -5.247 -10.902  1.00  0.00    -0.265 OA
BRANCH  10  12
HETATM   12  O   UNL     1     -22.554  -4.690 -12.737  1.00  0.00    -0.326 OA
HETATM   13  C   UNL     1     -23.365  -5.594 -13.486  1.00  0.00     0.213 C 
ENDBRANCH  10  12
ENDBRANCH   9  10
ENDBRANCH   8   9
ENDBRANCH   7   8
ENDBRANCH   6   7
ENDBRANCH   5   6
ENDBRANCH   4   5
ENDBRANCH   3   4
ENDBRANCH   2   3
BRANCH   1  14
HETATM   14  C   UNL     1     -22.256  -6.357  -1.594  1.00  0.00     0.058 C 
BRANCH  14  15
HETATM   15  C   UNL     1     -22.274  -7.394  -0.457  1.00  0.00     0.121 C 
BRANCH  15  16
HETATM   16  C   UNL     1     -21.843  -8.812  -0.851  1.00  0.00     0.032 C 
BRANCH  16  17
HETATM   17  C   UNL     1     -22.370  -9.932   0.046  1.00  0.00     0.002 C 
BRANCH  17  18
HETATM   18  C   UNL     1     -23.002 -11.103  -0.714  1.00  0.00     0.000 C 
BRANCH  18  19
HETATM   19  C   UNL     1     -23.702 -12.043   0.268  1.00  0.00    -0.000 C 
BRANCH  19  20
HETATM   20  C   UNL     1     -22.728 -13.005   0.942  1.00  0.00    -0.005 C 
HETATM   21  C   UNL     1     -23.423 -13.793   2.042  1.00  0.00     0.005 C 
ENDBRANCH  19  20
ENDBRANCH  18  19
ENDBRANCH  17  18
ENDBRANCH  16  17
ENDBRANCH  15  16
BRANCH  15  22
HETATM   22  O   UNL     1     -23.577  -7.453   0.131  1.00  0.00    -0.395 OA
HETATM   23  H   UNL     1     -23.681  -8.341   0.517  1.00  0.00     0.210 HD
ENDBRANCH  15  22
ENDBRANCH  14  15
ENDBRANCH   1  14
TORSDOF 17
BEGIN_RES ARG D 557
REMARK  4 active torsions:
REMARK  status: ('A' for Active; 'I' for Inactive)
REMARK    1  A    between atoms: CA   and  CB  
REMARK    2  A    between atoms: CB   and  CG  
REMARK    3  A    between atoms: CG   and  CD  
REMARK    4  A    between atoms: CD   and  NE  
REMARK       I    between atoms: NE   and  CZ  
REMARK       I    between atoms: CZ   and  NH1 
REMARK       I    between atoms: CZ   and  NH2 
ROOT
ATOM      1  CA  ARG D 557     -26.217   2.705 -17.014  1.00 35.49     0.159 C 
ENDROOT
BRANCH   1   2
ATOM      2  CB  ARG D 557     -26.789   1.319 -17.183  1.00 35.49     0.034 C 
BRANCH   2   3
ATOM      3  CG  ARG D 557     -25.855   0.196 -17.033  1.00 35.49     0.027 C 
BRANCH   3   4
ATOM      4  CD  ARG D 557     -26.225  -0.698 -15.912  1.00 35.49     0.116 C 
BRANCH   4   5
ATOM      5  NE  ARG D 557     -25.138  -0.887 -14.988  1.00 35.49    -0.212 N 
ATOM      6  CZ  ARG D 557     -24.907  -1.972 -14.283  1.00 35.49     0.666 C 
ATOM      7  NH1 ARG D 557     -25.688  -3.035 -14.344  1.00 35.49    -0.235 N 
ATOM      8  NH2 ARG D 557     -23.861  -1.975 -13.510  1.00 35.49    -0.235 N 
ATOM      9  HH  ARG D 557     -26.380  -3.056 -14.848  1.00 35.49     0.174 HD
ATOM     10  HH  ARG D 557     -25.486  -3.716 -13.863  1.00 35.49     0.174 HD
ATOM     11  HH  ARG D 557     -23.371  -1.277 -13.497  1.00 35.49     0.174 HD
ATOM     12  HH  ARG D 557     -23.677  -2.659 -13.043  1.00 35.49     0.174 HD
ATOM     13  HE  ARG D 557     -24.626  -0.225 -14.832  1.00 35.49     0.178 HD
ENDBRANCH   4   5
ENDBRANCH   3   4
ENDBRANCH   2   3
ENDBRANCH   1   2
END_RES ARG D 557
BEGIN_RES GLU D 570
REMARK  3 active torsions:
REMARK  status: ('A' for Active; 'I' for Inactive)
REMARK    5  A    between atoms: CA   and  CB  
REMARK    6  A    between atoms: CB   and  CG  
REMARK    7  A    between atoms: CG   and  CD  
ROOT
ATOM     14  CA  GLU D 570     -18.033  -6.348 -13.375  1.00 32.92     0.160 C 
ENDROOT
BRANCH  14  15
ATOM     15  CB  GLU D 570     -19.500  -6.345 -13.794  1.00 32.92     0.043 C 
BRANCH  15  16
ATOM     16  CG  GLU D 570     -20.100  -7.644 -14.196  1.00 32.92     0.100 C 
BRANCH  16  17
ATOM     17  CD  GLU D 570     -20.722  -7.605 -15.572  1.00 32.92     0.185 C 
ATOM     18  OE1 GLU D 570     -21.036  -8.677 -16.124  1.00 32.92    -0.647 OA
ATOM     19  OE2 GLU D 570     -20.881  -6.492 -16.111  1.00 32.92    -0.647 OA
ENDBRANCH  16  17
ENDBRANCH  15  16
ENDBRANCH  14  15
END_RES GLU D 570
ENDMDL
MODEL 6
REMARK VINA RESULT:      -6.7      2.589      4.763
REMARK  17 active torsions:
REMARK  status: ('A' for Active; 'I' for Inactive)
REMARK    1  A    between atoms: C_2  and  C_3 
REMARK    2  A    between atoms: C_3  and  C_4 
REMARK    3  A    between atoms: C_4  and  C_5 
REMARK    4  A    between atoms: C_5  and  C_6 
REMARK    5  A    between atoms: C_6  and  C_7 
REMARK    6  A    between atoms: C_7  and  C_8 
REMARK    7  A    between atoms: C_7  and  O_22 
REMARK    8  A    between atoms: C_8  and  C_9 
REMARK    9  A    between atoms: C_10  and  C_11 
REMARK   10  A    between atoms: C_11  and  C_12 
REMARK   11  A    between atoms: C_12  and  C_13 
REMARK   12  A    between atoms: C_13  and  C_14 
REMARK   13  A    between atoms: C_14  and  C_15 
REMARK   14  A    between atoms: C_15  and  C_16 
REMARK   15  A    between atoms: C_16  and  C_17 
REMARK   16  A    between atoms: C_17  and  C_18 
REMARK   17  A    between atoms: C_18  and  O_20 
ROOT
HETATM    1  C   UNL     1     -22.723  -7.378  -0.285  1.00  0.00    -0.028 C 
HETATM    2  C   UNL     1     -21.848  -7.131  -1.272  1.00  0.00    -0.031 C 
ENDROOT
BRANCH   2   3
HETATM    3  C   UNL     1     -22.060  -6.070  -2.315  1.00  0.00     0.027 C 
BRANCH   3   4
HETATM    4  C   UNL     1     -21.232  -6.318  -3.572  1.00  0.00     0.004 C 
BRANCH   4   5
HETATM    5  C   UNL     1     -21.933  -7.322  -4.490  1.00  0.00     0.000 C 
BRANCH   5   6
HETATM    6  C   UNL     1     -21.218  -7.410  -5.834  1.00  0.00     0.000 C 
BRANCH   6   7
HETATM    7  C   UNL     1     -20.119  -6.357  -5.966  1.00  0.00     0.000 C 
BRANCH   7   8
HETATM    8  C   UNL     1     -20.273  -5.613  -7.291  1.00  0.00     0.010 C 
BRANCH   8   9
HETATM    9  C   UNL     1     -20.849  -4.213  -7.107  1.00  0.00     0.111 C 
BRANCH   9  10
HETATM   10  C   UNL     1     -22.329  -4.205  -7.417  1.00  0.00     0.258 C 
HETATM   11  O   UNL     1     -23.206  -4.658  -6.697  1.00  0.00    -0.265 OA
BRANCH  10  12
HETATM   12  O   UNL     1     -22.542  -3.613  -8.626  1.00  0.00    -0.326 OA
HETATM   13  C   UNL     1     -23.124  -4.491  -9.590  1.00  0.00     0.213 C 
ENDBRANCH  10  12
ENDBRANCH   9  10
ENDBRANCH   8   9
ENDBRANCH   7   8
ENDBRANCH   6   7
ENDBRANCH   5   6
ENDBRANCH   4   5
ENDBRANCH   3   4
ENDBRANCH   2   3
BRANCH   1  14
HETATM   14  C   UNL     1     -22.452  -8.300   0.876  1.00  0.00     0.058 C 
BRANCH  14  15
HETATM   15  C   UNL     1     -21.222  -9.212   0.729  1.00  0.00     0.121 C 
BRANCH  15  16
HETATM   16  C   UNL     1     -21.501 -10.611   0.165  1.00  0.00     0.032 C 
BRANCH  16  17
HETATM   17  C   UNL     1     -22.978 -10.981   0.030  1.00  0.00     0.002 C 
BRANCH  17  18
HETATM   18  C   UNL     1     -23.464 -11.108  -1.417  1.00  0.00     0.000 C 
BRANCH  18  19
HETATM   19  C   UNL     1     -22.411 -10.543  -2.372  1.00  0.00    -0.000 C 
BRANCH  19  20
HETATM   20  C   UNL     1     -22.470 -11.197  -3.750  1.00  0.00    -0.005 C 
HETATM   21  C   UNL     1     -22.435 -12.713  -3.628  1.00  0.00     0.005 C 
ENDBRANCH  19  20
ENDBRANCH  18  19
ENDBRANCH  17  18
ENDBRANCH  16  17
ENDBRANCH  15  16
BRANCH  15  22
HETATM   22  O   UNL     1     -20.558  -9.345   1.990  1.00  0.00    -0.395 OA
HETATM   23  H   UNL     1     -21.220  -9.182   2.684  1.00  0.00     0.210 HD
ENDBRANCH  15  22
ENDBRANCH  14  15
ENDBRANCH   1  14
TORSDOF 17
BEGIN_RES ARG D 557
REMARK  4 active torsions:
REMARK  status: ('A' for Active; 'I' for Inactive)
REMARK    1  A    between atoms: CA   and  CB  
REMARK    2  A    between atoms: CB   and  CG  
REMARK    3  A    between atoms: CG   and  CD  
REMARK    4  A    between atoms: CD   and  NE  
REMARK       I    between atoms: NE   and  CZ  
REMARK       I    between atoms: CZ   and  NH1 
REMARK       I    between atoms: CZ   and  NH2 
ROOT
ATOM      1  CA  ARG D 557     -26.217   2.705 -17.014  1.00 35.49     0.159 C 
ENDROOT
BRANCH   1   2
ATOM      2  CB  ARG D 557     -26.789   1.319 -17.183  1.00 35.49     0.034 C 
BRANCH   2   3
ATOM      3  CG  ARG D 557     -25.861   0.195 -17.007  1.00 35.49     0.027 C 
BRANCH   3   4
ATOM      4  CD  ARG D 557     -26.261  -0.699 -15.896  1.00 35.49     0.116 C 
BRANCH   4   5
ATOM      5  NE  ARG D 557     -25.184  -0.929 -14.971  1.00 35.49    -0.212 N 
ATOM      6  CZ  ARG D 557     -24.965  -2.043 -14.308  1.00 35.49     0.666 C 
ATOM      7  NH1 ARG D 557     -25.751  -3.098 -14.417  1.00 35.49    -0.235 N 
ATOM      8  NH2 ARG D 557     -23.926  -2.082 -13.526  1.00 35.49    -0.235 N 
ATOM      9  HH  ARG D 557     -26.439  -3.095 -14.928  1.00 35.49     0.174 HD
ATOM     10  HH  ARG D 557     -25.557  -3.798 -13.962  1.00 35.49     0.174 HD
ATOM     11  HH  ARG D 557     -23.432  -1.388 -13.481  1.00 35.49     0.174 HD
ATOM     12  HH  ARG D 557     -23.750  -2.785 -13.085  1.00 35.49     0.174 HD
ATOM     13  HE  ARG D 557     -24.670  -0.277 -14.785  1.00 35.49     0.178 HD
ENDBRANCH   4   5
ENDBRANCH   3   4
ENDBRANCH   2   3
ENDBRANCH   1   2
END_RES ARG D 557
BEGIN_RES GLU D 570
REMARK  3 active torsions:
REMARK  status: ('A' for Active; 'I' for Inactive)
REMARK    5  A    between atoms: CA   and  CB  
REMARK    6  A    between atoms: CB   and  CG  
REMARK    7  A    between atoms: CG   and  CD  
ROOT
ATOM     14  CA  GLU D 570     -18.033  -6.348 -13.375  1.00 32.92     0.160 C 
ENDROOT
BRANCH  14  15
ATOM     15  CB  GLU D 570     -19.500  -6.345 -13.794  1.00 32.92     0.043 C 
BRANCH  15  16
ATOM     16  CG  GLU D 570     -20.444  -5.539 -12.977  1.00 32.92     0.100 C 
BRANCH  16  17
ATOM     17  CD  GLU D 570     -21.676  -5.118 -13.743  1.00 32.92     0.185 C 
ATOM     18  OE1 GLU D 570     -21.616  -5.033 -14.985  1.00 32.92    -0.647 OA
ATOM     19  OE2 GLU D 570     -22.706  -4.853 -13.094  1.00 32.92    -0.647 OA
ENDBRANCH  16  17
ENDBRANCH  15  16
ENDBRANCH  14  15
END_RES GLU D 570
ENDMDL
MODEL 7
REMARK VINA RESULT:      -6.7      2.403      7.942
REMARK  17 active torsions:
REMARK  status: ('A' for Active; 'I' for Inactive)
REMARK    1  A    between atoms: C_2  and  C_3 
REMARK    2  A    between atoms: C_3  and  C_4 
REMARK    3  A    between atoms: C_4  and  C_5 
REMARK    4  A    between atoms: C_5  and  C_6 
REMARK    5  A    between atoms: C_6  and  C_7 
REMARK    6  A    between atoms: C_7  and  C_8 
REMARK    7  A    between atoms: C_7  and  O_22 
REMARK    8  A    between atoms: C_8  and  C_9 
REMARK    9  A    between atoms: C_10  and  C_11 
REMARK   10  A    between atoms: C_11  and  C_12 
REMARK   11  A    between atoms: C_12  and  C_13 
REMARK   12  A    between atoms: C_13  and  C_14 
REMARK   13  A    between atoms: C_14  and  C_15 
REMARK   14  A    between atoms: C_15  and  C_16 
REMARK   15  A    between atoms: C_16  and  C_17 
REMARK   16  A    between atoms: C_17  and  C_18 
REMARK   17  A    between atoms: C_18  and  O_20 
ROOT
HETATM    1  C   UNL     1     -21.986  -6.246  -2.338  1.00  0.00    -0.028 C 
HETATM    2  C   UNL     1     -21.736  -7.257  -1.490  1.00  0.00    -0.031 C 
ENDROOT
BRANCH   2   3
HETATM    3  C   UNL     1     -22.615  -7.587  -0.319  1.00  0.00     0.027 C 
BRANCH   3   4
HETATM    4  C   UNL     1     -21.940  -8.540   0.664  1.00  0.00     0.004 C 
BRANCH   4   5
HETATM    5  C   UNL     1     -21.985  -9.976   0.139  1.00  0.00     0.000 C 
BRANCH   5   6
HETATM    6  C   UNL     1     -23.401 -10.348  -0.287  1.00  0.00     0.000 C 
BRANCH   6   7
HETATM    7  C   UNL     1     -23.416 -11.122  -1.604  1.00  0.00     0.000 C 
BRANCH   7   8
HETATM    8  C   UNL     1     -22.117 -10.871  -2.366  1.00  0.00     0.010 C 
BRANCH   8   9
HETATM    9  C   UNL     1     -22.359 -10.240  -3.733  1.00  0.00     0.111 C 
BRANCH   9  10
HETATM   10  C   UNL     1     -21.046  -9.970  -4.433  1.00  0.00     0.258 C 
HETATM   11  O   UNL     1     -20.884  -9.930  -5.643  1.00  0.00    -0.265 OA
BRANCH  10  12
HETATM   12  O   UNL     1     -20.064  -9.779  -3.507  1.00  0.00    -0.326 OA
HETATM   13  C   UNL     1     -18.955  -9.032  -4.007  1.00  0.00     0.213 C 
ENDBRANCH  10  12
ENDBRANCH   9  10
ENDBRANCH   8   9
ENDBRANCH   7   8
ENDBRANCH   6   7
ENDBRANCH   5   6
ENDBRANCH   4   5
ENDBRANCH   3   4
ENDBRANCH   2   3
BRANCH   1  14
HETATM   14  C   UNL     1     -21.231  -6.009  -3.620  1.00  0.00     0.058 C 
BRANCH  14  15
HETATM   15  C   UNL     1     -21.914  -6.524  -4.900  1.00  0.00     0.121 C 
BRANCH  15  16
HETATM   16  C   UNL     1     -21.244  -6.113  -6.216  1.00  0.00     0.032 C 
BRANCH  16  17
HETATM   17  C   UNL     1     -20.490  -4.784  -6.182  1.00  0.00     0.002 C 
BRANCH  17  18
HETATM   18  C   UNL     1     -21.043  -3.722  -7.139  1.00  0.00     0.000 C 
BRANCH  18  19
HETATM   19  C   UNL     1     -22.309  -4.244  -7.821  1.00  0.00    -0.000 C 
BRANCH  19  20
HETATM   20  C   UNL     1     -22.178  -4.271  -9.341  1.00  0.00    -0.005 C 
HETATM   21  C   UNL     1     -20.731  -4.057  -9.760  1.00  0.00     0.005 C 
ENDBRANCH  19  20
ENDBRANCH  18  19
ENDBRANCH  17  18
ENDBRANCH  16  17
ENDBRANCH  15  16
BRANCH  15  22
HETATM   22  O   UNL     1     -23.282  -6.105  -4.926  1.00  0.00    -0.395 OA
HETATM   23  H   UNL     1     -23.652  -6.375  -5.785  1.00  0.00     0.210 HD
ENDBRANCH  15  22
ENDBRANCH  14  15
ENDBRANCH   1  14
TORSDOF 17
BEGIN_RES ARG D 557
REMARK  4 active torsions:
REMARK  status: ('A' for Active; 'I' for Inactive)
REMARK    1  A    between atoms: CA   and  CB  
REMARK    2  A    between atoms: CB   and  CG  
REMARK    3  A    between atoms: CG   and  CD  
REMARK    4  A    between atoms: CD   and  NE  
REMARK       I    between atoms: NE   and  CZ  
REMARK       I    between atoms: CZ   and  NH1 
REMARK       I    between atoms: CZ   and  NH2 
ROOT
ATOM      1  CA  ARG D 557     -26.217   2.705 -17.014  1.00 35.49     0.159 C 
ENDROOT
BRANCH   1   2
ATOM      2  CB  ARG D 557     -26.789   1.319 -17.183  1.00 35.49     0.034 C 
BRANCH   2   3
ATOM      3  CG  ARG D 557     -26.022   0.212 -16.600  1.00 35.49     0.027 C 
BRANCH   3   4
ATOM      4  CD  ARG D 557     -26.892  -0.879 -16.105  1.00 35.49     0.116 C 
BRANCH   4   5
ATOM      5  NE  ARG D 557     -26.152  -1.874 -15.375  1.00 35.49    -0.212 N 
ATOM      6  CZ  ARG D 557     -25.037  -1.669 -14.710  1.00 35.49     0.666 C 
ATOM      7  NH1 ARG D 557     -24.453  -0.486 -14.653  1.00 35.49    -0.235 N 
ATOM      8  NH2 ARG D 557     -24.514  -2.684 -14.087  1.00 35.49    -0.235 N 
ATOM      9  HH  ARG D 557     -24.782   0.197 -15.054  1.00 35.49     0.174 HD
ATOM     10  HH  ARG D 557     -23.729  -0.411 -14.202  1.00 35.49     0.174 HD
ATOM     11  HH  ARG D 557     -24.917  -3.434 -14.135  1.00 35.49     0.174 HD
ATOM     12  HH  ARG D 557     -23.797  -2.590 -13.644  1.00 35.49     0.174 HD
ATOM     13  HE  ARG D 557     -26.418  -2.681 -15.418  1.00 35.49     0.178 HD
ENDBRANCH   4   5
ENDBRANCH   3   4
ENDBRANCH   2   3
ENDBRANCH   1   2
END_RES ARG D 557
BEGIN_RES GLU D 570
REMARK  3 active torsions:
REMARK  status: ('A' for Active; 'I' for Inactive)
REMARK    5  A    between atoms: CA   and  CB  
REMARK    6  A    between atoms: CB   and  CG  
REMARK    7  A    between atoms: CG   and  CD  
ROOT
ATOM     14  CA  GLU D 570     -18.033  -6.348 -13.375  1.00 32.92     0.160 C 
ENDROOT
BRANCH  14  15
ATOM     15  CB  GLU D 570     -19.500  -6.345 -13.794  1.00 32.92     0.043 C 
BRANCH  15  16
ATOM     16  CG  GLU D 570     -20.449  -5.563 -12.960  1.00 32.92     0.100 C 
BRANCH  16  17
ATOM     17  CD  GLU D 570     -21.695  -5.156 -13.710  1.00 32.92     0.185 C 
ATOM     18  OE1 GLU D 570     -21.643  -5.031 -14.949  1.00 32.92    -0.647 OA
ATOM     19  OE2 GLU D 570     -22.732  -4.943 -13.050  1.00 32.92    -0.647 OA
ENDBRANCH  16  17
ENDBRANCH  15  16
ENDBRANCH  14  15
END_RES GLU D 570
ENDMDL
MODEL 8
REMARK VINA RESULT:      -6.5      2.848      8.382
REMARK  17 active torsions:
REMARK  status: ('A' for Active; 'I' for Inactive)
REMARK    1  A    between atoms: C_2  and  C_3 
REMARK    2  A    between atoms: C_3  and  C_4 
REMARK    3  A    between atoms: C_4  and  C_5 
REMARK    4  A    between atoms: C_5  and  C_6 
REMARK    5  A    between atoms: C_6  and  C_7 
REMARK    6  A    between atoms: C_7  and  C_8 
REMARK    7  A    between atoms: C_7  and  O_22 
REMARK    8  A    between atoms: C_8  and  C_9 
REMARK    9  A    between atoms: C_10  and  C_11 
REMARK   10  A    between atoms: C_11  and  C_12 
REMARK   11  A    between atoms: C_12  and  C_13 
REMARK   12  A    between atoms: C_13  and  C_14 
REMARK   13  A    between atoms: C_14  and  C_15 
REMARK   14  A    between atoms: C_15  and  C_16 
REMARK   15  A    between atoms: C_16  and  C_17 
REMARK   16  A    between atoms: C_17  and  C_18 
REMARK   17  A    between atoms: C_18  and  O_20 
ROOT
HETATM    1  C   UNL     1     -21.439  -6.700  -2.989  1.00  0.00    -0.028 C 
HETATM    2  C   UNL     1     -22.368  -6.544  -2.033  1.00  0.00    -0.031 C 
ENDROOT
BRANCH   2   3
HETATM    3  C   UNL     1     -22.100  -6.790  -0.575  1.00  0.00     0.027 C 
BRANCH   3   4
HETATM    4  C   UNL     1     -23.023  -7.853   0.014  1.00  0.00     0.004 C 
BRANCH   4   5
HETATM    5  C   UNL     1     -22.292  -9.192   0.139  1.00  0.00     0.000 C 
BRANCH   5   6
HETATM    6  C   UNL     1     -22.678 -10.122  -1.006  1.00  0.00     0.000 C 
BRANCH   6   7
HETATM    7  C   UNL     1     -21.457 -10.802  -1.625  1.00  0.00     0.000 C 
BRANCH   7   8
HETATM    8  C   UNL     1     -20.267  -9.845  -1.604  1.00  0.00     0.010 C 
BRANCH   8   9
HETATM    9  C   UNL     1     -18.980 -10.510  -2.081  1.00  0.00     0.111 C 
BRANCH   9  10
HETATM   10  C   UNL     1     -18.292  -9.650  -3.117  1.00  0.00     0.258 C 
HETATM   11  O   UNL     1     -18.781  -9.293  -4.178  1.00  0.00    -0.265 OA
BRANCH  10  12
HETATM   12  O   UNL     1     -17.038  -9.331  -2.690  1.00  0.00    -0.326 OA
HETATM   13  C   UNL     1     -16.016  -9.683  -3.623  1.00  0.00     0.213 C 
ENDBRANCH  10  12
ENDBRANCH   9  10
ENDBRANCH   8   9
ENDBRANCH   7   8
ENDBRANCH   6   7
ENDBRANCH   5   6
ENDBRANCH   4   5
ENDBRANCH   3   4
ENDBRANCH   2   3
BRANCH   1  14
HETATM   14  C   UNL     1     -21.623  -6.283  -4.425  1.00  0.00     0.058 C 
BRANCH  14  15
HETATM   15  C   UNL     1     -20.608  -6.865  -5.424  1.00  0.00     0.121 C 
BRANCH  15  16
HETATM   16  C   UNL     1     -20.250  -5.958  -6.607  1.00  0.00     0.032 C 
BRANCH  16  17
HETATM   17  C   UNL     1     -20.336  -4.457  -6.332  1.00  0.00     0.002 C 
BRANCH  17  18
HETATM   18  C   UNL     1     -21.385  -3.722  -7.172  1.00  0.00     0.000 C 
BRANCH  18  19
HETATM   19  C   UNL     1     -22.015  -4.686  -8.179  1.00  0.00    -0.000 C 
BRANCH  19  20
HETATM   20  C   UNL     1     -22.041  -4.112  -9.592  1.00  0.00    -0.005 C 
HETATM   21  C   UNL     1     -20.627  -3.909 -10.116  1.00  0.00     0.005 C 
ENDBRANCH  19  20
ENDBRANCH  18  19
ENDBRANCH  17  18
ENDBRANCH  16  17
ENDBRANCH  15  16
BRANCH  15  22
HETATM   22  O   UNL     1     -21.081  -8.118  -5.927  1.00  0.00    -0.395 OA
HETATM   23  H   UNL     1     -21.698  -7.924  -6.655  1.00  0.00     0.210 HD
ENDBRANCH  15  22
ENDBRANCH  14  15
ENDBRANCH   1  14
TORSDOF 17
BEGIN_RES ARG D 557
REMARK  4 active torsions:
REMARK  status: ('A' for Active; 'I' for Inactive)
REMARK    1  A    between atoms: CA   and  CB  
REMARK    2  A    between atoms: CB   and  CG  
REMARK    3  A    between atoms: CG   and  CD  
REMARK    4  A    between atoms: CD   and  NE  
REMARK       I    between atoms: NE   and  CZ  
REMARK       I    between atoms: CZ   and  NH1 
REMARK       I    between atoms: CZ   and  NH2 
ROOT
ATOM      1  CA  ARG D 557     -26.217   2.705 -17.014  1.00 35.49     0.159 C 
ENDROOT
BRANCH   1   2
ATOM      2  CB  ARG D 557     -26.789   1.319 -17.183  1.00 35.49     0.034 C 
BRANCH   2   3
ATOM      3  CG  ARG D 557     -25.864   0.195 -16.993  1.00 35.49     0.027 C 
BRANCH   3   4
ATOM      4  CD  ARG D 557     -26.271  -0.689 -15.877  1.00 35.49     0.116 C 
BRANCH   4   5
ATOM      5  NE  ARG D 557     -25.203  -0.901 -14.936  1.00 35.49    -0.212 N 
ATOM      6  CZ  ARG D 557     -24.898  -2.044 -14.365  1.00 35.49     0.666 C 
ATOM      7  NH1 ARG D 557     -25.574  -3.155 -14.596  1.00 35.49    -0.235 N 
ATOM      8  NH2 ARG D 557     -23.882  -2.057 -13.552  1.00 35.49    -0.235 N 
ATOM      9  HH  ARG D 557     -26.245  -3.170 -15.129  1.00 35.49     0.174 HD
ATOM     10  HH  ARG D 557     -25.327  -3.872 -14.197  1.00 35.49     0.174 HD
ATOM     11  HH  ARG D 557     -23.460  -1.327 -13.428  1.00 35.49     0.174 HD
ATOM     12  HH  ARG D 557     -23.653  -2.777 -13.168  1.00 35.49     0.174 HD
ATOM     13  HE  ARG D 557     -24.761  -0.223 -14.674  1.00 35.49     0.178 HD
ENDBRANCH   4   5
ENDBRANCH   3   4
ENDBRANCH   2   3
ENDBRANCH   1   2
END_RES ARG D 557
BEGIN_RES GLU D 570
REMARK  3 active torsions:
REMARK  status: ('A' for Active; 'I' for Inactive)
REMARK    5  A    between atoms: CA   and  CB  
REMARK    6  A    between atoms: CB   and  CG  
REMARK    7  A    between atoms: CG   and  CD  
ROOT
ATOM     14  CA  GLU D 570     -18.033  -6.348 -13.375  1.00 32.92     0.160 C 
ENDROOT
BRANCH  14  15
ATOM     15  CB  GLU D 570     -19.500  -6.345 -13.794  1.00 32.92     0.043 C 
BRANCH  15  16
ATOM     16  CG  GLU D 570     -20.445  -5.546 -12.972  1.00 32.92     0.100 C 
BRANCH  16  17
ATOM     17  CD  GLU D 570     -21.676  -5.119 -13.737  1.00 32.92     0.185 C 
ATOM     18  OE1 GLU D 570     -21.603  -4.981 -14.973  1.00 32.92    -0.647 OA
ATOM     19  OE2 GLU D 570     -22.721  -4.905 -13.091  1.00 32.92    -0.647 OA
ENDBRANCH  16  17
ENDBRANCH  15  16
ENDBRANCH  14  15
END_RES GLU D 570
ENDMDL
MODEL 9
REMARK VINA RESULT:      -6.3      2.168      2.967
REMARK  17 active torsions:
REMARK  status: ('A' for Active; 'I' for Inactive)
REMARK    1  A    between atoms: C_2  and  C_3 
REMARK    2  A    between atoms: C_3  and  C_4 
REMARK    3  A    between atoms: C_4  and  C_5 
REMARK    4  A    between atoms: C_5  and  C_6 
REMARK    5  A    between atoms: C_6  and  C_7 
REMARK    6  A    between atoms: C_7  and  C_8 
REMARK    7  A    between atoms: C_7  and  O_22 
REMARK    8  A    between atoms: C_8  and  C_9 
REMARK    9  A    between atoms: C_10  and  C_11 
REMARK   10  A    between atoms: C_11  and  C_12 
REMARK   11  A    between atoms: C_12  and  C_13 
REMARK   12  A    between atoms: C_13  and  C_14 
REMARK   13  A    between atoms: C_14  and  C_15 
REMARK   14  A    between atoms: C_15  and  C_16 
REMARK   15  A    between atoms: C_16  and  C_17 
REMARK   16  A    between atoms: C_17  and  C_18 
REMARK   17  A    between atoms: C_18  and  O_20 
ROOT
HETATM    1  C   UNL     1     -21.470  -6.191  -3.402  1.00  0.00    -0.028 C 
HETATM    2  C   UNL     1     -21.912  -6.732  -4.549  1.00  0.00    -0.031 C 
ENDROOT
BRANCH   2   3
HETATM    3  C   UNL     1     -21.501  -6.238  -5.906  1.00  0.00     0.027 C 
BRANCH   3   4
HETATM    4  C   UNL     1     -20.530  -5.064  -5.827  1.00  0.00     0.004 C 
BRANCH   4   5
HETATM    5  C   UNL     1     -20.883  -4.002  -6.871  1.00  0.00     0.000 C 
BRANCH   5   6
HETATM    6  C   UNL     1     -19.818  -3.946  -7.961  1.00  0.00     0.000 C 
BRANCH   6   7
HETATM    7  C   UNL     1     -20.285  -4.620  -9.250  1.00  0.00     0.000 C 
BRANCH   7   8
HETATM    8  C   UNL     1     -21.811  -4.631  -9.304  1.00  0.00     0.010 C 
BRANCH   8   9
HETATM    9  C   UNL     1     -22.359  -3.724 -10.401  1.00  0.00     0.111 C 
BRANCH   9  10
HETATM   10  C   UNL     1     -23.539  -4.374 -11.086  1.00  0.00     0.258 C 
HETATM   11  O   UNL     1     -23.573  -4.726 -12.255  1.00  0.00    -0.265 OA
BRANCH  10  12
HETATM   12  O   UNL     1     -24.567  -4.509 -10.201  1.00  0.00    -0.326 OA
HETATM   13  C   UNL     1     -25.062  -3.261  -9.716  1.00  0.00     0.213 C 
ENDBRANCH  10  12
ENDBRANCH   9  10
ENDBRANCH   8   9
ENDBRANCH   7   8
ENDBRANCH   6   7
ENDBRANCH   5   6
ENDBRANCH   4   5
ENDBRANCH   3   4
ENDBRANCH   2   3
BRANCH   1  14
HETATM   14  C   UNL     1     -21.715  -6.781  -2.037  1.00  0.00     0.058 C 
BRANCH  14  15
HETATM   15  C   UNL     1     -21.184  -8.209  -1.823  1.00  0.00     0.121 C 
BRANCH  15  16
HETATM   16  C   UNL     1     -21.221  -8.716  -0.376  1.00  0.00     0.032 C 
BRANCH  16  17
HETATM   17  C   UNL     1     -22.434  -8.278   0.442  1.00  0.00     0.002 C 
BRANCH  17  18
HETATM   18  C   UNL     1     -23.668  -9.170   0.266  1.00  0.00     0.000 C 
BRANCH  18  19
HETATM   19  C   UNL     1     -23.233 -10.619   0.035  1.00  0.00    -0.000 C 
BRANCH  19  20
HETATM   20  C   UNL     1     -24.101 -11.324  -1.004  1.00  0.00    -0.005 C 
HETATM   21  C   UNL     1     -23.829 -12.821  -1.005  1.00  0.00     0.005 C 
ENDBRANCH  19  20
ENDBRANCH  18  19
ENDBRANCH  17  18
ENDBRANCH  16  17
ENDBRANCH  15  16
BRANCH  15  22
HETATM   22  O   UNL     1     -19.844  -8.311  -2.316  1.00  0.00    -0.395 OA
HETATM   23  H   UNL     1     -19.864  -8.903  -3.089  1.00  0.00     0.210 HD
ENDBRANCH  15  22
ENDBRANCH  14  15
ENDBRANCH   1  14
TORSDOF 17
BEGIN_RES ARG D 557
REMARK  4 active torsions:
REMARK  status: ('A' for Active; 'I' for Inactive)
REMARK    1  A    between atoms: CA   and  CB  
REMARK    2  A    between atoms: CB   and  CG  
REMARK    3  A    between atoms: CG   and  CD  
REMARK    4  A    between atoms: CD   and  NE  
REMARK       I    between atoms: NE   and  CZ  
REMARK       I    between atoms: CZ   and  NH1 
REMARK       I    between atoms: CZ   and  NH2 
ROOT
ATOM      1  CA  ARG D 557     -26.217   2.705 -17.014  1.00 35.49     0.159 C 
ENDROOT
BRANCH   1   2
ATOM      2  CB  ARG D 557     -26.789   1.319 -17.183  1.00 35.49     0.034 C 
BRANCH   2   3
ATOM      3  CG  ARG D 557     -25.952   0.200 -16.734  1.00 35.49     0.027 C 
BRANCH   3   4
ATOM      4  CD  ARG D 557     -26.750  -0.905 -16.155  1.00 35.49     0.116 C 
BRANCH   4   5
ATOM      5  NE  ARG D 557     -26.027  -1.622 -15.138  1.00 35.49    -0.212 N 
ATOM      6  CZ  ARG D 557     -24.834  -1.313 -14.682  1.00 35.49     0.666 C 
ATOM      7  NH1 ARG D 557     -24.145  -0.282 -15.138  1.00 35.49    -0.235 N 
ATOM      8  NH2 ARG D 557     -24.338  -2.063 -13.742  1.00 35.49    -0.235 N 
ATOM      9  HH  ARG D 557     -24.454   0.226 -15.755  1.00 35.49     0.174 HD
ATOM     10  HH  ARG D 557     -23.373  -0.127 -14.800  1.00 35.49     0.174 HD
ATOM     11  HH  ARG D 557     -24.808  -2.717 -13.462  1.00 35.49     0.174 HD
ATOM     12  HH  ARG D 557     -23.572  -1.893 -13.419  1.00 35.49     0.174 HD
ATOM     13  HE  ARG D 557     -26.366  -2.343 -14.840  1.00 35.49     0.178 HD
ENDBRANCH   4   5
ENDBRANCH   3   4
ENDBRANCH   2   3
ENDBRANCH   1   2
END_RES ARG D 557
BEGIN_RES GLU D 570
REMARK  3 active torsions:
REMARK  status: ('A' for Active; 'I' for Inactive)
REMARK    5  A    between atoms: CA   and  CB  
REMARK    6  A    between atoms: CB   and  CG  
REMARK    7  A    between atoms: CG   and  CD  
ROOT
ATOM     14  CA  GLU D 570     -18.033  -6.348 -13.375  1.00 32.92     0.160 C 
ENDROOT
BRANCH  14  15
ATOM     15  CB  GLU D 570     -19.500  -6.345 -13.794  1.00 32.92     0.043 C 
BRANCH  15  16
ATOM     16  CG  GLU D 570     -19.816  -5.903 -15.177  1.00 32.92     0.100 C 
BRANCH  16  17
ATOM     17  CD  GLU D 570     -21.301  -5.794 -15.436  1.00 32.92     0.185 C 
ATOM     18  OE1 GLU D 570     -21.699  -5.100 -16.391  1.00 32.92    -0.647 OA
ATOM     19  OE2 GLU D 570     -22.074  -6.397 -14.666  1.00 32.92    -0.647 OA
ENDBRANCH  16  17
ENDBRANCH  15  16
ENDBRANCH  14  15
END_RES GLU D 570
ENDMDL
