MODEL 1
REMARK VINA RESULT:      -1.3      0.000      0.000
REMARK  2 active torsions:
REMARK  status: ('A' for Active; 'I' for Inactive)
REMARK    1  A    between atoms: C_2  and  C_3 
REMARK    2  A    between atoms: C_2  and  O_6 
ROOT
HETATM    1 NA   UNL     2     -11.286   1.554   2.393  1.00  0.00     0.000 Na
ENDROOT
TORSDOF 2
BEGIN_RES ARG D 557
REMARK  4 active torsions:
REMARK  status: ('A' for Active; 'I' for Inactive)
REMARK    1  A    between atoms: CA   and  CB  
REMARK    2  A    between atoms: CB   and  CG  
REMARK    3  A    between atoms: CG   and  CD  
REMARK    4  A    between atoms: CD   and  NE  
REMARK       I    between atoms: NE   and  CZ  
REMARK       I    between atoms: CZ   and  NH1 
REMARK       I    between atoms: CZ   and  NH2 
ROOT
ATOM      1  CA  ARG D 557     -26.217   2.705 -17.014  1.00 35.49     0.159 C 
ENDROOT
BRANCH   1   2
ATOM      2  CB  ARG D 557     -26.789   1.319 -17.183  1.00 35.49     0.034 C 
BRANCH   2   3
ATOM      3  CG  ARG D 557     -25.836   0.203 -17.151  1.00 35.49     0.027 C 
BRANCH   3   4
ATOM      4  CD  ARG D 557     -24.754   0.412 -16.162  1.00 35.49     0.116 C 
BRANCH   4   5
ATOM      5  NE  ARG D 557     -24.900  -0.438 -15.010  1.00 35.49    -0.212 N 
ATOM      6  CZ  ARG D 557     -24.085  -1.410 -14.665  1.00 35.49     0.666 C 
ATOM      7  NH1 ARG D 557     -23.017  -1.725 -15.374  1.00 35.49    -0.235 N 
ATOM      8  NH2 ARG D 557     -24.361  -2.066 -13.575  1.00 35.49    -0.235 N 
ATOM      9  HH  ARG D 557     -22.815  -1.306 -16.093  1.00 35.49     0.174 HD
ATOM     10  HH  ARG D 557     -22.521  -2.367 -15.099  1.00 35.49     0.174 HD
ATOM     11  HH  ARG D 557     -25.053  -1.835 -13.134  1.00 35.49     0.174 HD
ATOM     12  HH  ARG D 557     -23.856  -2.697 -13.318  1.00 35.49     0.174 HD
ATOM     13  HE  ARG D 557     -25.601  -0.353 -14.536  1.00 35.49     0.178 HD
ENDBRANCH   4   5
ENDBRANCH   3   4
ENDBRANCH   2   3
ENDBRANCH   1   2
END_RES ARG D 557
BEGIN_RES GLU D 570
REMARK  3 active torsions:
REMARK  status: ('A' for Active; 'I' for Inactive)
REMARK    5  A    between atoms: CA   and  CB  
REMARK    6  A    between atoms: CB   and  CG  
REMARK    7  A    between atoms: CG   and  CD  
ROOT
ATOM     14  CA  GLU D 570     -18.033  -6.348 -13.375  1.00 32.92     0.160 C 
ENDROOT
BRANCH  14  15
ATOM     15  CB  GLU D 570     -19.500  -6.345 -13.794  1.00 32.92     0.043 C 
BRANCH  15  16
ATOM     16  CG  GLU D 570     -20.440  -5.522 -12.989  1.00 32.92     0.100 C 
BRANCH  16  17
ATOM     17  CD  GLU D 570     -21.733  -5.228 -13.713  1.00 32.92     0.185 C 
ATOM     18  OE1 GLU D 570     -22.346  -4.175 -13.452  1.00 32.92    -0.647 OA
ATOM     19  OE2 GLU D 570     -22.146  -6.067 -14.538  1.00 32.92    -0.647 OA
ENDBRANCH  16  17
ENDBRANCH  15  16
ENDBRANCH  14  15
END_RES GLU D 570
ENDMDL
MODEL 2
REMARK VINA RESULT:      -1.2      8.052      8.052
REMARK  2 active torsions:
REMARK  status: ('A' for Active; 'I' for Inactive)
REMARK    1  A    between atoms: C_2  and  C_3 
REMARK    2  A    between atoms: C_2  and  O_6 
ROOT
HETATM    1 NA   UNL     2     -26.965 -13.624 -13.003  1.00  0.00     0.000 Na
ENDROOT
TORSDOF 2
BEGIN_RES ARG D 557
REMARK  4 active torsions:
REMARK  status: ('A' for Active; 'I' for Inactive)
REMARK    1  A    between atoms: CA   and  CB  
REMARK    2  A    between atoms: CB   and  CG  
REMARK    3  A    between atoms: CG   and  CD  
REMARK    4  A    between atoms: CD   and  NE  
REMARK       I    between atoms: NE   and  CZ  
REMARK       I    between atoms: CZ   and  NH1 
REMARK       I    between atoms: CZ   and  NH2 
ROOT
ATOM      1  CA  ARG D 557     -26.217   2.705 -17.014  1.00 35.49     0.159 C 
ENDROOT
BRANCH   1   2
ATOM      2  CB  ARG D 557     -26.789   1.319 -17.183  1.00 35.49     0.034 C 
BRANCH   2   3
ATOM      3  CG  ARG D 557     -25.836   0.203 -17.153  1.00 35.49     0.027 C 
BRANCH   3   4
ATOM      4  CD  ARG D 557     -24.759   0.406 -16.157  1.00 35.49     0.116 C 
BRANCH   4   5
ATOM      5  NE  ARG D 557     -24.913  -0.449 -15.010  1.00 35.49    -0.212 N 
ATOM      6  CZ  ARG D 557     -24.098  -1.419 -14.661  1.00 35.49     0.666 C 
ATOM      7  NH1 ARG D 557     -23.022  -1.728 -15.361  1.00 35.49    -0.235 N 
ATOM      8  NH2 ARG D 557     -24.381  -2.080 -13.576  1.00 35.49    -0.235 N 
ATOM      9  HH  ARG D 557     -22.815  -1.304 -16.076  1.00 35.49     0.174 HD
ATOM     10  HH  ARG D 557     -22.525  -2.368 -15.082  1.00 35.49     0.174 HD
ATOM     11  HH  ARG D 557     -25.079  -1.854 -13.140  1.00 35.49     0.174 HD
ATOM     12  HH  ARG D 557     -23.877  -2.710 -13.317  1.00 35.49     0.174 HD
ATOM     13  HE  ARG D 557     -25.619  -0.368 -14.543  1.00 35.49     0.178 HD
ENDBRANCH   4   5
ENDBRANCH   3   4
ENDBRANCH   2   3
ENDBRANCH   1   2
END_RES ARG D 557
BEGIN_RES GLU D 570
REMARK  3 active torsions:
REMARK  status: ('A' for Active; 'I' for Inactive)
REMARK    5  A    between atoms: CA   and  CB  
REMARK    6  A    between atoms: CB   and  CG  
REMARK    7  A    between atoms: CG   and  CD  
ROOT
ATOM     14  CA  GLU D 570     -18.033  -6.348 -13.375  1.00 32.92     0.160 C 
ENDROOT
BRANCH  14  15
ATOM     15  CB  GLU D 570     -19.500  -6.345 -13.794  1.00 32.92     0.043 C 
BRANCH  15  16
ATOM     16  CG  GLU D 570     -20.438  -5.515 -12.995  1.00 32.92     0.100 C 
BRANCH  16  17
ATOM     17  CD  GLU D 570     -21.744  -5.249 -13.709  1.00 32.92     0.185 C 
ATOM     18  OE1 GLU D 570     -22.350  -4.184 -13.485  1.00 32.92    -0.647 OA
ATOM     19  OE2 GLU D 570     -22.173  -6.123 -14.487  1.00 32.92    -0.647 OA
ENDBRANCH  16  17
ENDBRANCH  15  16
ENDBRANCH  14  15
END_RES GLU D 570
ENDMDL
MODEL 3
REMARK VINA RESULT:      -1.2      6.085      6.085
REMARK  2 active torsions:
REMARK  status: ('A' for Active; 'I' for Inactive)
REMARK    1  A    between atoms: C_2  and  C_3 
REMARK    2  A    between atoms: C_2  and  O_6 
ROOT
HETATM    1 NA   UNL     2      -9.142   5.836 -17.212  1.00  0.00     0.000 Na
ENDROOT
TORSDOF 2
BEGIN_RES ARG D 557
REMARK  4 active torsions:
REMARK  status: ('A' for Active; 'I' for Inactive)
REMARK    1  A    between atoms: CA   and  CB  
REMARK    2  A    between atoms: CB   and  CG  
REMARK    3  A    between atoms: CG   and  CD  
REMARK    4  A    between atoms: CD   and  NE  
REMARK       I    between atoms: NE   and  CZ  
REMARK       I    between atoms: CZ   and  NH1 
REMARK       I    between atoms: CZ   and  NH2 
ROOT
ATOM      1  CA  ARG D 557     -26.217   2.705 -17.014  1.00 35.49     0.159 C 
ENDROOT
BRANCH   1   2
ATOM      2  CB  ARG D 557     -26.789   1.319 -17.183  1.00 35.49     0.034 C 
BRANCH   2   3
ATOM      3  CG  ARG D 557     -25.835   0.203 -17.161  1.00 35.49     0.027 C 
BRANCH   3   4
ATOM      4  CD  ARG D 557     -24.757   0.403 -16.166  1.00 35.49     0.116 C 
BRANCH   4   5
ATOM      5  NE  ARG D 557     -24.913  -0.451 -15.018  1.00 35.49    -0.212 N 
ATOM      6  CZ  ARG D 557     -24.098  -1.421 -14.666  1.00 35.49     0.666 C 
ATOM      7  NH1 ARG D 557     -23.021  -1.730 -15.363  1.00 35.49    -0.235 N 
ATOM      8  NH2 ARG D 557     -24.384  -2.080 -13.581  1.00 35.49    -0.235 N 
ATOM      9  HH  ARG D 557     -22.812  -1.308 -16.079  1.00 35.49     0.174 HD
ATOM     10  HH  ARG D 557     -22.525  -2.371 -15.083  1.00 35.49     0.174 HD
ATOM     11  HH  ARG D 557     -25.082  -1.853 -13.147  1.00 35.49     0.174 HD
ATOM     12  HH  ARG D 557     -23.880  -2.710 -13.319  1.00 35.49     0.174 HD
ATOM     13  HE  ARG D 557     -25.619  -0.369 -14.552  1.00 35.49     0.178 HD
ENDBRANCH   4   5
ENDBRANCH   3   4
ENDBRANCH   2   3
ENDBRANCH   1   2
END_RES ARG D 557
BEGIN_RES GLU D 570
REMARK  3 active torsions:
REMARK  status: ('A' for Active; 'I' for Inactive)
REMARK    5  A    between atoms: CA   and  CB  
REMARK    6  A    between atoms: CB   and  CG  
REMARK    7  A    between atoms: CG   and  CD  
ROOT
ATOM     14  CA  GLU D 570     -18.033  -6.348 -13.375  1.00 32.92     0.160 C 
ENDROOT
BRANCH  14  15
ATOM     15  CB  GLU D 570     -19.500  -6.345 -13.794  1.00 32.92     0.043 C 
BRANCH  15  16
ATOM     16  CG  GLU D 570     -20.441  -5.525 -12.987  1.00 32.92     0.100 C 
BRANCH  16  17
ATOM     17  CD  GLU D 570     -21.742  -5.247 -13.702  1.00 32.92     0.185 C 
ATOM     18  OE1 GLU D 570     -22.296  -4.142 -13.543  1.00 32.92    -0.647 OA
ATOM     19  OE2 GLU D 570     -22.222  -6.150 -14.415  1.00 32.92    -0.647 OA
ENDBRANCH  16  17
ENDBRANCH  15  16
ENDBRANCH  14  15
END_RES GLU D 570
ENDMDL
MODEL 4
REMARK VINA RESULT:      -1.1     10.565     10.565
REMARK  2 active torsions:
REMARK  status: ('A' for Active; 'I' for Inactive)
REMARK    1  A    between atoms: C_2  and  C_3 
REMARK    2  A    between atoms: C_2  and  O_6 
ROOT
HETATM    1 NA   UNL     2     -35.617  -5.027 -21.950  1.00  0.00     0.000 Na
ENDROOT
TORSDOF 2
BEGIN_RES ARG D 557
REMARK  4 active torsions:
REMARK  status: ('A' for Active; 'I' for Inactive)
REMARK    1  A    between atoms: CA   and  CB  
REMARK    2  A    between atoms: CB   and  CG  
REMARK    3  A    between atoms: CG   and  CD  
REMARK    4  A    between atoms: CD   and  NE  
REMARK       I    between atoms: NE   and  CZ  
REMARK       I    between atoms: CZ   and  NH1 
REMARK       I    between atoms: CZ   and  NH2 
ROOT
ATOM      1  CA  ARG D 557     -26.217   2.705 -17.014  1.00 35.49     0.159 C 
ENDROOT
BRANCH   1   2
ATOM      2  CB  ARG D 557     -26.789   1.319 -17.183  1.00 35.49     0.034 C 
BRANCH   2   3
ATOM      3  CG  ARG D 557     -25.835   0.203 -17.160  1.00 35.49     0.027 C 
BRANCH   3   4
ATOM      4  CD  ARG D 557     -24.753   0.406 -16.170  1.00 35.49     0.116 C 
BRANCH   4   5
ATOM      5  NE  ARG D 557     -24.908  -0.441 -15.017  1.00 35.49    -0.212 N 
ATOM      6  CZ  ARG D 557     -24.099  -1.417 -14.667  1.00 35.49     0.666 C 
ATOM      7  NH1 ARG D 557     -23.031  -1.740 -15.372  1.00 35.49    -0.235 N 
ATOM      8  NH2 ARG D 557     -24.382  -2.069 -13.577  1.00 35.49    -0.235 N 
ATOM      9  HH  ARG D 557     -22.825  -1.323 -16.092  1.00 35.49     0.174 HD
ATOM     10  HH  ARG D 557     -22.539  -2.384 -15.094  1.00 35.49     0.174 HD
ATOM     11  HH  ARG D 557     -25.074  -1.834 -13.138  1.00 35.49     0.174 HD
ATOM     12  HH  ARG D 557     -23.882  -2.703 -13.317  1.00 35.49     0.174 HD
ATOM     13  HE  ARG D 557     -25.609  -0.350 -14.545  1.00 35.49     0.178 HD
ENDBRANCH   4   5
ENDBRANCH   3   4
ENDBRANCH   2   3
ENDBRANCH   1   2
END_RES ARG D 557
BEGIN_RES GLU D 570
REMARK  3 active torsions:
REMARK  status: ('A' for Active; 'I' for Inactive)
REMARK    5  A    between atoms: CA   and  CB  
REMARK    6  A    between atoms: CB   and  CG  
REMARK    7  A    between atoms: CG   and  CD  
ROOT
ATOM     14  CA  GLU D 570     -18.033  -6.348 -13.375  1.00 32.92     0.160 C 
ENDROOT
BRANCH  14  15
ATOM     15  CB  GLU D 570     -19.500  -6.345 -13.794  1.00 32.92     0.043 C 
BRANCH  15  16
ATOM     16  CG  GLU D 570     -20.439  -5.518 -12.993  1.00 32.92     0.100 C 
BRANCH  16  17
ATOM     17  CD  GLU D 570     -21.734  -5.230 -13.716  1.00 32.92     0.185 C 
ATOM     18  OE1 GLU D 570     -22.339  -4.168 -13.473  1.00 32.92    -0.647 OA
ATOM     19  OE2 GLU D 570     -22.157  -6.083 -14.521  1.00 32.92    -0.647 OA
ENDBRANCH  16  17
ENDBRANCH  15  16
ENDBRANCH  14  15
END_RES GLU D 570
ENDMDL
MODEL 5
REMARK VINA RESULT:      -1.0      8.506      8.506
REMARK  2 active torsions:
REMARK  status: ('A' for Active; 'I' for Inactive)
REMARK    1  A    between atoms: C_2  and  C_3 
REMARK    2  A    between atoms: C_2  and  O_6 
ROOT
HETATM    1 NA   UNL     2     -32.951 -10.257 -11.279  1.00  0.00     0.000 Na
ENDROOT
TORSDOF 2
BEGIN_RES ARG D 557
REMARK  4 active torsions:
REMARK  status: ('A' for Active; 'I' for Inactive)
REMARK    1  A    between atoms: CA   and  CB  
REMARK    2  A    between atoms: CB   and  CG  
REMARK    3  A    between atoms: CG   and  CD  
REMARK    4  A    between atoms: CD   and  NE  
REMARK       I    between atoms: NE   and  CZ  
REMARK       I    between atoms: CZ   and  NH1 
REMARK       I    between atoms: CZ   and  NH2 
ROOT
ATOM      1  CA  ARG D 557     -26.217   2.705 -17.014  1.00 35.49     0.159 C 
ENDROOT
BRANCH   1   2
ATOM      2  CB  ARG D 557     -26.789   1.319 -17.183  1.00 35.49     0.034 C 
BRANCH   2   3
ATOM      3  CG  ARG D 557     -25.835   0.203 -17.158  1.00 35.49     0.027 C 
BRANCH   3   4
ATOM      4  CD  ARG D 557     -24.749   0.411 -16.174  1.00 35.49     0.116 C 
BRANCH   4   5
ATOM      5  NE  ARG D 557     -24.896  -0.434 -15.018  1.00 35.49    -0.212 N 
ATOM      6  CZ  ARG D 557     -24.083  -1.407 -14.670  1.00 35.49     0.666 C 
ATOM      7  NH1 ARG D 557     -23.017  -1.728 -15.379  1.00 35.49    -0.235 N 
ATOM      8  NH2 ARG D 557     -24.359  -2.057 -13.577  1.00 35.49    -0.235 N 
ATOM      9  HH  ARG D 557     -22.815  -1.312 -16.100  1.00 35.49     0.174 HD
ATOM     10  HH  ARG D 557     -22.522  -2.370 -15.101  1.00 35.49     0.174 HD
ATOM     11  HH  ARG D 557     -25.050  -1.822 -13.135  1.00 35.49     0.174 HD
ATOM     12  HH  ARG D 557     -23.856  -2.688 -13.317  1.00 35.49     0.174 HD
ATOM     13  HE  ARG D 557     -25.596  -0.344 -14.544  1.00 35.49     0.178 HD
ENDBRANCH   4   5
ENDBRANCH   3   4
ENDBRANCH   2   3
ENDBRANCH   1   2
END_RES ARG D 557
BEGIN_RES GLU D 570
REMARK  3 active torsions:
REMARK  status: ('A' for Active; 'I' for Inactive)
REMARK    5  A    between atoms: CA   and  CB  
REMARK    6  A    between atoms: CB   and  CG  
REMARK    7  A    between atoms: CG   and  CD  
ROOT
ATOM     14  CA  GLU D 570     -18.033  -6.348 -13.375  1.00 32.92     0.160 C 
ENDROOT
BRANCH  14  15
ATOM     15  CB  GLU D 570     -19.500  -6.345 -13.794  1.00 32.92     0.043 C 
BRANCH  15  16
ATOM     16  CG  GLU D 570     -20.441  -5.527 -12.986  1.00 32.92     0.100 C 
BRANCH  16  17
ATOM     17  CD  GLU D 570     -21.733  -5.228 -13.710  1.00 32.92     0.185 C 
ATOM     18  OE1 GLU D 570     -22.298  -4.135 -13.514  1.00 32.92    -0.647 OA
ATOM     19  OE2 GLU D 570     -22.195  -6.104 -14.468  1.00 32.92    -0.647 OA
ENDBRANCH  16  17
ENDBRANCH  15  16
ENDBRANCH  14  15
END_RES GLU D 570
ENDMDL
MODEL 6
REMARK VINA RESULT:      -0.9      5.209      5.267
REMARK  2 active torsions:
REMARK  status: ('A' for Active; 'I' for Inactive)
REMARK    1  A    between atoms: C_2  and  C_3 
REMARK    2  A    between atoms: C_2  and  O_6 
ROOT
HETATM    1 NA   UNL     2     -25.024  -4.826  -5.257  1.00  0.00     0.000 Na
ENDROOT
TORSDOF 2
BEGIN_RES ARG D 557
REMARK  4 active torsions:
REMARK  status: ('A' for Active; 'I' for Inactive)
REMARK    1  A    between atoms: CA   and  CB  
REMARK    2  A    between atoms: CB   and  CG  
REMARK    3  A    between atoms: CG   and  CD  
REMARK    4  A    between atoms: CD   and  NE  
REMARK       I    between atoms: NE   and  CZ  
REMARK       I    between atoms: CZ   and  NH1 
REMARK       I    between atoms: CZ   and  NH2 
ROOT
ATOM      1  CA  ARG D 557     -26.217   2.705 -17.014  1.00 35.49     0.159 C 
ENDROOT
BRANCH   1   2
ATOM      2  CB  ARG D 557     -26.789   1.319 -17.183  1.00 35.49     0.034 C 
BRANCH   2   3
ATOM      3  CG  ARG D 557     -25.864   0.195 -16.995  1.00 35.49     0.027 C 
BRANCH   3   4
ATOM      4  CD  ARG D 557     -26.283  -0.704 -15.896  1.00 35.49     0.116 C 
BRANCH   4   5
ATOM      5  NE  ARG D 557     -25.231  -0.918 -14.938  1.00 35.49    -0.212 N 
ATOM      6  CZ  ARG D 557     -24.938  -2.062 -14.361  1.00 35.49     0.666 C 
ATOM      7  NH1 ARG D 557     -25.614  -3.170 -14.600  1.00 35.49    -0.235 N 
ATOM      8  NH2 ARG D 557     -23.935  -2.076 -13.532  1.00 35.49    -0.235 N 
ATOM      9  HH  ARG D 557     -26.276  -3.184 -15.144  1.00 35.49     0.174 HD
ATOM     10  HH  ARG D 557     -25.375  -3.887 -14.197  1.00 35.49     0.174 HD
ATOM     11  HH  ARG D 557     -23.512  -1.347 -13.403  1.00 35.49     0.174 HD
ATOM     12  HH  ARG D 557     -23.713  -2.796 -13.144  1.00 35.49     0.174 HD
ATOM     13  HE  ARG D 557     -24.790  -0.241 -14.671  1.00 35.49     0.178 HD
ENDBRANCH   4   5
ENDBRANCH   3   4
ENDBRANCH   2   3
ENDBRANCH   1   2
END_RES ARG D 557
BEGIN_RES GLU D 570
REMARK  3 active torsions:
REMARK  status: ('A' for Active; 'I' for Inactive)
REMARK    5  A    between atoms: CA   and  CB  
REMARK    6  A    between atoms: CB   and  CG  
REMARK    7  A    between atoms: CG   and  CD  
ROOT
ATOM     14  CA  GLU D 570     -18.033  -6.348 -13.375  1.00 32.92     0.160 C 
ENDROOT
BRANCH  14  15
ATOM     15  CB  GLU D 570     -19.500  -6.345 -13.794  1.00 32.92     0.043 C 
BRANCH  15  16
ATOM     16  CG  GLU D 570     -20.449  -5.563 -12.960  1.00 32.92     0.100 C 
BRANCH  16  17
ATOM     17  CD  GLU D 570     -21.677  -5.121 -13.721  1.00 32.92     0.185 C 
ATOM     18  OE1 GLU D 570     -22.723  -4.875 -13.091  1.00 32.92    -0.647 OA
ATOM     19  OE2 GLU D 570     -21.596  -5.035 -14.962  1.00 32.92    -0.647 OA
ENDBRANCH  16  17
ENDBRANCH  15  16
ENDBRANCH  14  15
END_RES GLU D 570
ENDMDL
MODEL 7
REMARK VINA RESULT:      -0.9      8.154      8.154
REMARK  2 active torsions:
REMARK  status: ('A' for Active; 'I' for Inactive)
REMARK    1  A    between atoms: C_2  and  C_3 
REMARK    2  A    between atoms: C_2  and  O_6 
ROOT
HETATM    1 NA   UNL     2     -35.726   1.822  -9.184  1.00  0.00     0.000 Na
ENDROOT
TORSDOF 2
BEGIN_RES ARG D 557
REMARK  4 active torsions:
REMARK  status: ('A' for Active; 'I' for Inactive)
REMARK    1  A    between atoms: CA   and  CB  
REMARK    2  A    between atoms: CB   and  CG  
REMARK    3  A    between atoms: CG   and  CD  
REMARK    4  A    between atoms: CD   and  NE  
REMARK       I    between atoms: NE   and  CZ  
REMARK       I    between atoms: CZ   and  NH1 
REMARK       I    between atoms: CZ   and  NH2 
ROOT
ATOM      1  CA  ARG D 557     -26.217   2.705 -17.014  1.00 35.49     0.159 C 
ENDROOT
BRANCH   1   2
ATOM      2  CB  ARG D 557     -26.789   1.319 -17.183  1.00 35.49     0.034 C 
BRANCH   2   3
ATOM      3  CG  ARG D 557     -25.836   0.203 -17.157  1.00 35.49     0.027 C 
BRANCH   3   4
ATOM      4  CD  ARG D 557     -24.751   0.410 -16.170  1.00 35.49     0.116 C 
BRANCH   4   5
ATOM      5  NE  ARG D 557     -24.899  -0.438 -15.017  1.00 35.49    -0.212 N 
ATOM      6  CZ  ARG D 557     -24.086  -1.410 -14.669  1.00 35.49     0.666 C 
ATOM      7  NH1 ARG D 557     -23.019  -1.730 -15.377  1.00 35.49    -0.235 N 
ATOM      8  NH2 ARG D 557     -24.363  -2.063 -13.578  1.00 35.49    -0.235 N 
ATOM      9  HH  ARG D 557     -22.816  -1.312 -16.097  1.00 35.49     0.174 HD
ATOM     10  HH  ARG D 557     -22.524  -2.372 -15.100  1.00 35.49     0.174 HD
ATOM     11  HH  ARG D 557     -25.055  -1.830 -13.136  1.00 35.49     0.174 HD
ATOM     12  HH  ARG D 557     -23.860  -2.694 -13.319  1.00 35.49     0.174 HD
ATOM     13  HE  ARG D 557     -25.600  -0.349 -14.543  1.00 35.49     0.178 HD
ENDBRANCH   4   5
ENDBRANCH   3   4
ENDBRANCH   2   3
ENDBRANCH   1   2
END_RES ARG D 557
BEGIN_RES GLU D 570
REMARK  3 active torsions:
REMARK  status: ('A' for Active; 'I' for Inactive)
REMARK    5  A    between atoms: CA   and  CB  
REMARK    6  A    between atoms: CB   and  CG  
REMARK    7  A    between atoms: CG   and  CD  
ROOT
ATOM     14  CA  GLU D 570     -18.033  -6.348 -13.375  1.00 32.92     0.160 C 
ENDROOT
BRANCH  14  15
ATOM     15  CB  GLU D 570     -19.500  -6.345 -13.794  1.00 32.92     0.043 C 
BRANCH  15  16
ATOM     16  CG  GLU D 570     -20.447  -5.556 -12.965  1.00 32.92     0.100 C 
BRANCH  16  17
ATOM     17  CD  GLU D 570     -21.732  -5.227 -13.689  1.00 32.92     0.185 C 
ATOM     18  OE1 GLU D 570     -22.260  -4.113 -13.509  1.00 32.92    -0.647 OA
ATOM     19  OE2 GLU D 570     -22.224  -6.100 -14.431  1.00 32.92    -0.647 OA
ENDBRANCH  16  17
ENDBRANCH  15  16
ENDBRANCH  14  15
END_RES GLU D 570
ENDMDL
MODEL 8
REMARK VINA RESULT:      -0.9      8.516      8.516
REMARK  2 active torsions:
REMARK  status: ('A' for Active; 'I' for Inactive)
REMARK    1  A    between atoms: C_2  and  C_3 
REMARK    2  A    between atoms: C_2  and  O_6 
ROOT
HETATM    1 NA   UNL     2     -31.308  -2.283 -17.153  1.00  0.00     0.000 Na
ENDROOT
TORSDOF 2
BEGIN_RES ARG D 557
REMARK  4 active torsions:
REMARK  status: ('A' for Active; 'I' for Inactive)
REMARK    1  A    between atoms: CA   and  CB  
REMARK    2  A    between atoms: CB   and  CG  
REMARK    3  A    between atoms: CG   and  CD  
REMARK    4  A    between atoms: CD   and  NE  
REMARK       I    between atoms: NE   and  CZ  
REMARK       I    between atoms: CZ   and  NH1 
REMARK       I    between atoms: CZ   and  NH2 
ROOT
ATOM      1  CA  ARG D 557     -26.217   2.705 -17.014  1.00 35.49     0.159 C 
ENDROOT
BRANCH   1   2
ATOM      2  CB  ARG D 557     -26.789   1.319 -17.183  1.00 35.49     0.034 C 
BRANCH   2   3
ATOM      3  CG  ARG D 557     -25.834   0.204 -17.174  1.00 35.49     0.027 C 
BRANCH   3   4
ATOM      4  CD  ARG D 557     -24.741   0.406 -16.195  1.00 35.49     0.116 C 
BRANCH   4   5
ATOM      5  NE  ARG D 557     -24.892  -0.431 -15.034  1.00 35.49    -0.212 N 
ATOM      6  CZ  ARG D 557     -24.081  -1.400 -14.675  1.00 35.49     0.666 C 
ATOM      7  NH1 ARG D 557     -23.012  -1.727 -15.377  1.00 35.49    -0.235 N 
ATOM      8  NH2 ARG D 557     -24.361  -2.042 -13.578  1.00 35.49    -0.235 N 
ATOM      9  HH  ARG D 557     -22.807  -1.316 -16.100  1.00 35.49     0.174 HD
ATOM     10  HH  ARG D 557     -22.517  -2.366 -15.092  1.00 35.49     0.174 HD
ATOM     11  HH  ARG D 557     -25.054  -1.805 -13.141  1.00 35.49     0.174 HD
ATOM     12  HH  ARG D 557     -23.859  -2.671 -13.312  1.00 35.49     0.174 HD
ATOM     13  HE  ARG D 557     -25.594  -0.337 -14.563  1.00 35.49     0.178 HD
ENDBRANCH   4   5
ENDBRANCH   3   4
ENDBRANCH   2   3
ENDBRANCH   1   2
END_RES ARG D 557
BEGIN_RES GLU D 570
REMARK  3 active torsions:
REMARK  status: ('A' for Active; 'I' for Inactive)
REMARK    5  A    between atoms: CA   and  CB  
REMARK    6  A    between atoms: CB   and  CG  
REMARK    7  A    between atoms: CG   and  CD  
ROOT
ATOM     14  CA  GLU D 570     -18.033  -6.348 -13.375  1.00 32.92     0.160 C 
ENDROOT
BRANCH  14  15
ATOM     15  CB  GLU D 570     -19.500  -6.345 -13.794  1.00 32.92     0.043 C 
BRANCH  15  16
ATOM     16  CG  GLU D 570     -20.441  -5.526 -12.987  1.00 32.92     0.100 C 
BRANCH  16  17
ATOM     17  CD  GLU D 570     -21.743  -5.249 -13.701  1.00 32.92     0.185 C 
ATOM     18  OE1 GLU D 570     -22.311  -4.154 -13.522  1.00 32.92    -0.647 OA
ATOM     19  OE2 GLU D 570     -22.209  -6.143 -14.435  1.00 32.92    -0.647 OA
ENDBRANCH  16  17
ENDBRANCH  15  16
ENDBRANCH  14  15
END_RES GLU D 570
ENDMDL
MODEL 9
REMARK VINA RESULT:      -0.9      6.770      6.835
REMARK  2 active torsions:
REMARK  status: ('A' for Active; 'I' for Inactive)
REMARK    1  A    between atoms: C_2  and  C_3 
REMARK    2  A    between atoms: C_2  and  O_6 
ROOT
HETATM    1 NA   UNL     2     -24.417  -4.755 -14.695  1.00  0.00     0.000 Na
ENDROOT
TORSDOF 2
BEGIN_RES ARG D 557
REMARK  4 active torsions:
REMARK  status: ('A' for Active; 'I' for Inactive)
REMARK    1  A    between atoms: CA   and  CB  
REMARK    2  A    between atoms: CB   and  CG  
REMARK    3  A    between atoms: CG   and  CD  
REMARK    4  A    between atoms: CD   and  NE  
REMARK       I    between atoms: NE   and  CZ  
REMARK       I    between atoms: CZ   and  NH1 
REMARK       I    between atoms: CZ   and  NH2 
ROOT
ATOM      1  CA  ARG D 557     -26.217   2.705 -17.014  1.00 35.49     0.159 C 
ENDROOT
BRANCH   1   2
ATOM      2  CB  ARG D 557     -26.789   1.319 -17.183  1.00 35.49     0.034 C 
BRANCH   2   3
ATOM      3  CG  ARG D 557     -25.835   0.203 -17.159  1.00 35.49     0.027 C 
BRANCH   3   4
ATOM      4  CD  ARG D 557     -24.758   0.403 -16.162  1.00 35.49     0.116 C 
BRANCH   4   5
ATOM      5  NE  ARG D 557     -24.916  -0.452 -15.015  1.00 35.49    -0.212 N 
ATOM      6  CZ  ARG D 557     -24.104  -1.423 -14.663  1.00 35.49     0.666 C 
ATOM      7  NH1 ARG D 557     -23.028  -1.735 -15.361  1.00 35.49    -0.235 N 
ATOM      8  NH2 ARG D 557     -24.391  -2.083 -13.579  1.00 35.49    -0.235 N 
ATOM      9  HH  ARG D 557     -22.818  -1.313 -16.077  1.00 35.49     0.174 HD
ATOM     10  HH  ARG D 557     -22.533  -2.377 -15.082  1.00 35.49     0.174 HD
ATOM     11  HH  ARG D 557     -25.089  -1.855 -13.144  1.00 35.49     0.174 HD
ATOM     12  HH  ARG D 557     -23.889  -2.714 -13.318  1.00 35.49     0.174 HD
ATOM     13  HE  ARG D 557     -25.623  -0.368 -14.549  1.00 35.49     0.178 HD
ENDBRANCH   4   5
ENDBRANCH   3   4
ENDBRANCH   2   3
ENDBRANCH   1   2
END_RES ARG D 557
BEGIN_RES GLU D 570
REMARK  3 active torsions:
REMARK  status: ('A' for Active; 'I' for Inactive)
REMARK    5  A    between atoms: CA   and  CB  
REMARK    6  A    between atoms: CB   and  CG  
REMARK    7  A    between atoms: CG   and  CD  
ROOT
ATOM     14  CA  GLU D 570     -18.033  -6.348 -13.375  1.00 32.92     0.160 C 
ENDROOT
BRANCH  14  15
ATOM     15  CB  GLU D 570     -19.500  -6.345 -13.794  1.00 32.92     0.043 C 
BRANCH  15  16
ATOM     16  CG  GLU D 570     -20.443  -5.537 -12.979  1.00 32.92     0.100 C 
BRANCH  16  17
ATOM     17  CD  GLU D 570     -21.728  -5.217 -13.707  1.00 32.92     0.185 C 
ATOM     18  OE1 GLU D 570     -22.174  -6.035 -14.535  1.00 32.92    -0.647 OA
ATOM     19  OE2 GLU D 570     -22.285  -4.130 -13.460  1.00 32.92    -0.647 OA
ENDBRANCH  16  17
ENDBRANCH  15  16
ENDBRANCH  14  15
END_RES GLU D 570
ENDMDL
