MODEL 1
REMARK VINA RESULT:      -8.3      0.000      0.000
REMARK  20 active torsions:
REMARK  status: ('A' for Active; 'I' for Inactive)
REMARK    1  A    between atoms: C_2  and  C_3 
REMARK    2  A    between atoms: C_3  and  C_4 
REMARK    3  A    between atoms: C_4  and  C_5 
REMARK    4  A    between atoms: C_5  and  C_6 
REMARK    5  A    between atoms: C_5  and  C_8 
REMARK    6  A    between atoms: C_8  and  O_9 
REMARK    7  A    between atoms: O_9  and  C_10 
REMARK    8  A    between atoms: C_12  and  O_49 
REMARK    9  A    between atoms: C_13  and  C_16 
REMARK   10  A    between atoms: C_19  and  C_33 
REMARK   11  A    between atoms: C_22  and  C_25 
REMARK   12  A    between atoms: C_28  and  O_31 
REMARK   13  A    between atoms: C_34  and  O_48 
REMARK   14  A    between atoms: C_36  and  O_39 
REMARK   15  A    between atoms: O_39  and  C_40 
REMARK   16  A    between atoms: C_40  and  C_41 
REMARK   17  A    between atoms: C_41  and  C_42 
REMARK   18  A    between atoms: C_41  and  C_44 
REMARK   19  A    between atoms: C_44  and  C_45 
REMARK   20  A    between atoms: C_45  and  C_46 
ROOT
HETATM    1  C   UNL     1     -18.912  -9.392  -4.890  1.00  0.00     0.121 A 
HETATM    2  N   UNL     1     -19.275  -8.373  -5.665  1.00  0.00    -0.327 N 
ATOM      3  HN  UNL     1     -18.696  -8.049  -6.440  1.00  0.00     0.169 HD
HETATM    4  C   UNL     1     -20.439  -7.804  -5.367  1.00  0.00     0.121 A 
HETATM    5  N   UNL     1     -21.247  -8.214  -4.397  1.00  0.00    -0.327 N 
ATOM      6  HN  UNL     1     -22.136  -7.756  -4.198  1.00  0.00     0.169 HD
HETATM    7  C   UNL     1     -20.815  -9.264  -3.702  1.00  0.00     0.118 A 
HETATM    8  N   UNL     1     -19.657  -9.893  -3.909  1.00  0.00    -0.327 N 
ATOM      9  HN  UNL     1     -19.365 -10.698  -3.355  1.00  0.00     0.169 HD
ENDROOT
BRANCH   1  10
HETATM   10  C   UNL     1     -17.607 -10.022  -5.149  1.00  0.00     0.041 A 
HETATM   11  C   UNL     1     -17.386 -10.926  -6.210  1.00  0.00     0.082 A 
HETATM   12  C   UNL     1     -16.135 -11.530  -6.425  1.00  0.00     0.074 A 
HETATM   13  C   UNL     1     -15.075 -11.245  -5.565  1.00  0.00     0.071 A 
HETATM   14  C   UNL     1     -15.268 -10.353  -4.510  1.00  0.00     0.038 A 
HETATM   15  C   UNL     1     -16.510  -9.743  -4.315  1.00  0.00     0.021 A 
BRANCH  11  16
HETATM   16  O   UNL     1     -18.420 -11.225  -7.063  1.00  0.00    -0.360 OA
HETATM   17  H   UNL     1     -19.210 -10.716  -6.813  1.00  0.00     0.217 HD
ENDBRANCH  11  16
BRANCH  13  18
HETATM   18  O   UNL     1     -13.840 -11.830  -5.602  1.00  0.00    -0.351 OA
BRANCH  18  19
HETATM   19  C   UNL     1     -13.783 -13.247  -5.449  1.00  0.00     0.180 C 
BRANCH  19  20
HETATM   20  C   UNL     1     -14.168 -13.571  -3.994  1.00  0.00     0.009 C 
BRANCH  20  21
HETATM   21  C   UNL     1     -15.037 -14.847  -3.946  1.00  0.00     0.007 C 
BRANCH  21  22
HETATM   22  C   UNL     1     -16.218 -14.723  -2.980  1.00  0.00     0.000 C 
BRANCH  22  23
HETATM   23  C   UNL     1     -16.777 -13.305  -2.900  1.00  0.00    -0.005 C 
HETATM   24  C   UNL     1     -18.198 -13.271  -3.447  1.00  0.00     0.005 C 
ENDBRANCH  22  23
ENDBRANCH  21  22
ENDBRANCH  20  21
BRANCH  20  25
HETATM   25  C   UNL     1     -12.939 -13.596  -3.054  1.00  0.00     0.002 C 
HETATM   26  C   UNL     1     -12.525 -14.977  -2.564  1.00  0.00     0.005 C 
ENDBRANCH  20  25
ENDBRANCH  19  20
ENDBRANCH  18  19
ENDBRANCH  13  18
ENDBRANCH   1  10
BRANCH   4  27
HETATM   27  C   UNL     1     -20.834  -6.635  -6.166  1.00  0.00     0.041 A 
HETATM   28  C   UNL     1     -22.025  -5.920  -5.938  1.00  0.00     0.082 A 
HETATM   29  C   UNL     1     -22.361  -4.794  -6.689  1.00  0.00     0.074 A 
HETATM   30  C   UNL     1     -21.519  -4.362  -7.708  1.00  0.00     0.071 A 
HETATM   31  C   UNL     1     -20.356  -5.069  -7.989  1.00  0.00     0.038 A 
HETATM   32  C   UNL     1     -20.013  -6.185  -7.222  1.00  0.00     0.021 A 
BRANCH  28  33
HETATM   33  O   UNL     1     -22.950  -6.270  -4.985  1.00  0.00    -0.360 OA
HETATM   34  H   UNL     1     -23.250  -7.187  -5.175  1.00  0.00     0.217 HD
ENDBRANCH  28  33
BRANCH  30  35
HETATM   35  O   UNL     1     -21.769  -3.291  -8.517  1.00  0.00    -0.351 OA
BRANCH  35  36
HETATM   36  C   UNL     1     -21.436  -3.507  -9.889  1.00  0.00     0.180 C 
BRANCH  36  37
HETATM   37  C   UNL     1     -22.622  -4.186 -10.593  1.00  0.00     0.009 C 
BRANCH  37  38
HETATM   38  C   UNL     1     -23.865  -3.264 -10.634  1.00  0.00     0.002 C 
HETATM   39  C   UNL     1     -24.939  -3.573  -9.598  1.00  0.00     0.005 C 
ENDBRANCH  37  38
BRANCH  37  40
HETATM   40  C   UNL     1     -22.228  -4.688 -11.996  1.00  0.00     0.007 C 
BRANCH  40  41
HETATM   41  C   UNL     1     -23.404  -5.316 -12.754  1.00  0.00     0.000 C 
BRANCH  41  42
HETATM   42  C   UNL     1     -23.135  -5.422 -14.253  1.00  0.00    -0.005 C 
HETATM   43  C   UNL     1     -24.124  -6.380 -14.901  1.00  0.00     0.005 C 
ENDBRANCH  41  42
ENDBRANCH  40  41
ENDBRANCH  37  40
ENDBRANCH  36  37
ENDBRANCH  35  36
ENDBRANCH  30  35
ENDBRANCH   4  27
BRANCH   7  44
HETATM   44  C   UNL     1     -21.678  -9.754  -2.617  1.00  0.00     0.008 A 
HETATM   45  C   UNL     1     -21.847  -9.012  -1.433  1.00  0.00     0.018 A 
HETATM   46  C   UNL     1     -22.665  -9.467  -0.394  1.00  0.00     0.037 A 
HETATM   47  C   UNL     1     -23.335 -10.682  -0.515  1.00  0.00     0.068 A 
HETATM   48  C   UNL     1     -23.177 -11.433  -1.679  1.00  0.00     0.037 A 
HETATM   49  C   UNL     1     -22.362 -10.978  -2.715  1.00  0.00     0.018 A 
BRANCH  47  50
HETATM   50  O   UNL     1     -24.164 -11.234   0.420  1.00  0.00    -0.356 OA
HETATM   51  C   UNL     1     -23.795 -12.518   0.908  1.00  0.00     0.210 C 
ENDBRANCH  47  50
ENDBRANCH   7  44
TORSDOF 20
BEGIN_RES ARG D 557
REMARK  4 active torsions:
REMARK  status: ('A' for Active; 'I' for Inactive)
REMARK    1  A    between atoms: CA   and  CB  
REMARK    2  A    between atoms: CB   and  CG  
REMARK    3  A    between atoms: CG   and  CD  
REMARK    4  A    between atoms: CD   and  NE  
REMARK       I    between atoms: NE   and  CZ  
REMARK       I    between atoms: CZ   and  NH1 
REMARK       I    between atoms: CZ   and  NH2 
ROOT
ATOM      1  CA  ARG D 557     -26.217   2.705 -17.014  1.00 35.49     0.159 C 
ENDROOT
BRANCH   1   2
ATOM      2  CB  ARG D 557     -26.789   1.319 -17.183  1.00 35.49     0.034 C 
BRANCH   2   3
ATOM      3  CG  ARG D 557     -25.854   0.196 -17.040  1.00 35.49     0.027 C 
BRANCH   3   4
ATOM      4  CD  ARG D 557     -26.171  -0.657 -15.872  1.00 35.49     0.116 C 
BRANCH   4   5
ATOM      5  NE  ARG D 557     -25.031  -0.845 -15.013  1.00 35.49    -0.212 N 
ATOM      6  CZ  ARG D 557     -24.810  -1.892 -14.250  1.00 35.49     0.666 C 
ATOM      7  NH1 ARG D 557     -25.649  -2.908 -14.179  1.00 35.49    -0.235 N 
ATOM      8  NH2 ARG D 557     -23.711  -1.904 -13.552  1.00 35.49    -0.235 N 
ATOM      9  HH  ARG D 557     -26.377  -2.922 -14.631  1.00 35.49     0.174 HD
ATOM     10  HH  ARG D 557     -25.451  -3.565 -13.665  1.00 35.49     0.174 HD
ATOM     11  HH  ARG D 557     -23.185  -1.237 -13.623  1.00 35.49     0.174 HD
ATOM     12  HH  ARG D 557     -23.532  -2.564 -13.050  1.00 35.49     0.174 HD
ATOM     13  HE  ARG D 557     -24.475  -0.206 -14.942  1.00 35.49     0.178 HD
ENDBRANCH   4   5
ENDBRANCH   3   4
ENDBRANCH   2   3
ENDBRANCH   1   2
END_RES ARG D 557
BEGIN_RES GLU D 570
REMARK  3 active torsions:
REMARK  status: ('A' for Active; 'I' for Inactive)
REMARK    5  A    between atoms: CA   and  CB  
REMARK    6  A    between atoms: CB   and  CG  
REMARK    7  A    between atoms: CG   and  CD  
ROOT
ATOM     14  CA  GLU D 570     -18.033  -6.348 -13.375  1.00 32.92     0.160 C 
ENDROOT
BRANCH  14  15
ATOM     15  CB  GLU D 570     -19.500  -6.345 -13.794  1.00 32.92     0.043 C 
BRANCH  15  16
ATOM     16  CG  GLU D 570     -20.089  -7.636 -14.235  1.00 32.92     0.100 C 
BRANCH  16  17
ATOM     17  CD  GLU D 570     -20.532  -7.619 -15.679  1.00 32.92     0.185 C 
ATOM     18  OE1 GLU D 570     -20.866  -8.689 -16.222  1.00 32.92    -0.647 OA
ATOM     19  OE2 GLU D 570     -20.528  -6.526 -16.279  1.00 32.92    -0.647 OA
ENDBRANCH  16  17
ENDBRANCH  15  16
ENDBRANCH  14  15
END_RES GLU D 570
ENDMDL
MODEL 2
REMARK VINA RESULT:      -8.2      1.907      2.318
REMARK  20 active torsions:
REMARK  status: ('A' for Active; 'I' for Inactive)
REMARK    1  A    between atoms: C_2  and  C_3 
REMARK    2  A    between atoms: C_3  and  C_4 
REMARK    3  A    between atoms: C_4  and  C_5 
REMARK    4  A    between atoms: C_5  and  C_6 
REMARK    5  A    between atoms: C_5  and  C_8 
REMARK    6  A    between atoms: C_8  and  O_9 
REMARK    7  A    between atoms: O_9  and  C_10 
REMARK    8  A    between atoms: C_12  and  O_49 
REMARK    9  A    between atoms: C_13  and  C_16 
REMARK   10  A    between atoms: C_19  and  C_33 
REMARK   11  A    between atoms: C_22  and  C_25 
REMARK   12  A    between atoms: C_28  and  O_31 
REMARK   13  A    between atoms: C_34  and  O_48 
REMARK   14  A    between atoms: C_36  and  O_39 
REMARK   15  A    between atoms: O_39  and  C_40 
REMARK   16  A    between atoms: C_40  and  C_41 
REMARK   17  A    between atoms: C_41  and  C_42 
REMARK   18  A    between atoms: C_41  and  C_44 
REMARK   19  A    between atoms: C_44  and  C_45 
REMARK   20  A    between atoms: C_45  and  C_46 
ROOT
HETATM    1  C   UNL     1     -18.918  -8.765  -5.468  1.00  0.00     0.121 A 
HETATM    2  N   UNL     1     -19.299  -7.892  -6.395  1.00  0.00    -0.327 N 
ATOM      3  HN  UNL     1     -18.935  -7.919  -7.348  1.00  0.00     0.169 HD
HETATM    4  C   UNL     1     -20.185  -6.980  -6.005  1.00  0.00     0.121 A 
HETATM    5  N   UNL     1     -20.720  -6.927  -4.791  1.00  0.00    -0.327 N 
ATOM      6  HN  UNL     1     -21.400  -6.215  -4.526  1.00  0.00     0.169 HD
HETATM    7  C   UNL     1     -20.305  -7.866  -3.944  1.00  0.00     0.118 A 
HETATM    8  N   UNL     1     -19.408  -8.811  -4.232  1.00  0.00    -0.327 N 
ATOM      9  HN  UNL     1     -19.120  -9.517  -3.554  1.00  0.00     0.169 HD
ENDROOT
BRANCH   1  10
HETATM   10  C   UNL     1     -17.901  -9.762  -5.839  1.00  0.00     0.041 A 
HETATM   11  C   UNL     1     -18.223 -11.055  -6.303  1.00  0.00     0.082 A 
HETATM   12  C   UNL     1     -17.233 -11.996  -6.633  1.00  0.00     0.074 A 
HETATM   13  C   UNL     1     -15.887 -11.660  -6.491  1.00  0.00     0.071 A 
HETATM   14  C   UNL     1     -15.543 -10.388  -6.035  1.00  0.00     0.038 A 
HETATM   15  C   UNL     1     -16.534  -9.451  -5.727  1.00  0.00     0.021 A 
BRANCH  11  16
HETATM   16  O   UNL     1     -19.543 -11.408  -6.443  1.00  0.00    -0.360 OA
HETATM   17  H   UNL     1     -20.098 -10.609  -6.450  1.00  0.00     0.217 HD
ENDBRANCH  11  16
BRANCH  13  18
HETATM   18  O   UNL     1     -14.830 -12.505  -6.684  1.00  0.00    -0.351 OA
BRANCH  18  19
HETATM   19  C   UNL     1     -14.913 -13.802  -6.095  1.00  0.00     0.180 C 
BRANCH  19  20
HETATM   20  C   UNL     1     -14.581 -13.652  -4.599  1.00  0.00     0.009 C 
BRANCH  20  21
HETATM   21  C   UNL     1     -15.802 -14.047  -3.741  1.00  0.00     0.007 C 
BRANCH  21  22
HETATM   22  C   UNL     1     -16.198 -12.962  -2.737  1.00  0.00     0.000 C 
BRANCH  22  23
HETATM   23  C   UNL     1     -15.258 -11.760  -2.757  1.00  0.00    -0.005 C 
HETATM   24  C   UNL     1     -15.994 -10.511  -2.292  1.00  0.00     0.005 C 
ENDBRANCH  22  23
ENDBRANCH  21  22
ENDBRANCH  20  21
BRANCH  20  25
HETATM   25  C   UNL     1     -13.266 -14.373  -4.215  1.00  0.00     0.002 C 
HETATM   26  C   UNL     1     -13.078 -15.751  -4.834  1.00  0.00     0.005 C 
ENDBRANCH  20  25
ENDBRANCH  19  20
ENDBRANCH  18  19
ENDBRANCH  13  18
ENDBRANCH   1  10
BRANCH   4  27
HETATM   27  C   UNL     1     -20.575  -5.963  -6.992  1.00  0.00     0.041 A 
HETATM   28  C   UNL     1     -21.774  -5.231  -6.902  1.00  0.00     0.082 A 
HETATM   29  C   UNL     1     -22.105  -4.247  -7.833  1.00  0.00     0.074 A 
HETATM   30  C   UNL     1     -21.250  -3.982  -8.897  1.00  0.00     0.071 A 
HETATM   31  C   UNL     1     -20.079  -4.715  -9.042  1.00  0.00     0.038 A 
HETATM   32  C   UNL     1     -19.741  -5.686  -8.096  1.00  0.00     0.021 A 
BRANCH  28  33
HETATM   33  O   UNL     1     -22.711  -5.426  -5.917  1.00  0.00    -0.360 OA
HETATM   34  H   UNL     1     -23.200  -4.581  -5.792  1.00  0.00     0.217 HD
ENDBRANCH  28  33
BRANCH  30  35
HETATM   35  O   UNL     1     -21.495  -3.061  -9.876  1.00  0.00    -0.351 OA
BRANCH  35  36
HETATM   36  C   UNL     1     -21.556  -3.612 -11.193  1.00  0.00     0.180 C 
BRANCH  36  37
HETATM   37  C   UNL     1     -22.912  -4.310 -11.383  1.00  0.00     0.009 C 
BRANCH  37  38
HETATM   38  C   UNL     1     -24.090  -3.312 -11.258  1.00  0.00     0.002 C 
HETATM   39  C   UNL     1     -24.898  -3.418  -9.970  1.00  0.00     0.005 C 
ENDBRANCH  37  38
BRANCH  37  40
HETATM   40  C   UNL     1     -22.958  -5.095 -12.709  1.00  0.00     0.007 C 
BRANCH  40  41
HETATM   41  C   UNL     1     -23.676  -4.330 -13.827  1.00  0.00     0.000 C 
BRANCH  41  42
HETATM   42  C   UNL     1     -22.724  -3.445 -14.626  1.00  0.00    -0.005 C 
HETATM   43  C   UNL     1     -23.279  -2.032 -14.733  1.00  0.00     0.005 C 
ENDBRANCH  41  42
ENDBRANCH  40  41
ENDBRANCH  37  40
ENDBRANCH  36  37
ENDBRANCH  35  36
ENDBRANCH  30  35
ENDBRANCH   4  27
BRANCH   7  44
HETATM   44  C   UNL     1     -20.871  -7.848  -2.588  1.00  0.00     0.008 A 
HETATM   45  C   UNL     1     -21.788  -6.853  -2.199  1.00  0.00     0.018 A 
HETATM   46  C   UNL     1     -22.334  -6.824  -0.911  1.00  0.00     0.037 A 
HETATM   47  C   UNL     1     -21.973  -7.792   0.022  1.00  0.00     0.068 A 
HETATM   48  C   UNL     1     -21.063  -8.784  -0.345  1.00  0.00     0.037 A 
HETATM   49  C   UNL     1     -20.520  -8.813  -1.628  1.00  0.00     0.018 A 
BRANCH  47  50
HETATM   50  O   UNL     1     -22.435  -7.879   1.304  1.00  0.00    -0.356 OA
HETATM   51  C   UNL     1     -21.465  -8.165   2.305  1.00  0.00     0.210 C 
ENDBRANCH  47  50
ENDBRANCH   7  44
TORSDOF 20
BEGIN_RES ARG D 557
REMARK  4 active torsions:
REMARK  status: ('A' for Active; 'I' for Inactive)
REMARK    1  A    between atoms: CA   and  CB  
REMARK    2  A    between atoms: CB   and  CG  
REMARK    3  A    between atoms: CG   and  CD  
REMARK    4  A    between atoms: CD   and  NE  
REMARK       I    between atoms: NE   and  CZ  
REMARK       I    between atoms: CZ   and  NH1 
REMARK       I    between atoms: CZ   and  NH2 
ROOT
ATOM      1  CA  ARG D 557     -26.217   2.705 -17.014  1.00 35.49     0.159 C 
ENDROOT
BRANCH   1   2
ATOM      2  CB  ARG D 557     -26.789   1.319 -17.183  1.00 35.49     0.034 C 
BRANCH   2   3
ATOM      3  CG  ARG D 557     -28.151   1.101 -16.682  1.00 35.49     0.027 C 
BRANCH   3   4
ATOM      4  CD  ARG D 557     -28.791  -0.090 -17.286  1.00 35.49     0.116 C 
BRANCH   4   5
ATOM      5  NE  ARG D 557     -28.178  -1.316 -16.848  1.00 35.49    -0.212 N 
ATOM      6  CZ  ARG D 557     -28.657  -2.525 -17.038  1.00 35.49     0.666 C 
ATOM      7  NH1 ARG D 557     -29.800  -2.745 -17.661  1.00 35.49    -0.235 N 
ATOM      8  NH2 ARG D 557     -27.955  -3.526 -16.591  1.00 35.49    -0.235 N 
ATOM      9  HH  ARG D 557     -30.277  -2.102 -17.965  1.00 35.49     0.174 HD
ATOM     10  HH  ARG D 557     -30.061  -3.556 -17.757  1.00 35.49     0.174 HD
ATOM     11  HH  ARG D 557     -27.217  -3.354 -16.199  1.00 35.49     0.174 HD
ATOM     12  HH  ARG D 557     -28.230  -4.321 -16.698  1.00 35.49     0.174 HD
ATOM     13  HE  ARG D 557     -27.473  -1.263 -16.375  1.00 35.49     0.178 HD
ENDBRANCH   4   5
ENDBRANCH   3   4
ENDBRANCH   2   3
ENDBRANCH   1   2
END_RES ARG D 557
BEGIN_RES GLU D 570
REMARK  3 active torsions:
REMARK  status: ('A' for Active; 'I' for Inactive)
REMARK    5  A    between atoms: CA   and  CB  
REMARK    6  A    between atoms: CB   and  CG  
REMARK    7  A    between atoms: CG   and  CD  
ROOT
ATOM     14  CA  GLU D 570     -18.033  -6.348 -13.375  1.00 32.92     0.160 C 
ENDROOT
BRANCH  14  15
ATOM     15  CB  GLU D 570     -19.500  -6.345 -13.794  1.00 32.92     0.043 C 
BRANCH  15  16
ATOM     16  CG  GLU D 570     -20.107  -7.648 -14.171  1.00 32.92     0.100 C 
BRANCH  16  17
ATOM     17  CD  GLU D 570     -20.801  -7.608 -15.512  1.00 32.92     0.185 C 
ATOM     18  OE1 GLU D 570     -20.792  -8.628 -16.229  1.00 32.92    -0.647 OA
ATOM     19  OE2 GLU D 570     -21.346  -6.541 -15.858  1.00 32.92    -0.647 OA
ENDBRANCH  16  17
ENDBRANCH  15  16
ENDBRANCH  14  15
END_RES GLU D 570
ENDMDL
MODEL 3
REMARK VINA RESULT:      -8.0      6.932     15.023
REMARK  20 active torsions:
REMARK  status: ('A' for Active; 'I' for Inactive)
REMARK    1  A    between atoms: C_2  and  C_3 
REMARK    2  A    between atoms: C_3  and  C_4 
REMARK    3  A    between atoms: C_4  and  C_5 
REMARK    4  A    between atoms: C_5  and  C_6 
REMARK    5  A    between atoms: C_5  and  C_8 
REMARK    6  A    between atoms: C_8  and  O_9 
REMARK    7  A    between atoms: O_9  and  C_10 
REMARK    8  A    between atoms: C_12  and  O_49 
REMARK    9  A    between atoms: C_13  and  C_16 
REMARK   10  A    between atoms: C_19  and  C_33 
REMARK   11  A    between atoms: C_22  and  C_25 
REMARK   12  A    between atoms: C_28  and  O_31 
REMARK   13  A    between atoms: C_34  and  O_48 
REMARK   14  A    between atoms: C_36  and  O_39 
REMARK   15  A    between atoms: O_39  and  C_40 
REMARK   16  A    between atoms: C_40  and  C_41 
REMARK   17  A    between atoms: C_41  and  C_42 
REMARK   18  A    between atoms: C_41  and  C_44 
REMARK   19  A    between atoms: C_44  and  C_45 
REMARK   20  A    between atoms: C_45  and  C_46 
ROOT
HETATM    1  C   UNL     1     -26.619  -5.874 -16.856  1.00  0.00     0.121 A 
HETATM    2  N   UNL     1     -25.909  -5.606 -15.764  1.00  0.00    -0.327 N 
ATOM      3  HN  UNL     1     -26.338  -5.230 -14.918  1.00  0.00     0.169 HD
HETATM    4  C   UNL     1     -24.607  -5.858 -15.843  1.00  0.00     0.121 A 
HETATM    5  N   UNL     1     -24.008  -6.385 -16.905  1.00  0.00    -0.327 N 
ATOM      6  HN  UNL     1     -23.006  -6.569 -16.930  1.00  0.00     0.169 HD
HETATM    7  C   UNL     1     -24.809  -6.655 -17.934  1.00  0.00     0.118 A 
HETATM    8  N   UNL     1     -26.122  -6.422 -17.961  1.00  0.00    -0.327 N 
ATOM      9  HN  UNL     1     -26.701  -6.648 -18.769  1.00  0.00     0.169 HD
ENDROOT
BRANCH   1  10
HETATM   10  C   UNL     1     -28.058  -5.564 -16.834  1.00  0.00     0.041 A 
HETATM   11  C   UNL     1     -29.060  -6.557 -16.812  1.00  0.00     0.082 A 
HETATM   12  C   UNL     1     -30.428  -6.235 -16.810  1.00  0.00     0.074 A 
HETATM   13  C   UNL     1     -30.822  -4.898 -16.843  1.00  0.00     0.071 A 
HETATM   14  C   UNL     1     -29.851  -3.897 -16.864  1.00  0.00     0.038 A 
HETATM   15  C   UNL     1     -28.492  -4.226 -16.847  1.00  0.00     0.021 A 
BRANCH  11  16
HETATM   16  O   UNL     1     -28.692  -7.880 -16.787  1.00  0.00    -0.360 OA
HETATM   17  H   UNL     1     -29.014  -8.325 -17.589  1.00  0.00     0.217 HD
ENDBRANCH  11  16
BRANCH  13  18
HETATM   18  O   UNL     1     -32.110  -4.448 -16.940  1.00  0.00    -0.351 OA
BRANCH  18  19
HETATM   19  C   UNL     1     -33.057  -4.977 -16.013  1.00  0.00     0.180 C 
BRANCH  19  20
HETATM   20  C   UNL     1     -34.169  -3.927 -15.840  1.00  0.00     0.009 C 
BRANCH  20  21
HETATM   21  C   UNL     1     -34.153  -3.369 -14.400  1.00  0.00     0.007 C 
BRANCH  21  22
HETATM   22  C   UNL     1     -34.047  -4.467 -13.340  1.00  0.00     0.000 C 
BRANCH  22  23
HETATM   23  C   UNL     1     -33.142  -4.084 -12.172  1.00  0.00    -0.005 C 
HETATM   24  C   UNL     1     -33.692  -4.656 -10.873  1.00  0.00     0.005 C 
ENDBRANCH  22  23
ENDBRANCH  21  22
ENDBRANCH  20  21
BRANCH  20  25
HETATM   25  C   UNL     1     -34.133  -2.846 -16.947  1.00  0.00     0.002 C 
HETATM   26  C   UNL     1     -35.164  -1.735 -16.804  1.00  0.00     0.005 C 
ENDBRANCH  20  25
ENDBRANCH  19  20
ENDBRANCH  18  19
ENDBRANCH  13  18
ENDBRANCH   1  10
BRANCH   4  27
HETATM   27  C   UNL     1     -23.787  -5.511 -14.673  1.00  0.00     0.041 A 
HETATM   28  C   UNL     1     -22.570  -4.809 -14.773  1.00  0.00     0.082 A 
HETATM   29  C   UNL     1     -21.828  -4.462 -13.644  1.00  0.00     0.074 A 
HETATM   30  C   UNL     1     -22.276  -4.827 -12.379  1.00  0.00     0.071 A 
HETATM   31  C   UNL     1     -23.451  -5.558 -12.246  1.00  0.00     0.038 A 
HETATM   32  C   UNL     1     -24.201  -5.886 -13.378  1.00  0.00     0.021 A 
BRANCH  28  33
HETATM   33  O   UNL     1     -22.011  -4.425 -15.966  1.00  0.00    -0.360 OA
HETATM   34  H   UNL     1     -21.879  -5.231 -16.513  1.00  0.00     0.217 HD
ENDBRANCH  28  33
BRANCH  30  35
HETATM   35  O   UNL     1     -21.611  -4.561 -11.216  1.00  0.00    -0.351 OA
BRANCH  35  36
HETATM   36  C   UNL     1     -22.036  -3.363 -10.564  1.00  0.00     0.180 C 
BRANCH  36  37
HETATM   37  C   UNL     1     -22.372  -3.681  -9.098  1.00  0.00     0.009 C 
BRANCH  37  38
HETATM   38  C   UNL     1     -23.861  -4.068  -8.926  1.00  0.00     0.002 C 
HETATM   39  C   UNL     1     -24.844  -3.262  -9.768  1.00  0.00     0.005 C 
ENDBRANCH  37  38
BRANCH  37  40
HETATM   40  C   UNL     1     -21.426  -4.756  -8.527  1.00  0.00     0.007 C 
BRANCH  40  41
HETATM   41  C   UNL     1     -21.288  -4.677  -7.003  1.00  0.00     0.000 C 
BRANCH  41  42
HETATM   42  C   UNL     1     -19.879  -5.026  -6.530  1.00  0.00    -0.005 C 
HETATM   43  C   UNL     1     -18.842  -4.387  -7.442  1.00  0.00     0.005 C 
ENDBRANCH  41  42
ENDBRANCH  40  41
ENDBRANCH  37  40
ENDBRANCH  36  37
ENDBRANCH  35  36
ENDBRANCH  30  35
ENDBRANCH   4  27
BRANCH   7  44
HETATM   44  C   UNL     1     -24.190  -7.241 -19.132  1.00  0.00     0.008 A 
HETATM   45  C   UNL     1     -22.813  -7.528 -19.169  1.00  0.00     0.018 A 
HETATM   46  C   UNL     1     -22.212  -8.086 -20.303  1.00  0.00     0.037 A 
HETATM   47  C   UNL     1     -22.978  -8.368 -21.431  1.00  0.00     0.068 A 
HETATM   48  C   UNL     1     -24.344  -8.086 -21.414  1.00  0.00     0.037 A 
HETATM   49  C   UNL     1     -24.942  -7.532 -20.283  1.00  0.00     0.018 A 
BRANCH  47  50
HETATM   50  O   UNL     1     -22.517  -8.915 -22.595  1.00  0.00    -0.356 OA
HETATM   51  C   UNL     1     -21.204  -9.461 -22.557  1.00  0.00     0.210 C 
ENDBRANCH  47  50
ENDBRANCH   7  44
TORSDOF 20
BEGIN_RES ARG D 557
REMARK  4 active torsions:
REMARK  status: ('A' for Active; 'I' for Inactive)
REMARK    1  A    between atoms: CA   and  CB  
REMARK    2  A    between atoms: CB   and  CG  
REMARK    3  A    between atoms: CG   and  CD  
REMARK    4  A    between atoms: CD   and  NE  
REMARK       I    between atoms: NE   and  CZ  
REMARK       I    between atoms: CZ   and  NH1 
REMARK       I    between atoms: CZ   and  NH2 
ROOT
ATOM      1  CA  ARG D 557     -26.217   2.705 -17.014  1.00 35.49     0.159 C 
ENDROOT
BRANCH   1   2
ATOM      2  CB  ARG D 557     -26.789   1.319 -17.183  1.00 35.49     0.034 C 
BRANCH   2   3
ATOM      3  CG  ARG D 557     -25.837   0.202 -17.142  1.00 35.49     0.027 C 
BRANCH   3   4
ATOM      4  CD  ARG D 557     -24.723   0.445 -16.198  1.00 35.49     0.116 C 
BRANCH   4   5
ATOM      5  NE  ARG D 557     -24.826  -0.371 -15.016  1.00 35.49    -0.212 N 
ATOM      6  CZ  ARG D 557     -23.998  -1.332 -14.672  1.00 35.49     0.666 C 
ATOM      7  NH1 ARG D 557     -22.957  -1.670 -15.411  1.00 35.49    -0.235 N 
ATOM      8  NH2 ARG D 557     -24.233  -1.955 -13.554  1.00 35.49    -0.235 N 
ATOM      9  HH  ARG D 557     -22.782  -1.272 -16.149  1.00 35.49     0.174 HD
ATOM     10  HH  ARG D 557     -22.450  -2.303 -15.134  1.00 35.49     0.174 HD
ATOM     11  HH  ARG D 557     -24.908  -1.711 -13.094  1.00 35.49     0.174 HD
ATOM     12  HH  ARG D 557     -23.719  -2.578 -13.297  1.00 35.49     0.174 HD
ATOM     13  HE  ARG D 557     -25.509  -0.270 -14.520  1.00 35.49     0.178 HD
ENDBRANCH   4   5
ENDBRANCH   3   4
ENDBRANCH   2   3
ENDBRANCH   1   2
END_RES ARG D 557
BEGIN_RES GLU D 570
REMARK  3 active torsions:
REMARK  status: ('A' for Active; 'I' for Inactive)
REMARK    5  A    between atoms: CA   and  CB  
REMARK    6  A    between atoms: CB   and  CG  
REMARK    7  A    between atoms: CG   and  CD  
ROOT
ATOM     14  CA  GLU D 570     -18.033  -6.348 -13.375  1.00 32.92     0.160 C 
ENDROOT
BRANCH  14  15
ATOM     15  CB  GLU D 570     -19.500  -6.345 -13.794  1.00 32.92     0.043 C 
BRANCH  15  16
ATOM     16  CG  GLU D 570     -20.082  -7.631 -14.257  1.00 32.92     0.100 C 
BRANCH  16  17
ATOM     17  CD  GLU D 570     -20.720  -7.531 -15.623  1.00 32.92     0.185 C 
ATOM     18  OE1 GLU D 570     -21.661  -8.296 -15.909  1.00 32.92    -0.647 OA
ATOM     19  OE2 GLU D 570     -20.262  -6.691 -16.422  1.00 32.92    -0.647 OA
ENDBRANCH  16  17
ENDBRANCH  15  16
ENDBRANCH  14  15
END_RES GLU D 570
ENDMDL
MODEL 4
REMARK VINA RESULT:      -8.0      2.128      9.115
REMARK  20 active torsions:
REMARK  status: ('A' for Active; 'I' for Inactive)
REMARK    1  A    between atoms: C_2  and  C_3 
REMARK    2  A    between atoms: C_3  and  C_4 
REMARK    3  A    between atoms: C_4  and  C_5 
REMARK    4  A    between atoms: C_5  and  C_6 
REMARK    5  A    between atoms: C_5  and  C_8 
REMARK    6  A    between atoms: C_8  and  O_9 
REMARK    7  A    between atoms: O_9  and  C_10 
REMARK    8  A    between atoms: C_12  and  O_49 
REMARK    9  A    between atoms: C_13  and  C_16 
REMARK   10  A    between atoms: C_19  and  C_33 
REMARK   11  A    between atoms: C_22  and  C_25 
REMARK   12  A    between atoms: C_28  and  O_31 
REMARK   13  A    between atoms: C_34  and  O_48 
REMARK   14  A    between atoms: C_36  and  O_39 
REMARK   15  A    between atoms: O_39  and  C_40 
REMARK   16  A    between atoms: C_40  and  C_41 
REMARK   17  A    between atoms: C_41  and  C_42 
REMARK   18  A    between atoms: C_41  and  C_44 
REMARK   19  A    between atoms: C_44  and  C_45 
REMARK   20  A    between atoms: C_45  and  C_46 
ROOT
HETATM    1  C   UNL     1     -20.834  -9.510  -3.796  1.00  0.00     0.121 A 
HETATM    2  N   UNL     1     -19.759 -10.202  -4.162  1.00  0.00    -0.327 N 
ATOM      3  HN  UNL     1     -19.489 -11.070  -3.698  1.00  0.00     0.169 HD
HETATM    4  C   UNL     1     -19.057  -9.693  -5.170  1.00  0.00     0.121 A 
HETATM    5  N   UNL     1     -19.388  -8.592  -5.833  1.00  0.00    -0.327 N 
ATOM      6  HN  UNL     1     -18.828  -8.231  -6.605  1.00  0.00     0.169 HD
HETATM    7  C   UNL     1     -20.502  -7.991  -5.419  1.00  0.00     0.118 A 
HETATM    8  N   UNL     1     -21.264  -8.410  -4.407  1.00  0.00    -0.327 N 
ATOM      9  HN  UNL     1     -22.113  -7.922  -4.124  1.00  0.00     0.169 HD
ENDROOT
BRANCH   1  10
HETATM   10  C   UNL     1     -21.614 -10.007  -2.652  1.00  0.00     0.041 A 
HETATM   11  C   UNL     1     -21.543  -9.436  -1.364  1.00  0.00     0.082 A 
HETATM   12  C   UNL     1     -22.284  -9.941  -0.282  1.00  0.00     0.074 A 
HETATM   13  C   UNL     1     -23.109 -11.049  -0.469  1.00  0.00     0.071 A 
HETATM   14  C   UNL     1     -23.199 -11.632  -1.734  1.00  0.00     0.038 A 
HETATM   15  C   UNL     1     -22.473 -11.111  -2.808  1.00  0.00     0.021 A 
BRANCH  11  16
HETATM   16  O   UNL     1     -20.729  -8.349  -1.157  1.00  0.00    -0.360 OA
HETATM   17  H   UNL     1     -20.429  -7.995  -2.012  1.00  0.00     0.217 HD
ENDBRANCH  11  16
BRANCH  13  18
HETATM   18  O   UNL     1     -23.809 -11.697   0.510  1.00  0.00    -0.351 OA
BRANCH  18  19
HETATM   19  C   UNL     1     -23.626 -13.108   0.619  1.00  0.00     0.180 C 
BRANCH  19  20
HETATM   20  C   UNL     1     -22.297 -13.346   1.359  1.00  0.00     0.009 C 
BRANCH  20  21
HETATM   21  C   UNL     1     -22.542 -14.177   2.637  1.00  0.00     0.007 C 
BRANCH  21  22
HETATM   22  C   UNL     1     -23.920 -14.841   2.658  1.00  0.00     0.000 C 
BRANCH  22  23
HETATM   23  C   UNL     1     -24.397 -15.183   4.067  1.00  0.00    -0.005 C 
HETATM   24  C   UNL     1     -23.207 -15.504   4.960  1.00  0.00     0.005 C 
ENDBRANCH  22  23
ENDBRANCH  21  22
ENDBRANCH  20  21
BRANCH  20  25
HETATM   25  C   UNL     1     -21.200 -13.912   0.425  1.00  0.00     0.002 C 
HETATM   26  C   UNL     1     -20.061 -12.954   0.106  1.00  0.00     0.005 C 
ENDBRANCH  20  25
ENDBRANCH  19  20
ENDBRANCH  18  19
ENDBRANCH  13  18
ENDBRANCH   1  10
BRANCH   4  27
HETATM   27  C   UNL     1     -17.828 -10.403  -5.553  1.00  0.00     0.041 A 
HETATM   28  C   UNL     1     -17.833 -11.696  -6.111  1.00  0.00     0.082 A 
HETATM   29  C   UNL     1     -16.655 -12.334  -6.497  1.00  0.00     0.074 A 
HETATM   30  C   UNL     1     -15.430 -11.700  -6.315  1.00  0.00     0.071 A 
HETATM   31  C   UNL     1     -15.384 -10.442  -5.728  1.00  0.00     0.038 A 
HETATM   32  C   UNL     1     -16.568  -9.798  -5.361  1.00  0.00     0.021 A 
BRANCH  28  33
HETATM   33  O   UNL     1     -18.975 -12.433  -6.308  1.00  0.00    -0.360 OA
HETATM   34  H   UNL     1     -19.668 -12.087  -5.702  1.00  0.00     0.217 HD
ENDBRANCH  28  33
BRANCH  30  35
HETATM   35  O   UNL     1     -14.221 -12.249  -6.633  1.00  0.00    -0.351 OA
BRANCH  35  36
HETATM   36  C   UNL     1     -13.342 -12.409  -5.517  1.00  0.00     0.180 C 
BRANCH  36  37
HETATM   37  C   UNL     1     -13.900 -13.503  -4.592  1.00  0.00     0.009 C 
BRANCH  37  38
HETATM   38  C   UNL     1     -13.534 -14.919  -5.098  1.00  0.00     0.002 C 
HETATM   39  C   UNL     1     -12.781 -15.792  -4.102  1.00  0.00     0.005 C 
ENDBRANCH  37  38
BRANCH  37  40
HETATM   40  C   UNL     1     -13.459 -13.279  -3.132  1.00  0.00     0.007 C 
BRANCH  40  41
HETATM   41  C   UNL     1     -14.636 -13.279  -2.150  1.00  0.00     0.000 C 
BRANCH  41  42
HETATM   42  C   UNL     1     -15.814 -12.453  -2.659  1.00  0.00    -0.005 C 
HETATM   43  C   UNL     1     -15.853 -11.101  -1.962  1.00  0.00     0.005 C 
ENDBRANCH  41  42
ENDBRANCH  40  41
ENDBRANCH  37  40
ENDBRANCH  36  37
ENDBRANCH  35  36
ENDBRANCH  30  35
ENDBRANCH   4  27
BRANCH   7  44
HETATM   44  C   UNL     1     -20.908  -6.768  -6.124  1.00  0.00     0.008 A 
HETATM   45  C   UNL     1     -22.147  -6.155  -5.858  1.00  0.00     0.018 A 
HETATM   46  C   UNL     1     -22.547  -4.991  -6.523  1.00  0.00     0.037 A 
HETATM   47  C   UNL     1     -21.713  -4.410  -7.475  1.00  0.00     0.068 A 
HETATM   48  C   UNL     1     -20.482  -5.005  -7.755  1.00  0.00     0.037 A 
HETATM   49  C   UNL     1     -20.085  -6.165  -7.091  1.00  0.00     0.018 A 
BRANCH  47  50
HETATM   50  O   UNL     1     -21.980  -3.276  -8.188  1.00  0.00    -0.356 OA
HETATM   51  C   UNL     1     -22.785  -3.438  -9.349  1.00  0.00     0.210 C 
ENDBRANCH  47  50
ENDBRANCH   7  44
TORSDOF 20
BEGIN_RES ARG D 557
REMARK  4 active torsions:
REMARK  status: ('A' for Active; 'I' for Inactive)
REMARK    1  A    between atoms: CA   and  CB  
REMARK    2  A    between atoms: CB   and  CG  
REMARK    3  A    between atoms: CG   and  CD  
REMARK    4  A    between atoms: CD   and  NE  
REMARK       I    between atoms: NE   and  CZ  
REMARK       I    between atoms: CZ   and  NH1 
REMARK       I    between atoms: CZ   and  NH2 
ROOT
ATOM      1  CA  ARG D 557     -26.217   2.705 -17.014  1.00 35.49     0.159 C 
ENDROOT
BRANCH   1   2
ATOM      2  CB  ARG D 557     -26.789   1.319 -17.183  1.00 35.49     0.034 C 
BRANCH   2   3
ATOM      3  CG  ARG D 557     -28.233   1.226 -17.433  1.00 35.49     0.027 C 
BRANCH   3   4
ATOM      4  CD  ARG D 557     -28.908   0.296 -16.499  1.00 35.49     0.116 C 
BRANCH   4   5
ATOM      5  NE  ARG D 557     -29.299  -0.930 -17.143  1.00 35.49    -0.212 N 
ATOM      6  CZ  ARG D 557     -28.680  -2.084 -17.039  1.00 35.49     0.666 C 
ATOM      7  NH1 ARG D 557     -27.585  -2.239 -16.316  1.00 35.49    -0.235 N 
ATOM      8  NH2 ARG D 557     -29.188  -3.098 -17.676  1.00 35.49    -0.235 N 
ATOM      9  HH  ARG D 557     -27.234  -1.586 -15.887  1.00 35.49     0.174 HD
ATOM     10  HH  ARG D 557     -27.226  -3.016 -16.283  1.00 35.49     0.174 HD
ATOM     11  HH  ARG D 557     -29.900  -2.971 -18.129  1.00 35.49     0.174 HD
ATOM     12  HH  ARG D 557     -28.818  -3.860 -17.630  1.00 35.49     0.174 HD
ATOM     13  HE  ARG D 557     -29.953  -0.905 -17.686  1.00 35.49     0.178 HD
ENDBRANCH   4   5
ENDBRANCH   3   4
ENDBRANCH   2   3
ENDBRANCH   1   2
END_RES ARG D 557
BEGIN_RES GLU D 570
REMARK  3 active torsions:
REMARK  status: ('A' for Active; 'I' for Inactive)
REMARK    5  A    between atoms: CA   and  CB  
REMARK    6  A    between atoms: CB   and  CG  
REMARK    7  A    between atoms: CG   and  CD  
ROOT
ATOM     14  CA  GLU D 570     -18.033  -6.348 -13.375  1.00 32.92     0.160 C 
ENDROOT
BRANCH  14  15
ATOM     15  CB  GLU D 570     -19.500  -6.345 -13.794  1.00 32.92     0.043 C 
BRANCH  15  16
ATOM     16  CG  GLU D 570     -20.452  -5.579 -12.949  1.00 32.92     0.100 C 
BRANCH  16  17
ATOM     17  CD  GLU D 570     -21.701  -5.168 -13.692  1.00 32.92     0.185 C 
ATOM     18  OE1 GLU D 570     -21.733  -5.282 -14.933  1.00 32.92    -0.647 OA
ATOM     19  OE2 GLU D 570     -22.653  -4.712 -13.029  1.00 32.92    -0.647 OA
ENDBRANCH  16  17
ENDBRANCH  15  16
ENDBRANCH  14  15
END_RES GLU D 570
ENDMDL
MODEL 5
REMARK VINA RESULT:      -7.7      7.070     13.588
REMARK  20 active torsions:
REMARK  status: ('A' for Active; 'I' for Inactive)
REMARK    1  A    between atoms: C_2  and  C_3 
REMARK    2  A    between atoms: C_3  and  C_4 
REMARK    3  A    between atoms: C_4  and  C_5 
REMARK    4  A    between atoms: C_5  and  C_6 
REMARK    5  A    between atoms: C_5  and  C_8 
REMARK    6  A    between atoms: C_8  and  O_9 
REMARK    7  A    between atoms: O_9  and  C_10 
REMARK    8  A    between atoms: C_12  and  O_49 
REMARK    9  A    between atoms: C_13  and  C_16 
REMARK   10  A    between atoms: C_19  and  C_33 
REMARK   11  A    between atoms: C_22  and  C_25 
REMARK   12  A    between atoms: C_28  and  O_31 
REMARK   13  A    between atoms: C_34  and  O_48 
REMARK   14  A    between atoms: C_36  and  O_39 
REMARK   15  A    between atoms: O_39  and  C_40 
REMARK   16  A    between atoms: C_40  and  C_41 
REMARK   17  A    between atoms: C_41  and  C_42 
REMARK   18  A    between atoms: C_41  and  C_44 
REMARK   19  A    between atoms: C_44  and  C_45 
REMARK   20  A    between atoms: C_45  and  C_46 
ROOT
HETATM    1  C   UNL     1     -25.910  -5.594 -16.163  1.00  0.00     0.121 A 
HETATM    2  N   UNL     1     -27.239  -5.544 -16.139  1.00  0.00    -0.327 N 
ATOM      3  HN  UNL     1     -27.751  -5.134 -15.358  1.00  0.00     0.169 HD
HETATM    4  C   UNL     1     -27.858  -6.061 -17.195  1.00  0.00     0.121 A 
HETATM    5  N   UNL     1     -27.238  -6.568 -18.253  1.00  0.00    -0.327 N 
ATOM      6  HN  UNL     1     -27.745  -6.954 -19.050  1.00  0.00     0.169 HD
HETATM    7  C   UNL     1     -25.908  -6.539 -18.203  1.00  0.00     0.118 A 
HETATM    8  N   UNL     1     -25.194  -6.060 -17.183  1.00  0.00    -0.327 N 
ATOM      9  HN  UNL     1     -24.175  -6.052 -17.185  1.00  0.00     0.169 HD
ENDROOT
BRANCH   1  10
HETATM   10  C   UNL     1     -25.181  -5.079 -14.993  1.00  0.00     0.041 A 
HETATM   11  C   UNL     1     -24.201  -5.826 -14.306  1.00  0.00     0.082 A 
HETATM   12  C   UNL     1     -23.532  -5.319 -13.179  1.00  0.00     0.074 A 
HETATM   13  C   UNL     1     -23.846  -4.046 -12.705  1.00  0.00     0.071 A 
HETATM   14  C   UNL     1     -24.811  -3.287 -13.368  1.00  0.00     0.038 A 
HETATM   15  C   UNL     1     -25.458  -3.791 -14.499  1.00  0.00     0.021 A 
BRANCH  11  16
HETATM   16  O   UNL     1     -23.883  -7.085 -14.752  1.00  0.00    -0.360 OA
HETATM   17  H   UNL     1     -24.620  -7.694 -14.572  1.00  0.00     0.217 HD
ENDBRANCH  11  16
BRANCH  13  18
HETATM   18  O   UNL     1     -23.344  -3.470 -11.571  1.00  0.00    -0.351 OA
BRANCH  18  19
HETATM   19  C   UNL     1     -23.377  -4.248 -10.375  1.00  0.00     0.180 C 
BRANCH  19  20
HETATM   20  C   UNL     1     -22.110  -3.908  -9.569  1.00  0.00     0.009 C 
BRANCH  20  21
HETATM   21  C   UNL     1     -22.283  -4.346  -8.098  1.00  0.00     0.007 C 
BRANCH  21  22
HETATM   22  C   UNL     1     -21.262  -3.696  -7.162  1.00  0.00     0.000 C 
BRANCH  22  23
HETATM   23  C   UNL     1     -20.627  -4.688  -6.190  1.00  0.00    -0.005 C 
HETATM   24  C   UNL     1     -19.962  -5.822  -6.958  1.00  0.00     0.005 C 
ENDBRANCH  22  23
ENDBRANCH  21  22
ENDBRANCH  20  21
BRANCH  20  25
HETATM   25  C   UNL     1     -20.823  -4.434 -10.248  1.00  0.00     0.002 C 
HETATM   26  C   UNL     1     -20.174  -3.478 -11.239  1.00  0.00     0.005 C 
ENDBRANCH  20  25
ENDBRANCH  19  20
ENDBRANCH  18  19
ENDBRANCH  13  18
ENDBRANCH   1  10
BRANCH   4  27
HETATM   27  C   UNL     1     -29.328  -6.077 -17.165  1.00  0.00     0.041 A 
HETATM   28  C   UNL     1     -30.091  -7.154 -17.657  1.00  0.00     0.082 A 
HETATM   29  C   UNL     1     -31.484  -7.160 -17.586  1.00  0.00     0.074 A 
HETATM   30  C   UNL     1     -32.156  -6.073 -17.037  1.00  0.00     0.071 A 
HETATM   31  C   UNL     1     -31.437  -4.975 -16.581  1.00  0.00     0.038 A 
HETATM   32  C   UNL     1     -30.041  -4.981 -16.635  1.00  0.00     0.021 A 
BRANCH  28  33
HETATM   33  O   UNL     1     -29.543  -8.264 -18.250  1.00  0.00    -0.360 OA
HETATM   34  H   UNL     1     -28.650  -8.022 -18.582  1.00  0.00     0.217 HD
ENDBRANCH  28  33
BRANCH  30  35
HETATM   35  O   UNL     1     -33.515  -5.969 -16.947  1.00  0.00    -0.351 OA
BRANCH  35  36
HETATM   36  C   UNL     1     -33.963  -4.923 -16.082  1.00  0.00     0.180 C 
BRANCH  36  37
HETATM   37  C   UNL     1     -35.087  -5.462 -15.183  1.00  0.00     0.009 C 
BRANCH  37  38
HETATM   38  C   UNL     1     -35.463  -6.919 -15.551  1.00  0.00     0.002 C 
HETATM   39  C   UNL     1     -36.823  -7.091 -16.218  1.00  0.00     0.005 C 
ENDBRANCH  37  38
BRANCH  37  40
HETATM   40  C   UNL     1     -34.729  -5.317 -13.691  1.00  0.00     0.007 C 
BRANCH  40  41
HETATM   41  C   UNL     1     -33.961  -4.026 -13.387  1.00  0.00     0.000 C 
BRANCH  41  42
HETATM   42  C   UNL     1     -33.099  -4.147 -12.133  1.00  0.00    -0.005 C 
HETATM   43  C   UNL     1     -33.254  -2.909 -11.263  1.00  0.00     0.005 C 
ENDBRANCH  41  42
ENDBRANCH  40  41
ENDBRANCH  37  40
ENDBRANCH  36  37
ENDBRANCH  35  36
ENDBRANCH  30  35
ENDBRANCH   4  27
BRANCH   7  44
HETATM   44  C   UNL     1     -25.178  -7.089 -19.354  1.00  0.00     0.008 A 
HETATM   45  C   UNL     1     -23.812  -7.413 -19.258  1.00  0.00     0.018 A 
HETATM   46  C   UNL     1     -23.106  -7.937 -20.346  1.00  0.00     0.037 A 
HETATM   47  C   UNL     1     -23.752  -8.147 -21.561  1.00  0.00     0.068 A 
HETATM   48  C   UNL     1     -25.105  -7.828 -21.676  1.00  0.00     0.037 A 
HETATM   49  C   UNL     1     -25.809  -7.307 -20.591  1.00  0.00     0.018 A 
BRANCH  47  50
HETATM   50  O   UNL     1     -23.182  -8.655 -22.694  1.00  0.00    -0.356 OA
HETATM   51  C   UNL     1     -21.841  -9.113 -22.572  1.00  0.00     0.210 C 
ENDBRANCH  47  50
ENDBRANCH   7  44
TORSDOF 20
BEGIN_RES ARG D 557
REMARK  4 active torsions:
REMARK  status: ('A' for Active; 'I' for Inactive)
REMARK    1  A    between atoms: CA   and  CB  
REMARK    2  A    between atoms: CB   and  CG  
REMARK    3  A    between atoms: CG   and  CD  
REMARK    4  A    between atoms: CD   and  NE  
REMARK       I    between atoms: NE   and  CZ  
REMARK       I    between atoms: CZ   and  NH1 
REMARK       I    between atoms: CZ   and  NH2 
ROOT
ATOM      1  CA  ARG D 557     -26.217   2.705 -17.014  1.00 35.49     0.159 C 
ENDROOT
BRANCH   1   2
ATOM      2  CB  ARG D 557     -26.789   1.319 -17.183  1.00 35.49     0.034 C 
BRANCH   2   3
ATOM      3  CG  ARG D 557     -25.969   0.202 -16.698  1.00 35.49     0.027 C 
BRANCH   3   4
ATOM      4  CD  ARG D 557     -26.734  -0.727 -15.836  1.00 35.49     0.116 C 
BRANCH   4   5
ATOM      5  NE  ARG D 557     -27.649  -1.540 -16.593  1.00 35.49    -0.212 N 
ATOM      6  CZ  ARG D 557     -28.897  -1.235 -16.873  1.00 35.49     0.666 C 
ATOM      7  NH1 ARG D 557     -29.463  -0.116 -16.461  1.00 35.49    -0.235 N 
ATOM      8  NH2 ARG D 557     -29.575  -2.082 -17.591  1.00 35.49    -0.235 N 
ATOM      9  HH  ARG D 557     -29.034   0.457 -15.989  1.00 35.49     0.174 HD
ATOM     10  HH  ARG D 557     -30.279   0.031 -16.676  1.00 35.49     0.174 HD
ATOM     11  HH  ARG D 557     -29.181  -2.793 -17.849  1.00 35.49     0.174 HD
ATOM     12  HH  ARG D 557     -30.382  -1.918 -17.795  1.00 35.49     0.174 HD
ATOM     13  HE  ARG D 557     -27.390  -2.313 -16.836  1.00 35.49     0.178 HD
ENDBRANCH   4   5
ENDBRANCH   3   4
ENDBRANCH   2   3
ENDBRANCH   1   2
END_RES ARG D 557
BEGIN_RES GLU D 570
REMARK  3 active torsions:
REMARK  status: ('A' for Active; 'I' for Inactive)
REMARK    5  A    between atoms: CA   and  CB  
REMARK    6  A    between atoms: CB   and  CG  
REMARK    7  A    between atoms: CG   and  CD  
ROOT
ATOM     14  CA  GLU D 570     -18.033  -6.348 -13.375  1.00 32.92     0.160 C 
ENDROOT
BRANCH  14  15
ATOM     15  CB  GLU D 570     -19.500  -6.345 -13.794  1.00 32.92     0.043 C 
BRANCH  15  16
ATOM     16  CG  GLU D 570     -20.081  -7.630 -14.262  1.00 32.92     0.100 C 
BRANCH  16  17
ATOM     17  CD  GLU D 570     -20.897  -7.482 -15.525  1.00 32.92     0.185 C 
ATOM     18  OE1 GLU D 570     -21.098  -6.342 -15.986  1.00 32.92    -0.647 OA
ATOM     19  OE2 GLU D 570     -21.354  -8.517 -16.050  1.00 32.92    -0.647 OA
ENDBRANCH  16  17
ENDBRANCH  15  16
ENDBRANCH  14  15
END_RES GLU D 570
ENDMDL
MODEL 6
REMARK VINA RESULT:      -7.7      6.571     15.033
REMARK  20 active torsions:
REMARK  status: ('A' for Active; 'I' for Inactive)
REMARK    1  A    between atoms: C_2  and  C_3 
REMARK    2  A    between atoms: C_3  and  C_4 
REMARK    3  A    between atoms: C_4  and  C_5 
REMARK    4  A    between atoms: C_5  and  C_6 
REMARK    5  A    between atoms: C_5  and  C_8 
REMARK    6  A    between atoms: C_8  and  O_9 
REMARK    7  A    between atoms: O_9  and  C_10 
REMARK    8  A    between atoms: C_12  and  O_49 
REMARK    9  A    between atoms: C_13  and  C_16 
REMARK   10  A    between atoms: C_19  and  C_33 
REMARK   11  A    between atoms: C_22  and  C_25 
REMARK   12  A    between atoms: C_28  and  O_31 
REMARK   13  A    between atoms: C_34  and  O_48 
REMARK   14  A    between atoms: C_36  and  O_39 
REMARK   15  A    between atoms: O_39  and  C_40 
REMARK   16  A    between atoms: C_40  and  C_41 
REMARK   17  A    between atoms: C_41  and  C_42 
REMARK   18  A    between atoms: C_41  and  C_44 
REMARK   19  A    between atoms: C_44  and  C_45 
REMARK   20  A    between atoms: C_45  and  C_46 
ROOT
HETATM    1  C   UNL     1     -26.975  -6.176 -16.865  1.00  0.00     0.121 A 
HETATM    2  N   UNL     1     -26.395  -5.682 -15.775  1.00  0.00    -0.327 N 
ATOM      3  HN  UNL     1     -26.937  -5.337 -14.982  1.00  0.00     0.169 HD
HETATM    4  C   UNL     1     -25.066  -5.665 -15.783  1.00  0.00     0.121 A 
HETATM    5  N   UNL     1     -24.316  -6.138 -16.771  1.00  0.00    -0.327 N 
ATOM      6  HN  UNL     1     -23.297  -6.113 -16.742  1.00  0.00     0.169 HD
HETATM    7  C   UNL     1     -24.988  -6.648 -17.801  1.00  0.00     0.118 A 
HETATM    8  N   UNL     1     -26.317  -6.695 -17.898  1.00  0.00    -0.327 N 
ATOM      9  HN  UNL     1     -26.793  -7.099 -18.704  1.00  0.00     0.169 HD
ENDROOT
BRANCH   1  10
HETATM   10  C   UNL     1     -28.446  -6.169 -16.924  1.00  0.00     0.041 A 
HETATM   11  C   UNL     1     -29.178  -6.759 -17.976  1.00  0.00     0.082 A 
HETATM   12  C   UNL     1     -30.582  -6.723 -18.019  1.00  0.00     0.074 A 
HETATM   13  C   UNL     1     -31.287  -6.076 -17.005  1.00  0.00     0.071 A 
HETATM   14  C   UNL     1     -30.586  -5.486 -15.953  1.00  0.00     0.038 A 
HETATM   15  C   UNL     1     -29.191  -5.543 -15.908  1.00  0.00     0.021 A 
BRANCH  11  16
HETATM   16  O   UNL     1     -28.502  -7.395 -18.989  1.00  0.00    -0.360 OA
HETATM   17  H   UNL     1     -29.019  -7.344 -19.811  1.00  0.00     0.217 HD
ENDBRANCH  11  16
BRANCH  13  18
HETATM   18  O   UNL     1     -32.640  -5.885 -16.971  1.00  0.00    -0.351 OA
BRANCH  18  19
HETATM   19  C   UNL     1     -33.113  -4.661 -16.409  1.00  0.00     0.180 C 
BRANCH  19  20
HETATM   20  C   UNL     1     -34.099  -5.019 -15.283  1.00  0.00     0.009 C 
BRANCH  20  21
HETATM   21  C   UNL     1     -34.313  -3.802 -14.357  1.00  0.00     0.007 C 
BRANCH  21  22
HETATM   22  C   UNL     1     -33.755  -4.025 -12.949  1.00  0.00     0.000 C 
BRANCH  22  23
HETATM   23  C   UNL     1     -34.617  -4.961 -12.106  1.00  0.00    -0.005 C 
HETATM   24  C   UNL     1     -34.147  -4.945 -10.658  1.00  0.00     0.005 C 
ENDBRANCH  22  23
ENDBRANCH  21  22
ENDBRANCH  20  21
BRANCH  20  25
HETATM   25  C   UNL     1     -35.405  -5.650 -15.826  1.00  0.00     0.002 C 
HETATM   26  C   UNL     1     -35.672  -7.079 -15.375  1.00  0.00     0.005 C 
ENDBRANCH  20  25
ENDBRANCH  19  20
ENDBRANCH  18  19
ENDBRANCH  13  18
ENDBRANCH   1  10
BRANCH   4  27
HETATM   27  C   UNL     1     -24.400  -5.064 -14.618  1.00  0.00     0.041 A 
HETATM   28  C   UNL     1     -24.567  -3.715 -14.253  1.00  0.00     0.082 A 
HETATM   29  C   UNL     1     -23.951  -3.178 -13.124  1.00  0.00     0.074 A 
HETATM   30  C   UNL     1     -23.128  -3.976 -12.336  1.00  0.00     0.071 A 
HETATM   31  C   UNL     1     -22.905  -5.301 -12.691  1.00  0.00     0.038 A 
HETATM   32  C   UNL     1     -23.541  -5.840 -13.812  1.00  0.00     0.021 A 
BRANCH  28  33
HETATM   33  O   UNL     1     -25.327  -2.823 -14.969  1.00  0.00    -0.360 OA
HETATM   34  H   UNL     1     -26.012  -3.332 -15.458  1.00  0.00     0.217 HD
ENDBRANCH  28  33
BRANCH  30  35
HETATM   35  O   UNL     1     -22.457  -3.540 -11.229  1.00  0.00    -0.351 OA
BRANCH  35  36
HETATM   36  C   UNL     1     -23.008  -4.000  -9.994  1.00  0.00     0.180 C 
BRANCH  36  37
HETATM   37  C   UNL     1     -21.867  -4.478  -9.082  1.00  0.00     0.009 C 
BRANCH  37  38
HETATM   38  C   UNL     1     -20.486  -4.011  -9.604  1.00  0.00     0.002 C 
HETATM   39  C   UNL     1     -19.686  -5.066 -10.359  1.00  0.00     0.005 C 
ENDBRANCH  37  38
BRANCH  37  40
HETATM   40  C   UNL     1     -22.105  -4.054  -7.619  1.00  0.00     0.007 C 
BRANCH  40  41
HETATM   41  C   UNL     1     -21.044  -4.606  -6.660  1.00  0.00     0.000 C 
BRANCH  41  42
HETATM   42  C   UNL     1     -21.224  -6.099  -6.396  1.00  0.00    -0.005 C 
HETATM   43  C   UNL     1     -20.753  -6.448  -4.992  1.00  0.00     0.005 C 
ENDBRANCH  41  42
ENDBRANCH  40  41
ENDBRANCH  37  40
ENDBRANCH  36  37
ENDBRANCH  35  36
ENDBRANCH  30  35
ENDBRANCH   4  27
BRANCH   7  44
HETATM   44  C   UNL     1     -24.199  -7.186 -18.918  1.00  0.00     0.008 A 
HETATM   45  C   UNL     1     -22.801  -7.317 -18.822  1.00  0.00     0.018 A 
HETATM   46  C   UNL     1     -22.038  -7.827 -19.878  1.00  0.00     0.037 A 
HETATM   47  C   UNL     1     -22.659  -8.219 -21.061  1.00  0.00     0.068 A 
HETATM   48  C   UNL     1     -24.043  -8.093 -21.177  1.00  0.00     0.037 A 
HETATM   49  C   UNL     1     -24.803  -7.585 -20.123  1.00  0.00     0.018 A 
BRANCH  47  50
HETATM   50  O   UNL     1     -22.033  -8.735 -22.160  1.00  0.00    -0.356 OA
HETATM   51  C   UNL     1     -20.798  -9.400 -21.927  1.00  0.00     0.210 C 
ENDBRANCH  47  50
ENDBRANCH   7  44
TORSDOF 20
BEGIN_RES ARG D 557
REMARK  4 active torsions:
REMARK  status: ('A' for Active; 'I' for Inactive)
REMARK    1  A    between atoms: CA   and  CB  
REMARK    2  A    between atoms: CB   and  CG  
REMARK    3  A    between atoms: CG   and  CD  
REMARK    4  A    between atoms: CD   and  NE  
REMARK       I    between atoms: NE   and  CZ  
REMARK       I    between atoms: CZ   and  NH1 
REMARK       I    between atoms: CZ   and  NH2 
ROOT
ATOM      1  CA  ARG D 557     -26.217   2.705 -17.014  1.00 35.49     0.159 C 
ENDROOT
BRANCH   1   2
ATOM      2  CB  ARG D 557     -26.789   1.319 -17.183  1.00 35.49     0.034 C 
BRANCH   2   3
ATOM      3  CG  ARG D 557     -28.232   1.226 -17.433  1.00 35.49     0.027 C 
BRANCH   3   4
ATOM      4  CD  ARG D 557     -28.908   0.293 -16.503  1.00 35.49     0.116 C 
BRANCH   4   5
ATOM      5  NE  ARG D 557     -29.394  -0.884 -17.173  1.00 35.49    -0.212 N 
ATOM      6  CZ  ARG D 557     -28.822  -2.067 -17.159  1.00 35.49     0.666 C 
ATOM      7  NH1 ARG D 557     -27.693  -2.302 -16.516  1.00 35.49    -0.235 N 
ATOM      8  NH2 ARG D 557     -29.415  -3.028 -17.806  1.00 35.49    -0.235 N 
ATOM      9  HH  ARG D 557     -27.286  -1.685 -16.082  1.00 35.49     0.174 HD
ATOM     10  HH  ARG D 557     -27.368  -3.094 -16.540  1.00 35.49     0.174 HD
ATOM     11  HH  ARG D 557     -30.147  -2.850 -18.206  1.00 35.49     0.174 HD
ATOM     12  HH  ARG D 557     -29.078  -3.806 -17.817  1.00 35.49     0.174 HD
ATOM     13  HE  ARG D 557     -30.079  -0.806 -17.671  1.00 35.49     0.178 HD
ENDBRANCH   4   5
ENDBRANCH   3   4
ENDBRANCH   2   3
ENDBRANCH   1   2
END_RES ARG D 557
BEGIN_RES GLU D 570
REMARK  3 active torsions:
REMARK  status: ('A' for Active; 'I' for Inactive)
REMARK    5  A    between atoms: CA   and  CB  
REMARK    6  A    between atoms: CB   and  CG  
REMARK    7  A    between atoms: CG   and  CD  
ROOT
ATOM     14  CA  GLU D 570     -18.033  -6.348 -13.375  1.00 32.92     0.160 C 
ENDROOT
BRANCH  14  15
ATOM     15  CB  GLU D 570     -19.500  -6.345 -13.794  1.00 32.92     0.043 C 
BRANCH  15  16
ATOM     16  CG  GLU D 570     -20.094  -7.640 -14.215  1.00 32.92     0.100 C 
BRANCH  16  17
ATOM     17  CD  GLU D 570     -20.715  -7.584 -15.591  1.00 32.92     0.185 C 
ATOM     18  OE1 GLU D 570     -21.099  -6.487 -16.038  1.00 32.92    -0.647 OA
ATOM     19  OE2 GLU D 570     -20.832  -8.653 -16.223  1.00 32.92    -0.647 OA
ENDBRANCH  16  17
ENDBRANCH  15  16
ENDBRANCH  14  15
END_RES GLU D 570
ENDMDL
MODEL 7
REMARK VINA RESULT:      -7.5      1.842      8.850
REMARK  20 active torsions:
REMARK  status: ('A' for Active; 'I' for Inactive)
REMARK    1  A    between atoms: C_2  and  C_3 
REMARK    2  A    between atoms: C_3  and  C_4 
REMARK    3  A    between atoms: C_4  and  C_5 
REMARK    4  A    between atoms: C_5  and  C_6 
REMARK    5  A    between atoms: C_5  and  C_8 
REMARK    6  A    between atoms: C_8  and  O_9 
REMARK    7  A    between atoms: O_9  and  C_10 
REMARK    8  A    between atoms: C_12  and  O_49 
REMARK    9  A    between atoms: C_13  and  C_16 
REMARK   10  A    between atoms: C_19  and  C_33 
REMARK   11  A    between atoms: C_22  and  C_25 
REMARK   12  A    between atoms: C_28  and  O_31 
REMARK   13  A    between atoms: C_34  and  O_48 
REMARK   14  A    between atoms: C_36  and  O_39 
REMARK   15  A    between atoms: O_39  and  C_40 
REMARK   16  A    between atoms: C_40  and  C_41 
REMARK   17  A    between atoms: C_41  and  C_42 
REMARK   18  A    between atoms: C_41  and  C_44 
REMARK   19  A    between atoms: C_44  and  C_45 
REMARK   20  A    between atoms: C_45  and  C_46 
ROOT
HETATM    1  C   UNL     1     -20.912  -9.260  -3.689  1.00  0.00     0.121 A 
HETATM    2  N   UNL     1     -19.756  -9.889  -3.881  1.00  0.00    -0.327 N 
ATOM      3  HN  UNL     1     -19.494 -10.718  -3.346  1.00  0.00     0.169 HD
HETATM    4  C   UNL     1     -18.962  -9.371  -4.812  1.00  0.00     0.121 A 
HETATM    5  N   UNL     1     -19.272  -8.321  -5.563  1.00  0.00    -0.327 N 
ATOM      6  HN  UNL     1     -18.640  -7.951  -6.272  1.00  0.00     0.169 HD
HETATM    7  C   UNL     1     -20.467  -7.784  -5.324  1.00  0.00     0.118 A 
HETATM    8  N   UNL     1     -21.327  -8.216  -4.401  1.00  0.00    -0.327 N 
ATOM      9  HN  UNL     1     -22.236  -7.778  -4.252  1.00  0.00     0.169 HD
ENDROOT
BRANCH   1  10
HETATM   10  C   UNL     1     -21.803  -9.767  -2.633  1.00  0.00     0.041 A 
HETATM   11  C   UNL     1     -21.888  -9.184  -1.351  1.00  0.00     0.082 A 
HETATM   12  C   UNL     1     -22.733  -9.699  -0.353  1.00  0.00     0.074 A 
HETATM   13  C   UNL     1     -23.507 -10.828  -0.619  1.00  0.00     0.071 A 
HETATM   14  C   UNL     1     -23.442 -11.422  -1.879  1.00  0.00     0.038 A 
HETATM   15  C   UNL     1     -22.613 -10.892  -2.872  1.00  0.00     0.021 A 
BRANCH  11  16
HETATM   16  O   UNL     1     -21.128  -8.076  -1.067  1.00  0.00    -0.360 OA
HETATM   17  H   UNL     1     -20.774  -8.144  -0.163  1.00  0.00     0.217 HD
ENDBRANCH  11  16
BRANCH  13  18
HETATM   18  O   UNL     1     -24.295 -11.485   0.284  1.00  0.00    -0.351 OA
BRANCH  18  19
HETATM   19  C   UNL     1     -23.661 -12.443   1.130  1.00  0.00     0.180 C 
BRANCH  19  20
HETATM   20  C   UNL     1     -22.896 -13.424   0.224  1.00  0.00     0.009 C 
BRANCH  20  21
HETATM   21  C   UNL     1     -21.426 -13.538   0.686  1.00  0.00     0.007 C 
BRANCH  21  22
HETATM   22  C   UNL     1     -20.429 -13.166  -0.414  1.00  0.00     0.000 C 
BRANCH  22  23
HETATM   23  C   UNL     1     -19.691 -11.859  -0.132  1.00  0.00    -0.005 C 
HETATM   24  C   UNL     1     -18.507 -11.712  -1.078  1.00  0.00     0.005 C 
ENDBRANCH  22  23
ENDBRANCH  21  22
ENDBRANCH  20  21
BRANCH  20  25
HETATM   25  C   UNL     1     -23.629 -14.780   0.076  1.00  0.00     0.002 C 
HETATM   26  C   UNL     1     -24.652 -14.845  -1.049  1.00  0.00     0.005 C 
ENDBRANCH  20  25
ENDBRANCH  19  20
ENDBRANCH  18  19
ENDBRANCH  13  18
ENDBRANCH   1  10
BRANCH   4  27
HETATM   27  C   UNL     1     -17.650 -10.007  -5.000  1.00  0.00     0.041 A 
HETATM   28  C   UNL     1     -17.344 -10.818  -6.110  1.00  0.00     0.082 A 
HETATM   29  C   UNL     1     -16.081 -11.382  -6.282  1.00  0.00     0.074 A 
HETATM   30  C   UNL     1     -15.089 -11.167  -5.332  1.00  0.00     0.071 A 
HETATM   31  C   UNL     1     -15.367 -10.408  -4.202  1.00  0.00     0.038 A 
HETATM   32  C   UNL     1     -16.628  -9.827  -4.043  1.00  0.00     0.021 A 
BRANCH  28  33
HETATM   33  O   UNL     1     -18.249 -11.129  -7.095  1.00  0.00    -0.360 OA
HETATM   34  H   UNL     1     -18.401 -10.321  -7.635  1.00  0.00     0.217 HD
ENDBRANCH  28  33
BRANCH  30  35
HETATM   35  O   UNL     1     -13.831 -11.696  -5.393  1.00  0.00    -0.351 OA
BRANCH  35  36
HETATM   36  C   UNL     1     -13.772 -12.990  -5.996  1.00  0.00     0.180 C 
BRANCH  36  37
HETATM   37  C   UNL     1     -13.376 -14.024  -4.929  1.00  0.00     0.009 C 
BRANCH  37  38
HETATM   38  C   UNL     1     -13.193 -13.367  -3.539  1.00  0.00     0.002 C 
HETATM   39  C   UNL     1     -14.319 -13.623  -2.545  1.00  0.00     0.005 C 
ENDBRANCH  37  38
BRANCH  37  40
HETATM   40  C   UNL     1     -14.377 -15.196  -4.886  1.00  0.00     0.007 C 
BRANCH  40  41
HETATM   41  C   UNL     1     -15.495 -15.060  -5.925  1.00  0.00     0.000 C 
BRANCH  41  42
HETATM   42  C   UNL     1     -15.636 -16.310  -6.790  1.00  0.00    -0.005 C 
HETATM   43  C   UNL     1     -14.265 -16.872  -7.136  1.00  0.00     0.005 C 
ENDBRANCH  41  42
ENDBRANCH  40  41
ENDBRANCH  37  40
ENDBRANCH  36  37
ENDBRANCH  35  36
ENDBRANCH  30  35
ENDBRANCH   4  27
BRANCH   7  44
HETATM   44  C   UNL     1     -20.854  -6.619  -6.132  1.00  0.00     0.008 A 
HETATM   45  C   UNL     1     -19.999  -6.109  -7.126  1.00  0.00     0.018 A 
HETATM   46  C   UNL     1     -20.356  -5.001  -7.902  1.00  0.00     0.037 A 
HETATM   47  C   UNL     1     -21.582  -4.373  -7.699  1.00  0.00     0.068 A 
HETATM   48  C   UNL     1     -22.442  -4.862  -6.715  1.00  0.00     0.037 A 
HETATM   49  C   UNL     1     -22.086  -5.967  -5.943  1.00  0.00     0.018 A 
BRANCH  47  50
HETATM   50  O   UNL     1     -22.051  -3.292  -8.389  1.00  0.00    -0.356 OA
HETATM   51  C   UNL     1     -22.661  -3.562  -9.645  1.00  0.00     0.210 C 
ENDBRANCH  47  50
ENDBRANCH   7  44
TORSDOF 20
BEGIN_RES ARG D 557
REMARK  4 active torsions:
REMARK  status: ('A' for Active; 'I' for Inactive)
REMARK    1  A    between atoms: CA   and  CB  
REMARK    2  A    between atoms: CB   and  CG  
REMARK    3  A    between atoms: CG   and  CD  
REMARK    4  A    between atoms: CD   and  NE  
REMARK       I    between atoms: NE   and  CZ  
REMARK       I    between atoms: CZ   and  NH1 
REMARK       I    between atoms: CZ   and  NH2 
ROOT
ATOM      1  CA  ARG D 557     -26.217   2.705 -17.014  1.00 35.49     0.159 C 
ENDROOT
BRANCH   1   2
ATOM      2  CB  ARG D 557     -26.789   1.319 -17.183  1.00 35.49     0.034 C 
BRANCH   2   3
ATOM      3  CG  ARG D 557     -28.237   1.174 -16.989  1.00 35.49     0.027 C 
BRANCH   3   4
ATOM      4  CD  ARG D 557     -28.635  -0.232 -16.746  1.00 35.49     0.116 C 
BRANCH   4   5
ATOM      5  NE  ARG D 557     -27.612  -0.975 -16.059  1.00 35.49    -0.212 N 
ATOM      6  CZ  ARG D 557     -27.446  -2.278 -16.107  1.00 35.49     0.666 C 
ATOM      7  NH1 ARG D 557     -28.239  -3.069 -16.805  1.00 35.49    -0.235 N 
ATOM      8  NH2 ARG D 557     -26.450  -2.780 -15.437  1.00 35.49    -0.235 N 
ATOM      9  HH  ARG D 557     -28.899  -2.759 -17.255  1.00 35.49     0.174 HD
ATOM     10  HH  ARG D 557     -28.081  -3.911 -16.801  1.00 35.49     0.174 HD
ATOM     11  HH  ARG D 557     -25.950  -2.245 -15.001  1.00 35.49     0.174 HD
ATOM     12  HH  ARG D 557     -26.308  -3.616 -15.446  1.00 35.49     0.174 HD
ATOM     13  HE  ARG D 557     -27.100  -0.552 -15.528  1.00 35.49     0.178 HD
ENDBRANCH   4   5
ENDBRANCH   3   4
ENDBRANCH   2   3
ENDBRANCH   1   2
END_RES ARG D 557
BEGIN_RES GLU D 570
REMARK  3 active torsions:
REMARK  status: ('A' for Active; 'I' for Inactive)
REMARK    5  A    between atoms: CA   and  CB  
REMARK    6  A    between atoms: CB   and  CG  
REMARK    7  A    between atoms: CG   and  CD  
ROOT
ATOM     14  CA  GLU D 570     -18.033  -6.348 -13.375  1.00 32.92     0.160 C 
ENDROOT
BRANCH  14  15
ATOM     15  CB  GLU D 570     -19.500  -6.345 -13.794  1.00 32.92     0.043 C 
BRANCH  15  16
ATOM     16  CG  GLU D 570     -20.446  -5.549 -12.970  1.00 32.92     0.100 C 
BRANCH  16  17
ATOM     17  CD  GLU D 570     -21.732  -5.226 -13.694  1.00 32.92     0.185 C 
ATOM     18  OE1 GLU D 570     -22.148  -6.011 -14.568  1.00 32.92    -0.647 OA
ATOM     19  OE2 GLU D 570     -22.321  -4.168 -13.397  1.00 32.92    -0.647 OA
ENDBRANCH  16  17
ENDBRANCH  15  16
ENDBRANCH  14  15
END_RES GLU D 570
ENDMDL
MODEL 8
REMARK VINA RESULT:      -7.4      1.979      8.906
REMARK  20 active torsions:
REMARK  status: ('A' for Active; 'I' for Inactive)
REMARK    1  A    between atoms: C_2  and  C_3 
REMARK    2  A    between atoms: C_3  and  C_4 
REMARK    3  A    between atoms: C_4  and  C_5 
REMARK    4  A    between atoms: C_5  and  C_6 
REMARK    5  A    between atoms: C_5  and  C_8 
REMARK    6  A    between atoms: C_8  and  O_9 
REMARK    7  A    between atoms: O_9  and  C_10 
REMARK    8  A    between atoms: C_12  and  O_49 
REMARK    9  A    between atoms: C_13  and  C_16 
REMARK   10  A    between atoms: C_19  and  C_33 
REMARK   11  A    between atoms: C_22  and  C_25 
REMARK   12  A    between atoms: C_28  and  O_31 
REMARK   13  A    between atoms: C_34  and  O_48 
REMARK   14  A    between atoms: C_36  and  O_39 
REMARK   15  A    between atoms: O_39  and  C_40 
REMARK   16  A    between atoms: C_40  and  C_41 
REMARK   17  A    between atoms: C_41  and  C_42 
REMARK   18  A    between atoms: C_41  and  C_44 
REMARK   19  A    between atoms: C_44  and  C_45 
REMARK   20  A    between atoms: C_45  and  C_46 
ROOT
HETATM    1  C   UNL     1     -20.873  -9.587  -3.840  1.00  0.00     0.121 A 
HETATM    2  N   UNL     1     -19.811 -10.296  -4.211  1.00  0.00    -0.327 N 
ATOM      3  HN  UNL     1     -19.569 -11.182  -3.766  1.00  0.00     0.169 HD
HETATM    4  C   UNL     1     -19.086  -9.781  -5.198  1.00  0.00     0.121 A 
HETATM    5  N   UNL     1     -19.381  -8.655  -5.837  1.00  0.00    -0.327 N 
ATOM      6  HN  UNL     1     -18.803  -8.289  -6.593  1.00  0.00     0.169 HD
HETATM    7  C   UNL     1     -20.484  -8.037  -5.420  1.00  0.00     0.118 A 
HETATM    8  N   UNL     1     -21.269  -8.461  -4.429  1.00  0.00    -0.327 N 
ATOM      9  HN  UNL     1     -22.109  -7.960  -4.143  1.00  0.00     0.169 HD
ENDROOT
BRANCH   1  10
HETATM   10  C   UNL     1     -21.680 -10.093  -2.717  1.00  0.00     0.041 A 
HETATM   11  C   UNL     1     -21.593  -9.570  -1.410  1.00  0.00     0.082 A 
HETATM   12  C   UNL     1     -22.360 -10.083  -0.350  1.00  0.00     0.074 A 
HETATM   13  C   UNL     1     -23.228 -11.150  -0.580  1.00  0.00     0.071 A 
HETATM   14  C   UNL     1     -23.333 -11.683  -1.865  1.00  0.00     0.038 A 
HETATM   15  C   UNL     1     -22.581 -11.154  -2.917  1.00  0.00     0.021 A 
BRANCH  11  16
HETATM   16  O   UNL     1     -20.738  -8.525  -1.161  1.00  0.00    -0.360 OA
HETATM   17  H   UNL     1     -21.138  -7.920  -0.513  1.00  0.00     0.217 HD
ENDBRANCH  11  16
BRANCH  13  18
HETATM   18  O   UNL     1     -23.958 -11.804   0.373  1.00  0.00    -0.351 OA
BRANCH  18  19
HETATM   19  C   UNL     1     -23.330 -12.897   1.042  1.00  0.00     0.180 C 
BRANCH  19  20
HETATM   20  C   UNL     1     -23.242 -14.062   0.040  1.00  0.00     0.009 C 
BRANCH  20  21
HETATM   21  C   UNL     1     -21.791 -14.585  -0.041  1.00  0.00     0.007 C 
BRANCH  21  22
HETATM   22  C   UNL     1     -20.781 -13.632   0.603  1.00  0.00     0.000 C 
BRANCH  22  23
HETATM   23  C   UNL     1     -19.900 -12.918  -0.418  1.00  0.00    -0.005 C 
HETATM   24  C   UNL     1     -19.146 -11.776   0.248  1.00  0.00     0.005 C 
ENDBRANCH  22  23
ENDBRANCH  21  22
ENDBRANCH  20  21
BRANCH  20  25
HETATM   25  C   UNL     1     -24.303 -15.155   0.318  1.00  0.00     0.002 C 
HETATM   26  C   UNL     1     -25.186 -15.518  -0.867  1.00  0.00     0.005 C 
ENDBRANCH  20  25
ENDBRANCH  19  20
ENDBRANCH  18  19
ENDBRANCH  13  18
ENDBRANCH   1  10
BRANCH   4  27
HETATM   27  C   UNL     1     -17.870 -10.511  -5.584  1.00  0.00     0.041 A 
HETATM   28  C   UNL     1     -17.851 -11.901  -5.810  1.00  0.00     0.082 A 
HETATM   29  C   UNL     1     -16.692 -12.565  -6.209  1.00  0.00     0.074 A 
HETATM   30  C   UNL     1     -15.507 -11.856  -6.374  1.00  0.00     0.071 A 
HETATM   31  C   UNL     1     -15.478 -10.490  -6.118  1.00  0.00     0.038 A 
HETATM   32  C   UNL     1     -16.646  -9.825  -5.738  1.00  0.00     0.021 A 
BRANCH  28  33
HETATM   33  O   UNL     1     -18.948 -12.711  -5.647  1.00  0.00    -0.360 OA
HETATM   34  H   UNL     1     -18.985 -12.986  -4.704  1.00  0.00     0.217 HD
ENDBRANCH  28  33
BRANCH  30  35
HETATM   35  O   UNL     1     -14.314 -12.415  -6.733  1.00  0.00    -0.351 OA
BRANCH  35  36
HETATM   36  C   UNL     1     -13.383 -12.542  -5.657  1.00  0.00     0.180 C 
BRANCH  36  37
HETATM   37  C   UNL     1     -13.955 -13.510  -4.609  1.00  0.00     0.009 C 
BRANCH  37  38
HETATM   38  C   UNL     1     -13.281 -14.902  -4.690  1.00  0.00     0.002 C 
HETATM   39  C   UNL     1     -12.643 -15.392  -3.395  1.00  0.00     0.005 C 
ENDBRANCH  37  38
BRANCH  37  40
HETATM   40  C   UNL     1     -13.875 -12.911  -3.190  1.00  0.00     0.007 C 
BRANCH  40  41
HETATM   41  C   UNL     1     -15.249 -12.530  -2.628  1.00  0.00     0.000 C 
BRANCH  41  42
HETATM   42  C   UNL     1     -15.410 -11.021  -2.470  1.00  0.00    -0.005 C 
HETATM   43  C   UNL     1     -16.857 -10.674  -2.149  1.00  0.00     0.005 C 
ENDBRANCH  41  42
ENDBRANCH  40  41
ENDBRANCH  37  40
ENDBRANCH  36  37
ENDBRANCH  35  36
ENDBRANCH  30  35
ENDBRANCH   4  27
BRANCH   7  44
HETATM   44  C   UNL     1     -20.852  -6.787  -6.100  1.00  0.00     0.008 A 
HETATM   45  C   UNL     1     -19.955  -6.146  -6.975  1.00  0.00     0.018 A 
HETATM   46  C   UNL     1     -20.293  -4.955  -7.627  1.00  0.00     0.037 A 
HETATM   47  C   UNL     1     -21.541  -4.375  -7.417  1.00  0.00     0.068 A 
HETATM   48  C   UNL     1     -22.442  -4.994  -6.551  1.00  0.00     0.037 A 
HETATM   49  C   UNL     1     -22.105  -6.181  -5.901  1.00  0.00     0.018 A 
BRANCH  47  50
HETATM   50  O   UNL     1     -21.995  -3.223  -7.994  1.00  0.00    -0.356 OA
HETATM   51  C   UNL     1     -22.818  -3.376  -9.144  1.00  0.00     0.210 C 
ENDBRANCH  47  50
ENDBRANCH   7  44
TORSDOF 20
BEGIN_RES ARG D 557
REMARK  4 active torsions:
REMARK  status: ('A' for Active; 'I' for Inactive)
REMARK    1  A    between atoms: CA   and  CB  
REMARK    2  A    between atoms: CB   and  CG  
REMARK    3  A    between atoms: CG   and  CD  
REMARK    4  A    between atoms: CD   and  NE  
REMARK       I    between atoms: NE   and  CZ  
REMARK       I    between atoms: CZ   and  NH1 
REMARK       I    between atoms: CZ   and  NH2 
ROOT
ATOM      1  CA  ARG D 557     -26.217   2.705 -17.014  1.00 35.49     0.159 C 
ENDROOT
BRANCH   1   2
ATOM      2  CB  ARG D 557     -26.789   1.319 -17.183  1.00 35.49     0.034 C 
BRANCH   2   3
ATOM      3  CG  ARG D 557     -28.231   1.227 -17.444  1.00 35.49     0.027 C 
BRANCH   3   4
ATOM      4  CD  ARG D 557     -28.916   0.309 -16.505  1.00 35.49     0.116 C 
BRANCH   4   5
ATOM      5  NE  ARG D 557     -29.280  -0.935 -17.131  1.00 35.49    -0.212 N 
ATOM      6  CZ  ARG D 557     -28.629  -2.071 -17.020  1.00 35.49     0.666 C 
ATOM      7  NH1 ARG D 557     -27.524  -2.187 -16.306  1.00 35.49    -0.235 N 
ATOM      8  NH2 ARG D 557     -29.116  -3.105 -17.641  1.00 35.49    -0.235 N 
ATOM      9  HH  ARG D 557     -27.187  -1.520 -15.887  1.00 35.49     0.174 HD
ATOM     10  HH  ARG D 557     -27.144  -2.954 -16.267  1.00 35.49     0.174 HD
ATOM     11  HH  ARG D 557     -29.834  -3.002 -18.088  1.00 35.49     0.174 HD
ATOM     12  HH  ARG D 557     -28.725  -3.856 -17.589  1.00 35.49     0.174 HD
ATOM     13  HE  ARG D 557     -29.939  -0.933 -17.669  1.00 35.49     0.178 HD
ENDBRANCH   4   5
ENDBRANCH   3   4
ENDBRANCH   2   3
ENDBRANCH   1   2
END_RES ARG D 557
BEGIN_RES GLU D 570
REMARK  3 active torsions:
REMARK  status: ('A' for Active; 'I' for Inactive)
REMARK    5  A    between atoms: CA   and  CB  
REMARK    6  A    between atoms: CB   and  CG  
REMARK    7  A    between atoms: CG   and  CD  
ROOT
ATOM     14  CA  GLU D 570     -18.033  -6.348 -13.375  1.00 32.92     0.160 C 
ENDROOT
BRANCH  14  15
ATOM     15  CB  GLU D 570     -19.500  -6.345 -13.794  1.00 32.92     0.043 C 
BRANCH  15  16
ATOM     16  CG  GLU D 570     -19.796  -6.275 -15.248  1.00 32.92     0.100 C 
BRANCH  16  17
ATOM     17  CD  GLU D 570     -20.837  -7.278 -15.687  1.00 32.92     0.185 C 
ATOM     18  OE1 GLU D 570     -21.929  -6.867 -16.124  1.00 32.92    -0.647 OA
ATOM     19  OE2 GLU D 570     -20.564  -8.490 -15.576  1.00 32.92    -0.647 OA
ENDBRANCH  16  17
ENDBRANCH  15  16
ENDBRANCH  14  15
END_RES GLU D 570
ENDMDL
MODEL 9
REMARK VINA RESULT:      -7.3      1.953      2.708
REMARK  20 active torsions:
REMARK  status: ('A' for Active; 'I' for Inactive)
REMARK    1  A    between atoms: C_2  and  C_3 
REMARK    2  A    between atoms: C_3  and  C_4 
REMARK    3  A    between atoms: C_4  and  C_5 
REMARK    4  A    between atoms: C_5  and  C_6 
REMARK    5  A    between atoms: C_5  and  C_8 
REMARK    6  A    between atoms: C_8  and  O_9 
REMARK    7  A    between atoms: O_9  and  C_10 
REMARK    8  A    between atoms: C_12  and  O_49 
REMARK    9  A    between atoms: C_13  and  C_16 
REMARK   10  A    between atoms: C_19  and  C_33 
REMARK   11  A    between atoms: C_22  and  C_25 
REMARK   12  A    between atoms: C_28  and  O_31 
REMARK   13  A    between atoms: C_34  and  O_48 
REMARK   14  A    between atoms: C_36  and  O_39 
REMARK   15  A    between atoms: O_39  and  C_40 
REMARK   16  A    between atoms: C_40  and  C_41 
REMARK   17  A    between atoms: C_41  and  C_42 
REMARK   18  A    between atoms: C_41  and  C_44 
REMARK   19  A    between atoms: C_44  and  C_45 
REMARK   20  A    between atoms: C_45  and  C_46 
ROOT
HETATM    1  C   UNL     1     -18.912  -8.758  -5.066  1.00  0.00     0.121 A 
HETATM    2  N   UNL     1     -19.243  -7.936  -6.058  1.00  0.00    -0.327 N 
ATOM      3  HN  UNL     1     -18.767  -7.957  -6.960  1.00  0.00     0.169 HD
HETATM    4  C   UNL     1     -20.232  -7.087  -5.801  1.00  0.00     0.121 A 
HETATM    5  N   UNL     1     -20.910  -7.047  -4.661  1.00  0.00    -0.327 N 
ATOM      6  HN  UNL     1     -21.667  -6.384  -4.499  1.00  0.00     0.169 HD
HETATM    7  C   UNL     1     -20.531  -7.934  -3.743  1.00  0.00     0.118 A 
HETATM    8  N   UNL     1     -19.541  -8.814  -3.895  1.00  0.00    -0.327 N 
ATOM      9  HN  UNL     1     -19.284  -9.481  -3.167  1.00  0.00     0.169 HD
ENDROOT
BRANCH   1  10
HETATM   10  C   UNL     1     -17.788  -9.683  -5.285  1.00  0.00     0.041 A 
HETATM   11  C   UNL     1     -16.740  -9.855  -4.357  1.00  0.00     0.082 A 
HETATM   12  C   UNL     1     -15.667 -10.730  -4.598  1.00  0.00     0.074 A 
HETATM   13  C   UNL     1     -15.618 -11.448  -5.793  1.00  0.00     0.071 A 
HETATM   14  C   UNL     1     -16.643 -11.296  -6.726  1.00  0.00     0.038 A 
HETATM   15  C   UNL     1     -17.716 -10.437  -6.470  1.00  0.00     0.021 A 
BRANCH  11  16
HETATM   16  O   UNL     1     -16.766  -9.152  -3.177  1.00  0.00    -0.360 OA
HETATM   17  H   UNL     1     -17.218  -8.301  -3.312  1.00  0.00     0.217 HD
ENDBRANCH  11  16
BRANCH  13  18
HETATM   18  O   UNL     1     -14.592 -12.257  -6.195  1.00  0.00    -0.351 OA
BRANCH  18  19
HETATM   19  C   UNL     1     -13.709 -12.743  -5.186  1.00  0.00     0.180 C 
BRANCH  19  20
HETATM   20  C   UNL     1     -14.083 -14.211  -4.912  1.00  0.00     0.009 C 
BRANCH  20  21
HETATM   21  C   UNL     1     -14.086 -15.014  -6.231  1.00  0.00     0.007 C 
BRANCH  21  22
HETATM   22  C   UNL     1     -15.341 -15.873  -6.399  1.00  0.00     0.000 C 
BRANCH  22  23
HETATM   23  C   UNL     1     -16.633 -15.063  -6.321  1.00  0.00    -0.005 C 
HETATM   24  C   UNL     1     -17.471 -15.291  -7.572  1.00  0.00     0.005 C 
ENDBRANCH  22  23
ENDBRANCH  21  22
ENDBRANCH  20  21
BRANCH  20  25
HETATM   25  C   UNL     1     -13.225 -14.833  -3.783  1.00  0.00     0.002 C 
HETATM   26  C   UNL     1     -12.826 -13.877  -2.669  1.00  0.00     0.005 C 
ENDBRANCH  20  25
ENDBRANCH  19  20
ENDBRANCH  18  19
ENDBRANCH  13  18
ENDBRANCH   1  10
BRANCH   4  27
HETATM   27  C   UNL     1     -20.576  -6.123  -6.858  1.00  0.00     0.041 A 
HETATM   28  C   UNL     1     -21.772  -5.381  -6.857  1.00  0.00     0.082 A 
HETATM   29  C   UNL     1     -22.059  -4.449  -7.853  1.00  0.00     0.074 A 
HETATM   30  C   UNL     1     -21.160  -4.247  -8.895  1.00  0.00     0.071 A 
HETATM   31  C   UNL     1     -19.989  -4.993  -8.951  1.00  0.00     0.038 A 
HETATM   32  C   UNL     1     -19.696  -5.912  -7.941  1.00  0.00     0.021 A 
BRANCH  28  33
HETATM   33  O   UNL     1     -22.749  -5.517  -5.902  1.00  0.00    -0.360 OA
HETATM   34  H   UNL     1     -23.500  -4.932  -6.150  1.00  0.00     0.217 HD
ENDBRANCH  28  33
BRANCH  30  35
HETATM   35  O   UNL     1     -21.359  -3.380  -9.932  1.00  0.00    -0.351 OA
BRANCH  35  36
HETATM   36  C   UNL     1     -22.673  -3.431 -10.489  1.00  0.00     0.180 C 
BRANCH  36  37
HETATM   37  C   UNL     1     -22.576  -3.309 -12.019  1.00  0.00     0.009 C 
BRANCH  37  38
HETATM   38  C   UNL     1     -22.206  -4.662 -12.675  1.00  0.00     0.002 C 
HETATM   39  C   UNL     1     -23.374  -5.431 -13.281  1.00  0.00     0.005 C 
ENDBRANCH  37  38
BRANCH  37  40
HETATM   40  C   UNL     1     -23.863  -2.709 -12.616  1.00  0.00     0.007 C 
BRANCH  40  41
HETATM   41  C   UNL     1     -23.624  -2.005 -13.957  1.00  0.00     0.000 C 
BRANCH  41  42
HETATM   42  C   UNL     1     -24.902  -1.878 -14.780  1.00  0.00    -0.005 C 
HETATM   43  C   UNL     1     -25.976  -2.810 -14.237  1.00  0.00     0.005 C 
ENDBRANCH  41  42
ENDBRANCH  40  41
ENDBRANCH  37  40
ENDBRANCH  36  37
ENDBRANCH  35  36
ENDBRANCH  30  35
ENDBRANCH   4  27
BRANCH   7  44
HETATM   44  C   UNL     1     -21.255  -7.929  -2.463  1.00  0.00     0.008 A 
HETATM   45  C   UNL     1     -21.870  -6.758  -1.983  1.00  0.00     0.018 A 
HETATM   46  C   UNL     1     -22.561  -6.739  -0.767  1.00  0.00     0.037 A 
HETATM   47  C   UNL     1     -22.652  -7.897   0.001  1.00  0.00     0.068 A 
HETATM   48  C   UNL     1     -22.045  -9.067  -0.456  1.00  0.00     0.037 A 
HETATM   49  C   UNL     1     -21.357  -9.084  -1.669  1.00  0.00     0.018 A 
BRANCH  47  50
HETATM   50  O   UNL     1     -23.298  -8.014   1.199  1.00  0.00    -0.356 OA
HETATM   51  C   UNL     1     -22.498  -7.861   2.364  1.00  0.00     0.210 C 
ENDBRANCH  47  50
ENDBRANCH   7  44
TORSDOF 20
BEGIN_RES ARG D 557
REMARK  4 active torsions:
REMARK  status: ('A' for Active; 'I' for Inactive)
REMARK    1  A    between atoms: CA   and  CB  
REMARK    2  A    between atoms: CB   and  CG  
REMARK    3  A    between atoms: CG   and  CD  
REMARK    4  A    between atoms: CD   and  NE  
REMARK       I    between atoms: NE   and  CZ  
REMARK       I    between atoms: CZ   and  NH1 
REMARK       I    between atoms: CZ   and  NH2 
ROOT
ATOM      1  CA  ARG D 557     -26.217   2.705 -17.014  1.00 35.49     0.159 C 
ENDROOT
BRANCH   1   2
ATOM      2  CB  ARG D 557     -26.789   1.319 -17.183  1.00 35.49     0.034 C 
BRANCH   2   3
ATOM      3  CG  ARG D 557     -28.206   1.230 -17.557  1.00 35.49     0.027 C 
BRANCH   3   4
ATOM      4  CD  ARG D 557     -28.941   0.231 -16.749  1.00 35.49     0.116 C 
BRANCH   4   5
ATOM      5  NE  ARG D 557     -28.256  -1.034 -16.695  1.00 35.49    -0.212 N 
ATOM      6  CZ  ARG D 557     -28.772  -2.201 -17.008  1.00 35.49     0.666 C 
ATOM      7  NH1 ARG D 557     -30.024  -2.339 -17.406  1.00 35.49    -0.235 N 
ATOM      8  NH2 ARG D 557     -27.997  -3.243 -16.921  1.00 35.49    -0.235 N 
ATOM      9  HH  ARG D 557     -30.551  -1.667 -17.472  1.00 35.49     0.174 HD
ATOM     10  HH  ARG D 557     -30.305  -3.125 -17.599  1.00 35.49     0.174 HD
ATOM     11  HH  ARG D 557     -27.192  -3.122 -16.668  1.00 35.49     0.174 HD
ATOM     12  HH  ARG D 557     -28.294  -4.012 -17.118  1.00 35.49     0.174 HD
ATOM     13  HE  ARG D 557     -27.466  -1.047 -16.380  1.00 35.49     0.178 HD
ENDBRANCH   4   5
ENDBRANCH   3   4
ENDBRANCH   2   3
ENDBRANCH   1   2
END_RES ARG D 557
BEGIN_RES GLU D 570
REMARK  3 active torsions:
REMARK  status: ('A' for Active; 'I' for Inactive)
REMARK    5  A    between atoms: CA   and  CB  
REMARK    6  A    between atoms: CB   and  CG  
REMARK    7  A    between atoms: CG   and  CD  
ROOT
ATOM     14  CA  GLU D 570     -18.033  -6.348 -13.375  1.00 32.92     0.160 C 
ENDROOT
BRANCH  14  15
ATOM     15  CB  GLU D 570     -19.500  -6.345 -13.794  1.00 32.92     0.043 C 
BRANCH  15  16
ATOM     16  CG  GLU D 570     -20.094  -7.640 -14.215  1.00 32.92     0.100 C 
BRANCH  16  17
ATOM     17  CD  GLU D 570     -20.802  -7.558 -15.548  1.00 32.92     0.185 C 
ATOM     18  OE1 GLU D 570     -21.109  -6.440 -16.002  1.00 32.92    -0.647 OA
ATOM     19  OE2 GLU D 570     -21.067  -8.625 -16.135  1.00 32.92    -0.647 OA
ENDBRANCH  16  17
ENDBRANCH  15  16
ENDBRANCH  14  15
END_RES GLU D 570
ENDMDL
