MODEL 1
REMARK VINA RESULT:      -6.1      0.000      0.000
REMARK  1 active torsions:
REMARK  status: ('A' for Active; 'I' for Inactive)
REMARK    1  A    between atoms: C_5  and  C_8 
ROOT
HETATM    1  C   UNL     1     -24.582  -3.524 -10.394  1.00  0.00     0.043 C 
HETATM    2  C   UNL     1     -23.399  -3.789  -9.509  1.00  0.00    -0.087 C 
HETATM    3  C   UNL     1     -23.531  -4.121  -8.214  1.00  0.00    -0.024 C 
HETATM    4  C   UNL     1     -22.372  -4.377  -7.291  1.00  0.00     0.036 C 
HETATM    5  C   UNL     1     -20.999  -3.941  -7.854  1.00  0.00     0.017 C 
HETATM    6  C   UNL     1     -20.916  -4.303  -9.348  1.00  0.00     0.013 C 
HETATM    7  C   UNL     1     -22.048  -3.670 -10.163  1.00  0.00     0.034 C 
ENDROOT
BRANCH   5   8
HETATM    8  C   UNL     1     -19.850  -4.486  -6.999  1.00  0.00    -0.089 C 
HETATM    9  C   UNL     1     -18.553  -4.469  -7.357  1.00  0.00     0.014 C 
HETATM   10  C   UNL     1     -20.213  -5.056  -5.652  1.00  0.00     0.043 C 
ENDBRANCH   5   8
TORSDOF 1
BEGIN_RES ARG D 557
REMARK  4 active torsions:
REMARK  status: ('A' for Active; 'I' for Inactive)
REMARK    1  A    between atoms: CA   and  CB  
REMARK    2  A    between atoms: CB   and  CG  
REMARK    3  A    between atoms: CG   and  CD  
REMARK    4  A    between atoms: CD   and  NE  
REMARK       I    between atoms: NE   and  CZ  
REMARK       I    between atoms: CZ   and  NH1 
REMARK       I    between atoms: CZ   and  NH2 
ROOT
ATOM      1  CA  ARG D 557     -26.217   2.705 -17.014  1.00 35.49     0.159 C 
ENDROOT
BRANCH   1   2
ATOM      2  CB  ARG D 557     -26.789   1.319 -17.183  1.00 35.49     0.034 C 
BRANCH   2   3
ATOM      3  CG  ARG D 557     -25.834   0.204 -17.169  1.00 35.49     0.027 C 
BRANCH   3   4
ATOM      4  CD  ARG D 557     -24.726   0.421 -16.211  1.00 35.49     0.116 C 
BRANCH   4   5
ATOM      5  NE  ARG D 557     -24.851  -0.407 -15.041  1.00 35.49    -0.212 N 
ATOM      6  CZ  ARG D 557     -24.033  -1.377 -14.696  1.00 35.49     0.666 C 
ATOM      7  NH1 ARG D 557     -22.982  -1.710 -15.422  1.00 35.49    -0.235 N 
ATOM      8  NH2 ARG D 557     -24.288  -2.011 -13.589  1.00 35.49    -0.235 N 
ATOM      9  HH  ARG D 557     -22.795  -1.305 -16.153  1.00 35.49     0.174 HD
ATOM     10  HH  ARG D 557     -22.483  -2.349 -15.146  1.00 35.49     0.174 HD
ATOM     11  HH  ARG D 557     -24.969  -1.769 -13.136  1.00 35.49     0.174 HD
ATOM     12  HH  ARG D 557     -23.781  -2.640 -13.331  1.00 35.49     0.174 HD
ATOM     13  HE  ARG D 557     -25.541  -0.309 -14.554  1.00 35.49     0.178 HD
ENDBRANCH   4   5
ENDBRANCH   3   4
ENDBRANCH   2   3
ENDBRANCH   1   2
END_RES ARG D 557
BEGIN_RES GLU D 570
REMARK  3 active torsions:
REMARK  status: ('A' for Active; 'I' for Inactive)
REMARK    5  A    between atoms: CA   and  CB  
REMARK    6  A    between atoms: CB   and  CG  
REMARK    7  A    between atoms: CG   and  CD  
ROOT
ATOM     14  CA  GLU D 570     -18.033  -6.348 -13.375  1.00 32.92     0.160 C 
ENDROOT
BRANCH  14  15
ATOM     15  CB  GLU D 570     -19.500  -6.345 -13.794  1.00 32.92     0.043 C 
BRANCH  15  16
ATOM     16  CG  GLU D 570     -20.436  -5.506 -13.002  1.00 32.92     0.100 C 
BRANCH  16  17
ATOM     17  CD  GLU D 570     -21.747  -5.256 -13.711  1.00 32.92     0.185 C 
ATOM     18  OE1 GLU D 570     -22.301  -4.147 -13.584  1.00 32.92    -0.647 OA
ATOM     19  OE2 GLU D 570     -22.233  -6.184 -14.387  1.00 32.92    -0.647 OA
ENDBRANCH  16  17
ENDBRANCH  15  16
ENDBRANCH  14  15
END_RES GLU D 570
ENDMDL
MODEL 2
REMARK VINA RESULT:      -6.0      1.159      3.089
REMARK  1 active torsions:
REMARK  status: ('A' for Active; 'I' for Inactive)
REMARK    1  A    between atoms: C_5  and  C_8 
ROOT
HETATM    1  C   UNL     1     -20.200  -4.718  -5.441  1.00  0.00     0.043 C 
HETATM    2  C   UNL     1     -20.721  -4.522  -6.836  1.00  0.00    -0.087 C 
HETATM    3  C   UNL     1     -22.001  -4.200  -7.084  1.00  0.00    -0.024 C 
HETATM    4  C   UNL     1     -22.566  -4.014  -8.466  1.00  0.00     0.036 C 
HETATM    5  C   UNL     1     -21.645  -4.510  -9.605  1.00  0.00     0.017 C 
HETATM    6  C   UNL     1     -20.186  -4.134  -9.288  1.00  0.00     0.013 C 
HETATM    7  C   UNL     1     -19.718  -4.700  -7.945  1.00  0.00     0.034 C 
ENDROOT
BRANCH   5   8
HETATM    8  C   UNL     1     -22.146  -4.034 -10.972  1.00  0.00    -0.089 C 
HETATM    9  C   UNL     1     -21.605  -3.026 -11.680  1.00  0.00     0.014 C 
HETATM   10  C   UNL     1     -23.317  -4.777 -11.565  1.00  0.00     0.043 C 
ENDBRANCH   5   8
TORSDOF 1
BEGIN_RES ARG D 557
REMARK  4 active torsions:
REMARK  status: ('A' for Active; 'I' for Inactive)
REMARK    1  A    between atoms: CA   and  CB  
REMARK    2  A    between atoms: CB   and  CG  
REMARK    3  A    between atoms: CG   and  CD  
REMARK    4  A    between atoms: CD   and  NE  
REMARK       I    between atoms: NE   and  CZ  
REMARK       I    between atoms: CZ   and  NH1 
REMARK       I    between atoms: CZ   and  NH2 
ROOT
ATOM      1  CA  ARG D 557     -26.217   2.705 -17.014  1.00 35.49     0.159 C 
ENDROOT
BRANCH   1   2
ATOM      2  CB  ARG D 557     -26.789   1.319 -17.183  1.00 35.49     0.034 C 
BRANCH   2   3
ATOM      3  CG  ARG D 557     -25.834   0.204 -17.174  1.00 35.49     0.027 C 
BRANCH   3   4
ATOM      4  CD  ARG D 557     -24.749   0.399 -16.185  1.00 35.49     0.116 C 
BRANCH   4   5
ATOM      5  NE  ARG D 557     -24.908  -0.448 -15.032  1.00 35.49    -0.212 N 
ATOM      6  CZ  ARG D 557     -24.098  -1.419 -14.675  1.00 35.49     0.666 C 
ATOM      7  NH1 ARG D 557     -23.022  -1.738 -15.371  1.00 35.49    -0.235 N 
ATOM      8  NH2 ARG D 557     -24.386  -2.072 -13.587  1.00 35.49    -0.235 N 
ATOM      9  HH  ARG D 557     -22.812  -1.320 -16.090  1.00 35.49     0.174 HD
ATOM     10  HH  ARG D 557     -22.529  -2.379 -15.088  1.00 35.49     0.174 HD
ATOM     11  HH  ARG D 557     -25.083  -1.839 -13.153  1.00 35.49     0.174 HD
ATOM     12  HH  ARG D 557     -23.884  -2.702 -13.322  1.00 35.49     0.174 HD
ATOM     13  HE  ARG D 557     -25.614  -0.361 -14.567  1.00 35.49     0.178 HD
ENDBRANCH   4   5
ENDBRANCH   3   4
ENDBRANCH   2   3
ENDBRANCH   1   2
END_RES ARG D 557
BEGIN_RES GLU D 570
REMARK  3 active torsions:
REMARK  status: ('A' for Active; 'I' for Inactive)
REMARK    5  A    between atoms: CA   and  CB  
REMARK    6  A    between atoms: CB   and  CG  
REMARK    7  A    between atoms: CG   and  CD  
ROOT
ATOM     14  CA  GLU D 570     -18.033  -6.348 -13.375  1.00 32.92     0.160 C 
ENDROOT
BRANCH  14  15
ATOM     15  CB  GLU D 570     -19.500  -6.345 -13.794  1.00 32.92     0.043 C 
BRANCH  15  16
ATOM     16  CG  GLU D 570     -19.831  -5.773 -15.125  1.00 32.92     0.100 C 
BRANCH  16  17
ATOM     17  CD  GLU D 570     -21.303  -5.476 -15.290  1.00 32.92     0.185 C 
ATOM     18  OE1 GLU D 570     -21.648  -4.461 -15.924  1.00 32.92    -0.647 OA
ATOM     19  OE2 GLU D 570     -22.119  -6.259 -14.764  1.00 32.92    -0.647 OA
ENDBRANCH  16  17
ENDBRANCH  15  16
ENDBRANCH  14  15
END_RES GLU D 570
ENDMDL
MODEL 3
REMARK VINA RESULT:      -5.9      3.833      5.527
REMARK  1 active torsions:
REMARK  status: ('A' for Active; 'I' for Inactive)
REMARK    1  A    between atoms: C_5  and  C_8 
ROOT
HETATM    1  C   UNL     1     -20.944  -6.721  -5.238  1.00  0.00     0.043 C 
HETATM    2  C   UNL     1     -21.198  -7.077  -3.801  1.00  0.00    -0.087 C 
HETATM    3  C   UNL     1     -21.855  -6.256  -2.965  1.00  0.00    -0.024 C 
HETATM    4  C   UNL     1     -22.113  -6.568  -1.516  1.00  0.00     0.036 C 
HETATM    5  C   UNL     1     -21.310  -7.770  -0.968  1.00  0.00     0.017 C 
HETATM    6  C   UNL     1     -21.274  -8.890  -2.024  1.00  0.00     0.013 C 
HETATM    7  C   UNL     1     -20.678  -8.416  -3.353  1.00  0.00     0.034 C 
ENDROOT
BRANCH   5   8
HETATM    8  C   UNL     1     -21.828  -8.204   0.407  1.00  0.00    -0.089 C 
HETATM    9  C   UNL     1     -21.058  -8.681   1.402  1.00  0.00     0.014 C 
HETATM   10  C   UNL     1     -23.308  -8.057   0.655  1.00  0.00     0.043 C 
ENDBRANCH   5   8
TORSDOF 1
BEGIN_RES ARG D 557
REMARK  4 active torsions:
REMARK  status: ('A' for Active; 'I' for Inactive)
REMARK    1  A    between atoms: CA   and  CB  
REMARK    2  A    between atoms: CB   and  CG  
REMARK    3  A    between atoms: CG   and  CD  
REMARK    4  A    between atoms: CD   and  NE  
REMARK       I    between atoms: NE   and  CZ  
REMARK       I    between atoms: CZ   and  NH1 
REMARK       I    between atoms: CZ   and  NH2 
ROOT
ATOM      1  CA  ARG D 557     -26.217   2.705 -17.014  1.00 35.49     0.159 C 
ENDROOT
BRANCH   1   2
ATOM      2  CB  ARG D 557     -26.789   1.319 -17.183  1.00 35.49     0.034 C 
BRANCH   2   3
ATOM      3  CG  ARG D 557     -25.838   0.202 -17.141  1.00 35.49     0.027 C 
BRANCH   3   4
ATOM      4  CD  ARG D 557     -24.759   0.417 -16.149  1.00 35.49     0.116 C 
BRANCH   4   5
ATOM      5  NE  ARG D 557     -24.898  -0.441 -15.002  1.00 35.49    -0.212 N 
ATOM      6  CZ  ARG D 557     -24.082  -1.415 -14.667  1.00 35.49     0.666 C 
ATOM      7  NH1 ARG D 557     -23.018  -1.727 -15.385  1.00 35.49    -0.235 N 
ATOM      8  NH2 ARG D 557     -24.351  -2.077 -13.580  1.00 35.49    -0.235 N 
ATOM      9  HH  ARG D 557     -22.821  -1.303 -16.103  1.00 35.49     0.174 HD
ATOM     10  HH  ARG D 557     -22.521  -2.370 -15.116  1.00 35.49     0.174 HD
ATOM     11  HH  ARG D 557     -25.041  -1.849 -13.133  1.00 35.49     0.174 HD
ATOM     12  HH  ARG D 557     -23.846  -2.710 -13.330  1.00 35.49     0.174 HD
ATOM     13  HE  ARG D 557     -25.596  -0.357 -14.523  1.00 35.49     0.178 HD
ENDBRANCH   4   5
ENDBRANCH   3   4
ENDBRANCH   2   3
ENDBRANCH   1   2
END_RES ARG D 557
BEGIN_RES GLU D 570
REMARK  3 active torsions:
REMARK  status: ('A' for Active; 'I' for Inactive)
REMARK    5  A    between atoms: CA   and  CB  
REMARK    6  A    between atoms: CB   and  CG  
REMARK    7  A    between atoms: CG   and  CD  
ROOT
ATOM     14  CA  GLU D 570     -18.033  -6.348 -13.375  1.00 32.92     0.160 C 
ENDROOT
BRANCH  14  15
ATOM     15  CB  GLU D 570     -19.500  -6.345 -13.794  1.00 32.92     0.043 C 
BRANCH  15  16
ATOM     16  CG  GLU D 570     -20.461  -5.630 -12.915  1.00 32.92     0.100 C 
BRANCH  16  17
ATOM     17  CD  GLU D 570     -21.728  -5.227 -13.633  1.00 32.92     0.185 C 
ATOM     18  OE1 GLU D 570     -22.142  -4.057 -13.519  1.00 32.92    -0.647 OA
ATOM     19  OE2 GLU D 570     -22.322  -6.095 -14.303  1.00 32.92    -0.647 OA
ENDBRANCH  16  17
ENDBRANCH  15  16
ENDBRANCH  14  15
END_RES GLU D 570
ENDMDL
MODEL 4
REMARK VINA RESULT:      -5.9      2.164      3.791
REMARK  1 active torsions:
REMARK  status: ('A' for Active; 'I' for Inactive)
REMARK    1  A    between atoms: C_5  and  C_8 
ROOT
HETATM    1  C   UNL     1     -20.107  -4.714  -5.651  1.00  0.00     0.043 C 
HETATM    2  C   UNL     1     -20.705  -4.496  -7.011  1.00  0.00    -0.087 C 
HETATM    3  C   UNL     1     -21.993  -4.154  -7.181  1.00  0.00    -0.024 C 
HETATM    4  C   UNL     1     -22.634  -3.945  -8.526  1.00  0.00     0.036 C 
HETATM    5  C   UNL     1     -21.788  -4.441  -9.721  1.00  0.00     0.017 C 
HETATM    6  C   UNL     1     -20.308  -4.088  -9.486  1.00  0.00     0.013 C 
HETATM    7  C   UNL     1     -19.771  -4.675  -8.178  1.00  0.00     0.034 C 
ENDROOT
BRANCH   5   8
HETATM    8  C   UNL     1     -22.361  -3.944 -11.052  1.00  0.00    -0.089 C 
HETATM    9  C   UNL     1     -21.885  -2.896 -11.749  1.00  0.00     0.014 C 
HETATM   10  C   UNL     1     -23.528  -4.711 -11.621  1.00  0.00     0.043 C 
ENDBRANCH   5   8
TORSDOF 1
BEGIN_RES ARG D 557
REMARK  4 active torsions:
REMARK  status: ('A' for Active; 'I' for Inactive)
REMARK    1  A    between atoms: CA   and  CB  
REMARK    2  A    between atoms: CB   and  CG  
REMARK    3  A    between atoms: CG   and  CD  
REMARK    4  A    between atoms: CD   and  NE  
REMARK       I    between atoms: NE   and  CZ  
REMARK       I    between atoms: CZ   and  NH1 
REMARK       I    between atoms: CZ   and  NH2 
ROOT
ATOM      1  CA  ARG D 557     -26.217   2.705 -17.014  1.00 35.49     0.159 C 
ENDROOT
BRANCH   1   2
ATOM      2  CB  ARG D 557     -26.789   1.319 -17.183  1.00 35.49     0.034 C 
BRANCH   2   3
ATOM      3  CG  ARG D 557     -28.233   1.169 -16.965  1.00 35.49     0.027 C 
BRANCH   3   4
ATOM      4  CD  ARG D 557     -28.618  -0.233 -16.682  1.00 35.49     0.116 C 
BRANCH   4   5
ATOM      5  NE  ARG D 557     -27.591  -0.944 -15.968  1.00 35.49    -0.212 N 
ATOM      6  CZ  ARG D 557     -27.367  -2.237 -16.031  1.00 35.49     0.666 C 
ATOM      7  NH1 ARG D 557     -28.097  -3.048 -16.774  1.00 35.49    -0.235 N 
ATOM      8  NH2 ARG D 557     -26.377  -2.710 -15.331  1.00 35.49    -0.235 N 
ATOM      9  HH  ARG D 557     -28.752  -2.759 -17.245  1.00 35.49     0.174 HD
ATOM     10  HH  ARG D 557     -27.902  -3.883 -16.778  1.00 35.49     0.174 HD
ATOM     11  HH  ARG D 557     -25.918  -2.161 -14.866  1.00 35.49     0.174 HD
ATOM     12  HH  ARG D 557     -26.199  -3.539 -15.349  1.00 35.49     0.174 HD
ATOM     13  HE  ARG D 557     -27.119  -0.510 -15.409  1.00 35.49     0.178 HD
ENDBRANCH   4   5
ENDBRANCH   3   4
ENDBRANCH   2   3
ENDBRANCH   1   2
END_RES ARG D 557
BEGIN_RES GLU D 570
REMARK  3 active torsions:
REMARK  status: ('A' for Active; 'I' for Inactive)
REMARK    5  A    between atoms: CA   and  CB  
REMARK    6  A    between atoms: CB   and  CG  
REMARK    7  A    between atoms: CG   and  CD  
ROOT
ATOM     14  CA  GLU D 570     -18.033  -6.348 -13.375  1.00 32.92     0.160 C 
ENDROOT
BRANCH  14  15
ATOM     15  CB  GLU D 570     -19.500  -6.345 -13.794  1.00 32.92     0.043 C 
BRANCH  15  16
ATOM     16  CG  GLU D 570     -19.796  -6.301 -15.249  1.00 32.92     0.100 C 
BRANCH  16  17
ATOM     17  CD  GLU D 570     -21.010  -5.464 -15.578  1.00 32.92     0.185 C 
ATOM     18  OE1 GLU D 570     -21.283  -5.236 -16.773  1.00 32.92    -0.647 OA
ATOM     19  OE2 GLU D 570     -21.686  -5.016 -14.631  1.00 32.92    -0.647 OA
ENDBRANCH  16  17
ENDBRANCH  15  16
ENDBRANCH  14  15
END_RES GLU D 570
ENDMDL
MODEL 5
REMARK VINA RESULT:      -5.8      2.338      4.449
REMARK  1 active torsions:
REMARK  status: ('A' for Active; 'I' for Inactive)
REMARK    1  A    between atoms: C_5  and  C_8 
ROOT
HETATM    1  C   UNL     1     -21.510  -3.821  -7.553  1.00  0.00     0.043 C 
HETATM    2  C   UNL     1     -21.840  -4.008  -9.006  1.00  0.00    -0.087 C 
HETATM    3  C   UNL     1     -20.892  -4.046  -9.957  1.00  0.00    -0.024 C 
HETATM    4  C   UNL     1     -21.182  -4.213 -11.423  1.00  0.00     0.036 C 
HETATM    5  C   UNL     1     -22.671  -4.039 -11.803  1.00  0.00     0.017 C 
HETATM    6  C   UNL     1     -23.556  -4.713 -10.739  1.00  0.00     0.013 C 
HETATM    7  C   UNL     1     -23.301  -4.159  -9.335  1.00  0.00     0.034 C 
ENDROOT
BRANCH   5   8
HETATM    8  C   UNL     1     -22.935  -4.501 -13.241  1.00  0.00    -0.089 C 
HETATM    9  C   UNL     1     -23.441  -5.699 -13.581  1.00  0.00     0.014 C 
HETATM   10  C   UNL     1     -22.622  -3.517 -14.340  1.00  0.00     0.043 C 
ENDBRANCH   5   8
TORSDOF 1
BEGIN_RES ARG D 557
REMARK  4 active torsions:
REMARK  status: ('A' for Active; 'I' for Inactive)
REMARK    1  A    between atoms: CA   and  CB  
REMARK    2  A    between atoms: CB   and  CG  
REMARK    3  A    between atoms: CG   and  CD  
REMARK    4  A    between atoms: CD   and  NE  
REMARK       I    between atoms: NE   and  CZ  
REMARK       I    between atoms: CZ   and  NH1 
REMARK       I    between atoms: CZ   and  NH2 
ROOT
ATOM      1  CA  ARG D 557     -26.217   2.705 -17.014  1.00 35.49     0.159 C 
ENDROOT
BRANCH   1   2
ATOM      2  CB  ARG D 557     -26.789   1.319 -17.183  1.00 35.49     0.034 C 
BRANCH   2   3
ATOM      3  CG  ARG D 557     -28.223   1.158 -16.912  1.00 35.49     0.027 C 
BRANCH   3   4
ATOM      4  CD  ARG D 557     -28.593  -0.251 -16.650  1.00 35.49     0.116 C 
BRANCH   4   5
ATOM      5  NE  ARG D 557     -27.562  -0.960 -15.939  1.00 35.49    -0.212 N 
ATOM      6  CZ  ARG D 557     -27.330  -2.252 -16.008  1.00 35.49     0.666 C 
ATOM      7  NH1 ARG D 557     -28.057  -3.064 -16.754  1.00 35.49    -0.235 N 
ATOM      8  NH2 ARG D 557     -26.338  -2.722 -15.310  1.00 35.49    -0.235 N 
ATOM      9  HH  ARG D 557     -28.713  -2.776 -17.223  1.00 35.49     0.174 HD
ATOM     10  HH  ARG D 557     -27.857  -3.897 -16.761  1.00 35.49     0.174 HD
ATOM     11  HH  ARG D 557     -25.881  -2.172 -14.843  1.00 35.49     0.174 HD
ATOM     12  HH  ARG D 557     -26.155  -3.549 -15.331  1.00 35.49     0.174 HD
ATOM     13  HE  ARG D 557     -27.092  -0.525 -15.379  1.00 35.49     0.178 HD
ENDBRANCH   4   5
ENDBRANCH   3   4
ENDBRANCH   2   3
ENDBRANCH   1   2
END_RES ARG D 557
BEGIN_RES GLU D 570
REMARK  3 active torsions:
REMARK  status: ('A' for Active; 'I' for Inactive)
REMARK    5  A    between atoms: CA   and  CB  
REMARK    6  A    between atoms: CB   and  CG  
REMARK    7  A    between atoms: CG   and  CD  
ROOT
ATOM     14  CA  GLU D 570     -18.033  -6.348 -13.375  1.00 32.92     0.160 C 
ENDROOT
BRANCH  14  15
ATOM     15  CB  GLU D 570     -19.500  -6.345 -13.794  1.00 32.92     0.043 C 
BRANCH  15  16
ATOM     16  CG  GLU D 570     -19.800  -6.148 -15.236  1.00 32.92     0.100 C 
BRANCH  16  17
ATOM     17  CD  GLU D 570     -20.751  -7.185 -15.787  1.00 32.92     0.185 C 
ATOM     18  OE1 GLU D 570     -21.702  -6.814 -16.502  1.00 32.92    -0.647 OA
ATOM     19  OE2 GLU D 570     -20.554  -8.378 -15.486  1.00 32.92    -0.647 OA
ENDBRANCH  16  17
ENDBRANCH  15  16
ENDBRANCH  14  15
END_RES GLU D 570
ENDMDL
MODEL 6
REMARK VINA RESULT:      -5.8      2.227      2.891
REMARK  1 active torsions:
REMARK  status: ('A' for Active; 'I' for Inactive)
REMARK    1  A    between atoms: C_5  and  C_8 
ROOT
HETATM    1  C   UNL     1     -23.146  -2.603 -12.503  1.00  0.00     0.043 C 
HETATM    2  C   UNL     1     -22.470  -3.228 -11.317  1.00  0.00    -0.087 C 
HETATM    3  C   UNL     1     -21.148  -3.466 -11.287  1.00  0.00    -0.024 C 
HETATM    4  C   UNL     1     -20.437  -4.107 -10.127  1.00  0.00     0.036 C 
HETATM    5  C   UNL     1     -21.376  -4.751  -9.080  1.00  0.00     0.017 C 
HETATM    6  C   UNL     1     -22.598  -3.843  -8.856  1.00  0.00     0.013 C 
HETATM    7  C   UNL     1     -23.363  -3.567 -10.153  1.00  0.00     0.034 C 
ENDROOT
BRANCH   5   8
HETATM    8  C   UNL     1     -20.612  -5.124  -7.805  1.00  0.00    -0.089 C 
HETATM    9  C   UNL     1     -21.048  -5.994  -6.876  1.00  0.00     0.014 C 
HETATM   10  C   UNL     1     -19.265  -4.478  -7.603  1.00  0.00     0.043 C 
ENDBRANCH   5   8
TORSDOF 1
BEGIN_RES ARG D 557
REMARK  4 active torsions:
REMARK  status: ('A' for Active; 'I' for Inactive)
REMARK    1  A    between atoms: CA   and  CB  
REMARK    2  A    between atoms: CB   and  CG  
REMARK    3  A    between atoms: CG   and  CD  
REMARK    4  A    between atoms: CD   and  NE  
REMARK       I    between atoms: NE   and  CZ  
REMARK       I    between atoms: CZ   and  NH1 
REMARK       I    between atoms: CZ   and  NH2 
ROOT
ATOM      1  CA  ARG D 557     -26.217   2.705 -17.014  1.00 35.49     0.159 C 
ENDROOT
BRANCH   1   2
ATOM      2  CB  ARG D 557     -26.789   1.319 -17.183  1.00 35.49     0.034 C 
BRANCH   2   3
ATOM      3  CG  ARG D 557     -28.219   1.154 -16.893  1.00 35.49     0.027 C 
BRANCH   3   4
ATOM      4  CD  ARG D 557     -28.600  -0.266 -16.723  1.00 35.49     0.116 C 
BRANCH   4   5
ATOM      5  NE  ARG D 557     -27.601  -1.014 -16.007  1.00 35.49    -0.212 N 
ATOM      6  CZ  ARG D 557     -27.414  -2.313 -16.079  1.00 35.49     0.666 C 
ATOM      7  NH1 ARG D 557     -28.163  -3.096 -16.834  1.00 35.49    -0.235 N 
ATOM      8  NH2 ARG D 557     -26.445  -2.821 -15.375  1.00 35.49    -0.235 N 
ATOM      9  HH  ARG D 557     -28.805  -2.783 -17.307  1.00 35.49     0.174 HD
ATOM     10  HH  ARG D 557     -27.993  -3.935 -16.843  1.00 35.49     0.174 HD
ATOM     11  HH  ARG D 557     -25.973  -2.290 -14.902  1.00 35.49     0.174 HD
ATOM     12  HH  ARG D 557     -26.292  -3.654 -15.399  1.00 35.49     0.174 HD
ATOM     13  HE  ARG D 557     -27.120  -0.599 -15.441  1.00 35.49     0.178 HD
ENDBRANCH   4   5
ENDBRANCH   3   4
ENDBRANCH   2   3
ENDBRANCH   1   2
END_RES ARG D 557
BEGIN_RES GLU D 570
REMARK  3 active torsions:
REMARK  status: ('A' for Active; 'I' for Inactive)
REMARK    5  A    between atoms: CA   and  CB  
REMARK    6  A    between atoms: CB   and  CG  
REMARK    7  A    between atoms: CG   and  CD  
ROOT
ATOM     14  CA  GLU D 570     -18.033  -6.348 -13.375  1.00 32.92     0.160 C 
ENDROOT
BRANCH  14  15
ATOM     15  CB  GLU D 570     -19.500  -6.345 -13.794  1.00 32.92     0.043 C 
BRANCH  15  16
ATOM     16  CG  GLU D 570     -19.803  -6.084 -15.225  1.00 32.92     0.100 C 
BRANCH  16  17
ATOM     17  CD  GLU D 570     -21.148  -5.429 -15.433  1.00 32.92     0.185 C 
ATOM     18  OE1 GLU D 570     -21.459  -5.034 -16.573  1.00 32.92    -0.647 OA
ATOM     19  OE2 GLU D 570     -21.893  -5.295 -14.442  1.00 32.92    -0.647 OA
ENDBRANCH  16  17
ENDBRANCH  15  16
ENDBRANCH  14  15
END_RES GLU D 570
ENDMDL
MODEL 7
REMARK VINA RESULT:      -5.7      7.108     10.288
REMARK  1 active torsions:
REMARK  status: ('A' for Active; 'I' for Inactive)
REMARK    1  A    between atoms: C_5  and  C_8 
ROOT
HETATM    1  C   UNL     1     -25.860   5.867  -9.992  1.00  0.00     0.043 C 
HETATM    2  C   UNL     1     -25.440   7.133 -10.683  1.00  0.00    -0.087 C 
HETATM    3  C   UNL     1     -24.497   7.149 -11.640  1.00  0.00    -0.024 C 
HETATM    4  C   UNL     1     -24.037   8.397 -12.342  1.00  0.00     0.036 C 
HETATM    5  C   UNL     1     -24.508   9.713 -11.680  1.00  0.00     0.017 C 
HETATM    6  C   UNL     1     -25.967   9.561 -11.212  1.00  0.00     0.013 C 
HETATM    7  C   UNL     1     -26.147   8.388 -10.245  1.00  0.00     0.034 C 
ENDROOT
BRANCH   5   8
HETATM    8  C   UNL     1     -24.251  10.917 -12.593  1.00  0.00    -0.089 C 
HETATM    9  C   UNL     1     -24.946  12.068 -12.559  1.00  0.00     0.014 C 
HETATM   10  C   UNL     1     -23.118  10.794 -13.580  1.00  0.00     0.043 C 
ENDBRANCH   5   8
TORSDOF 1
BEGIN_RES ARG D 557
REMARK  4 active torsions:
REMARK  status: ('A' for Active; 'I' for Inactive)
REMARK    1  A    between atoms: CA   and  CB  
REMARK    2  A    between atoms: CB   and  CG  
REMARK    3  A    between atoms: CG   and  CD  
REMARK    4  A    between atoms: CD   and  NE  
REMARK       I    between atoms: NE   and  CZ  
REMARK       I    between atoms: CZ   and  NH1 
REMARK       I    between atoms: CZ   and  NH2 
ROOT
ATOM      1  CA  ARG D 557     -26.217   2.705 -17.014  1.00 35.49     0.159 C 
ENDROOT
BRANCH   1   2
ATOM      2  CB  ARG D 557     -26.789   1.319 -17.183  1.00 35.49     0.034 C 
BRANCH   2   3
ATOM      3  CG  ARG D 557     -25.864   0.195 -16.992  1.00 35.49     0.027 C 
BRANCH   3   4
ATOM      4  CD  ARG D 557     -26.287  -0.703 -15.893  1.00 35.49     0.116 C 
BRANCH   4   5
ATOM      5  NE  ARG D 557     -25.236  -0.918 -14.934  1.00 35.49    -0.212 N 
ATOM      6  CZ  ARG D 557     -24.946  -2.062 -14.355  1.00 35.49     0.666 C 
ATOM      7  NH1 ARG D 557     -25.625  -3.169 -14.593  1.00 35.49    -0.235 N 
ATOM      8  NH2 ARG D 557     -23.944  -2.078 -13.525  1.00 35.49    -0.235 N 
ATOM      9  HH  ARG D 557     -26.287  -3.182 -15.137  1.00 35.49     0.174 HD
ATOM     10  HH  ARG D 557     -25.389  -3.886 -14.188  1.00 35.49     0.174 HD
ATOM     11  HH  ARG D 557     -23.519  -1.350 -13.397  1.00 35.49     0.174 HD
ATOM     12  HH  ARG D 557     -23.725  -2.799 -13.136  1.00 35.49     0.174 HD
ATOM     13  HE  ARG D 557     -24.794  -0.242 -14.668  1.00 35.49     0.178 HD
ENDBRANCH   4   5
ENDBRANCH   3   4
ENDBRANCH   2   3
ENDBRANCH   1   2
END_RES ARG D 557
BEGIN_RES GLU D 570
REMARK  3 active torsions:
REMARK  status: ('A' for Active; 'I' for Inactive)
REMARK    5  A    between atoms: CA   and  CB  
REMARK    6  A    between atoms: CB   and  CG  
REMARK    7  A    between atoms: CG   and  CD  
ROOT
ATOM     14  CA  GLU D 570     -18.033  -6.348 -13.375  1.00 32.92     0.160 C 
ENDROOT
BRANCH  14  15
ATOM     15  CB  GLU D 570     -19.500  -6.345 -13.794  1.00 32.92     0.043 C 
BRANCH  15  16
ATOM     16  CG  GLU D 570     -20.448  -5.561 -12.961  1.00 32.92     0.100 C 
BRANCH  16  17
ATOM     17  CD  GLU D 570     -21.676  -5.119 -13.723  1.00 32.92     0.185 C 
ATOM     18  OE1 GLU D 570     -21.610  -5.004 -14.962  1.00 32.92    -0.647 OA
ATOM     19  OE2 GLU D 570     -22.710  -4.870 -13.072  1.00 32.92    -0.647 OA
ENDBRANCH  16  17
ENDBRANCH  15  16
ENDBRANCH  14  15
END_RES GLU D 570
ENDMDL
MODEL 8
REMARK VINA RESULT:      -5.4      4.237      5.935
REMARK  1 active torsions:
REMARK  status: ('A' for Active; 'I' for Inactive)
REMARK    1  A    between atoms: C_5  and  C_8 
ROOT
HETATM    1  C   UNL     1     -20.967  -6.763  -5.250  1.00  0.00     0.043 C 
HETATM    2  C   UNL     1     -21.216  -7.104  -3.809  1.00  0.00    -0.087 C 
HETATM    3  C   UNL     1     -21.859  -6.270  -2.975  1.00  0.00    -0.024 C 
HETATM    4  C   UNL     1     -22.112  -6.567  -1.523  1.00  0.00     0.036 C 
HETATM    5  C   UNL     1     -21.318  -7.774  -0.970  1.00  0.00     0.017 C 
HETATM    6  C   UNL     1     -21.300  -8.902  -2.018  1.00  0.00     0.013 C 
HETATM    7  C   UNL     1     -20.708  -8.446  -3.353  1.00  0.00     0.034 C 
ENDROOT
BRANCH   5   8
HETATM    8  C   UNL     1     -21.832  -8.191   0.412  1.00  0.00    -0.089 C 
HETATM    9  C   UNL     1     -21.056  -8.630   1.419  1.00  0.00     0.014 C 
HETATM   10  C   UNL     1     -23.316  -8.072   0.651  1.00  0.00     0.043 C 
ENDBRANCH   5   8
TORSDOF 1
BEGIN_RES ARG D 557
REMARK  4 active torsions:
REMARK  status: ('A' for Active; 'I' for Inactive)
REMARK    1  A    between atoms: CA   and  CB  
REMARK    2  A    between atoms: CB   and  CG  
REMARK    3  A    between atoms: CG   and  CD  
REMARK    4  A    between atoms: CD   and  NE  
REMARK       I    between atoms: NE   and  CZ  
REMARK       I    between atoms: CZ   and  NH1 
REMARK       I    between atoms: CZ   and  NH2 
ROOT
ATOM      1  CA  ARG D 557     -26.217   2.705 -17.014  1.00 35.49     0.159 C 
ENDROOT
BRANCH   1   2
ATOM      2  CB  ARG D 557     -26.789   1.319 -17.183  1.00 35.49     0.034 C 
BRANCH   2   3
ATOM      3  CG  ARG D 557     -28.224   1.159 -16.917  1.00 35.49     0.027 C 
BRANCH   3   4
ATOM      4  CD  ARG D 557     -28.607  -0.257 -16.721  1.00 35.49     0.116 C 
BRANCH   4   5
ATOM      5  NE  ARG D 557     -27.594  -1.002 -16.021  1.00 35.49    -0.212 N 
ATOM      6  CZ  ARG D 557     -27.413  -2.302 -16.086  1.00 35.49     0.666 C 
ATOM      7  NH1 ARG D 557     -28.180  -3.089 -16.817  1.00 35.49    -0.235 N 
ATOM      8  NH2 ARG D 557     -26.429  -2.806 -15.400  1.00 35.49    -0.235 N 
ATOM      9  HH  ARG D 557     -28.832  -2.778 -17.279  1.00 35.49     0.174 HD
ATOM     10  HH  ARG D 557     -28.013  -3.929 -16.823  1.00 35.49     0.174 HD
ATOM     11  HH  ARG D 557     -25.945  -2.273 -14.943  1.00 35.49     0.174 HD
ATOM     12  HH  ARG D 557     -26.278  -3.641 -15.420  1.00 35.49     0.174 HD
ATOM     13  HE  ARG D 557     -27.100  -0.583 -15.470  1.00 35.49     0.178 HD
ENDBRANCH   4   5
ENDBRANCH   3   4
ENDBRANCH   2   3
ENDBRANCH   1   2
END_RES ARG D 557
BEGIN_RES GLU D 570
REMARK  3 active torsions:
REMARK  status: ('A' for Active; 'I' for Inactive)
REMARK    5  A    between atoms: CA   and  CB  
REMARK    6  A    between atoms: CB   and  CG  
REMARK    7  A    between atoms: CG   and  CD  
ROOT
ATOM     14  CA  GLU D 570     -18.033  -6.348 -13.375  1.00 32.92     0.160 C 
ENDROOT
BRANCH  14  15
ATOM     15  CB  GLU D 570     -19.500  -6.345 -13.794  1.00 32.92     0.043 C 
BRANCH  15  16
ATOM     16  CG  GLU D 570     -20.442  -5.532 -12.982  1.00 32.92     0.100 C 
BRANCH  16  17
ATOM     17  CD  GLU D 570     -21.741  -5.244 -13.699  1.00 32.92     0.185 C 
ATOM     18  OE1 GLU D 570     -21.886  -5.640 -14.871  1.00 32.92    -0.647 OA
ATOM     19  OE2 GLU D 570     -22.615  -4.599 -13.087  1.00 32.92    -0.647 OA
ENDBRANCH  16  17
ENDBRANCH  15  16
ENDBRANCH  14  15
END_RES GLU D 570
ENDMDL
MODEL 9
REMARK VINA RESULT:      -5.4      3.199      5.340
REMARK  1 active torsions:
REMARK  status: ('A' for Active; 'I' for Inactive)
REMARK    1  A    between atoms: C_5  and  C_8 
ROOT
HETATM    1  C   UNL     1     -21.859  -8.201   0.844  1.00  0.00     0.043 C 
HETATM    2  C   UNL     1     -21.632  -7.809  -0.588  1.00  0.00    -0.087 C 
HETATM    3  C   UNL     1     -20.890  -8.553  -1.426  1.00  0.00    -0.024 C 
HETATM    4  C   UNL     1     -20.624  -8.185  -2.860  1.00  0.00     0.036 C 
HETATM    5  C   UNL     1     -21.014  -6.736  -3.231  1.00  0.00     0.017 C 
HETATM    6  C   UNL     1     -22.350  -6.373  -2.556  1.00  0.00     0.013 C 
HETATM    7  C   UNL     1     -22.293  -6.533  -1.035  1.00  0.00     0.034 C 
ENDROOT
BRANCH   5   8
HETATM    8  C   UNL     1     -20.986  -6.524  -4.749  1.00  0.00    -0.089 C 
HETATM    9  C   UNL     1     -21.346  -7.447  -5.659  1.00  0.00     0.014 C 
HETATM   10  C   UNL     1     -20.544  -5.169  -5.240  1.00  0.00     0.043 C 
ENDBRANCH   5   8
TORSDOF 1
BEGIN_RES ARG D 557
REMARK  4 active torsions:
REMARK  status: ('A' for Active; 'I' for Inactive)
REMARK    1  A    between atoms: CA   and  CB  
REMARK    2  A    between atoms: CB   and  CG  
REMARK    3  A    between atoms: CG   and  CD  
REMARK    4  A    between atoms: CD   and  NE  
REMARK       I    between atoms: NE   and  CZ  
REMARK       I    between atoms: CZ   and  NH1 
REMARK       I    between atoms: CZ   and  NH2 
ROOT
ATOM      1  CA  ARG D 557     -26.217   2.705 -17.014  1.00 35.49     0.159 C 
ENDROOT
BRANCH   1   2
ATOM      2  CB  ARG D 557     -26.789   1.319 -17.183  1.00 35.49     0.034 C 
BRANCH   2   3
ATOM      3  CG  ARG D 557     -25.839   0.201 -17.132  1.00 35.49     0.027 C 
BRANCH   3   4
ATOM      4  CD  ARG D 557     -24.754   0.427 -16.149  1.00 35.49     0.116 C 
BRANCH   4   5
ATOM      5  NE  ARG D 557     -24.862  -0.448 -15.011  1.00 35.49    -0.212 N 
ATOM      6  CZ  ARG D 557     -24.019  -1.405 -14.696  1.00 35.49     0.666 C 
ATOM      7  NH1 ARG D 557     -22.955  -1.682 -15.426  1.00 35.49    -0.235 N 
ATOM      8  NH2 ARG D 557     -24.263  -2.088 -13.615  1.00 35.49    -0.235 N 
ATOM      9  HH  ARG D 557     -22.774  -1.244 -16.140  1.00 35.49     0.174 HD
ATOM     10  HH  ARG D 557     -22.439  -2.316 -15.170  1.00 35.49     0.174 HD
ATOM     11  HH  ARG D 557     -24.954  -1.882 -13.159  1.00 35.49     0.174 HD
ATOM     12  HH  ARG D 557     -23.739  -2.711 -13.377  1.00 35.49     0.174 HD
ATOM     13  HE  ARG D 557     -25.558  -0.388 -14.526  1.00 35.49     0.178 HD
ENDBRANCH   4   5
ENDBRANCH   3   4
ENDBRANCH   2   3
ENDBRANCH   1   2
END_RES ARG D 557
BEGIN_RES GLU D 570
REMARK  3 active torsions:
REMARK  status: ('A' for Active; 'I' for Inactive)
REMARK    5  A    between atoms: CA   and  CB  
REMARK    6  A    between atoms: CB   and  CG  
REMARK    7  A    between atoms: CG   and  CD  
ROOT
ATOM     14  CA  GLU D 570     -18.033  -6.348 -13.375  1.00 32.92     0.160 C 
ENDROOT
BRANCH  14  15
ATOM     15  CB  GLU D 570     -19.500  -6.345 -13.794  1.00 32.92     0.043 C 
BRANCH  15  16
ATOM     16  CG  GLU D 570     -20.449  -5.567 -12.957  1.00 32.92     0.100 C 
BRANCH  16  17
ATOM     17  CD  GLU D 570     -21.645  -5.065 -13.733  1.00 32.92     0.185 C 
ATOM     18  OE1 GLU D 570     -22.627  -4.618 -13.109  1.00 32.92    -0.647 OA
ATOM     19  OE2 GLU D 570     -21.606  -5.136 -14.977  1.00 32.92    -0.647 OA
ENDBRANCH  16  17
ENDBRANCH  15  16
ENDBRANCH  14  15
END_RES GLU D 570
ENDMDL
