MODEL 1
REMARK VINA RESULT:      -6.6      0.000      0.000
REMARK  9 active torsions:
REMARK  status: ('A' for Active; 'I' for Inactive)
REMARK    1  A    between atoms: C_2  and  C_7 
REMARK    2  A    between atoms: C_7  and  C_8 
REMARK    3  A    between atoms: C_8  and  N_9 
REMARK       I    between atoms: N_9  and  C_10 
REMARK    4  A    between atoms: C_10  and  C_12 
REMARK    5  A    between atoms: C_12  and  C_13 
REMARK    6  A    between atoms: C_12  and  N_18 
REMARK    7  A    between atoms: C_13  and  C_14 
REMARK    8  A    between atoms: C_14  and  C_15 
REMARK    9  A    between atoms: C_15  and  O_17 
ROOT
HETATM    1  N   UNL     1     -34.981  -0.627 -11.707  1.00  0.00    -0.359 N 
HETATM    2  C   UNL     1     -34.907  -1.988 -11.928  1.00  0.00     0.250 C 
HETATM    3  O   UNL     1     -35.551  -2.560 -12.803  1.00  0.00    -0.271 OA
HETATM    4  H   UNL     1     -34.312  -0.238 -11.051  1.00  0.00     0.162 HD
ENDROOT
BRANCH   2   5
HETATM    5  C   UNL     1     -33.955  -2.709 -10.937  1.00  0.00     0.309 C 
BRANCH   5   6
HETATM    6  C   UNL     1     -32.923  -3.559 -11.700  1.00  0.00     0.055 C 
BRANCH   6   7
HETATM    7  C   UNL     1     -32.985  -5.066 -11.445  1.00  0.00     0.112 C 
BRANCH   7   8
HETATM    8  C   UNL     1     -34.393  -5.617 -11.430  1.00  0.00     0.139 C 
HETATM    9  O   UNL     1     -34.972  -6.056 -10.449  1.00  0.00    -0.650 OA
BRANCH   8  10
HETATM   10  O   UNL     1     -34.974  -5.576 -12.651  1.00  0.00    -0.776 OA
HETATM   11  H   UNL     1     -34.543  -6.140 -13.319  1.00  0.00     0.167 HD
ENDBRANCH   8  10
ENDBRANCH   7   8
ENDBRANCH   6   7
ENDBRANCH   5   6
BRANCH   5  12
HETATM   12  N   UNL     1     -33.332  -1.695 -10.059  1.00  0.00     0.092 N 
HETATM   13  H   UNL     1     -32.692  -1.124 -10.615  1.00  0.00     0.313 HD
HETATM   14  H   UNL     1     -32.771  -2.148  -9.342  1.00  0.00     0.313 HD
ENDBRANCH   5  12
ENDBRANCH   2   5
BRANCH   1  15
HETATM   15  C   UNL     1     -35.810   0.242 -12.515  1.00  0.00     0.128 C 
BRANCH  15  16
HETATM   16  C   UNL     1     -35.060   0.788 -13.736  1.00  0.00     0.078 C 
BRANCH  16  17
HETATM   17  C   UNL     1     -35.503   0.126 -14.991  1.00  0.00     0.027 A 
HETATM   18  C   UNL     1     -36.428   0.481 -15.951  1.00  0.00     0.114 A 
HETATM   19  N   UNL     1     -36.479  -0.457 -16.949  1.00  0.00    -0.360 N 
HETATM   20  C   UNL     1     -35.611  -1.379 -16.606  1.00  0.00     0.180 A 
ATOM     21  HN  UNL     1     -37.067  -0.442 -17.782  1.00  0.00     0.166 HD
HETATM   22  N   UNL     1     -34.997  -1.073 -15.426  1.00  0.00    -0.355 N 
HETATM   23  H   UNL     1     -34.289  -1.632 -14.962  1.00  0.00     0.166 HD
ENDBRANCH  16  17
ENDBRANCH  15  16
ENDBRANCH   1  15
TORSDOF 9
BEGIN_RES ARG D 557
REMARK  4 active torsions:
REMARK  status: ('A' for Active; 'I' for Inactive)
REMARK    1  A    between atoms: CA   and  CB  
REMARK    2  A    between atoms: CB   and  CG  
REMARK    3  A    between atoms: CG   and  CD  
REMARK    4  A    between atoms: CD   and  NE  
REMARK       I    between atoms: NE   and  CZ  
REMARK       I    between atoms: CZ   and  NH1 
REMARK       I    between atoms: CZ   and  NH2 
ROOT
ATOM      1  CA  ARG D 557     -26.217   2.705 -17.014  1.00 35.49     0.159 C 
ENDROOT
BRANCH   1   2
ATOM      2  CB  ARG D 557     -26.789   1.319 -17.183  1.00 35.49     0.034 C 
BRANCH   2   3
ATOM      3  CG  ARG D 557     -25.860   0.195 -17.011  1.00 35.49     0.027 C 
BRANCH   3   4
ATOM      4  CD  ARG D 557     -26.302  -0.745 -15.956  1.00 35.49     0.116 C 
BRANCH   4   5
ATOM      5  NE  ARG D 557     -25.301  -0.928 -14.938  1.00 35.49    -0.212 N 
ATOM      6  CZ  ARG D 557     -25.047  -2.050 -14.303  1.00 35.49     0.666 C 
ATOM      7  NH1 ARG D 557     -25.719  -3.163 -14.533  1.00 35.49    -0.235 N 
ATOM      8  NH2 ARG D 557     -24.088  -2.038 -13.424  1.00 35.49    -0.235 N 
ATOM      9  HH  ARG D 557     -26.353  -3.194 -15.109  1.00 35.49     0.174 HD
ATOM     10  HH  ARG D 557     -25.507  -3.865 -14.090  1.00 35.49     0.174 HD
ATOM     11  HH  ARG D 557     -23.666  -1.307 -13.301  1.00 35.49     0.174 HD
ATOM     12  HH  ARG D 557     -23.892  -2.744 -12.997  1.00 35.49     0.174 HD
ATOM     13  HE  ARG D 557     -24.870  -0.244 -14.675  1.00 35.49     0.178 HD
ENDBRANCH   4   5
ENDBRANCH   3   4
ENDBRANCH   2   3
ENDBRANCH   1   2
END_RES ARG D 557
BEGIN_RES GLU D 570
REMARK  3 active torsions:
REMARK  status: ('A' for Active; 'I' for Inactive)
REMARK    5  A    between atoms: CA   and  CB  
REMARK    6  A    between atoms: CB   and  CG  
REMARK    7  A    between atoms: CG   and  CD  
ROOT
ATOM     14  CA  GLU D 570     -18.033  -6.348 -13.375  1.00 32.92     0.160 C 
ENDROOT
BRANCH  14  15
ATOM     15  CB  GLU D 570     -19.500  -6.345 -13.794  1.00 32.92     0.043 C 
BRANCH  15  16
ATOM     16  CG  GLU D 570     -20.449  -5.564 -12.959  1.00 32.92     0.100 C 
BRANCH  16  17
ATOM     17  CD  GLU D 570     -21.762  -5.294 -13.655  1.00 32.92     0.185 C 
ATOM     18  OE1 GLU D 570     -22.157  -6.087 -14.532  1.00 32.92    -0.647 OA
ATOM     19  OE2 GLU D 570     -22.396  -4.270 -13.332  1.00 32.92    -0.647 OA
ENDBRANCH  16  17
ENDBRANCH  15  16
ENDBRANCH  14  15
END_RES GLU D 570
ENDMDL
MODEL 2
REMARK VINA RESULT:      -6.6      6.634     10.556
REMARK  9 active torsions:
REMARK  status: ('A' for Active; 'I' for Inactive)
REMARK    1  A    between atoms: C_2  and  C_7 
REMARK    2  A    between atoms: C_7  and  C_8 
REMARK    3  A    between atoms: C_8  and  N_9 
REMARK       I    between atoms: N_9  and  C_10 
REMARK    4  A    between atoms: C_10  and  C_12 
REMARK    5  A    between atoms: C_12  and  C_13 
REMARK    6  A    between atoms: C_12  and  N_18 
REMARK    7  A    between atoms: C_13  and  C_14 
REMARK    8  A    between atoms: C_14  and  C_15 
REMARK    9  A    between atoms: C_15  and  O_17 
ROOT
HETATM    1  N   UNL     1     -24.640  -3.299 -11.645  1.00  0.00    -0.359 N 
HETATM    2  C   UNL     1     -23.595  -2.815 -12.405  1.00  0.00     0.250 C 
HETATM    3  O   UNL     1     -22.557  -2.376 -11.917  1.00  0.00    -0.271 OA
HETATM    4  H   UNL     1     -25.393  -3.757 -12.148  1.00  0.00     0.162 HD
ENDROOT
BRANCH   2   5
HETATM    5  C   UNL     1     -23.887  -2.859 -13.928  1.00  0.00     0.309 C 
BRANCH   5   6
HETATM    6  C   UNL     1     -24.611  -4.164 -14.304  1.00  0.00     0.055 C 
BRANCH   6   7
HETATM    7  C   UNL     1     -23.721  -5.403 -14.434  1.00  0.00     0.112 C 
BRANCH   7   8
HETATM    8  C   UNL     1     -24.291  -6.460 -15.352  1.00  0.00     0.139 C 
HETATM    9  O   UNL     1     -25.226  -7.198 -15.089  1.00  0.00    -0.650 OA
BRANCH   8  10
HETATM   10  O   UNL     1     -23.644  -6.511 -16.539  1.00  0.00    -0.776 OA
HETATM   11  H   UNL     1     -24.222  -6.693 -17.303  1.00  0.00     0.167 HD
ENDBRANCH   8  10
ENDBRANCH   7   8
ENDBRANCH   6   7
ENDBRANCH   5   6
BRANCH   5  12
HETATM   12  N   UNL     1     -24.653  -1.648 -14.297  1.00  0.00     0.092 N 
HETATM   13  H   UNL     1     -25.171  -1.833 -15.158  1.00  0.00     0.313 HD
HETATM   14  H   UNL     1     -24.019  -0.879 -14.498  1.00  0.00     0.313 HD
ENDBRANCH   5  12
ENDBRANCH   2   5
BRANCH   1  15
HETATM   15  C   UNL     1     -24.583  -3.351 -10.198  1.00  0.00     0.128 C 
BRANCH  15  16
HETATM   16  C   UNL     1     -23.920  -4.637  -9.692  1.00  0.00     0.078 C 
BRANCH  16  17
HETATM   17  C   UNL     1     -22.675  -4.346  -8.930  1.00  0.00     0.027 A 
HETATM   18  C   UNL     1     -21.341  -4.424  -9.269  1.00  0.00     0.114 A 
HETATM   19  N   UNL     1     -20.549  -4.033  -8.221  1.00  0.00    -0.360 N 
HETATM   20  C   UNL     1     -21.377  -3.733  -7.250  1.00  0.00     0.180 A 
ATOM     21  HN  UNL     1     -19.530  -3.986  -8.200  1.00  0.00     0.166 HD
HETATM   22  N   UNL     1     -22.677  -3.910  -7.630  1.00  0.00    -0.355 N 
HETATM   23  H   UNL     1     -23.494  -3.740  -7.052  1.00  0.00     0.166 HD
ENDBRANCH  16  17
ENDBRANCH  15  16
ENDBRANCH   1  15
TORSDOF 9
BEGIN_RES ARG D 557
REMARK  4 active torsions:
REMARK  status: ('A' for Active; 'I' for Inactive)
REMARK    1  A    between atoms: CA   and  CB  
REMARK    2  A    between atoms: CB   and  CG  
REMARK    3  A    between atoms: CG   and  CD  
REMARK    4  A    between atoms: CD   and  NE  
REMARK       I    between atoms: NE   and  CZ  
REMARK       I    between atoms: CZ   and  NH1 
REMARK       I    between atoms: CZ   and  NH2 
ROOT
ATOM      1  CA  ARG D 557     -26.217   2.705 -17.014  1.00 35.49     0.159 C 
ENDROOT
BRANCH   1   2
ATOM      2  CB  ARG D 557     -26.789   1.319 -17.183  1.00 35.49     0.034 C 
BRANCH   2   3
ATOM      3  CG  ARG D 557     -28.232   1.226 -17.438  1.00 35.49     0.027 C 
BRANCH   3   4
ATOM      4  CD  ARG D 557     -28.912   0.301 -16.503  1.00 35.49     0.116 C 
BRANCH   4   5
ATOM      5  NE  ARG D 557     -29.285  -0.935 -17.139  1.00 35.49    -0.212 N 
ATOM      6  CZ  ARG D 557     -28.649  -2.079 -17.027  1.00 35.49     0.666 C 
ATOM      7  NH1 ARG D 557     -27.553  -2.213 -16.303  1.00 35.49    -0.235 N 
ATOM      8  NH2 ARG D 557     -29.143  -3.105 -17.657  1.00 35.49    -0.235 N 
ATOM      9  HH  ARG D 557     -27.211  -1.552 -15.878  1.00 35.49     0.174 HD
ATOM     10  HH  ARG D 557     -27.182  -2.985 -16.265  1.00 35.49     0.174 HD
ATOM     11  HH  ARG D 557     -29.856  -2.991 -18.111  1.00 35.49     0.174 HD
ATOM     12  HH  ARG D 557     -28.762  -3.861 -17.606  1.00 35.49     0.174 HD
ATOM     13  HE  ARG D 557     -29.939  -0.923 -17.682  1.00 35.49     0.178 HD
ENDBRANCH   4   5
ENDBRANCH   3   4
ENDBRANCH   2   3
ENDBRANCH   1   2
END_RES ARG D 557
BEGIN_RES GLU D 570
REMARK  3 active torsions:
REMARK  status: ('A' for Active; 'I' for Inactive)
REMARK    5  A    between atoms: CA   and  CB  
REMARK    6  A    between atoms: CB   and  CG  
REMARK    7  A    between atoms: CG   and  CD  
ROOT
ATOM     14  CA  GLU D 570     -18.033  -6.348 -13.375  1.00 32.92     0.160 C 
ENDROOT
BRANCH  14  15
ATOM     15  CB  GLU D 570     -19.500  -6.345 -13.794  1.00 32.92     0.043 C 
BRANCH  15  16
ATOM     16  CG  GLU D 570     -20.084  -7.633 -14.250  1.00 32.92     0.100 C 
BRANCH  16  17
ATOM     17  CD  GLU D 570     -20.717  -7.541 -15.619  1.00 32.92     0.185 C 
ATOM     18  OE1 GLU D 570     -21.319  -8.532 -16.076  1.00 32.92    -0.647 OA
ATOM     19  OE2 GLU D 570     -20.594  -6.472 -16.249  1.00 32.92    -0.647 OA
ENDBRANCH  16  17
ENDBRANCH  15  16
ENDBRANCH  14  15
END_RES GLU D 570
ENDMDL
MODEL 3
REMARK VINA RESULT:      -6.5      7.361     12.687
REMARK  9 active torsions:
REMARK  status: ('A' for Active; 'I' for Inactive)
REMARK    1  A    between atoms: C_2  and  C_7 
REMARK    2  A    between atoms: C_7  and  C_8 
REMARK    3  A    between atoms: C_8  and  N_9 
REMARK       I    between atoms: N_9  and  C_10 
REMARK    4  A    between atoms: C_10  and  C_12 
REMARK    5  A    between atoms: C_12  and  C_13 
REMARK    6  A    between atoms: C_12  and  N_18 
REMARK    7  A    between atoms: C_13  and  C_14 
REMARK    8  A    between atoms: C_14  and  C_15 
REMARK    9  A    between atoms: C_15  and  O_17 
ROOT
HETATM    1  N   UNL     1     -22.380  -5.475  -6.121  1.00  0.00    -0.359 N 
HETATM    2  C   UNL     1     -21.750  -5.147  -7.305  1.00  0.00     0.250 C 
HETATM    3  O   UNL     1     -20.698  -5.665  -7.671  1.00  0.00    -0.271 OA
HETATM    4  H   UNL     1     -23.306  -5.087  -5.978  1.00  0.00     0.162 HD
ENDROOT
BRANCH   2   5
HETATM    5  C   UNL     1     -22.496  -4.042  -8.098  1.00  0.00     0.309 C 
BRANCH   5   6
HETATM    6  C   UNL     1     -22.260  -4.208  -9.610  1.00  0.00     0.055 C 
BRANCH   6   7
HETATM    7  C   UNL     1     -23.494  -4.576 -10.438  1.00  0.00     0.112 C 
BRANCH   7   8
HETATM    8  C   UNL     1     -24.386  -3.395 -10.747  1.00  0.00     0.139 C 
HETATM    9  O   UNL     1     -25.451  -3.151 -10.206  1.00  0.00    -0.650 OA
BRANCH   8  10
HETATM   10  O   UNL     1     -23.872  -2.603 -11.717  1.00  0.00    -0.776 OA
HETATM   11  H   UNL     1     -23.426  -1.802 -11.385  1.00  0.00     0.167 HD
ENDBRANCH   8  10
ENDBRANCH   7   8
ENDBRANCH   6   7
ENDBRANCH   5   6
BRANCH   5  12
HETATM   12  N   UNL     1     -23.927  -4.080  -7.729  1.00  0.00     0.092 N 
HETATM   13  H   UNL     1     -24.348  -4.926  -8.120  1.00  0.00     0.313 HD
HETATM   14  H   UNL     1     -24.419  -3.292  -8.144  1.00  0.00     0.313 HD
ENDBRANCH   5  12
ENDBRANCH   2   5
BRANCH   1  15
HETATM   15  C   UNL     1     -21.857  -6.483  -5.223  1.00  0.00     0.128 C 
BRANCH  15  16
HETATM   16  C   UNL     1     -21.044  -5.872  -4.076  1.00  0.00     0.078 C 
BRANCH  16  17
HETATM   17  C   UNL     1     -21.382  -6.501  -2.771  1.00  0.00     0.027 A 
HETATM   18  C   UNL     1     -20.858  -7.586  -2.100  1.00  0.00     0.114 A 
HETATM   19  N   UNL     1     -21.498  -7.774  -0.903  1.00  0.00    -0.360 N 
HETATM   20  C   UNL     1     -22.407  -6.832  -0.841  1.00  0.00     0.180 A 
ATOM     21  HN  UNL     1     -21.308  -8.495  -0.207  1.00  0.00     0.166 HD
HETATM   22  N   UNL     1     -22.379  -6.036  -1.951  1.00  0.00    -0.355 N 
HETATM   23  H   UNL     1     -22.984  -5.242  -2.129  1.00  0.00     0.166 HD
ENDBRANCH  16  17
ENDBRANCH  15  16
ENDBRANCH   1  15
TORSDOF 9
BEGIN_RES ARG D 557
REMARK  4 active torsions:
REMARK  status: ('A' for Active; 'I' for Inactive)
REMARK    1  A    between atoms: CA   and  CB  
REMARK    2  A    between atoms: CB   and  CG  
REMARK    3  A    between atoms: CG   and  CD  
REMARK    4  A    between atoms: CD   and  NE  
REMARK       I    between atoms: NE   and  CZ  
REMARK       I    between atoms: CZ   and  NH1 
REMARK       I    between atoms: CZ   and  NH2 
ROOT
ATOM      1  CA  ARG D 557     -26.217   2.705 -17.014  1.00 35.49     0.159 C 
ENDROOT
BRANCH   1   2
ATOM      2  CB  ARG D 557     -26.789   1.319 -17.183  1.00 35.49     0.034 C 
BRANCH   2   3
ATOM      3  CG  ARG D 557     -25.947   0.199 -16.745  1.00 35.49     0.027 C 
BRANCH   3   4
ATOM      4  CD  ARG D 557     -26.722  -0.846 -16.037  1.00 35.49     0.116 C 
BRANCH   4   5
ATOM      5  NE  ARG D 557     -25.892  -1.644 -15.173  1.00 35.49    -0.212 N 
ATOM      6  CZ  ARG D 557     -26.016  -2.936 -14.967  1.00 35.49     0.666 C 
ATOM      7  NH1 ARG D 557     -26.959  -3.658 -15.544  1.00 35.49    -0.235 N 
ATOM      8  NH2 ARG D 557     -25.161  -3.501 -14.166  1.00 35.49    -0.235 N 
ATOM      9  HH  ARG D 557     -27.531  -3.307 -16.077  1.00 35.49     0.174 HD
ATOM     10  HH  ARG D 557     -26.989  -4.498 -15.374  1.00 35.49     0.174 HD
ATOM     11  HH  ARG D 557     -24.558  -3.011 -13.814  1.00 35.49     0.174 HD
ATOM     12  HH  ARG D 557     -25.207  -4.333 -14.012  1.00 35.49     0.174 HD
ATOM     13  HE  ARG D 557     -25.304  -1.246 -14.705  1.00 35.49     0.178 HD
ENDBRANCH   4   5
ENDBRANCH   3   4
ENDBRANCH   2   3
ENDBRANCH   1   2
END_RES ARG D 557
BEGIN_RES GLU D 570
REMARK  3 active torsions:
REMARK  status: ('A' for Active; 'I' for Inactive)
REMARK    5  A    between atoms: CA   and  CB  
REMARK    6  A    between atoms: CB   and  CG  
REMARK    7  A    between atoms: CG   and  CD  
ROOT
ATOM     14  CA  GLU D 570     -18.033  -6.348 -13.375  1.00 32.92     0.160 C 
ENDROOT
BRANCH  14  15
ATOM     15  CB  GLU D 570     -19.500  -6.345 -13.794  1.00 32.92     0.043 C 
BRANCH  15  16
ATOM     16  CG  GLU D 570     -20.440  -5.523 -12.989  1.00 32.92     0.100 C 
BRANCH  16  17
ATOM     17  CD  GLU D 570     -21.739  -5.240 -13.707  1.00 32.92     0.185 C 
ATOM     18  OE1 GLU D 570     -22.284  -6.155 -14.354  1.00 32.92    -0.647 OA
ATOM     19  OE2 GLU D 570     -22.208  -4.087 -13.635  1.00 32.92    -0.647 OA
ENDBRANCH  16  17
ENDBRANCH  15  16
ENDBRANCH  14  15
END_RES GLU D 570
ENDMDL
MODEL 4
REMARK VINA RESULT:      -6.5      1.894      2.257
REMARK  9 active torsions:
REMARK  status: ('A' for Active; 'I' for Inactive)
REMARK    1  A    between atoms: C_2  and  C_7 
REMARK    2  A    between atoms: C_7  and  C_8 
REMARK    3  A    between atoms: C_8  and  N_9 
REMARK       I    between atoms: N_9  and  C_10 
REMARK    4  A    between atoms: C_10  and  C_12 
REMARK    5  A    between atoms: C_12  and  C_13 
REMARK    6  A    between atoms: C_12  and  N_18 
REMARK    7  A    between atoms: C_13  and  C_14 
REMARK    8  A    between atoms: C_14  and  C_15 
REMARK    9  A    between atoms: C_15  and  O_17 
ROOT
HETATM    1  N   UNL     1     -35.020  -0.720 -11.695  1.00  0.00    -0.359 N 
HETATM    2  C   UNL     1     -35.413  -1.800 -10.930  1.00  0.00     0.250 C 
HETATM    3  O   UNL     1     -36.584  -2.151 -10.818  1.00  0.00    -0.271 OA
HETATM    4  H   UNL     1     -34.021  -0.597 -11.826  1.00  0.00     0.162 HD
ENDROOT
BRANCH   2   5
HETATM    5  C   UNL     1     -34.225  -2.494 -10.212  1.00  0.00     0.309 C 
BRANCH   5   6
HETATM    6  C   UNL     1     -34.078  -3.948 -10.693  1.00  0.00     0.055 C 
BRANCH   6   7
HETATM    7  C   UNL     1     -33.350  -4.137 -12.026  1.00  0.00     0.112 C 
BRANCH   7   8
HETATM    8  C   UNL     1     -34.265  -4.065 -13.228  1.00  0.00     0.139 C 
HETATM    9  O   UNL     1     -34.445  -3.079 -13.923  1.00  0.00    -0.650 OA
BRANCH   8  10
HETATM   10  O   UNL     1     -34.888  -5.241 -13.470  1.00  0.00    -0.776 OA
HETATM   11  H   UNL     1     -35.264  -5.667 -12.677  1.00  0.00     0.167 HD
ENDBRANCH   8  10
ENDBRANCH   7   8
ENDBRANCH   6   7
ENDBRANCH   5   6
BRANCH   5  12
HETATM   12  N   UNL     1     -33.005  -1.687 -10.430  1.00  0.00     0.092 N 
HETATM   13  H   UNL     1     -32.192  -2.305 -10.411  1.00  0.00     0.313 HD
HETATM   14  H   UNL     1     -32.883  -1.022  -9.671  1.00  0.00     0.313 HD
ENDBRANCH   5  12
ENDBRANCH   2   5
BRANCH   1  15
HETATM   15  C   UNL     1     -35.965   0.075 -12.452  1.00  0.00     0.128 C 
BRANCH  15  16
HETATM   16  C   UNL     1     -35.332   0.686 -13.707  1.00  0.00     0.078 C 
BRANCH  16  17
HETATM   17  C   UNL     1     -35.849   0.048 -14.947  1.00  0.00     0.027 A 
HETATM   18  C   UNL     1     -37.076   0.097 -15.575  1.00  0.00     0.114 A 
HETATM   19  N   UNL     1     -37.069  -0.659 -16.718  1.00  0.00    -0.360 N 
HETATM   20  C   UNL     1     -35.865  -1.175 -16.788  1.00  0.00     0.180 A 
ATOM     21  HN  UNL     1     -37.837  -0.792 -17.376  1.00  0.00     0.166 HD
HETATM   22  N   UNL     1     -35.090  -0.780 -15.736  1.00  0.00    -0.355 N 
HETATM   23  H   UNL     1     -34.125  -1.047 -15.575  1.00  0.00     0.166 HD
ENDBRANCH  16  17
ENDBRANCH  15  16
ENDBRANCH   1  15
TORSDOF 9
BEGIN_RES ARG D 557
REMARK  4 active torsions:
REMARK  status: ('A' for Active; 'I' for Inactive)
REMARK    1  A    between atoms: CA   and  CB  
REMARK    2  A    between atoms: CB   and  CG  
REMARK    3  A    between atoms: CG   and  CD  
REMARK    4  A    between atoms: CD   and  NE  
REMARK       I    between atoms: NE   and  CZ  
REMARK       I    between atoms: CZ   and  NH1 
REMARK       I    between atoms: CZ   and  NH2 
ROOT
ATOM      1  CA  ARG D 557     -26.217   2.705 -17.014  1.00 35.49     0.159 C 
ENDROOT
BRANCH   1   2
ATOM      2  CB  ARG D 557     -26.789   1.319 -17.183  1.00 35.49     0.034 C 
BRANCH   2   3
ATOM      3  CG  ARG D 557     -28.229   1.227 -17.454  1.00 35.49     0.027 C 
BRANCH   3   4
ATOM      4  CD  ARG D 557     -28.906   0.245 -16.577  1.00 35.49     0.116 C 
BRANCH   4   5
ATOM      5  NE  ARG D 557     -28.035  -0.837 -16.200  1.00 35.49    -0.212 N 
ATOM      6  CZ  ARG D 557     -28.145  -2.085 -16.597  1.00 35.49     0.666 C 
ATOM      7  NH1 ARG D 557     -29.110  -2.492 -17.401  1.00 35.49    -0.235 N 
ATOM      8  NH2 ARG D 557     -27.251  -2.931 -16.172  1.00 35.49    -0.235 N 
ATOM      9  HH  ARG D 557     -29.707  -1.952 -17.694  1.00 35.49     0.174 HD
ATOM     10  HH  ARG D 557     -29.129  -3.318 -17.628  1.00 35.49     0.174 HD
ATOM     11  HH  ARG D 557     -26.635  -2.638 -15.659  1.00 35.49     0.174 HD
ATOM     12  HH  ARG D 557     -27.287  -3.744 -16.409  1.00 35.49     0.174 HD
ATOM     13  HE  ARG D 557     -27.428  -0.679 -15.626  1.00 35.49     0.178 HD
ENDBRANCH   4   5
ENDBRANCH   3   4
ENDBRANCH   2   3
ENDBRANCH   1   2
END_RES ARG D 557
BEGIN_RES GLU D 570
REMARK  3 active torsions:
REMARK  status: ('A' for Active; 'I' for Inactive)
REMARK    5  A    between atoms: CA   and  CB  
REMARK    6  A    between atoms: CB   and  CG  
REMARK    7  A    between atoms: CG   and  CD  
ROOT
ATOM     14  CA  GLU D 570     -18.033  -6.348 -13.375  1.00 32.92     0.160 C 
ENDROOT
BRANCH  14  15
ATOM     15  CB  GLU D 570     -19.500  -6.345 -13.794  1.00 32.92     0.043 C 
BRANCH  15  16
ATOM     16  CG  GLU D 570     -19.796  -6.271 -15.248  1.00 32.92     0.100 C 
BRANCH  16  17
ATOM     17  CD  GLU D 570     -21.025  -5.449 -15.558  1.00 32.92     0.185 C 
ATOM     18  OE1 GLU D 570     -21.309  -5.210 -16.748  1.00 32.92    -0.647 OA
ATOM     19  OE2 GLU D 570     -21.702  -5.024 -14.601  1.00 32.92    -0.647 OA
ENDBRANCH  16  17
ENDBRANCH  15  16
ENDBRANCH  14  15
END_RES GLU D 570
ENDMDL
MODEL 5
REMARK VINA RESULT:      -6.4      2.052      2.430
REMARK  9 active torsions:
REMARK  status: ('A' for Active; 'I' for Inactive)
REMARK    1  A    between atoms: C_2  and  C_7 
REMARK    2  A    between atoms: C_7  and  C_8 
REMARK    3  A    between atoms: C_8  and  N_9 
REMARK       I    between atoms: N_9  and  C_10 
REMARK    4  A    between atoms: C_10  and  C_12 
REMARK    5  A    between atoms: C_12  and  C_13 
REMARK    6  A    between atoms: C_12  and  N_18 
REMARK    7  A    between atoms: C_13  and  C_14 
REMARK    8  A    between atoms: C_14  and  C_15 
REMARK    9  A    between atoms: C_15  and  O_17 
ROOT
HETATM    1  N   UNL     1     -34.723  -1.876 -11.656  1.00  0.00    -0.359 N 
HETATM    2  C   UNL     1     -34.271  -3.008 -12.305  1.00  0.00     0.250 C 
HETATM    3  O   UNL     1     -34.674  -3.351 -13.413  1.00  0.00    -0.271 OA
HETATM    4  H   UNL     1     -34.231  -1.613 -10.808  1.00  0.00     0.162 HD
ENDROOT
BRANCH   2   5
HETATM    5  C   UNL     1     -33.232  -3.805 -11.473  1.00  0.00     0.309 C 
BRANCH   5   6
HETATM    6  C   UNL     1     -33.935  -4.838 -10.575  1.00  0.00     0.055 C 
BRANCH   6   7
HETATM    7  C   UNL     1     -33.689  -6.306 -10.933  1.00  0.00     0.112 C 
BRANCH   7   8
HETATM    8  C   UNL     1     -34.684  -7.254 -10.304  1.00  0.00     0.139 C 
HETATM    9  O   UNL     1     -35.349  -7.025  -9.307  1.00  0.00    -0.650 OA
BRANCH   8  10
HETATM   10  O   UNL     1     -34.772  -8.425 -10.976  1.00  0.00    -0.776 OA
HETATM   11  H   UNL     1     -33.920  -8.759 -11.314  1.00  0.00     0.167 HD
ENDBRANCH   8  10
ENDBRANCH   7   8
ENDBRANCH   6   7
ENDBRANCH   5   6
BRANCH   5  12
HETATM   12  N   UNL     1     -32.254  -4.415 -12.400  1.00  0.00     0.092 N 
HETATM   13  H   UNL     1     -32.427  -5.421 -12.448  1.00  0.00     0.313 HD
HETATM   14  H   UNL     1     -31.310  -4.299 -12.041  1.00  0.00     0.313 HD
ENDBRANCH   5  12
ENDBRANCH   2   5
BRANCH   1  15
HETATM   15  C   UNL     1     -35.697  -0.983 -12.249  1.00  0.00     0.128 C 
BRANCH  15  16
HETATM   16  C   UNL     1     -35.057  -0.005 -13.241  1.00  0.00     0.078 C 
BRANCH  16  17
HETATM   17  C   UNL     1     -35.559  -0.222 -14.624  1.00  0.00     0.027 A 
HETATM   18  C   UNL     1     -36.545   0.398 -15.361  1.00  0.00     0.114 A 
HETATM   19  N   UNL     1     -36.633  -0.150 -16.615  1.00  0.00    -0.360 N 
HETATM   20  C   UNL     1     -35.727  -1.097 -16.646  1.00  0.00     0.180 A 
ATOM     21  HN  UNL     1     -37.269   0.122 -17.365  1.00  0.00     0.166 HD
HETATM   22  N   UNL     1     -35.052  -1.183 -15.463  1.00  0.00    -0.355 N 
HETATM   23  H   UNL     1     -34.306  -1.836 -15.249  1.00  0.00     0.166 HD
ENDBRANCH  16  17
ENDBRANCH  15  16
ENDBRANCH   1  15
TORSDOF 9
BEGIN_RES ARG D 557
REMARK  4 active torsions:
REMARK  status: ('A' for Active; 'I' for Inactive)
REMARK    1  A    between atoms: CA   and  CB  
REMARK    2  A    between atoms: CB   and  CG  
REMARK    3  A    between atoms: CG   and  CD  
REMARK    4  A    between atoms: CD   and  NE  
REMARK       I    between atoms: NE   and  CZ  
REMARK       I    between atoms: CZ   and  NH1 
REMARK       I    between atoms: CZ   and  NH2 
ROOT
ATOM      1  CA  ARG D 557     -26.217   2.705 -17.014  1.00 35.49     0.159 C 
ENDROOT
BRANCH   1   2
ATOM      2  CB  ARG D 557     -26.789   1.319 -17.183  1.00 35.49     0.034 C 
BRANCH   2   3
ATOM      3  CG  ARG D 557     -28.229   1.227 -17.453  1.00 35.49     0.027 C 
BRANCH   3   4
ATOM      4  CD  ARG D 557     -28.922   0.318 -16.511  1.00 35.49     0.116 C 
BRANCH   4   5
ATOM      5  NE  ARG D 557     -29.315  -0.916 -17.138  1.00 35.49    -0.212 N 
ATOM      6  CZ  ARG D 557     -28.686  -2.065 -17.034  1.00 35.49     0.666 C 
ATOM      7  NH1 ARG D 557     -27.579  -2.205 -16.328  1.00 35.49    -0.235 N 
ATOM      8  NH2 ARG D 557     -29.197  -3.088 -17.655  1.00 35.49    -0.235 N 
ATOM      9  HH  ARG D 557     -27.226  -1.546 -15.910  1.00 35.49     0.174 HD
ATOM     10  HH  ARG D 557     -27.213  -2.980 -16.295  1.00 35.49     0.174 HD
ATOM     11  HH  ARG D 557     -29.917  -2.969 -18.097  1.00 35.49     0.174 HD
ATOM     12  HH  ARG D 557     -28.821  -3.846 -17.608  1.00 35.49     0.174 HD
ATOM     13  HE  ARG D 557     -29.978  -0.900 -17.671  1.00 35.49     0.178 HD
ENDBRANCH   4   5
ENDBRANCH   3   4
ENDBRANCH   2   3
ENDBRANCH   1   2
END_RES ARG D 557
BEGIN_RES GLU D 570
REMARK  3 active torsions:
REMARK  status: ('A' for Active; 'I' for Inactive)
REMARK    5  A    between atoms: CA   and  CB  
REMARK    6  A    between atoms: CB   and  CG  
REMARK    7  A    between atoms: CG   and  CD  
ROOT
ATOM     14  CA  GLU D 570     -18.033  -6.348 -13.375  1.00 32.92     0.160 C 
ENDROOT
BRANCH  14  15
ATOM     15  CB  GLU D 570     -19.500  -6.345 -13.794  1.00 32.92     0.043 C 
BRANCH  15  16
ATOM     16  CG  GLU D 570     -20.449  -5.565 -12.958  1.00 32.92     0.100 C 
BRANCH  16  17
ATOM     17  CD  GLU D 570     -21.700  -5.164 -13.705  1.00 32.92     0.185 C 
ATOM     18  OE1 GLU D 570     -21.684  -5.153 -14.950  1.00 32.92    -0.647 OA
ATOM     19  OE2 GLU D 570     -22.702  -4.843 -13.036  1.00 32.92    -0.647 OA
ENDBRANCH  16  17
ENDBRANCH  15  16
ENDBRANCH  14  15
END_RES GLU D 570
ENDMDL
MODEL 6
REMARK VINA RESULT:      -6.3      2.235      3.747
REMARK  9 active torsions:
REMARK  status: ('A' for Active; 'I' for Inactive)
REMARK    1  A    between atoms: C_2  and  C_7 
REMARK    2  A    between atoms: C_7  and  C_8 
REMARK    3  A    between atoms: C_8  and  N_9 
REMARK       I    between atoms: N_9  and  C_10 
REMARK    4  A    between atoms: C_10  and  C_12 
REMARK    5  A    between atoms: C_12  and  C_13 
REMARK    6  A    between atoms: C_12  and  N_18 
REMARK    7  A    between atoms: C_13  and  C_14 
REMARK    8  A    between atoms: C_14  and  C_15 
REMARK    9  A    between atoms: C_15  and  O_17 
ROOT
HETATM    1  N   UNL     1     -35.404  -1.184 -11.666  1.00  0.00    -0.359 N 
HETATM    2  C   UNL     1     -34.905  -1.892 -12.740  1.00  0.00     0.250 C 
HETATM    3  O   UNL     1     -35.117  -1.576 -13.908  1.00  0.00    -0.271 OA
HETATM    4  H   UNL     1     -35.062  -1.451 -10.749  1.00  0.00     0.162 HD
ENDROOT
BRANCH   2   5
HETATM    5  C   UNL     1     -34.082  -3.136 -12.313  1.00  0.00     0.309 C 
BRANCH   5   6
HETATM    6  C   UNL     1     -34.789  -3.887 -11.171  1.00  0.00     0.055 C 
BRANCH   6   7
HETATM    7  C   UNL     1     -33.977  -5.000 -10.505  1.00  0.00     0.112 C 
BRANCH   7   8
HETATM    8  C   UNL     1     -34.524  -6.384 -10.767  1.00  0.00     0.139 C 
HETATM    9  O   UNL     1     -34.710  -7.244  -9.922  1.00  0.00    -0.650 OA
BRANCH   8  10
HETATM   10  O   UNL     1     -34.801  -6.588 -12.076  1.00  0.00    -0.776 OA
HETATM   11  H   UNL     1     -35.674  -6.256 -12.357  1.00  0.00     0.167 HD
ENDBRANCH   8  10
ENDBRANCH   7   8
ENDBRANCH   6   7
ENDBRANCH   5   6
BRANCH   5  12
HETATM   12  N   UNL     1     -33.851  -3.981 -13.505  1.00  0.00     0.092 N 
HETATM   13  H   UNL     1     -34.498  -4.772 -13.479  1.00  0.00     0.313 HD
HETATM   14  H   UNL     1     -32.913  -4.371 -13.483  1.00  0.00     0.313 HD
ENDBRANCH   5  12
ENDBRANCH   2   5
BRANCH   1  15
HETATM   15  C   UNL     1     -36.202   0.013 -11.833  1.00  0.00     0.128 C 
BRANCH  15  16
HETATM   16  C   UNL     1     -37.535  -0.069 -11.081  1.00  0.00     0.078 C 
BRANCH  16  17
HETATM   17  C   UNL     1     -37.366   0.233  -9.635  1.00  0.00     0.027 A 
HETATM   18  C   UNL     1     -37.932  -0.311  -8.501  1.00  0.00     0.114 A 
HETATM   19  N   UNL     1     -37.446   0.298  -7.373  1.00  0.00    -0.360 N 
HETATM   20  C   UNL     1     -36.605   1.207  -7.803  1.00  0.00     0.180 A 
ATOM     21  HN  UNL     1     -37.686   0.088  -6.405  1.00  0.00     0.166 HD
HETATM   22  N   UNL     1     -36.525   1.210  -9.166  1.00  0.00    -0.355 N 
HETATM   23  H   UNL     1     -35.941   1.822  -9.726  1.00  0.00     0.166 HD
ENDBRANCH  16  17
ENDBRANCH  15  16
ENDBRANCH   1  15
TORSDOF 9
BEGIN_RES ARG D 557
REMARK  4 active torsions:
REMARK  status: ('A' for Active; 'I' for Inactive)
REMARK    1  A    between atoms: CA   and  CB  
REMARK    2  A    between atoms: CB   and  CG  
REMARK    3  A    between atoms: CG   and  CD  
REMARK    4  A    between atoms: CD   and  NE  
REMARK       I    between atoms: NE   and  CZ  
REMARK       I    between atoms: CZ   and  NH1 
REMARK       I    between atoms: CZ   and  NH2 
ROOT
ATOM      1  CA  ARG D 557     -26.217   2.705 -17.014  1.00 35.49     0.159 C 
ENDROOT
BRANCH   1   2
ATOM      2  CB  ARG D 557     -26.789   1.319 -17.183  1.00 35.49     0.034 C 
BRANCH   2   3
ATOM      3  CG  ARG D 557     -25.837   0.202 -17.149  1.00 35.49     0.027 C 
BRANCH   3   4
ATOM      4  CD  ARG D 557     -24.757   0.412 -16.158  1.00 35.49     0.116 C 
BRANCH   4   5
ATOM      5  NE  ARG D 557     -24.902  -0.442 -15.008  1.00 35.49    -0.212 N 
ATOM      6  CZ  ARG D 557     -24.086  -1.413 -14.665  1.00 35.49     0.666 C 
ATOM      7  NH1 ARG D 557     -23.017  -1.725 -15.374  1.00 35.49    -0.235 N 
ATOM      8  NH2 ARG D 557     -24.361  -2.072 -13.577  1.00 35.49    -0.235 N 
ATOM      9  HH  ARG D 557     -22.815  -1.303 -16.093  1.00 35.49     0.174 HD
ATOM     10  HH  ARG D 557     -22.519  -2.367 -15.100  1.00 35.49     0.174 HD
ATOM     11  HH  ARG D 557     -25.054  -1.844 -13.136  1.00 35.49     0.174 HD
ATOM     12  HH  ARG D 557     -23.856  -2.703 -13.322  1.00 35.49     0.174 HD
ATOM     13  HE  ARG D 557     -25.603  -0.358 -14.535  1.00 35.49     0.178 HD
ENDBRANCH   4   5
ENDBRANCH   3   4
ENDBRANCH   2   3
ENDBRANCH   1   2
END_RES ARG D 557
BEGIN_RES GLU D 570
REMARK  3 active torsions:
REMARK  status: ('A' for Active; 'I' for Inactive)
REMARK    5  A    between atoms: CA   and  CB  
REMARK    6  A    between atoms: CB   and  CG  
REMARK    7  A    between atoms: CG   and  CD  
ROOT
ATOM     14  CA  GLU D 570     -18.033  -6.348 -13.375  1.00 32.92     0.160 C 
ENDROOT
BRANCH  14  15
ATOM     15  CB  GLU D 570     -19.500  -6.345 -13.794  1.00 32.92     0.043 C 
BRANCH  15  16
ATOM     16  CG  GLU D 570     -20.442  -5.531 -12.983  1.00 32.92     0.100 C 
BRANCH  16  17
ATOM     17  CD  GLU D 570     -21.748  -5.260 -13.692  1.00 32.92     0.185 C 
ATOM     18  OE1 GLU D 570     -22.242  -6.149 -14.412  1.00 32.92    -0.647 OA
ATOM     19  OE2 GLU D 570     -22.275  -4.141 -13.539  1.00 32.92    -0.647 OA
ENDBRANCH  16  17
ENDBRANCH  15  16
ENDBRANCH  14  15
END_RES GLU D 570
ENDMDL
MODEL 7
REMARK VINA RESULT:      -6.3      6.483     11.305
REMARK  9 active torsions:
REMARK  status: ('A' for Active; 'I' for Inactive)
REMARK    1  A    between atoms: C_2  and  C_7 
REMARK    2  A    between atoms: C_7  and  C_8 
REMARK    3  A    between atoms: C_8  and  N_9 
REMARK       I    between atoms: N_9  and  C_10 
REMARK    4  A    between atoms: C_10  and  C_12 
REMARK    5  A    between atoms: C_12  and  C_13 
REMARK    6  A    between atoms: C_12  and  N_18 
REMARK    7  A    between atoms: C_13  and  C_14 
REMARK    8  A    between atoms: C_14  and  C_15 
REMARK    9  A    between atoms: C_15  and  O_17 
ROOT
HETATM    1  N   UNL     1     -22.898  -3.880 -10.265  1.00  0.00    -0.359 N 
HETATM    2  C   UNL     1     -24.103  -3.539 -10.845  1.00  0.00     0.250 C 
HETATM    3  O   UNL     1     -25.093  -3.217 -10.193  1.00  0.00    -0.271 OA
HETATM    4  H   UNL     1     -22.111  -4.001 -10.894  1.00  0.00     0.162 HD
ENDROOT
BRANCH   2   5
HETATM    5  C   UNL     1     -24.077  -3.639 -12.393  1.00  0.00     0.309 C 
BRANCH   5   6
HETATM    6  C   UNL     1     -23.291  -2.462 -12.998  1.00  0.00     0.055 C 
BRANCH   6   7
HETATM    7  C   UNL     1     -23.572  -2.163 -14.472  1.00  0.00     0.112 C 
BRANCH   7   8
HETATM    8  C   UNL     1     -24.885  -1.450 -14.703  1.00  0.00     0.139 C 
HETATM    9  O   UNL     1     -25.981  -1.982 -14.757  1.00  0.00    -0.650 OA
BRANCH   8  10
HETATM   10  O   UNL     1     -24.725  -0.114 -14.846  1.00  0.00    -0.776 OA
HETATM   11  H   UNL     1     -25.381   0.423 -14.363  1.00  0.00     0.167 HD
ENDBRANCH   8  10
ENDBRANCH   7   8
ENDBRANCH   6   7
ENDBRANCH   5   6
BRANCH   5  12
HETATM   12  N   UNL     1     -23.524  -4.958 -12.771  1.00  0.00     0.092 N 
HETATM   13  H   UNL     1     -24.275  -5.650 -12.749  1.00  0.00     0.313 HD
HETATM   14  H   UNL     1     -22.831  -5.258 -12.090  1.00  0.00     0.313 HD
ENDBRANCH   5  12
ENDBRANCH   2   5
BRANCH   1  15
HETATM   15  C   UNL     1     -22.697  -3.856  -8.831  1.00  0.00     0.128 C 
BRANCH  15  16
HETATM   16  C   UNL     1     -21.253  -4.192  -8.443  1.00  0.00     0.078 C 
BRANCH  16  17
HETATM   17  C   UNL     1     -21.200  -5.153  -7.309  1.00  0.00     0.027 A 
HETATM   18  C   UNL     1     -22.031  -5.360  -6.229  1.00  0.00     0.114 A 
HETATM   19  N   UNL     1     -21.569  -6.388  -5.448  1.00  0.00    -0.360 N 
HETATM   20  C   UNL     1     -20.467  -6.798  -6.029  1.00  0.00     0.180 A 
ATOM     21  HN  UNL     1     -21.991  -6.756  -4.596  1.00  0.00     0.166 HD
HETATM   22  N   UNL     1     -20.199  -6.079  -7.158  1.00  0.00    -0.355 N 
HETATM   23  H   UNL     1     -19.405  -6.214  -7.775  1.00  0.00     0.166 HD
ENDBRANCH  16  17
ENDBRANCH  15  16
ENDBRANCH   1  15
TORSDOF 9
BEGIN_RES ARG D 557
REMARK  4 active torsions:
REMARK  status: ('A' for Active; 'I' for Inactive)
REMARK    1  A    between atoms: CA   and  CB  
REMARK    2  A    between atoms: CB   and  CG  
REMARK    3  A    between atoms: CG   and  CD  
REMARK    4  A    between atoms: CD   and  NE  
REMARK       I    between atoms: NE   and  CZ  
REMARK       I    between atoms: CZ   and  NH1 
REMARK       I    between atoms: CZ   and  NH2 
ROOT
ATOM      1  CA  ARG D 557     -26.217   2.705 -17.014  1.00 35.49     0.159 C 
ENDROOT
BRANCH   1   2
ATOM      2  CB  ARG D 557     -26.789   1.319 -17.183  1.00 35.49     0.034 C 
BRANCH   2   3
ATOM      3  CG  ARG D 557     -28.230   1.227 -17.448  1.00 35.49     0.027 C 
BRANCH   3   4
ATOM      4  CD  ARG D 557     -28.920   0.316 -16.506  1.00 35.49     0.116 C 
BRANCH   4   5
ATOM      5  NE  ARG D 557     -28.230  -0.939 -16.362  1.00 35.49    -0.212 N 
ATOM      6  CZ  ARG D 557     -28.621  -2.091 -16.859  1.00 35.49     0.666 C 
ATOM      7  NH1 ARG D 557     -29.734  -2.222 -17.556  1.00 35.49    -0.235 N 
ATOM      8  NH2 ARG D 557     -27.859  -3.125 -16.647  1.00 35.49    -0.235 N 
ATOM      9  HH  ARG D 557     -30.249  -1.555 -17.709  1.00 35.49     0.174 HD
ATOM     10  HH  ARG D 557     -29.937  -2.998 -17.858  1.00 35.49     0.174 HD
ATOM     11  HH  ARG D 557     -27.142  -3.009 -16.200  1.00 35.49     0.174 HD
ATOM     12  HH  ARG D 557     -28.076  -3.885 -16.956  1.00 35.49     0.174 HD
ATOM     13  HE  ARG D 557     -27.540  -0.961 -15.866  1.00 35.49     0.178 HD
ENDBRANCH   4   5
ENDBRANCH   3   4
ENDBRANCH   2   3
ENDBRANCH   1   2
END_RES ARG D 557
BEGIN_RES GLU D 570
REMARK  3 active torsions:
REMARK  status: ('A' for Active; 'I' for Inactive)
REMARK    5  A    between atoms: CA   and  CB  
REMARK    6  A    between atoms: CB   and  CG  
REMARK    7  A    between atoms: CG   and  CD  
ROOT
ATOM     14  CA  GLU D 570     -18.033  -6.348 -13.375  1.00 32.92     0.160 C 
ENDROOT
BRANCH  14  15
ATOM     15  CB  GLU D 570     -19.500  -6.345 -13.794  1.00 32.92     0.043 C 
BRANCH  15  16
ATOM     16  CG  GLU D 570     -19.810  -5.970 -15.198  1.00 32.92     0.100 C 
BRANCH  16  17
ATOM     17  CD  GLU D 570     -21.281  -5.713 -15.428  1.00 32.92     0.185 C 
ATOM     18  OE1 GLU D 570     -21.624  -4.732 -16.117  1.00 32.92    -0.647 OA
ATOM     19  OE2 GLU D 570     -22.100  -6.490 -14.899  1.00 32.92    -0.647 OA
ENDBRANCH  16  17
ENDBRANCH  15  16
ENDBRANCH  14  15
END_RES GLU D 570
ENDMDL
MODEL 8
REMARK VINA RESULT:      -6.3      6.704     11.387
REMARK  9 active torsions:
REMARK  status: ('A' for Active; 'I' for Inactive)
REMARK    1  A    between atoms: C_2  and  C_7 
REMARK    2  A    between atoms: C_7  and  C_8 
REMARK    3  A    between atoms: C_8  and  N_9 
REMARK       I    between atoms: N_9  and  C_10 
REMARK    4  A    between atoms: C_10  and  C_12 
REMARK    5  A    between atoms: C_12  and  C_13 
REMARK    6  A    between atoms: C_12  and  N_18 
REMARK    7  A    between atoms: C_13  and  C_14 
REMARK    8  A    between atoms: C_14  and  C_15 
REMARK    9  A    between atoms: C_15  and  O_17 
ROOT
HETATM    1  N   UNL     1     -22.149  -3.384 -11.223  1.00  0.00    -0.359 N 
HETATM    2  C   UNL     1     -23.355  -3.030 -11.792  1.00  0.00     0.250 C 
HETATM    3  O   UNL     1     -24.411  -3.007 -11.165  1.00  0.00    -0.271 OA
HETATM    4  H   UNL     1     -21.321  -3.243 -11.792  1.00  0.00     0.162 HD
ENDROOT
BRANCH   2   5
HETATM    5  C   UNL     1     -23.235  -2.699 -13.303  1.00  0.00     0.309 C 
BRANCH   5   6
HETATM    6  C   UNL     1     -22.753  -3.929 -14.091  1.00  0.00     0.055 C 
BRANCH   6   7
HETATM    7  C   UNL     1     -23.450  -5.249 -13.755  1.00  0.00     0.112 C 
BRANCH   7   8
HETATM    8  C   UNL     1     -24.517  -5.638 -14.752  1.00  0.00     0.139 C 
HETATM    9  O   UNL     1     -25.265  -4.865 -15.327  1.00  0.00    -0.650 OA
BRANCH   8  10
HETATM   10  O   UNL     1     -24.565  -6.975 -14.958  1.00  0.00    -0.776 OA
HETATM   11  H   UNL     1     -25.088  -7.464 -14.295  1.00  0.00     0.167 HD
ENDBRANCH   8  10
ENDBRANCH   7   8
ENDBRANCH   6   7
ENDBRANCH   5   6
BRANCH   5  12
HETATM   12  N   UNL     1     -24.537  -2.183 -13.778  1.00  0.00     0.092 N 
HETATM   13  H   UNL     1     -24.560  -1.170 -13.648  1.00  0.00     0.313 HD
HETATM   14  H   UNL     1     -25.293  -2.565 -13.215  1.00  0.00     0.313 HD
ENDBRANCH   5  12
ENDBRANCH   2   5
BRANCH   1  15
HETATM   15  C   UNL     1     -22.028  -3.733  -9.823  1.00  0.00     0.128 C 
BRANCH  15  16
HETATM   16  C   UNL     1     -20.716  -4.464  -9.519  1.00  0.00     0.078 C 
BRANCH  16  17
HETATM   17  C   UNL     1     -20.587  -4.778  -8.071  1.00  0.00     0.027 A 
HETATM   18  C   UNL     1     -20.844  -4.040  -6.934  1.00  0.00     0.114 A 
HETATM   19  N   UNL     1     -20.582  -4.774  -5.807  1.00  0.00    -0.360 N 
HETATM   20  C   UNL     1     -20.160  -5.938  -6.239  1.00  0.00     0.180 A 
ATOM     21  HN  UNL     1     -20.692  -4.479  -4.837  1.00  0.00     0.166 HD
HETATM   22  N   UNL     1     -20.142  -5.989  -7.603  1.00  0.00    -0.355 N 
HETATM   23  H   UNL     1     -19.856  -6.783  -8.165  1.00  0.00     0.166 HD
ENDBRANCH  16  17
ENDBRANCH  15  16
ENDBRANCH   1  15
TORSDOF 9
BEGIN_RES ARG D 557
REMARK  4 active torsions:
REMARK  status: ('A' for Active; 'I' for Inactive)
REMARK    1  A    between atoms: CA   and  CB  
REMARK    2  A    between atoms: CB   and  CG  
REMARK    3  A    between atoms: CG   and  CD  
REMARK    4  A    between atoms: CD   and  NE  
REMARK       I    between atoms: NE   and  CZ  
REMARK       I    between atoms: CZ   and  NH1 
REMARK       I    between atoms: CZ   and  NH2 
ROOT
ATOM      1  CA  ARG D 557     -26.217   2.705 -17.014  1.00 35.49     0.159 C 
ENDROOT
BRANCH   1   2
ATOM      2  CB  ARG D 557     -26.789   1.319 -17.183  1.00 35.49     0.034 C 
BRANCH   2   3
ATOM      3  CG  ARG D 557     -28.160   1.107 -16.702  1.00 35.49     0.027 C 
BRANCH   3   4
ATOM      4  CD  ARG D 557     -28.774  -0.115 -17.270  1.00 35.49     0.116 C 
BRANCH   4   5
ATOM      5  NE  ARG D 557     -28.133  -1.314 -16.799  1.00 35.49    -0.212 N 
ATOM      6  CZ  ARG D 557     -28.565  -2.541 -16.987  1.00 35.49     0.666 C 
ATOM      7  NH1 ARG D 557     -29.681  -2.807 -17.641  1.00 35.49    -0.235 N 
ATOM      8  NH2 ARG D 557     -27.843  -3.512 -16.507  1.00 35.49    -0.235 N 
ATOM      9  HH  ARG D 557     -30.170  -2.184 -17.967  1.00 35.49     0.174 HD
ATOM     10  HH  ARG D 557     -29.911  -3.627 -17.735  1.00 35.49     0.174 HD
ATOM     11  HH  ARG D 557     -27.123  -3.310 -16.096  1.00 35.49     0.174 HD
ATOM     12  HH  ARG D 557     -28.087  -4.317 -16.612  1.00 35.49     0.174 HD
ATOM     13  HE  ARG D 557     -27.445  -1.232 -16.306  1.00 35.49     0.178 HD
ENDBRANCH   4   5
ENDBRANCH   3   4
ENDBRANCH   2   3
ENDBRANCH   1   2
END_RES ARG D 557
BEGIN_RES GLU D 570
REMARK  3 active torsions:
REMARK  status: ('A' for Active; 'I' for Inactive)
REMARK    5  A    between atoms: CA   and  CB  
REMARK    6  A    between atoms: CB   and  CG  
REMARK    7  A    between atoms: CG   and  CD  
ROOT
ATOM     14  CA  GLU D 570     -18.033  -6.348 -13.375  1.00 32.92     0.160 C 
ENDROOT
BRANCH  14  15
ATOM     15  CB  GLU D 570     -19.500  -6.345 -13.794  1.00 32.92     0.043 C 
BRANCH  15  16
ATOM     16  CG  GLU D 570     -20.004  -7.532 -14.532  1.00 32.92     0.100 C 
BRANCH  16  17
ATOM     17  CD  GLU D 570     -20.883  -7.167 -15.705  1.00 32.92     0.185 C 
ATOM     18  OE1 GLU D 570     -21.871  -7.880 -15.965  1.00 32.92    -0.647 OA
ATOM     19  OE2 GLU D 570     -20.570  -6.168 -16.382  1.00 32.92    -0.647 OA
ENDBRANCH  16  17
ENDBRANCH  15  16
ENDBRANCH  14  15
END_RES GLU D 570
ENDMDL
MODEL 9
REMARK VINA RESULT:      -6.2      8.691     12.530
REMARK  9 active torsions:
REMARK  status: ('A' for Active; 'I' for Inactive)
REMARK    1  A    between atoms: C_2  and  C_7 
REMARK    2  A    between atoms: C_7  and  C_8 
REMARK    3  A    between atoms: C_8  and  N_9 
REMARK       I    between atoms: N_9  and  C_10 
REMARK    4  A    between atoms: C_10  and  C_12 
REMARK    5  A    between atoms: C_12  and  C_13 
REMARK    6  A    between atoms: C_12  and  N_18 
REMARK    7  A    between atoms: C_13  and  C_14 
REMARK    8  A    between atoms: C_14  and  C_15 
REMARK    9  A    between atoms: C_15  and  O_17 
ROOT
HETATM    1  N   UNL     1     -20.393  -5.674  -5.686  1.00  0.00    -0.359 N 
HETATM    2  C   UNL     1     -21.324  -6.465  -5.044  1.00  0.00     0.250 C 
HETATM    3  O   UNL     1     -22.496  -6.130  -4.890  1.00  0.00    -0.271 OA
HETATM    4  H   UNL     1     -19.491  -6.099  -5.875  1.00  0.00     0.162 HD
ENDROOT
BRANCH   2   5
HETATM    5  C   UNL     1     -20.724  -7.795  -4.517  1.00  0.00     0.309 C 
BRANCH   5   6
HETATM    6  C   UNL     1     -21.467  -8.259  -3.251  1.00  0.00     0.055 C 
BRANCH   6   7
HETATM    7  C   UNL     1     -21.086  -7.540  -1.955  1.00  0.00     0.112 C 
BRANCH   7   8
HETATM    8  C   UNL     1     -22.239  -6.801  -1.315  1.00  0.00     0.139 C 
HETATM    9  O   UNL     1     -22.875  -7.183  -0.348  1.00  0.00    -0.650 OA
BRANCH   8  10
HETATM   10  O   UNL     1     -22.507  -5.630  -1.938  1.00  0.00    -0.776 OA
HETATM   11  H   UNL     1     -22.042  -4.860  -1.562  1.00  0.00     0.167 HD
ENDBRANCH   8  10
ENDBRANCH   7   8
ENDBRANCH   6   7
ENDBRANCH   5   6
BRANCH   5  12
HETATM   12  N   UNL     1     -20.761  -8.794  -5.607  1.00  0.00     0.092 N 
HETATM   13  H   UNL     1     -20.035  -9.494  -5.439  1.00  0.00     0.313 HD
HETATM   14  H   UNL     1     -20.540  -8.353  -6.496  1.00  0.00     0.313 HD
ENDBRANCH   5  12
ENDBRANCH   2   5
BRANCH   1  15
HETATM   15  C   UNL     1     -20.735  -4.388  -6.257  1.00  0.00     0.128 C 
BRANCH  15  16
HETATM   16  C   UNL     1     -20.330  -4.283  -7.732  1.00  0.00     0.078 C 
BRANCH  16  17
HETATM   17  C   UNL     1     -21.508  -4.037  -8.606  1.00  0.00     0.027 A 
HETATM   18  C   UNL     1     -21.637  -3.899  -9.972  1.00  0.00     0.114 A 
HETATM   19  N   UNL     1     -22.948  -3.696 -10.319  1.00  0.00    -0.360 N 
HETATM   20  C   UNL     1     -23.612  -3.696  -9.189  1.00  0.00     0.180 A 
ATOM     21  HN  UNL     1     -23.326  -3.571 -11.258  1.00  0.00     0.166 HD
HETATM   22  N   UNL     1     -22.784  -3.895  -8.122  1.00  0.00    -0.355 N 
HETATM   23  H   UNL     1     -23.067  -3.937  -7.149  1.00  0.00     0.166 HD
ENDBRANCH  16  17
ENDBRANCH  15  16
ENDBRANCH   1  15
TORSDOF 9
BEGIN_RES ARG D 557
REMARK  4 active torsions:
REMARK  status: ('A' for Active; 'I' for Inactive)
REMARK    1  A    between atoms: CA   and  CB  
REMARK    2  A    between atoms: CB   and  CG  
REMARK    3  A    between atoms: CG   and  CD  
REMARK    4  A    between atoms: CD   and  NE  
REMARK       I    between atoms: NE   and  CZ  
REMARK       I    between atoms: CZ   and  NH1 
REMARK       I    between atoms: CZ   and  NH2 
ROOT
ATOM      1  CA  ARG D 557     -26.217   2.705 -17.014  1.00 35.49     0.159 C 
ENDROOT
BRANCH   1   2
ATOM      2  CB  ARG D 557     -26.789   1.319 -17.183  1.00 35.49     0.034 C 
BRANCH   2   3
ATOM      3  CG  ARG D 557     -25.838   0.201 -17.133  1.00 35.49     0.027 C 
BRANCH   3   4
ATOM      4  CD  ARG D 557     -24.765   0.418 -16.137  1.00 35.49     0.116 C 
BRANCH   4   5
ATOM      5  NE  ARG D 557     -24.905  -0.444 -14.993  1.00 35.49    -0.212 N 
ATOM      6  CZ  ARG D 557     -24.088  -1.419 -14.661  1.00 35.49     0.666 C 
ATOM      7  NH1 ARG D 557     -23.023  -1.727 -15.378  1.00 35.49    -0.235 N 
ATOM      8  NH2 ARG D 557     -24.358  -2.086 -13.576  1.00 35.49    -0.235 N 
ATOM      9  HH  ARG D 557     -22.825  -1.300 -16.094  1.00 35.49     0.174 HD
ATOM     10  HH  ARG D 557     -22.525  -2.371 -15.111  1.00 35.49     0.174 HD
ATOM     11  HH  ARG D 557     -25.048  -1.860 -13.129  1.00 35.49     0.174 HD
ATOM     12  HH  ARG D 557     -23.852  -2.719 -13.328  1.00 35.49     0.174 HD
ATOM     13  HE  ARG D 557     -25.604  -0.364 -14.515  1.00 35.49     0.178 HD
ENDBRANCH   4   5
ENDBRANCH   3   4
ENDBRANCH   2   3
ENDBRANCH   1   2
END_RES ARG D 557
BEGIN_RES GLU D 570
REMARK  3 active torsions:
REMARK  status: ('A' for Active; 'I' for Inactive)
REMARK    5  A    between atoms: CA   and  CB  
REMARK    6  A    between atoms: CB   and  CG  
REMARK    7  A    between atoms: CG   and  CD  
ROOT
ATOM     14  CA  GLU D 570     -18.033  -6.348 -13.375  1.00 32.92     0.160 C 
ENDROOT
BRANCH  14  15
ATOM     15  CB  GLU D 570     -19.500  -6.345 -13.794  1.00 32.92     0.043 C 
BRANCH  15  16
ATOM     16  CG  GLU D 570     -20.457  -5.608 -12.929  1.00 32.92     0.100 C 
BRANCH  16  17
ATOM     17  CD  GLU D 570     -21.737  -5.242 -13.645  1.00 32.92     0.185 C 
ATOM     18  OE1 GLU D 570     -22.267  -6.077 -14.403  1.00 32.92    -0.647 OA
ATOM     19  OE2 GLU D 570     -22.205  -4.101 -13.459  1.00 32.92    -0.647 OA
ENDBRANCH  16  17
ENDBRANCH  15  16
ENDBRANCH  14  15
END_RES GLU D 570
ENDMDL
