MODEL 1
REMARK VINA RESULT:      -5.9      0.000      0.000
REMARK  27 active torsions:
REMARK  status: ('A' for Active; 'I' for Inactive)
REMARK    1  A    between atoms: C_2  and  C_3 
REMARK    2  A    between atoms: C_3  and  O_4 
REMARK    3  A    between atoms: C_3  and  O_5 
REMARK    4  A    between atoms: O_5  and  C_6 
REMARK    5  A    between atoms: C_7  and  O_70 
REMARK    6  A    between atoms: C_10  and  C_68 
REMARK    7  A    between atoms: C_14  and  O_67 
REMARK    8  A    between atoms: C_15  and  O_66 
REMARK    9  A    between atoms: C_17  and  C_19 
REMARK   10  A    between atoms: C_19  and  O_20 
REMARK   11  A    between atoms: C_23  and  O_65 
REMARK   12  A    between atoms: C_24  and  O_64 
REMARK   13  A    between atoms: C_26  and  C_28 
REMARK   14  A    between atoms: C_28  and  O_29 
REMARK   15  A    between atoms: C_32  and  O_63 
REMARK   16  A    between atoms: C_33  and  O_62 
REMARK   17  A    between atoms: C_35  and  C_37 
REMARK   18  A    between atoms: C_37  and  O_38 
REMARK   19  A    between atoms: C_41  and  O_61 
REMARK   20  A    between atoms: C_42  and  O_60 
REMARK   21  A    between atoms: C_44  and  C_46 
REMARK   22  A    between atoms: C_46  and  O_47 
REMARK   23  A    between atoms: C_50  and  O_59 
REMARK   24  A    between atoms: C_51  and  O_58 
REMARK   25  A    between atoms: C_54  and  C_56 
REMARK   26  A    between atoms: C_56  and  O_57 
REMARK   27  A    between atoms: C_68  and  O_69 
ROOT
HETATM    1  C   UNL     1     -20.823 -14.928  -0.638  1.00  0.00     0.189 C 
HETATM    2  C   UNL     1     -20.727 -15.702  -2.149  1.00  0.00     0.205 C 
HETATM    3  C   UNL     1     -19.215 -15.742  -2.715  1.00  0.00     0.292 C 
HETATM    4  O   UNL     1     -18.511 -16.582  -1.403  1.00  0.00    -0.348 OA
HETATM    5  C   UNL     1     -19.358 -16.588   0.027  1.00  0.00     0.180 C 
HETATM    6  C   UNL     1     -19.377 -15.128   0.276  1.00  0.00     0.187 C 
HETATM    7  O   UNL     1     -18.738 -14.377   1.395  1.00  0.00    -0.348 OA
HETATM    8  C   UNL     1     -17.127 -13.972   1.455  1.00  0.00     0.292 C 
HETATM    9  C   UNL     1     -16.619 -12.668   0.737  1.00  0.00     0.204 C 
HETATM   10  C   UNL     1     -15.705 -13.113  -0.434  1.00  0.00     0.183 C 
HETATM   11  C   UNL     1     -14.967 -14.220  -1.177  1.00  0.00     0.187 C 
HETATM   12  C   UNL     1     -15.205 -15.327   0.023  1.00  0.00     0.180 C 
HETATM   13  O   UNL     1     -16.033 -14.988   1.341  1.00  0.00    -0.348 OA
HETATM   14  O   UNL     1     -13.937 -13.716  -2.333  1.00  0.00    -0.348 OA
HETATM   15  C   UNL     1     -14.172 -13.838  -4.060  1.00  0.00     0.292 C 
HETATM   16  C   UNL     1     -14.746 -12.401  -5.489  1.00  0.00     0.204 C 
HETATM   17  C   UNL     1     -16.375 -12.832  -6.591  1.00  0.00     0.183 C 
HETATM   18  C   UNL     1     -17.261 -14.542  -6.376  1.00  0.00     0.187 C 
HETATM   19  C   UNL     1     -16.462 -15.804  -5.138  1.00  0.00     0.180 C 
HETATM   20  O   UNL     1     -14.915 -15.458  -4.280  1.00  0.00    -0.348 OA
HETATM   21  O   UNL     1     -18.283 -14.883  -7.378  1.00  0.00    -0.348 OA
HETATM   22  C   UNL     1     -19.733 -14.386  -7.362  1.00  0.00     0.292 C 
HETATM   23  C   UNL     1     -20.152 -12.897  -7.162  1.00  0.00     0.204 C 
HETATM   24  C   UNL     1     -20.561 -12.631  -5.727  1.00  0.00     0.183 C 
HETATM   25  C   UNL     1     -21.664 -13.328  -4.990  1.00  0.00     0.187 C 
HETATM   26  C   UNL     1     -21.302 -14.902  -5.405  1.00  0.00     0.180 C 
HETATM   27  O   UNL     1     -20.742 -15.208  -6.728  1.00  0.00    -0.348 OA
HETATM   28  O   UNL     1     -21.558 -12.997  -3.505  1.00  0.00    -0.348 OA
HETATM   29  C   UNL     1     -21.596 -11.824  -2.548  1.00  0.00     0.292 C 
HETATM   30  C   UNL     1     -21.172 -10.255  -2.434  1.00  0.00     0.204 C 
HETATM   31  C   UNL     1     -19.695  -9.886  -2.754  1.00  0.00     0.183 C 
HETATM   32  C   UNL     1     -18.709 -10.970  -2.316  1.00  0.00     0.187 C 
HETATM   33  C   UNL     1     -19.363 -12.270  -2.115  1.00  0.00     0.180 C 
HETATM   34  O   UNL     1     -20.623 -12.167  -1.503  1.00  0.00    -0.348 OA
HETATM   35  O   UNL     1     -17.361 -10.752  -1.922  1.00  0.00    -0.348 OA
HETATM   36  C   UNL     1     -16.193 -10.921  -2.937  1.00  0.00     0.292 C 
HETATM   37  C   UNL     1     -16.560 -10.042  -4.004  1.00  0.00     0.204 C 
HETATM   38  C   UNL     1     -17.441 -11.056  -4.805  1.00  0.00     0.183 C 
HETATM   39  C   UNL     1     -17.586 -12.970  -4.267  1.00  0.00     0.187 C 
HETATM   40  O   UNL     1     -18.776 -14.287  -3.753  1.00  0.00    -0.348 OA
HETATM   41  C   UNL     1     -16.201 -13.511  -4.466  1.00  0.00     0.180 C 
HETATM   42  O   UNL     1     -15.613 -12.225  -3.546  1.00  0.00    -0.348 OA
ENDROOT
BRANCH   1  43
HETATM   43  O   UNL     1     -22.066 -14.573  -0.033  1.00  0.00    -0.351 OA
BRANCH  43  44
HETATM   44  C   UNL     1     -22.181 -13.502   0.873  1.00  0.00     0.257 C 
BRANCH  44  45
HETATM   45  C   UNL     1     -22.577 -14.021   2.267  1.00  0.00     0.056 C 
HETATM   46  C   UNL     1     -23.610 -15.130   2.107  1.00  0.00     0.010 C 
ENDBRANCH  44  45
BRANCH  44  47
HETATM   47  O   UNL     1     -21.028 -12.720   1.043  1.00  0.00    -0.371 OA
HETATM   48  H   UNL     1     -21.223 -11.799   0.820  1.00  0.00     0.212 HD
ENDBRANCH  44  47
ENDBRANCH  43  44
ENDBRANCH   1  43
BRANCH   2  49
HETATM   49  O   UNL     1     -21.174 -17.083  -2.127  1.00  0.00    -0.388 OA
HETATM   50  H   UNL     1     -22.106 -17.139  -1.842  1.00  0.00     0.210 HD
ENDBRANCH   2  49
BRANCH   5  51
HETATM   51  C   UNL     1     -19.246 -17.183   1.461  1.00  0.00     0.198 C 
BRANCH  51  52
HETATM   52  O   UNL     1     -20.184 -16.627   2.378  1.00  0.00    -0.398 OA
HETATM   53  H   UNL     1     -19.849 -15.750   2.658  1.00  0.00     0.209 HD
ENDBRANCH  51  52
ENDBRANCH   5  51
BRANCH   9  54
HETATM   54  O   UNL     1     -15.987 -11.553   1.384  1.00  0.00    -0.388 OA
HETATM   55  H   UNL     1     -15.637 -10.987   0.654  1.00  0.00     0.210 HD
ENDBRANCH   9  54
BRANCH  38  56
HETATM   56  O   UNL     1     -17.174 -10.533  -6.146  1.00  0.00    -0.390 OA
HETATM   57  H   UNL     1     -16.853  -9.596  -6.037  1.00  0.00     0.210 HD
ENDBRANCH  38  56
BRANCH  41  58
HETATM   58  C   UNL     1     -15.080 -14.439  -6.050  1.00  0.00     0.198 C 
BRANCH  58  59
HETATM   59  O   UNL     1     -13.588 -14.738  -6.034  1.00  0.00    -0.398 OA
HETATM   60  H   UNL     1     -13.344 -15.225  -6.871  1.00  0.00     0.209 HD
ENDBRANCH  58  59
ENDBRANCH  41  58
BRANCH  10  61
HETATM   61  O   UNL     1     -15.893 -12.172  -1.337  1.00  0.00    -0.390 OA
HETATM   62  H   UNL     1     -16.604 -12.511  -1.923  1.00  0.00     0.210 HD
ENDBRANCH  10  61
BRANCH  12  63
HETATM   63  C   UNL     1     -13.994 -16.138   0.415  1.00  0.00     0.198 C 
BRANCH  63  64
HETATM   64  O   UNL     1     -12.833 -15.583  -0.206  1.00  0.00    -0.398 OA
HETATM   65  H   UNL     1     -12.987 -15.670  -1.172  1.00  0.00     0.209 HD
ENDBRANCH  63  64
ENDBRANCH  12  63
BRANCH  37  66
HETATM   66  O   UNL     1     -15.432  -9.481  -4.701  1.00  0.00    -0.388 OA
HETATM   67  H   UNL     1     -14.904 -10.214  -5.108  1.00  0.00     0.210 HD
ENDBRANCH  37  66
BRANCH  16  68
HETATM   68  O   UNL     1     -13.754 -12.145  -6.574  1.00  0.00    -0.388 OA
HETATM   69  H   UNL     1     -13.804 -11.167  -6.720  1.00  0.00     0.210 HD
ENDBRANCH  16  68
BRANCH  31  70
HETATM   70  O   UNL     1     -19.218  -8.604  -2.398  1.00  0.00    -0.390 OA
HETATM   71  H   UNL     1     -19.701  -7.953  -2.944  1.00  0.00     0.210 HD
ENDBRANCH  31  70
BRANCH  33  72
HETATM   72  C   UNL     1     -18.571 -13.322  -1.512  1.00  0.00     0.198 C 
BRANCH  72  73
HETATM   73  O   UNL     1     -17.567 -14.095  -2.062  1.00  0.00    -0.398 OA
HETATM   74  H   UNL     1     -17.008 -13.652  -2.723  1.00  0.00     0.209 HD
ENDBRANCH  72  73
ENDBRANCH  33  72
BRANCH  17  75
HETATM   75  O   UNL     1     -16.277 -12.264  -7.913  1.00  0.00    -0.390 OA
HETATM   76  H   UNL     1     -16.662 -11.356  -7.809  1.00  0.00     0.210 HD
ENDBRANCH  17  75
BRANCH  19  77
HETATM   77  C   UNL     1     -16.282 -17.182  -5.793  1.00  0.00     0.198 C 
BRANCH  77  78
HETATM   78  O   UNL     1     -15.042 -17.183  -6.481  1.00  0.00    -0.398 OA
HETATM   79  H   UNL     1     -14.371 -16.875  -5.849  1.00  0.00     0.209 HD
ENDBRANCH  77  78
ENDBRANCH  19  77
BRANCH  30  80
HETATM   80  O   UNL     1     -21.296  -9.867  -1.018  1.00  0.00    -0.388 OA
HETATM   81  H   UNL     1     -20.893 -10.590  -0.484  1.00  0.00     0.210 HD
ENDBRANCH  30  80
BRANCH  23  82
HETATM   82  O   UNL     1     -21.320 -12.520  -7.918  1.00  0.00    -0.388 OA
HETATM   83  H   UNL     1     -21.419 -11.552  -7.793  1.00  0.00     0.210 HD
ENDBRANCH  23  82
BRANCH  24  84
HETATM   84  O   UNL     1     -20.646 -11.249  -5.505  1.00  0.00    -0.390 OA
HETATM   85  H   UNL     1     -19.708 -11.073  -5.416  1.00  0.00     0.210 HD
ENDBRANCH  24  84
BRANCH  26  86
HETATM   86  C   UNL     1     -22.504 -15.861  -5.269  1.00  0.00     0.198 C 
BRANCH  86  87
HETATM   87  O   UNL     1     -23.526 -15.539  -6.224  1.00  0.00    -0.398 OA
HETATM   88  H   UNL     1     -23.332 -14.638  -6.553  1.00  0.00     0.209 HD
ENDBRANCH  86  87
ENDBRANCH  26  86
TORSDOF 27
BEGIN_RES ARG D 557
REMARK  4 active torsions:
REMARK  status: ('A' for Active; 'I' for Inactive)
REMARK    1  A    between atoms: CA   and  CB  
REMARK    2  A    between atoms: CB   and  CG  
REMARK    3  A    between atoms: CG   and  CD  
REMARK    4  A    between atoms: CD   and  NE  
REMARK       I    between atoms: NE   and  CZ  
REMARK       I    between atoms: CZ   and  NH1 
REMARK       I    between atoms: CZ   and  NH2 
ROOT
ATOM      1  CA  ARG D 557     -26.217   2.705 -17.014  1.00 35.49     0.159 C 
ENDROOT
BRANCH   1   2
ATOM      2  CB  ARG D 557     -26.789   1.319 -17.183  1.00 35.49     0.034 C 
BRANCH   2   3
ATOM      3  CG  ARG D 557     -25.870   0.194 -16.967  1.00 35.49     0.027 C 
BRANCH   3   4
ATOM      4  CD  ARG D 557     -26.316  -0.696 -15.871  1.00 35.49     0.116 C 
BRANCH   4   5
ATOM      5  NE  ARG D 557     -25.264  -0.960 -14.926  1.00 35.49    -0.212 N 
ATOM      6  CZ  ARG D 557     -24.977  -2.132 -14.404  1.00 35.49     0.666 C 
ATOM      7  NH1 ARG D 557     -25.659  -3.224 -14.694  1.00 35.49    -0.235 N 
ATOM      8  NH2 ARG D 557     -23.974  -2.191 -13.577  1.00 35.49    -0.235 N 
ATOM      9  HH  ARG D 557     -26.322  -3.209 -15.237  1.00 35.49     0.174 HD
ATOM     10  HH  ARG D 557     -25.425  -3.961 -14.325  1.00 35.49     0.174 HD
ATOM     11  HH  ARG D 557     -23.547  -1.471 -13.414  1.00 35.49     0.174 HD
ATOM     12  HH  ARG D 557     -23.756  -2.930 -13.223  1.00 35.49     0.174 HD
ATOM     13  HE  ARG D 557     -24.820  -0.299 -14.627  1.00 35.49     0.178 HD
ENDBRANCH   4   5
ENDBRANCH   3   4
ENDBRANCH   2   3
ENDBRANCH   1   2
END_RES ARG D 557
BEGIN_RES GLU D 570
REMARK  3 active torsions:
REMARK  status: ('A' for Active; 'I' for Inactive)
REMARK    5  A    between atoms: CA   and  CB  
REMARK    6  A    between atoms: CB   and  CG  
REMARK    7  A    between atoms: CG   and  CD  
ROOT
ATOM     14  CA  GLU D 570     -18.033  -6.348 -13.375  1.00 32.92     0.160 C 
ENDROOT
BRANCH  14  15
ATOM     15  CB  GLU D 570     -19.500  -6.345 -13.794  1.00 32.92     0.043 C 
BRANCH  15  16
ATOM     16  CG  GLU D 570     -20.452  -5.580 -12.948  1.00 32.92     0.100 C 
BRANCH  16  17
ATOM     17  CD  GLU D 570     -21.704  -5.174 -13.689  1.00 32.92     0.185 C 
ATOM     18  OE1 GLU D 570     -22.734  -4.911 -13.039  1.00 32.92    -0.647 OA
ATOM     19  OE2 GLU D 570     -21.659  -5.134 -14.934  1.00 32.92    -0.647 OA
ENDBRANCH  16  17
ENDBRANCH  15  16
ENDBRANCH  14  15
END_RES GLU D 570
ENDMDL
MODEL 2
REMARK VINA RESULT:      -5.2      1.907      6.139
REMARK  27 active torsions:
REMARK  status: ('A' for Active; 'I' for Inactive)
REMARK    1  A    between atoms: C_2  and  C_3 
REMARK    2  A    between atoms: C_3  and  O_4 
REMARK    3  A    between atoms: C_3  and  O_5 
REMARK    4  A    between atoms: O_5  and  C_6 
REMARK    5  A    between atoms: C_7  and  O_70 
REMARK    6  A    between atoms: C_10  and  C_68 
REMARK    7  A    between atoms: C_14  and  O_67 
REMARK    8  A    between atoms: C_15  and  O_66 
REMARK    9  A    between atoms: C_17  and  C_19 
REMARK   10  A    between atoms: C_19  and  O_20 
REMARK   11  A    between atoms: C_23  and  O_65 
REMARK   12  A    between atoms: C_24  and  O_64 
REMARK   13  A    between atoms: C_26  and  C_28 
REMARK   14  A    between atoms: C_28  and  O_29 
REMARK   15  A    between atoms: C_32  and  O_63 
REMARK   16  A    between atoms: C_33  and  O_62 
REMARK   17  A    between atoms: C_35  and  C_37 
REMARK   18  A    between atoms: C_37  and  O_38 
REMARK   19  A    between atoms: C_41  and  O_61 
REMARK   20  A    between atoms: C_42  and  O_60 
REMARK   21  A    between atoms: C_44  and  C_46 
REMARK   22  A    between atoms: C_46  and  O_47 
REMARK   23  A    between atoms: C_50  and  O_59 
REMARK   24  A    between atoms: C_51  and  O_58 
REMARK   25  A    between atoms: C_54  and  C_56 
REMARK   26  A    between atoms: C_56  and  O_57 
REMARK   27  A    between atoms: C_68  and  O_69 
ROOT
HETATM    1  C   UNL     1     -21.336 -12.935  -0.339  1.00  0.00     0.189 C 
HETATM    2  C   UNL     1     -19.728 -12.635   0.124  1.00  0.00     0.205 C 
HETATM    3  C   UNL     1     -18.914 -11.816  -1.006  1.00  0.00     0.292 C 
HETATM    4  O   UNL     1     -19.939 -10.449  -1.069  1.00  0.00    -0.348 OA
HETATM    5  C   UNL     1     -21.472 -10.631  -0.455  1.00  0.00     0.180 C 
HETATM    6  C   UNL     1     -21.948 -11.697  -1.367  1.00  0.00     0.187 C 
HETATM    7  O   UNL     1     -23.046 -11.624  -2.374  1.00  0.00    -0.348 OA
HETATM    8  C   UNL     1     -22.895 -10.941  -3.881  1.00  0.00     0.292 C 
HETATM    9  C   UNL     1     -22.316 -11.791  -5.072  1.00  0.00     0.204 C 
HETATM   10  C   UNL     1     -20.951 -11.167  -5.462  1.00  0.00     0.183 C 
HETATM   11  C   UNL     1     -19.929 -10.047  -5.315  1.00  0.00     0.187 C 
HETATM   12  C   UNL     1     -20.962  -9.073  -4.474  1.00  0.00     0.180 C 
HETATM   13  O   UNL     1     -22.439  -9.531  -4.088  1.00  0.00    -0.348 OA
HETATM   14  O   UNL     1     -18.710 -10.071  -6.393  1.00  0.00    -0.348 OA
HETATM   15  C   UNL     1     -17.050 -10.516  -6.075  1.00  0.00     0.292 C 
HETATM   16  C   UNL     1     -15.984 -12.286  -6.485  1.00  0.00     0.204 C 
HETATM   17  C   UNL     1     -15.120 -13.199  -4.912  1.00  0.00     0.183 C 
HETATM   18  C   UNL     1     -15.210 -12.385  -3.156  1.00  0.00     0.187 C 
HETATM   19  C   UNL     1     -16.080 -10.656  -3.024  1.00  0.00     0.180 C 
HETATM   20  O   UNL     1     -16.707  -9.784  -4.472  1.00  0.00    -0.348 OA
HETATM   21  O   UNL     1     -14.355 -12.975  -2.113  1.00  0.00    -0.348 OA
HETATM   22  C   UNL     1     -14.696 -14.229  -1.301  1.00  0.00     0.292 C 
HETATM   23  C   UNL     1     -15.196 -15.570  -1.918  1.00  0.00     0.204 C 
HETATM   24  C   UNL     1     -16.704 -15.692  -1.815  1.00  0.00     0.183 C 
HETATM   25  C   UNL     1     -17.498 -15.661  -0.545  1.00  0.00     0.187 C 
HETATM   26  C   UNL     1     -16.784 -14.339   0.177  1.00  0.00     0.180 C 
HETATM   27  O   UNL     1     -15.353 -14.069  -0.021  1.00  0.00    -0.348 OA
HETATM   28  O   UNL     1     -18.977 -15.509  -0.886  1.00  0.00    -0.348 OA
HETATM   29  C   UNL     1     -20.098 -16.205  -1.625  1.00  0.00     0.292 C 
HETATM   30  C   UNL     1     -20.385 -17.116  -2.946  1.00  0.00     0.204 C 
HETATM   31  C   UNL     1     -19.881 -16.575  -4.314  1.00  0.00     0.183 C 
HETATM   32  C   UNL     1     -19.969 -15.051  -4.413  1.00  0.00     0.187 C 
HETATM   33  C   UNL     1     -20.071 -14.412  -3.095  1.00  0.00     0.180 C 
HETATM   34  O   UNL     1     -20.896 -15.114  -2.201  1.00  0.00    -0.348 OA
HETATM   35  O   UNL     1     -20.158 -14.310  -5.610  1.00  0.00    -0.348 OA
HETATM   36  C   UNL     1     -18.946 -13.706  -6.378  1.00  0.00     0.292 C 
HETATM   37  C   UNL     1     -18.109 -14.842  -6.610  1.00  0.00     0.204 C 
HETATM   38  C   UNL     1     -17.319 -14.788  -5.260  1.00  0.00     0.183 C 
HETATM   39  C   UNL     1     -17.565 -13.295  -3.962  1.00  0.00     0.187 C 
HETATM   40  O   UNL     1     -18.059 -12.896  -2.227  1.00  0.00    -0.348 OA
HETATM   41  C   UNL     1     -17.051 -12.089  -4.691  1.00  0.00     0.180 C 
HETATM   42  O   UNL     1     -18.049 -12.500  -5.988  1.00  0.00    -0.348 OA
ENDROOT
BRANCH   1  43
HETATM   43  O   UNL     1     -22.191 -13.821   0.383  1.00  0.00    -0.351 OA
BRANCH  43  44
HETATM   44  C   UNL     1     -22.277 -13.801   1.788  1.00  0.00     0.257 C 
BRANCH  44  45
HETATM   45  C   UNL     1     -23.745 -13.903   2.237  1.00  0.00     0.056 C 
HETATM   46  C   UNL     1     -23.845 -14.902   3.384  1.00  0.00     0.010 C 
ENDBRANCH  44  45
BRANCH  44  47
HETATM   47  O   UNL     1     -21.575 -14.817   2.457  1.00  0.00    -0.371 OA
HETATM   48  H   UNL     1     -21.002 -14.428   3.132  1.00  0.00     0.212 HD
ENDBRANCH  44  47
ENDBRANCH  43  44
ENDBRANCH   1  43
BRANCH   2  49
HETATM   49  O   UNL     1     -19.607 -11.849   1.339  1.00  0.00    -0.388 OA
HETATM   50  H   UNL     1     -19.172 -12.366   2.043  1.00  0.00     0.210 HD
ENDBRANCH   2  49
BRANCH   5  51
HETATM   51  C   UNL     1     -22.754  -9.781  -0.217  1.00  0.00     0.198 C 
BRANCH  51  52
HETATM   52  O   UNL     1     -23.925 -10.569  -0.020  1.00  0.00    -0.398 OA
HETATM   53  H   UNL     1     -24.501 -10.453  -0.803  1.00  0.00     0.209 HD
ENDBRANCH  51  52
ENDBRANCH   5  51
BRANCH   9  54
HETATM   54  O   UNL     1     -23.014 -12.108  -6.286  1.00  0.00    -0.388 OA
HETATM   55  H   UNL     1     -22.602 -12.943  -6.618  1.00  0.00     0.210 HD
ENDBRANCH   9  54
BRANCH  38  56
HETATM   56  O   UNL     1     -16.052 -15.332  -5.752  1.00  0.00    -0.390 OA
HETATM   57  H   UNL     1     -16.259 -15.873  -6.562  1.00  0.00     0.210 HD
ENDBRANCH  38  56
BRANCH  41  58
HETATM   58  C   UNL     1     -15.173 -11.066  -4.926  1.00  0.00     0.198 C 
BRANCH  58  59
HETATM   59  O   UNL     1     -14.924  -9.841  -5.794  1.00  0.00    -0.398 OA
HETATM   60  H   UNL     1     -15.727  -9.679  -6.365  1.00  0.00     0.209 HD
ENDBRANCH  58  59
ENDBRANCH  41  58
BRANCH  10  61
HETATM   61  O   UNL     1     -20.254 -12.205  -5.878  1.00  0.00    -0.390 OA
HETATM   62  H   UNL     1     -20.551 -12.365  -6.800  1.00  0.00     0.210 HD
ENDBRANCH  10  61
BRANCH  12  63
HETATM   63  C   UNL     1     -21.010  -7.631  -4.919  1.00  0.00     0.198 C 
BRANCH  63  64
HETATM   64  O   UNL     1     -20.017  -7.414  -5.922  1.00  0.00    -0.398 OA
HETATM   65  H   UNL     1     -20.054  -8.204  -6.503  1.00  0.00     0.209 HD
ENDBRANCH  63  64
ENDBRANCH  12  63
BRANCH  37  66
HETATM   66  O   UNL     1     -17.327 -14.745  -7.815  1.00  0.00    -0.388 OA
HETATM   67  H   UNL     1     -17.468 -13.853  -8.222  1.00  0.00     0.210 HD
ENDBRANCH  37  66
BRANCH  16  68
HETATM   68  O   UNL     1     -14.800 -12.128  -7.381  1.00  0.00    -0.388 OA
HETATM   69  H   UNL     1     -14.025 -12.258  -6.779  1.00  0.00     0.210 HD
ENDBRANCH  16  68
BRANCH  31  70
HETATM   70  O   UNL     1     -20.349 -17.180  -5.503  1.00  0.00    -0.390 OA
HETATM   71  H   UNL     1     -21.273 -17.458  -5.342  1.00  0.00     0.210 HD
ENDBRANCH  31  70
BRANCH  33  72
HETATM   72  C   UNL     1     -20.357 -12.993  -3.069  1.00  0.00     0.198 C 
BRANCH  72  73
HETATM   73  O   UNL     1     -19.525 -11.921  -3.326  1.00  0.00    -0.398 OA
HETATM   74  H   UNL     1     -19.858 -11.052  -3.046  1.00  0.00     0.209 HD
ENDBRANCH  72  73
ENDBRANCH  33  72
BRANCH  17  75
HETATM   75  O   UNL     1     -13.908 -13.875  -5.300  1.00  0.00    -0.390 OA
HETATM   76  H   UNL     1     -14.044 -14.072  -6.262  1.00  0.00     0.210 HD
ENDBRANCH  17  75
BRANCH  19  77
HETATM   77  C   UNL     1     -15.195  -9.647  -2.275  1.00  0.00     0.198 C 
BRANCH  77  78
HETATM   78  O   UNL     1     -15.554  -8.344  -2.705  1.00  0.00    -0.398 OA
HETATM   79  H   UNL     1     -15.897  -7.877  -1.924  1.00  0.00     0.209 HD
ENDBRANCH  77  78
ENDBRANCH  19  77
BRANCH  30  80
HETATM   80  O   UNL     1     -21.845 -17.163  -3.141  1.00  0.00    -0.388 OA
HETATM   81  H   UNL     1     -22.177 -17.953  -2.654  1.00  0.00     0.210 HD
ENDBRANCH  30  80
BRANCH  23  82
HETATM   82  O   UNL     1     -14.719 -16.739  -1.222  1.00  0.00    -0.388 OA
HETATM   83  H   UNL     1     -14.621 -16.471  -0.283  1.00  0.00     0.210 HD
ENDBRANCH  23  82
BRANCH  24  84
HETATM   84  O   UNL     1     -17.152 -16.745  -2.626  1.00  0.00    -0.390 OA
HETATM   85  H   UNL     1     -17.962 -16.938  -2.153  1.00  0.00     0.210 HD
ENDBRANCH  24  84
BRANCH  26  86
HETATM   86  C   UNL     1     -16.969 -14.306   1.710  1.00  0.00     0.198 C 
BRANCH  86  87
HETATM   87  O   UNL     1     -15.966 -13.488   2.328  1.00  0.00    -0.398 OA
HETATM   88  H   UNL     1     -16.231 -12.558   2.186  1.00  0.00     0.209 HD
ENDBRANCH  86  87
ENDBRANCH  26  86
TORSDOF 27
BEGIN_RES ARG D 557
REMARK  4 active torsions:
REMARK  status: ('A' for Active; 'I' for Inactive)
REMARK    1  A    between atoms: CA   and  CB  
REMARK    2  A    between atoms: CB   and  CG  
REMARK    3  A    between atoms: CG   and  CD  
REMARK    4  A    between atoms: CD   and  NE  
REMARK       I    between atoms: NE   and  CZ  
REMARK       I    between atoms: CZ   and  NH1 
REMARK       I    between atoms: CZ   and  NH2 
ROOT
ATOM      1  CA  ARG D 557     -26.217   2.705 -17.014  1.00 35.49     0.159 C 
ENDROOT
BRANCH   1   2
ATOM      2  CB  ARG D 557     -26.789   1.319 -17.183  1.00 35.49     0.034 C 
BRANCH   2   3
ATOM      3  CG  ARG D 557     -28.145   1.096 -16.666  1.00 35.49     0.027 C 
BRANCH   3   4
ATOM      4  CD  ARG D 557     -28.761  -0.135 -17.210  1.00 35.49     0.116 C 
BRANCH   4   5
ATOM      5  NE  ARG D 557     -28.111  -1.326 -16.729  1.00 35.49    -0.212 N 
ATOM      6  CZ  ARG D 557     -28.507  -2.559 -16.948  1.00 35.49     0.666 C 
ATOM      7  NH1 ARG D 557     -29.590  -2.843 -17.648  1.00 35.49    -0.235 N 
ATOM      8  NH2 ARG D 557     -27.782  -3.520 -16.452  1.00 35.49    -0.235 N 
ATOM      9  HH  ARG D 557     -30.080  -2.227 -17.986  1.00 35.49     0.174 HD
ATOM     10  HH  ARG D 557     -29.797  -3.666 -17.760  1.00 35.49     0.174 HD
ATOM     11  HH  ARG D 557     -27.084  -3.307 -16.010  1.00 35.49     0.174 HD
ATOM     12  HH  ARG D 557     -28.003  -4.329 -16.575  1.00 35.49     0.174 HD
ATOM     13  HE  ARG D 557     -27.445  -1.234 -16.208  1.00 35.49     0.178 HD
ENDBRANCH   4   5
ENDBRANCH   3   4
ENDBRANCH   2   3
ENDBRANCH   1   2
END_RES ARG D 557
BEGIN_RES GLU D 570
REMARK  3 active torsions:
REMARK  status: ('A' for Active; 'I' for Inactive)
REMARK    5  A    between atoms: CA   and  CB  
REMARK    6  A    between atoms: CB   and  CG  
REMARK    7  A    between atoms: CG   and  CD  
ROOT
ATOM     14  CA  GLU D 570     -18.033  -6.348 -13.375  1.00 32.92     0.160 C 
ENDROOT
BRANCH  14  15
ATOM     15  CB  GLU D 570     -19.500  -6.345 -13.794  1.00 32.92     0.043 C 
BRANCH  15  16
ATOM     16  CG  GLU D 570     -20.448  -5.558 -12.963  1.00 32.92     0.100 C 
BRANCH  16  17
ATOM     17  CD  GLU D 570     -21.721  -5.206 -13.696  1.00 32.92     0.185 C 
ATOM     18  OE1 GLU D 570     -22.318  -4.152 -13.401  1.00 32.92    -0.647 OA
ATOM     19  OE2 GLU D 570     -22.136  -6.000 -14.562  1.00 32.92    -0.647 OA
ENDBRANCH  16  17
ENDBRANCH  15  16
ENDBRANCH  14  15
END_RES GLU D 570
ENDMDL
MODEL 3
REMARK VINA RESULT:      -4.5      1.391      7.424
REMARK  27 active torsions:
REMARK  status: ('A' for Active; 'I' for Inactive)
REMARK    1  A    between atoms: C_2  and  C_3 
REMARK    2  A    between atoms: C_3  and  O_4 
REMARK    3  A    between atoms: C_3  and  O_5 
REMARK    4  A    between atoms: O_5  and  C_6 
REMARK    5  A    between atoms: C_7  and  O_70 
REMARK    6  A    between atoms: C_10  and  C_68 
REMARK    7  A    between atoms: C_14  and  O_67 
REMARK    8  A    between atoms: C_15  and  O_66 
REMARK    9  A    between atoms: C_17  and  C_19 
REMARK   10  A    between atoms: C_19  and  O_20 
REMARK   11  A    between atoms: C_23  and  O_65 
REMARK   12  A    between atoms: C_24  and  O_64 
REMARK   13  A    between atoms: C_26  and  C_28 
REMARK   14  A    between atoms: C_28  and  O_29 
REMARK   15  A    between atoms: C_32  and  O_63 
REMARK   16  A    between atoms: C_33  and  O_62 
REMARK   17  A    between atoms: C_35  and  C_37 
REMARK   18  A    between atoms: C_37  and  O_38 
REMARK   19  A    between atoms: C_41  and  O_61 
REMARK   20  A    between atoms: C_42  and  O_60 
REMARK   21  A    between atoms: C_44  and  C_46 
REMARK   22  A    between atoms: C_46  and  O_47 
REMARK   23  A    between atoms: C_50  and  O_59 
REMARK   24  A    between atoms: C_51  and  O_58 
REMARK   25  A    between atoms: C_54  and  C_56 
REMARK   26  A    between atoms: C_56  and  O_57 
REMARK   27  A    between atoms: C_68  and  O_69 
ROOT
HETATM    1  C   UNL     1     -16.527 -14.689  -5.698  1.00  0.00     0.189 C 
HETATM    2  C   UNL     1     -16.471 -15.399  -4.154  1.00  0.00     0.205 C 
HETATM    3  C   UNL     1     -17.943 -15.560  -3.507  1.00  0.00     0.292 C 
HETATM    4  O   UNL     1     -18.624 -16.523  -4.745  1.00  0.00    -0.348 OA
HETATM    5  C   UNL     1     -17.851 -16.512  -6.216  1.00  0.00     0.180 C 
HETATM    6  C   UNL     1     -17.989 -15.070  -6.525  1.00  0.00     0.187 C 
HETATM    7  O   UNL     1     -18.753 -14.436  -7.638  1.00  0.00    -0.348 OA
HETATM    8  C   UNL     1     -20.397 -14.193  -7.629  1.00  0.00     0.292 C 
HETATM    9  C   UNL     1     -20.996 -12.913  -6.938  1.00  0.00     0.204 C 
HETATM   10  C   UNL     1     -21.803 -13.390  -5.703  1.00  0.00     0.183 C 
HETATM   11  C   UNL     1     -22.391 -14.528  -4.878  1.00  0.00     0.187 C 
HETATM   12  C   UNL     1     -22.103 -15.660  -6.043  1.00  0.00     0.180 C 
HETATM   13  O   UNL     1     -21.378 -15.303  -7.416  1.00  0.00    -0.348 OA
HETATM   14  O   UNL     1     -23.407 -14.073  -3.690  1.00  0.00    -0.348 OA
HETATM   15  C   UNL     1     -23.077 -14.094  -1.975  1.00  0.00     0.292 C 
HETATM   16  C   UNL     1     -22.579 -12.544  -0.638  1.00  0.00     0.204 C 
HETATM   17  C   UNL     1     -20.864 -12.764   0.393  1.00  0.00     0.183 C 
HETATM   18  C   UNL     1     -19.825 -14.389   0.201  1.00  0.00     0.187 C 
HETATM   19  C   UNL     1     -20.554 -15.777  -0.941  1.00  0.00     0.180 C 
HETATM   20  O   UNL     1     -22.168 -15.622  -1.729  1.00  0.00    -0.348 OA
HETATM   21  O   UNL     1     -18.726 -14.583   1.160  1.00  0.00    -0.348 OA
HETATM   22  C   UNL     1     -17.335 -13.949   1.046  1.00  0.00     0.292 C 
HETATM   23  C   UNL     1     -17.076 -12.438   0.765  1.00  0.00     0.204 C 
HETATM   24  C   UNL     1     -16.765 -12.199  -0.700  1.00  0.00     0.183 C 
HETATM   25  C   UNL     1     -15.636 -12.819  -1.466  1.00  0.00     0.187 C 
HETATM   26  C   UNL     1     -15.820 -14.400  -0.968  1.00  0.00     0.180 C 
HETATM   27  O   UNL     1     -16.282 -14.698   0.394  1.00  0.00    -0.348 OA
HETATM   28  O   UNL     1     -15.847 -12.568  -2.955  1.00  0.00    -0.348 OA
HETATM   29  C   UNL     1     -15.972 -11.442  -3.959  1.00  0.00     0.292 C 
HETATM   30  C   UNL     1     -16.555  -9.928  -4.114  1.00  0.00     0.204 C 
HETATM   31  C   UNL     1     -18.043  -9.690  -3.731  1.00  0.00     0.183 C 
HETATM   32  C   UNL     1     -18.937 -10.883  -4.073  1.00  0.00     0.187 C 
HETATM   33  C   UNL     1     -18.168 -12.121  -4.255  1.00  0.00     0.180 C 
HETATM   34  O   UNL     1     -16.957 -11.924  -4.936  1.00  0.00    -0.348 OA
HETATM   35  O   UNL     1     -20.318 -10.815  -4.402  1.00  0.00    -0.348 OA
HETATM   36  C   UNL     1     -21.412 -11.049  -3.321  1.00  0.00     0.292 C 
HETATM   37  C   UNL     1     -21.083 -10.090  -2.312  1.00  0.00     0.204 C 
HETATM   38  C   UNL     1     -20.067 -10.977  -1.518  1.00  0.00     0.183 C 
HETATM   39  C   UNL     1     -19.760 -12.890  -1.985  1.00  0.00     0.187 C 
HETATM   40  O   UNL     1     -18.472 -14.109  -2.507  1.00  0.00    -0.348 OA
HETATM   41  C   UNL     1     -21.074 -13.554  -1.690  1.00  0.00     0.180 C 
HETATM   42  O   UNL     1     -21.830 -12.374  -2.629  1.00  0.00    -0.348 OA
ENDROOT
BRANCH   1  43
HETATM   43  O   UNL     1     -15.356 -14.244  -6.382  1.00  0.00    -0.351 OA
BRANCH  43  44
HETATM   44  C   UNL     1     -14.209 -13.803  -5.696  1.00  0.00     0.257 C 
BRANCH  44  45
HETATM   45  C   UNL     1     -13.331 -15.001  -5.294  1.00  0.00     0.056 C 
HETATM   46  C   UNL     1     -12.660 -15.565  -6.541  1.00  0.00     0.010 C 
ENDBRANCH  44  45
BRANCH  44  47
HETATM   47  O   UNL     1     -13.383 -12.911  -6.399  1.00  0.00    -0.371 OA
HETATM   48  H   UNL     1     -13.430 -12.035  -5.993  1.00  0.00     0.212 HD
ENDBRANCH  44  47
ENDBRANCH  43  44
ENDBRANCH   1  43
BRANCH   2  49
HETATM   49  O   UNL     1     -15.892 -16.730  -4.144  1.00  0.00    -0.388 OA
HETATM   50  H   UNL     1     -16.535 -17.389  -4.467  1.00  0.00     0.210 HD
ENDBRANCH   2  49
BRANCH   5  51
HETATM   51  C   UNL     1     -17.974 -17.180  -7.617  1.00  0.00     0.198 C 
BRANCH  51  52
HETATM   52  O   UNL     1     -17.147 -16.573  -8.606  1.00  0.00    -0.398 OA
HETATM   53  H   UNL     1     -17.330 -15.610  -8.601  1.00  0.00     0.209 HD
ENDBRANCH  51  52
ENDBRANCH   5  51
BRANCH   9  54
HETATM   54  O   UNL     1     -21.766 -11.895  -7.595  1.00  0.00    -0.388 OA
HETATM   55  H   UNL     1     -21.550 -11.053  -7.126  1.00  0.00     0.210 HD
ENDBRANCH   9  54
BRANCH  38  56
HETATM   56  O   UNL     1     -20.319 -10.421  -0.187  1.00  0.00    -0.390 OA
HETATM   57  H   UNL     1     -20.220  -9.433  -0.258  1.00  0.00     0.210 HD
ENDBRANCH  38  56
BRANCH  41  58
HETATM   58  C   UNL     1     -22.018 -14.512  -0.013  1.00  0.00     0.198 C 
BRANCH  58  59
HETATM   59  O   UNL     1     -23.465 -14.978   0.053  1.00  0.00    -0.398 OA
HETATM   60  H   UNL     1     -23.751 -15.019   1.009  1.00  0.00     0.209 HD
ENDBRANCH  58  59
ENDBRANCH  41  58
BRANCH  10  61
HETATM   61  O   UNL     1     -21.665 -12.394  -4.851  1.00  0.00    -0.390 OA
HETATM   62  H   UNL     1     -20.882 -12.626  -4.305  1.00  0.00     0.210 HD
ENDBRANCH  10  61
BRANCH  12  63
HETATM   63  C   UNL     1     -23.246 -16.601  -6.337  1.00  0.00     0.198 C 
BRANCH  63  64
HETATM   64  O   UNL     1     -24.058 -16.737  -5.169  1.00  0.00    -0.398 OA
HETATM   65  H   UNL     1     -24.667 -17.483  -5.358  1.00  0.00     0.209 HD
ENDBRANCH  63  64
ENDBRANCH  12  63
BRANCH  37  66
HETATM   66  O   UNL     1     -22.225  -9.610  -1.579  1.00  0.00    -0.388 OA
HETATM   67  H   UNL     1     -22.314 -10.130  -0.740  1.00  0.00     0.210 HD
ENDBRANCH  37  66
BRANCH  16  68
HETATM   68  O   UNL     1     -23.538 -12.336   0.487  1.00  0.00    -0.388 OA
HETATM   69  H   UNL     1     -24.423 -12.303   0.045  1.00  0.00     0.210 HD
ENDBRANCH  16  68
BRANCH  31  70
HETATM   70  O   UNL     1     -18.662  -8.477  -4.114  1.00  0.00    -0.390 OA
HETATM   71  H   UNL     1     -19.132  -8.646  -4.954  1.00  0.00     0.210 HD
ENDBRANCH  31  70
BRANCH  33  72
HETATM   72  C   UNL     1     -18.881 -13.271  -4.772  1.00  0.00     0.198 C 
BRANCH  72  73
HETATM   73  O   UNL     1     -19.777 -14.110  -4.139  1.00  0.00    -0.398 OA
HETATM   74  H   UNL     1     -19.414 -14.645  -3.412  1.00  0.00     0.209 HD
ENDBRANCH  72  73
ENDBRANCH  33  72
BRANCH  17  75
HETATM   75  O   UNL     1     -20.952 -12.149   1.694  1.00  0.00    -0.390 OA
HETATM   76  H   UNL     1     -20.718 -11.201   1.523  1.00  0.00     0.210 HD
ENDBRANCH  17  75
BRANCH  19  77
HETATM   77  C   UNL     1     -20.565 -17.135  -0.222  1.00  0.00     0.198 C 
BRANCH  77  78
HETATM   78  O   UNL     1     -19.721 -17.038   0.914  1.00  0.00    -0.398 OA
HETATM   79  H   UNL     1     -19.037 -17.721   0.814  1.00  0.00     0.209 HD
ENDBRANCH  77  78
ENDBRANCH  19  77
BRANCH  30  80
HETATM   80  O   UNL     1     -16.539  -9.595  -5.550  1.00  0.00    -0.388 OA
HETATM   81  H   UNL     1     -16.839  -8.660  -5.633  1.00  0.00     0.210 HD
ENDBRANCH  30  80
BRANCH  23  82
HETATM   82  O   UNL     1     -15.915 -11.916   1.441  1.00  0.00    -0.388 OA
HETATM   83  H   UNL     1     -16.033 -10.942   1.462  1.00  0.00     0.210 HD
ENDBRANCH  23  82
BRANCH  24  84
HETATM   84  O   UNL     1     -16.829 -10.827  -0.982  1.00  0.00    -0.390 OA
HETATM   85  H   UNL     1     -17.781 -10.751  -1.048  1.00  0.00     0.210 HD
ENDBRANCH  24  84
BRANCH  26  86
HETATM   86  C   UNL     1     -14.537 -15.244  -1.129  1.00  0.00     0.198 C 
BRANCH  86  87
HETATM   87  O   UNL     1     -14.858 -16.615  -1.402  1.00  0.00    -0.398 OA
HETATM   88  H   UNL     1     -14.058 -17.022  -1.791  1.00  0.00     0.209 HD
ENDBRANCH  86  87
ENDBRANCH  26  86
TORSDOF 27
BEGIN_RES ARG D 557
REMARK  4 active torsions:
REMARK  status: ('A' for Active; 'I' for Inactive)
REMARK    1  A    between atoms: CA   and  CB  
REMARK    2  A    between atoms: CB   and  CG  
REMARK    3  A    between atoms: CG   and  CD  
REMARK    4  A    between atoms: CD   and  NE  
REMARK       I    between atoms: NE   and  CZ  
REMARK       I    between atoms: CZ   and  NH1 
REMARK       I    between atoms: CZ   and  NH2 
ROOT
ATOM      1  CA  ARG D 557     -26.217   2.705 -17.014  1.00 35.49     0.159 C 
ENDROOT
BRANCH   1   2
ATOM      2  CB  ARG D 557     -26.789   1.319 -17.183  1.00 35.49     0.034 C 
BRANCH   2   3
ATOM      3  CG  ARG D 557     -25.863   0.195 -16.997  1.00 35.49     0.027 C 
BRANCH   3   4
ATOM      4  CD  ARG D 557     -24.845   0.468 -15.957  1.00 35.49     0.116 C 
BRANCH   4   5
ATOM      5  NE  ARG D 557     -24.932  -0.456 -14.857  1.00 35.49    -0.212 N 
ATOM      6  CZ  ARG D 557     -24.103  -1.448 -14.620  1.00 35.49     0.666 C 
ATOM      7  NH1 ARG D 557     -23.076  -1.716 -15.404  1.00 35.49    -0.235 N 
ATOM      8  NH2 ARG D 557     -24.323  -2.173 -13.562  1.00 35.49    -0.235 N 
ATOM      9  HH  ARG D 557     -22.911  -1.250 -16.104  1.00 35.49     0.174 HD
ATOM     10  HH  ARG D 557     -22.567  -2.374 -15.198  1.00 35.49     0.174 HD
ATOM     11  HH  ARG D 557     -24.990  -1.972 -13.070  1.00 35.49     0.174 HD
ATOM     12  HH  ARG D 557     -23.807  -2.819 -13.374  1.00 35.49     0.174 HD
ATOM     13  HE  ARG D 557     -25.607  -0.401 -14.342  1.00 35.49     0.178 HD
ENDBRANCH   4   5
ENDBRANCH   3   4
ENDBRANCH   2   3
ENDBRANCH   1   2
END_RES ARG D 557
BEGIN_RES GLU D 570
REMARK  3 active torsions:
REMARK  status: ('A' for Active; 'I' for Inactive)
REMARK    5  A    between atoms: CA   and  CB  
REMARK    6  A    between atoms: CB   and  CG  
REMARK    7  A    between atoms: CG   and  CD  
ROOT
ATOM     14  CA  GLU D 570     -18.033  -6.348 -13.375  1.00 32.92     0.160 C 
ENDROOT
BRANCH  14  15
ATOM     15  CB  GLU D 570     -19.500  -6.345 -13.794  1.00 32.92     0.043 C 
BRANCH  15  16
ATOM     16  CG  GLU D 570     -20.449  -5.564 -12.959  1.00 32.92     0.100 C 
BRANCH  16  17
ATOM     17  CD  GLU D 570     -21.664  -5.098 -13.727  1.00 32.92     0.185 C 
ATOM     18  OE1 GLU D 570     -21.675  -5.210 -14.968  1.00 32.92    -0.647 OA
ATOM     19  OE2 GLU D 570     -22.608  -4.600 -13.082  1.00 32.92    -0.647 OA
ENDBRANCH  16  17
ENDBRANCH  15  16
ENDBRANCH  14  15
END_RES GLU D 570
ENDMDL
MODEL 4
REMARK VINA RESULT:      -3.7      1.874      5.978
REMARK  27 active torsions:
REMARK  status: ('A' for Active; 'I' for Inactive)
REMARK    1  A    between atoms: C_2  and  C_3 
REMARK    2  A    between atoms: C_3  and  O_4 
REMARK    3  A    between atoms: C_3  and  O_5 
REMARK    4  A    between atoms: O_5  and  C_6 
REMARK    5  A    between atoms: C_7  and  O_70 
REMARK    6  A    between atoms: C_10  and  C_68 
REMARK    7  A    between atoms: C_14  and  O_67 
REMARK    8  A    between atoms: C_15  and  O_66 
REMARK    9  A    between atoms: C_17  and  C_19 
REMARK   10  A    between atoms: C_19  and  O_20 
REMARK   11  A    between atoms: C_23  and  O_65 
REMARK   12  A    between atoms: C_24  and  O_64 
REMARK   13  A    between atoms: C_26  and  C_28 
REMARK   14  A    between atoms: C_28  and  O_29 
REMARK   15  A    between atoms: C_32  and  O_63 
REMARK   16  A    between atoms: C_33  and  O_62 
REMARK   17  A    between atoms: C_35  and  C_37 
REMARK   18  A    between atoms: C_37  and  O_38 
REMARK   19  A    between atoms: C_41  and  O_61 
REMARK   20  A    between atoms: C_42  and  O_60 
REMARK   21  A    between atoms: C_44  and  C_46 
REMARK   22  A    between atoms: C_46  and  O_47 
REMARK   23  A    between atoms: C_50  and  O_59 
REMARK   24  A    between atoms: C_51  and  O_58 
REMARK   25  A    between atoms: C_54  and  C_56 
REMARK   26  A    between atoms: C_56  and  O_57 
REMARK   27  A    between atoms: C_68  and  O_69 
ROOT
HETATM    1  C   UNL     1     -22.376 -15.673  -3.052  1.00  0.00     0.189 C 
HETATM    2  C   UNL     1     -22.783 -14.034  -2.855  1.00  0.00     0.205 C 
HETATM    3  C   UNL     1     -21.883 -13.069  -3.787  1.00  0.00     0.292 C 
HETATM    4  O   UNL     1     -22.301 -13.764  -5.292  1.00  0.00    -0.348 OA
HETATM    5  C   UNL     1     -22.950 -15.294  -5.260  1.00  0.00     0.180 C 
HETATM    6  C   UNL     1     -21.805 -16.004  -4.643  1.00  0.00     0.187 C 
HETATM    7  O   UNL     1     -20.951 -17.068  -5.244  1.00  0.00    -0.348 OA
HETATM    8  C   UNL     1     -19.701 -16.784  -6.303  1.00  0.00     0.292 C 
HETATM    9  C   UNL     1     -18.274 -16.420  -5.751  1.00  0.00     0.204 C 
HETATM   10  C   UNL     1     -17.980 -14.954  -6.163  1.00  0.00     0.183 C 
HETATM   11  C   UNL     1     -18.369 -13.707  -6.946  1.00  0.00     0.187 C 
HETATM   12  C   UNL     1     -19.535 -14.489  -7.814  1.00  0.00     0.180 C 
HETATM   13  O   UNL     1     -19.881 -16.026  -7.581  1.00  0.00    -0.348 OA
HETATM   14  O   UNL     1     -17.242 -12.534  -6.993  1.00  0.00    -0.348 OA
HETATM   15  C   UNL     1     -17.288 -11.013  -6.135  1.00  0.00     0.292 C 
HETATM   16  C   UNL     1     -16.298 -10.372  -4.390  1.00  0.00     0.204 C 
HETATM   17  C   UNL     1     -17.466  -9.717  -2.885  1.00  0.00     0.183 C 
HETATM   18  C   UNL     1     -19.384  -9.606  -3.131  1.00  0.00     0.187 C 
HETATM   19  C   UNL     1     -20.082 -10.068  -4.881  1.00  0.00     0.180 C 
HETATM   20  O   UNL     1     -19.004 -10.499  -6.261  1.00  0.00    -0.348 OA
HETATM   21  O   UNL     1     -20.141  -8.894  -2.088  1.00  0.00    -0.348 OA
HETATM   22  C   UNL     1     -20.575  -9.498  -0.748  1.00  0.00     0.292 C 
HETATM   23  C   UNL     1     -19.633 -10.290   0.208  1.00  0.00     0.204 C 
HETATM   24  C   UNL     1     -19.810 -11.787   0.037  1.00  0.00     0.183 C 
HETATM   25  C   UNL     1     -21.090 -12.541   0.225  1.00  0.00     0.187 C 
HETATM   26  C   UNL     1     -22.111 -11.544  -0.637  1.00  0.00     0.180 C 
HETATM   27  O   UNL     1     -21.892 -10.091  -0.648  1.00  0.00    -0.348 OA
HETATM   28  O   UNL     1     -20.923 -13.952  -0.330  1.00  0.00    -0.348 OA
HETATM   29  C   UNL     1     -20.101 -15.208  -0.140  1.00  0.00     0.292 C 
HETATM   30  C   UNL     1     -18.597 -15.703   0.249  1.00  0.00     0.204 C 
HETATM   31  C   UNL     1     -17.413 -15.105  -0.562  1.00  0.00     0.183 C 
HETATM   32  C   UNL     1     -17.770 -14.852  -2.028  1.00  0.00     0.187 C 
HETATM   33  C   UNL     1     -19.221 -14.796  -2.245  1.00  0.00     0.180 C 
HETATM   34  O   UNL     1     -19.931 -15.748  -1.496  1.00  0.00    -0.348 OA
HETATM   35  O   UNL     1     -16.860 -14.882  -3.118  1.00  0.00    -0.348 OA
HETATM   36  C   UNL     1     -16.212 -13.574  -3.658  1.00  0.00     0.292 C 
HETATM   37  C   UNL     1     -15.595 -13.013  -2.495  1.00  0.00     0.204 C 
HETATM   38  C   UNL     1     -16.837 -12.218  -1.973  1.00  0.00     0.183 C 
HETATM   39  C   UNL     1     -18.529 -12.113  -3.021  1.00  0.00     0.187 C 
HETATM   40  O   UNL     1     -20.338 -12.489  -2.972  1.00  0.00    -0.348 OA
HETATM   41  C   UNL     1     -18.148 -11.350  -4.256  1.00  0.00     0.180 C 
HETATM   42  O   UNL     1     -16.868 -12.427  -4.473  1.00  0.00    -0.348 OA
ENDROOT
BRANCH   1  43
HETATM   43  O   UNL     1     -22.872 -16.697  -2.190  1.00  0.00    -0.351 OA
BRANCH  43  44
HETATM   44  C   UNL     1     -24.190 -17.183  -2.282  1.00  0.00     0.257 C 
BRANCH  44  45
HETATM   45  C   UNL     1     -24.859 -17.181  -0.897  1.00  0.00     0.056 C 
HETATM   46  C   UNL     1     -25.161 -15.742  -0.493  1.00  0.00     0.010 C 
ENDBRANCH  44  45
BRANCH  44  47
HETATM   47  O   UNL     1     -25.041 -16.477  -3.147  1.00  0.00    -0.371 OA
HETATM   48  H   UNL     1     -25.925 -16.871  -3.128  1.00  0.00     0.212 HD
ENDBRANCH  44  47
ENDBRANCH  43  44
ENDBRANCH   1  43
BRANCH   2  49
HETATM   49  O   UNL     1     -24.162 -13.730  -3.194  1.00  0.00    -0.388 OA
HETATM   50  H   UNL     1     -24.765 -14.030  -2.488  1.00  0.00     0.210 HD
ENDBRANCH   2  49
BRANCH   5  51
HETATM   51  C   UNL     1     -23.523 -16.351  -6.247  1.00  0.00     0.198 C 
BRANCH  51  52
HETATM   52  O   UNL     1     -24.834 -16.793  -5.902  1.00  0.00    -0.398 OA
HETATM   53  H   UNL     1     -24.841 -17.771  -5.933  1.00  0.00     0.209 HD
ENDBRANCH  51  52
ENDBRANCH   5  51
BRANCH   9  54
HETATM   54  O   UNL     1     -17.077 -17.183  -5.968  1.00  0.00    -0.388 OA
HETATM   55  H   UNL     1     -16.598 -17.176  -5.105  1.00  0.00     0.210 HD
ENDBRANCH   9  54
BRANCH  38  56
HETATM   56  O   UNL     1     -16.113 -11.109  -1.350  1.00  0.00    -0.390 OA
HETATM   57  H   UNL     1     -15.701 -11.460  -0.514  1.00  0.00     0.210 HD
ENDBRANCH  38  56
BRANCH  41  58
HETATM   58  C   UNL     1     -18.079  -9.294  -4.884  1.00  0.00     0.198 C 
BRANCH  58  59
HETATM   59  O   UNL     1     -17.648  -8.792  -6.254  1.00  0.00    -0.398 OA
HETATM   60  H   UNL     1     -17.684  -7.793  -6.260  1.00  0.00     0.209 HD
ENDBRANCH  58  59
ENDBRANCH  41  58
BRANCH  10  61
HETATM   61  O   UNL     1     -17.227 -14.510  -5.177  1.00  0.00    -0.390 OA
HETATM   62  H   UNL     1     -17.500 -15.026  -4.388  1.00  0.00     0.210 HD
ENDBRANCH  10  61
BRANCH  12  63
HETATM   63  C   UNL     1     -19.536 -14.219  -9.299  1.00  0.00     0.198 C 
BRANCH  63  64
HETATM   64  O   UNL     1     -18.558 -13.220  -9.598  1.00  0.00    -0.398 OA
HETATM   65  H   UNL     1     -17.696 -13.688  -9.591  1.00  0.00     0.209 HD
ENDBRANCH  63  64
ENDBRANCH  12  63
BRANCH  37  66
HETATM   66  O   UNL     1     -14.414 -12.242  -2.786  1.00  0.00    -0.388 OA
HETATM   67  H   UNL     1     -14.508 -11.341  -2.383  1.00  0.00     0.210 HD
ENDBRANCH  37  66
BRANCH  16  68
HETATM   68  O   UNL     1     -15.401  -9.191  -4.559  1.00  0.00    -0.388 OA
HETATM   69  H   UNL     1     -15.967  -8.420  -4.302  1.00  0.00     0.210 HD
ENDBRANCH  16  68
BRANCH  31  70
HETATM   70  O   UNL     1     -16.138 -15.707  -0.456  1.00  0.00    -0.390 OA
HETATM   71  H   UNL     1     -16.273 -16.609  -0.104  1.00  0.00     0.210 HD
ENDBRANCH  31  70
BRANCH  33  72
HETATM   72  C   UNL     1     -19.683 -14.758  -3.617  1.00  0.00     0.198 C 
BRANCH  72  73
HETATM   73  O   UNL     1     -19.678 -13.713  -4.521  1.00  0.00    -0.398 OA
HETATM   74  H   UNL     1     -20.294 -13.799  -5.268  1.00  0.00     0.209 HD
ENDBRANCH  72  73
ENDBRANCH  33  72
BRANCH  17  75
HETATM   75  O   UNL     1     -16.805  -8.690  -2.119  1.00  0.00    -0.390 OA
HETATM   76  H   UNL     1     -15.997  -8.480  -2.653  1.00  0.00     0.210 HD
ENDBRANCH  17  75
BRANCH  19  77
HETATM   77  C   UNL     1     -21.023  -8.973  -5.408  1.00  0.00     0.198 C 
BRANCH  77  78
HETATM   78  O   UNL     1     -21.999  -8.716  -4.412  1.00  0.00    -0.398 OA
HETATM   79  H   UNL     1     -22.804  -8.432  -4.876  1.00  0.00     0.209 HD
ENDBRANCH  77  78
ENDBRANCH  19  77
BRANCH  30  80
HETATM   80  O   UNL     1     -18.509 -17.139  -0.073  1.00  0.00    -0.388 OA
HETATM   81  H   UNL     1     -17.607 -17.299  -0.436  1.00  0.00     0.210 HD
ENDBRANCH  30  80
BRANCH  23  82
HETATM   82  O   UNL     1     -19.919 -10.079   1.606  1.00  0.00    -0.388 OA
HETATM   83  H   UNL     1     -19.301 -10.663   2.096  1.00  0.00     0.210 HD
ENDBRANCH  23  82
BRANCH  24  84
HETATM   84  O   UNL     1     -18.763 -12.466   0.677  1.00  0.00    -0.390 OA
HETATM   85  H   UNL     1     -18.945 -12.173   1.571  1.00  0.00     0.210 HD
ENDBRANCH  24  84
BRANCH  26  86
HETATM   86  C   UNL     1     -23.596 -11.702  -0.244  1.00  0.00     0.198 C 
BRANCH  86  87
HETATM   87  O   UNL     1     -24.448 -11.519  -1.383  1.00  0.00    -0.398 OA
HETATM   88  H   UNL     1     -24.663 -12.411  -1.723  1.00  0.00     0.209 HD
ENDBRANCH  86  87
ENDBRANCH  26  86
TORSDOF 27
BEGIN_RES ARG D 557
REMARK  4 active torsions:
REMARK  status: ('A' for Active; 'I' for Inactive)
REMARK    1  A    between atoms: CA   and  CB  
REMARK    2  A    between atoms: CB   and  CG  
REMARK    3  A    between atoms: CG   and  CD  
REMARK    4  A    between atoms: CD   and  NE  
REMARK       I    between atoms: NE   and  CZ  
REMARK       I    between atoms: CZ   and  NH1 
REMARK       I    between atoms: CZ   and  NH2 
ROOT
ATOM      1  CA  ARG D 557     -26.217   2.705 -17.014  1.00 35.49     0.159 C 
ENDROOT
BRANCH   1   2
ATOM      2  CB  ARG D 557     -26.789   1.319 -17.183  1.00 35.49     0.034 C 
BRANCH   2   3
ATOM      3  CG  ARG D 557     -25.842   0.200 -17.108  1.00 35.49     0.027 C 
BRANCH   3   4
ATOM      4  CD  ARG D 557     -24.780   0.426 -16.101  1.00 35.49     0.116 C 
BRANCH   4   5
ATOM      5  NE  ARG D 557     -24.905  -0.459 -14.973  1.00 35.49    -0.212 N 
ATOM      6  CZ  ARG D 557     -24.085  -1.442 -14.673  1.00 35.49     0.666 C 
ATOM      7  NH1 ARG D 557     -23.032  -1.737 -15.412  1.00 35.49    -0.235 N 
ATOM      8  NH2 ARG D 557     -24.341  -2.130 -13.598  1.00 35.49    -0.235 N 
ATOM      9  HH  ARG D 557     -22.843  -1.296 -16.122  1.00 35.49     0.174 HD
ATOM     10  HH  ARG D 557     -22.531  -2.387 -15.165  1.00 35.49     0.174 HD
ATOM     11  HH  ARG D 557     -25.024  -1.912 -13.137  1.00 35.49     0.174 HD
ATOM     12  HH  ARG D 557     -23.833  -2.769 -13.370  1.00 35.49     0.174 HD
ATOM     13  HE  ARG D 557     -25.597  -0.387 -14.484  1.00 35.49     0.178 HD
ENDBRANCH   4   5
ENDBRANCH   3   4
ENDBRANCH   2   3
ENDBRANCH   1   2
END_RES ARG D 557
BEGIN_RES GLU D 570
REMARK  3 active torsions:
REMARK  status: ('A' for Active; 'I' for Inactive)
REMARK    5  A    between atoms: CA   and  CB  
REMARK    6  A    between atoms: CB   and  CG  
REMARK    7  A    between atoms: CG   and  CD  
ROOT
ATOM     14  CA  GLU D 570     -18.033  -6.348 -13.375  1.00 32.92     0.160 C 
ENDROOT
BRANCH  14  15
ATOM     15  CB  GLU D 570     -19.500  -6.345 -13.794  1.00 32.92     0.043 C 
BRANCH  15  16
ATOM     16  CG  GLU D 570     -20.448  -5.560 -12.962  1.00 32.92     0.100 C 
BRANCH  16  17
ATOM     17  CD  GLU D 570     -21.667  -5.103 -13.729  1.00 32.92     0.185 C 
ATOM     18  OE1 GLU D 570     -21.744  -5.354 -14.947  1.00 32.92    -0.647 OA
ATOM     19  OE2 GLU D 570     -22.545  -4.472 -13.108  1.00 32.92    -0.647 OA
ENDBRANCH  16  17
ENDBRANCH  15  16
ENDBRANCH  14  15
END_RES GLU D 570
ENDMDL
MODEL 5
REMARK VINA RESULT:      -3.6      1.562      2.000
REMARK  27 active torsions:
REMARK  status: ('A' for Active; 'I' for Inactive)
REMARK    1  A    between atoms: C_2  and  C_3 
REMARK    2  A    between atoms: C_3  and  O_4 
REMARK    3  A    between atoms: C_3  and  O_5 
REMARK    4  A    between atoms: O_5  and  C_6 
REMARK    5  A    between atoms: C_7  and  O_70 
REMARK    6  A    between atoms: C_10  and  C_68 
REMARK    7  A    between atoms: C_14  and  O_67 
REMARK    8  A    between atoms: C_15  and  O_66 
REMARK    9  A    between atoms: C_17  and  C_19 
REMARK   10  A    between atoms: C_19  and  O_20 
REMARK   11  A    between atoms: C_23  and  O_65 
REMARK   12  A    between atoms: C_24  and  O_64 
REMARK   13  A    between atoms: C_26  and  C_28 
REMARK   14  A    between atoms: C_28  and  O_29 
REMARK   15  A    between atoms: C_32  and  O_63 
REMARK   16  A    between atoms: C_33  and  O_62 
REMARK   17  A    between atoms: C_35  and  C_37 
REMARK   18  A    between atoms: C_37  and  O_38 
REMARK   19  A    between atoms: C_41  and  O_61 
REMARK   20  A    between atoms: C_42  and  O_60 
REMARK   21  A    between atoms: C_44  and  C_46 
REMARK   22  A    between atoms: C_46  and  O_47 
REMARK   23  A    between atoms: C_50  and  O_59 
REMARK   24  A    between atoms: C_51  and  O_58 
REMARK   25  A    between atoms: C_54  and  C_56 
REMARK   26  A    between atoms: C_56  and  O_57 
REMARK   27  A    between atoms: C_68  and  O_69 
ROOT
HETATM    1  C   UNL     1     -21.577 -14.994  -2.543  1.00  0.00     0.189 C 
HETATM    2  C   UNL     1     -20.827 -15.775  -3.854  1.00  0.00     0.205 C 
HETATM    3  C   UNL     1     -19.215 -15.722  -3.749  1.00  0.00     0.292 C 
HETATM    4  O   UNL     1     -19.067 -16.501  -2.234  1.00  0.00    -0.348 OA
HETATM    5  C   UNL     1     -20.425 -16.548  -1.277  1.00  0.00     0.180 C 
HETATM    6  C   UNL     1     -20.626 -15.090  -1.111  1.00  0.00     0.187 C 
HETATM    7  O   UNL     1     -20.545 -14.287   0.144  1.00  0.00    -0.348 OA
HETATM    8  C   UNL     1     -19.126 -13.778   0.843  1.00  0.00     0.292 C 
HETATM    9  C   UNL     1     -18.442 -12.450   0.349  1.00  0.00     0.204 C 
HETATM   10  C   UNL     1     -17.104 -12.846  -0.329  1.00  0.00     0.183 C 
HETATM   11  C   UNL     1     -16.066 -13.909  -0.663  1.00  0.00     0.187 C 
HETATM   12  C   UNL     1     -16.714 -15.017   0.373  1.00  0.00     0.180 C 
HETATM   13  O   UNL     1     -18.028 -14.720   1.224  1.00  0.00    -0.348 OA
HETATM   14  O   UNL     1     -14.682 -13.350  -1.314  1.00  0.00    -0.348 OA
HETATM   15  C   UNL     1     -14.180 -13.505  -2.981  1.00  0.00     0.292 C 
HETATM   16  C   UNL     1     -14.196 -12.123  -4.571  1.00  0.00     0.204 C 
HETATM   17  C   UNL     1     -15.202 -12.671  -6.227  1.00  0.00     0.183 C 
HETATM   18  C   UNL     1     -16.001 -14.433  -6.331  1.00  0.00     0.187 C 
HETATM   19  C   UNL     1     -15.712 -15.627  -4.830  1.00  0.00     0.180 C 
HETATM   20  O   UNL     1     -14.675 -15.172  -3.427  1.00  0.00    -0.348 OA
HETATM   21  O   UNL     1     -16.501 -14.851  -7.651  1.00  0.00    -0.348 OA
HETATM   22  C   UNL     1     -17.854 -14.449  -8.247  1.00  0.00     0.292 C 
HETATM   23  C   UNL     1     -18.401 -12.990  -8.290  1.00  0.00     0.204 C 
HETATM   24  C   UNL     1     -19.378 -12.736  -7.158  1.00  0.00     0.183 C 
HETATM   25  C   UNL     1     -20.645 -13.497  -6.912  1.00  0.00     0.187 C 
HETATM   26  C   UNL     1     -20.058 -15.048  -7.086  1.00  0.00     0.180 C 
HETATM   27  O   UNL     1     -18.987 -15.330  -8.052  1.00  0.00    -0.348 OA
HETATM   28  O   UNL     1     -21.177 -13.144  -5.527  1.00  0.00    -0.348 OA
HETATM   29  C   UNL     1     -21.670 -11.968  -4.713  1.00  0.00     0.292 C 
HETATM   30  C   UNL     1     -21.418 -10.373  -4.492  1.00  0.00     0.204 C 
HETATM   31  C   UNL     1     -19.963  -9.911  -4.193  1.00  0.00     0.183 C 
HETATM   32  C   UNL     1     -19.185 -10.924  -3.350  1.00  0.00     0.187 C 
HETATM   33  C   UNL     1     -19.791 -12.261  -3.388  1.00  0.00     0.180 C 
HETATM   34  O   UNL     1     -21.194 -12.235  -3.350  1.00  0.00    -0.348 OA
HETATM   35  O   UNL     1     -18.132 -10.614  -2.448  1.00  0.00    -0.348 OA
HETATM   36  C   UNL     1     -16.643 -10.715  -2.889  1.00  0.00     0.292 C 
HETATM   37  C   UNL     1     -16.588  -9.873  -4.044  1.00  0.00     0.204 C 
HETATM   38  C   UNL     1     -17.005 -10.951  -5.098  1.00  0.00     0.183 C 
HETATM   39  C   UNL     1     -17.251 -12.865  -4.598  1.00  0.00     0.187 C 
HETATM   40  O   UNL     1     -18.471 -14.252  -4.569  1.00  0.00    -0.348 OA
HETATM   41  C   UNL     1     -15.878 -13.316  -4.193  1.00  0.00     0.180 C 
HETATM   42  O   UNL     1     -15.792 -11.985  -3.160  1.00  0.00    -0.348 OA
ENDROOT
BRANCH   1  43
HETATM   43  O   UNL     1     -22.977 -14.716  -2.513  1.00  0.00    -0.351 OA
BRANCH  43  44
HETATM   44  C   UNL     1     -23.946 -15.732  -2.617  1.00  0.00     0.257 C 
BRANCH  44  45
HETATM   45  C   UNL     1     -24.958 -15.625  -1.463  1.00  0.00     0.056 C 
HETATM   46  C   UNL     1     -24.595 -14.427  -0.593  1.00  0.00     0.010 C 
ENDBRANCH  44  45
BRANCH  44  47
HETATM   47  O   UNL     1     -24.687 -15.748  -3.809  1.00  0.00    -0.371 OA
HETATM   48  H   UNL     1     -24.881 -16.662  -4.060  1.00  0.00     0.212 HD
ENDBRANCH  44  47
ENDBRANCH  43  44
ENDBRANCH   1  43
BRANCH   2  49
HETATM   49  O   UNL     1     -21.165 -17.182  -3.967  1.00  0.00    -0.388 OA
HETATM   50  H   UNL     1     -20.384 -17.706  -4.228  1.00  0.00     0.210 HD
ENDBRANCH   2  49
BRANCH   5  51
HETATM   51  C   UNL     1     -20.878 -17.120   0.097  1.00  0.00     0.198 C 
BRANCH  51  52
HETATM   52  O   UNL     1     -22.111 -16.572   0.558  1.00  0.00    -0.398 OA
HETATM   53  H   UNL     1     -22.715 -16.504  -0.209  1.00  0.00     0.209 HD
ENDBRANCH  51  52
ENDBRANCH   5  51
BRANCH   9  54
HETATM   54  O   UNL     1     -18.194 -11.290   1.157  1.00  0.00    -0.388 OA
HETATM   55  H   UNL     1     -19.069 -10.841   1.253  1.00  0.00     0.210 HD
ENDBRANCH   9  54
BRANCH  38  56
HETATM   56  O   UNL     1     -16.240 -10.425  -6.230  1.00  0.00    -0.390 OA
HETATM   57  H   UNL     1     -16.669  -9.568  -6.501  1.00  0.00     0.210 HD
ENDBRANCH  38  56
BRANCH  41  58
HETATM   58  C   UNL     1     -14.155 -14.183  -5.145  1.00  0.00     0.198 C 
BRANCH  58  59
HETATM   59  O   UNL     1     -13.869 -14.192  -6.639  1.00  0.00    -0.398 OA
HETATM   60  H   UNL     1     -14.463 -14.862  -7.081  1.00  0.00     0.209 HD
ENDBRANCH  58  59
ENDBRANCH  41  58
BRANCH  10  61
HETATM   61  O   UNL     1     -16.957 -11.928  -1.262  1.00  0.00    -0.390 OA
HETATM   62  H   UNL     1     -17.744 -11.346  -1.181  1.00  0.00     0.210 HD
ENDBRANCH  10  61
BRANCH  12  63
HETATM   63  C   UNL     1     -15.727 -15.743   1.255  1.00  0.00     0.198 C 
BRANCH  63  64
HETATM   64  O   UNL     1     -14.731 -16.362   0.439  1.00  0.00    -0.398 OA
HETATM   65  H   UNL     1     -14.981 -16.149  -0.486  1.00  0.00     0.209 HD
ENDBRANCH  63  64
ENDBRANCH  12  63
BRANCH  37  66
HETATM   66  O   UNL     1     -15.306  -9.246  -4.238  1.00  0.00    -0.388 OA
HETATM   67  H   UNL     1     -15.012  -9.392  -5.173  1.00  0.00     0.210 HD
ENDBRANCH  37  66
BRANCH  16  68
HETATM   68  O   UNL     1     -12.862 -11.813  -5.163  1.00  0.00    -0.388 OA
HETATM   69  H   UNL     1     -12.282 -12.553  -4.850  1.00  0.00     0.210 HD
ENDBRANCH  16  68
BRANCH  31  70
HETATM   70  O   UNL     1     -19.747  -8.597  -3.719  1.00  0.00    -0.390 OA
HETATM   71  H   UNL     1     -20.105  -8.555  -2.810  1.00  0.00     0.210 HD
ENDBRANCH  31  70
BRANCH  33  72
HETATM   72  C   UNL     1     -19.259 -13.253  -2.476  1.00  0.00     0.198 C 
BRANCH  72  73
HETATM   73  O   UNL     1     -18.049 -13.919  -2.506  1.00  0.00    -0.398 OA
HETATM   74  H   UNL     1     -17.862 -14.489  -1.741  1.00  0.00     0.209 HD
ENDBRANCH  72  73
ENDBRANCH  33  72
BRANCH  17  75
HETATM   75  O   UNL     1     -14.602 -12.111  -7.412  1.00  0.00    -0.390 OA
HETATM   76  H   UNL     1     -13.760 -12.625  -7.516  1.00  0.00     0.210 HD
ENDBRANCH  17  75
BRANCH  19  77
HETATM   77  C   UNL     1     -15.202 -16.997  -5.304  1.00  0.00     0.198 C 
BRANCH  77  78
HETATM   78  O   UNL     1     -14.939 -16.911  -6.694  1.00  0.00    -0.398 OA
HETATM   79  H   UNL     1     -14.041 -17.259  -6.831  1.00  0.00     0.209 HD
ENDBRANCH  77  78
ENDBRANCH  19  77
BRANCH  30  80
HETATM   80  O   UNL     1     -22.134  -9.980  -3.266  1.00  0.00    -0.388 OA
HETATM   81  H   UNL     1     -22.779  -9.279  -3.519  1.00  0.00     0.210 HD
ENDBRANCH  30  80
BRANCH  23  82
HETATM   82  O   UNL     1     -19.175 -12.698  -9.471  1.00  0.00    -0.388 OA
HETATM   83  H   UNL     1     -19.970 -13.270  -9.418  1.00  0.00     0.210 HD
ENDBRANCH  23  82
BRANCH  24  84
HETATM   84  O   UNL     1     -19.623 -11.361  -7.041  1.00  0.00    -0.390 OA
HETATM   85  H   UNL     1     -19.270 -11.240  -6.158  1.00  0.00     0.210 HD
ENDBRANCH  24  84
BRANCH  26  86
HETATM   86  C   UNL     1     -21.154 -16.083  -7.420  1.00  0.00     0.198 C 
BRANCH  86  87
HETATM   87  O   UNL     1     -22.446 -15.604  -7.021  1.00  0.00    -0.398 OA
HETATM   88  H   UNL     1     -22.914 -16.358  -6.610  1.00  0.00     0.209 HD
ENDBRANCH  86  87
ENDBRANCH  26  86
TORSDOF 27
BEGIN_RES ARG D 557
REMARK  4 active torsions:
REMARK  status: ('A' for Active; 'I' for Inactive)
REMARK    1  A    between atoms: CA   and  CB  
REMARK    2  A    between atoms: CB   and  CG  
REMARK    3  A    between atoms: CG   and  CD  
REMARK    4  A    between atoms: CD   and  NE  
REMARK       I    between atoms: NE   and  CZ  
REMARK       I    between atoms: CZ   and  NH1 
REMARK       I    between atoms: CZ   and  NH2 
ROOT
ATOM      1  CA  ARG D 557     -26.217   2.705 -17.014  1.00 35.49     0.159 C 
ENDROOT
BRANCH   1   2
ATOM      2  CB  ARG D 557     -26.789   1.319 -17.183  1.00 35.49     0.034 C 
BRANCH   2   3
ATOM      3  CG  ARG D 557     -25.942   0.198 -16.758  1.00 35.49     0.027 C 
BRANCH   3   4
ATOM      4  CD  ARG D 557     -26.715  -0.868 -16.081  1.00 35.49     0.116 C 
BRANCH   4   5
ATOM      5  NE  ARG D 557     -25.930  -1.564 -15.095  1.00 35.49    -0.212 N 
ATOM      6  CZ  ARG D 557     -25.937  -2.861 -14.883  1.00 35.49     0.666 C 
ATOM      7  NH1 ARG D 557     -26.705  -3.687 -15.569  1.00 35.49    -0.235 N 
ATOM      8  NH2 ARG D 557     -25.144  -3.323 -13.960  1.00 35.49    -0.235 N 
ATOM      9  HH  ARG D 557     -27.233  -3.405 -16.183  1.00 35.49     0.174 HD
ATOM     10  HH  ARG D 557     -26.665  -4.524 -15.389  1.00 35.49     0.174 HD
ATOM     11  HH  ARG D 557     -24.655  -2.766 -13.538  1.00 35.49     0.174 HD
ATOM     12  HH  ARG D 557     -25.118  -4.154 -13.797  1.00 35.49     0.174 HD
ATOM     13  HE  ARG D 557     -25.461  -1.100 -14.558  1.00 35.49     0.178 HD
ENDBRANCH   4   5
ENDBRANCH   3   4
ENDBRANCH   2   3
ENDBRANCH   1   2
END_RES ARG D 557
BEGIN_RES GLU D 570
REMARK  3 active torsions:
REMARK  status: ('A' for Active; 'I' for Inactive)
REMARK    5  A    between atoms: CA   and  CB  
REMARK    6  A    between atoms: CB   and  CG  
REMARK    7  A    between atoms: CG   and  CD  
ROOT
ATOM     14  CA  GLU D 570     -18.033  -6.348 -13.375  1.00 32.92     0.160 C 
ENDROOT
BRANCH  14  15
ATOM     15  CB  GLU D 570     -19.500  -6.345 -13.794  1.00 32.92     0.043 C 
BRANCH  15  16
ATOM     16  CG  GLU D 570     -19.816  -5.903 -15.177  1.00 32.92     0.100 C 
BRANCH  16  17
ATOM     17  CD  GLU D 570     -21.051  -6.567 -15.740  1.00 32.92     0.185 C 
ATOM     18  OE1 GLU D 570     -21.042  -6.957 -16.924  1.00 32.92    -0.647 OA
ATOM     19  OE2 GLU D 570     -22.043  -6.684 -14.995  1.00 32.92    -0.647 OA
ENDBRANCH  16  17
ENDBRANCH  15  16
ENDBRANCH  14  15
END_RES GLU D 570
ENDMDL
MODEL 6
REMARK VINA RESULT:      -3.1      1.707      5.498
REMARK  27 active torsions:
REMARK  status: ('A' for Active; 'I' for Inactive)
REMARK    1  A    between atoms: C_2  and  C_3 
REMARK    2  A    between atoms: C_3  and  O_4 
REMARK    3  A    between atoms: C_3  and  O_5 
REMARK    4  A    between atoms: O_5  and  C_6 
REMARK    5  A    between atoms: C_7  and  O_70 
REMARK    6  A    between atoms: C_10  and  C_68 
REMARK    7  A    between atoms: C_14  and  O_67 
REMARK    8  A    between atoms: C_15  and  O_66 
REMARK    9  A    between atoms: C_17  and  C_19 
REMARK   10  A    between atoms: C_19  and  O_20 
REMARK   11  A    between atoms: C_23  and  O_65 
REMARK   12  A    between atoms: C_24  and  O_64 
REMARK   13  A    between atoms: C_26  and  C_28 
REMARK   14  A    between atoms: C_28  and  O_29 
REMARK   15  A    between atoms: C_32  and  O_63 
REMARK   16  A    between atoms: C_33  and  O_62 
REMARK   17  A    between atoms: C_35  and  C_37 
REMARK   18  A    between atoms: C_37  and  O_38 
REMARK   19  A    between atoms: C_41  and  O_61 
REMARK   20  A    between atoms: C_42  and  O_60 
REMARK   21  A    between atoms: C_44  and  C_46 
REMARK   22  A    between atoms: C_46  and  O_47 
REMARK   23  A    between atoms: C_50  and  O_59 
REMARK   24  A    between atoms: C_51  and  O_58 
REMARK   25  A    between atoms: C_54  and  C_56 
REMARK   26  A    between atoms: C_56  and  O_57 
REMARK   27  A    between atoms: C_68  and  O_69 
ROOT
HETATM    1  C   UNL     1     -21.186 -15.291  -0.579  1.00  0.00     0.189 C 
HETATM    2  C   UNL     1     -19.506 -15.181  -0.338  1.00  0.00     0.205 C 
HETATM    3  C   UNL     1     -18.916 -13.759  -0.827  1.00  0.00     0.292 C 
HETATM    4  O   UNL     1     -19.878 -12.763   0.175  1.00  0.00    -0.348 OA
HETATM    5  C   UNL     1     -21.256 -13.443   0.809  1.00  0.00     0.180 C 
HETATM    6  C   UNL     1     -21.952 -13.753  -0.461  1.00  0.00     0.187 C 
HETATM    7  O   UNL     1     -23.232 -13.183  -0.972  1.00  0.00    -0.348 OA
HETATM    8  C   UNL     1     -23.373 -11.700  -1.708  1.00  0.00     0.292 C 
HETATM    9  C   UNL     1     -23.087 -11.559  -3.249  1.00  0.00     0.204 C 
HETATM   10  C   UNL     1     -21.811 -10.692  -3.404  1.00  0.00     0.183 C 
HETATM   11  C   UNL     1     -20.739  -9.810  -2.779  1.00  0.00     0.187 C 
HETATM   12  C   UNL     1     -21.536  -9.682  -1.339  1.00  0.00     0.180 C 
HETATM   13  O   UNL     1     -22.916 -10.429  -1.062  1.00  0.00    -0.348 OA
HETATM   14  O   UNL     1     -19.773  -9.034  -3.834  1.00  0.00    -0.348 OA
HETATM   15  C   UNL     1     -18.102  -9.407  -4.182  1.00  0.00     0.292 C 
HETATM   16  C   UNL     1     -17.213 -10.417  -5.803  1.00  0.00     0.204 C 
HETATM   17  C   UNL     1     -16.075 -12.016  -5.350  1.00  0.00     0.183 C 
HETATM   18  C   UNL     1     -15.766 -12.485  -3.496  1.00  0.00     0.187 C 
HETATM   19  C   UNL     1     -16.523 -11.313  -2.147  1.00  0.00     0.180 C 
HETATM   20  O   UNL     1     -17.404  -9.800  -2.575  1.00  0.00    -0.348 OA
HETATM   21  O   UNL     1     -14.735 -13.503  -3.238  1.00  0.00    -0.348 OA
HETATM   22  C   UNL     1     -14.947 -15.017  -3.351  1.00  0.00     0.292 C 
HETATM   23  C   UNL     1     -15.615 -15.726  -4.567  1.00  0.00     0.204 C 
HETATM   24  C   UNL     1     -17.073 -16.039  -4.287  1.00  0.00     0.183 C 
HETATM   25  C   UNL     1     -17.583 -16.886  -3.162  1.00  0.00     0.187 C 
HETATM   26  C   UNL     1     -16.684 -16.236  -1.916  1.00  0.00     0.180 C 
HETATM   27  O   UNL     1     -15.317 -15.756  -2.162  1.00  0.00    -0.348 OA
HETATM   28  O   UNL     1     -19.093 -16.707  -3.048  1.00  0.00    -0.348 OA
HETATM   29  C   UNL     1     -20.370 -16.903  -3.836  1.00  0.00     0.292 C 
HETATM   30  C   UNL     1     -20.960 -16.819  -5.353  1.00  0.00     0.204 C 
HETATM   31  C   UNL     1     -20.732 -15.496  -6.139  1.00  0.00     0.183 C 
HETATM   32  C   UNL     1     -20.781 -14.260  -5.238  1.00  0.00     0.187 C 
HETATM   33  C   UNL     1     -20.581 -14.595  -3.822  1.00  0.00     0.180 C 
HETATM   34  O   UNL     1     -21.228 -15.779  -3.437  1.00  0.00    -0.348 OA
HETATM   35  O   UNL     1     -21.187 -12.959  -5.641  1.00  0.00    -0.348 OA
HETATM   36  C   UNL     1     -20.139 -11.889  -6.065  1.00  0.00     0.292 C 
HETATM   37  C   UNL     1     -19.413 -12.541  -7.111  1.00  0.00     0.204 C 
HETATM   38  C   UNL     1     -18.358 -13.258  -6.205  1.00  0.00     0.183 C 
HETATM   39  C   UNL     1     -18.270 -12.931  -4.240  1.00  0.00     0.187 C 
HETATM   40  O   UNL     1     -18.376 -13.751  -2.587  1.00  0.00    -0.348 OA
HETATM   41  C   UNL     1     -17.874 -11.488  -4.127  1.00  0.00     0.180 C 
HETATM   42  O   UNL     1     -19.135 -11.104  -5.179  1.00  0.00    -0.348 OA
ENDROOT
BRANCH   1  43
HETATM   43  O   UNL     1     -21.905 -16.515  -0.431  1.00  0.00    -0.351 OA
BRANCH  43  44
HETATM   44  C   UNL     1     -23.155 -16.729  -1.043  1.00  0.00     0.257 C 
BRANCH  44  45
HETATM   45  C   UNL     1     -24.274 -16.736   0.013  1.00  0.00     0.056 C 
HETATM   46  C   UNL     1     -25.463 -15.944  -0.520  1.00  0.00     0.010 C 
ENDBRANCH  44  45
BRANCH  44  47
HETATM   47  O   UNL     1     -23.524 -15.793  -2.022  1.00  0.00    -0.371 OA
HETATM   48  H   UNL     1     -23.620 -16.236  -2.876  1.00  0.00     0.212 HD
ENDBRANCH  44  47
ENDBRANCH  43  44
ENDBRANCH   1  43
BRANCH   2  49
HETATM   49  O   UNL     1     -19.105 -15.314   1.051  1.00  0.00    -0.388 OA
HETATM   50  H   UNL     1     -18.438 -16.019   1.151  1.00  0.00     0.210 HD
ENDBRANCH   2  49
BRANCH   5  51
HETATM   51  C   UNL     1     -22.426 -13.063   1.762  1.00  0.00     0.198 C 
BRANCH  51  52
HETATM   52  O   UNL     1     -23.363 -14.120   1.955  1.00  0.00    -0.398 OA
HETATM   53  H   UNL     1     -23.985 -13.846   2.660  1.00  0.00     0.209 HD
ENDBRANCH  51  52
ENDBRANCH   5  51
BRANCH   9  54
HETATM   54  O   UNL     1     -24.034 -11.123  -4.235  1.00  0.00    -0.388 OA
HETATM   55  H   UNL     1     -24.825 -10.817  -3.728  1.00  0.00     0.210 HD
ENDBRANCH   9  54
BRANCH  38  56
HETATM   56  O   UNL     1     -17.243 -13.244  -7.153  1.00  0.00    -0.390 OA
HETATM   57  H   UNL     1     -17.442 -12.542  -7.830  1.00  0.00     0.210 HD
ENDBRANCH  38  56
BRANCH  41  58
HETATM   58  C   UNL     1     -16.049 -10.356  -4.009  1.00  0.00     0.198 C 
BRANCH  58  59
HETATM   59  O   UNL     1     -14.654 -10.873  -4.327  1.00  0.00    -0.398 OA
HETATM   60  H   UNL     1     -14.122 -10.139  -4.746  1.00  0.00     0.209 HD
ENDBRANCH  58  59
ENDBRANCH  41  58
BRANCH  10  61
HETATM   61  O   UNL     1     -21.256 -11.168  -4.501  1.00  0.00    -0.390 OA
HETATM   62  H   UNL     1     -21.940 -11.741  -4.911  1.00  0.00     0.210 HD
ENDBRANCH  10  61
BRANCH  12  63
HETATM   63  C   UNL     1     -21.621  -8.292  -0.759  1.00  0.00     0.198 C 
BRANCH  63  64
HETATM   64  O   UNL     1     -22.370  -8.333   0.457  1.00  0.00    -0.398 OA
HETATM   65  H   UNL     1     -23.038  -7.618   0.377  1.00  0.00     0.209 HD
ENDBRANCH  63  64
ENDBRANCH  12  63
BRANCH  37  66
HETATM   66  O   UNL     1     -18.897 -11.636  -8.105  1.00  0.00    -0.388 OA
HETATM   67  H   UNL     1     -19.050 -12.021  -9.005  1.00  0.00     0.210 HD
ENDBRANCH  37  66
BRANCH  16  68
HETATM   68  O   UNL     1     -16.237  -9.616  -6.599  1.00  0.00    -0.388 OA
HETATM   69  H   UNL     1     -15.779 -10.289  -7.165  1.00  0.00     0.210 HD
ENDBRANCH  16  68
BRANCH  31  70
HETATM   70  O   UNL     1     -21.461 -15.274  -7.330  1.00  0.00    -0.390 OA
HETATM   71  H   UNL     1     -21.858 -16.129  -7.590  1.00  0.00     0.210 HD
ENDBRANCH  31  70
BRANCH  33  72
HETATM   72  C   UNL     1     -20.801 -13.538  -2.857  1.00  0.00     0.198 C 
BRANCH  72  73
HETATM   73  O   UNL     1     -20.025 -12.432  -2.568  1.00  0.00    -0.398 OA
HETATM   74  H   UNL     1     -20.399 -11.574  -2.833  1.00  0.00     0.209 HD
ENDBRANCH  72  73
ENDBRANCH  33  72
BRANCH  17  75
HETATM   75  O   UNL     1     -14.997 -12.175  -6.294  1.00  0.00    -0.390 OA
HETATM   76  H   UNL     1     -14.195 -11.892  -5.785  1.00  0.00     0.210 HD
ENDBRANCH  17  75
BRANCH  19  77
HETATM   77  C   UNL     1     -15.463 -10.905  -1.112  1.00  0.00     0.198 C 
BRANCH  77  78
HETATM   78  O   UNL     1     -15.066  -9.573  -1.392  1.00  0.00    -0.398 OA
HETATM   79  H   UNL     1     -15.362  -9.377  -2.297  1.00  0.00     0.209 HD
ENDBRANCH  77  78
ENDBRANCH  19  77
BRANCH  30  80
HETATM   80  O   UNL     1     -22.429 -16.883  -5.258  1.00  0.00    -0.388 OA
HETATM   81  H   UNL     1     -22.663 -17.808  -5.012  1.00  0.00     0.210 HD
ENDBRANCH  30  80
BRANCH  23  82
HETATM   82  O   UNL     1     -15.049 -17.018  -4.866  1.00  0.00    -0.388 OA
HETATM   83  H   UNL     1     -15.152 -17.551  -4.049  1.00  0.00     0.210 HD
ENDBRANCH  23  82
BRANCH  24  84
HETATM   84  O   UNL     1     -17.720 -16.398  -5.478  1.00  0.00    -0.390 OA
HETATM   85  H   UNL     1     -18.337 -15.667  -5.517  1.00  0.00     0.210 HD
ENDBRANCH  24  84
BRANCH  26  86
HETATM   86  C   UNL     1     -16.544 -17.182  -0.705  1.00  0.00     0.198 C 
BRANCH  86  87
HETATM   87  O   UNL     1     -16.345 -16.437   0.505  1.00  0.00    -0.398 OA
HETATM   88  H   UNL     1     -15.800 -16.995   1.096  1.00  0.00     0.209 HD
ENDBRANCH  86  87
ENDBRANCH  26  86
TORSDOF 27
BEGIN_RES ARG D 557
REMARK  4 active torsions:
REMARK  status: ('A' for Active; 'I' for Inactive)
REMARK    1  A    between atoms: CA   and  CB  
REMARK    2  A    between atoms: CB   and  CG  
REMARK    3  A    between atoms: CG   and  CD  
REMARK    4  A    between atoms: CD   and  NE  
REMARK       I    between atoms: NE   and  CZ  
REMARK       I    between atoms: CZ   and  NH1 
REMARK       I    between atoms: CZ   and  NH2 
ROOT
ATOM      1  CA  ARG D 557     -26.217   2.705 -17.014  1.00 35.49     0.159 C 
ENDROOT
BRANCH   1   2
ATOM      2  CB  ARG D 557     -26.789   1.319 -17.183  1.00 35.49     0.034 C 
BRANCH   2   3
ATOM      3  CG  ARG D 557     -25.874   0.194 -16.952  1.00 35.49     0.027 C 
BRANCH   3   4
ATOM      4  CD  ARG D 557     -26.337  -0.695 -15.862  1.00 35.49     0.116 C 
BRANCH   4   5
ATOM      5  NE  ARG D 557     -25.301  -0.956 -14.898  1.00 35.49    -0.212 N 
ATOM      6  CZ  ARG D 557     -25.026  -2.124 -14.363  1.00 35.49     0.666 C 
ATOM      7  NH1 ARG D 557     -25.707  -3.216 -14.657  1.00 35.49    -0.235 N 
ATOM      8  NH2 ARG D 557     -24.035  -2.181 -13.521  1.00 35.49    -0.235 N 
ATOM      9  HH  ARG D 557     -26.361  -3.203 -15.210  1.00 35.49     0.174 HD
ATOM     10  HH  ARG D 557     -25.481  -3.951 -14.279  1.00 35.49     0.174 HD
ATOM     11  HH  ARG D 557     -23.609  -1.461 -13.356  1.00 35.49     0.174 HD
ATOM     12  HH  ARG D 557     -23.826  -2.918 -13.158  1.00 35.49     0.174 HD
ATOM     13  HE  ARG D 557     -24.859  -0.294 -14.598  1.00 35.49     0.178 HD
ENDBRANCH   4   5
ENDBRANCH   3   4
ENDBRANCH   2   3
ENDBRANCH   1   2
END_RES ARG D 557
BEGIN_RES GLU D 570
REMARK  3 active torsions:
REMARK  status: ('A' for Active; 'I' for Inactive)
REMARK    5  A    between atoms: CA   and  CB  
REMARK    6  A    between atoms: CB   and  CG  
REMARK    7  A    between atoms: CG   and  CD  
ROOT
ATOM     14  CA  GLU D 570     -18.033  -6.348 -13.375  1.00 32.92     0.160 C 
ENDROOT
BRANCH  14  15
ATOM     15  CB  GLU D 570     -19.500  -6.345 -13.794  1.00 32.92     0.043 C 
BRANCH  15  16
ATOM     16  CG  GLU D 570     -19.805  -6.037 -15.215  1.00 32.92     0.100 C 
BRANCH  16  17
ATOM     17  CD  GLU D 570     -21.171  -5.418 -15.404  1.00 32.92     0.185 C 
ATOM     18  OE1 GLU D 570     -21.570  -5.173 -16.558  1.00 32.92    -0.647 OA
ATOM     19  OE2 GLU D 570     -21.842  -5.161 -14.385  1.00 32.92    -0.647 OA
ENDBRANCH  16  17
ENDBRANCH  15  16
ENDBRANCH  14  15
END_RES GLU D 570
ENDMDL
MODEL 7
REMARK VINA RESULT:      -2.9      1.852      7.123
REMARK  27 active torsions:
REMARK  status: ('A' for Active; 'I' for Inactive)
REMARK    1  A    between atoms: C_2  and  C_3 
REMARK    2  A    between atoms: C_3  and  O_4 
REMARK    3  A    between atoms: C_3  and  O_5 
REMARK    4  A    between atoms: O_5  and  C_6 
REMARK    5  A    between atoms: C_7  and  O_70 
REMARK    6  A    between atoms: C_10  and  C_68 
REMARK    7  A    between atoms: C_14  and  O_67 
REMARK    8  A    between atoms: C_15  and  O_66 
REMARK    9  A    between atoms: C_17  and  C_19 
REMARK   10  A    between atoms: C_19  and  O_20 
REMARK   11  A    between atoms: C_23  and  O_65 
REMARK   12  A    between atoms: C_24  and  O_64 
REMARK   13  A    between atoms: C_26  and  C_28 
REMARK   14  A    between atoms: C_28  and  O_29 
REMARK   15  A    between atoms: C_32  and  O_63 
REMARK   16  A    between atoms: C_33  and  O_62 
REMARK   17  A    between atoms: C_35  and  C_37 
REMARK   18  A    between atoms: C_37  and  O_38 
REMARK   19  A    between atoms: C_41  and  O_61 
REMARK   20  A    between atoms: C_42  and  O_60 
REMARK   21  A    between atoms: C_44  and  C_46 
REMARK   22  A    between atoms: C_46  and  O_47 
REMARK   23  A    between atoms: C_50  and  O_59 
REMARK   24  A    between atoms: C_51  and  O_58 
REMARK   25  A    between atoms: C_54  and  C_56 
REMARK   26  A    between atoms: C_56  and  O_57 
REMARK   27  A    between atoms: C_68  and  O_69 
ROOT
HETATM    1  C   UNL     1     -19.339 -15.268  -6.454  1.00  0.00     0.189 C 
HETATM    2  C   UNL     1     -20.891 -15.125  -5.775  1.00  0.00     0.205 C 
HETATM    3  C   UNL     1     -21.081 -13.729  -4.985  1.00  0.00     0.292 C 
HETATM    4  O   UNL     1     -20.744 -12.685  -6.296  1.00  0.00    -0.348 OA
HETATM    5  C   UNL     1     -19.928 -13.341  -7.587  1.00  0.00     0.180 C 
HETATM    6  C   UNL     1     -18.685 -13.734  -6.884  1.00  0.00     0.187 C 
HETATM    7  O   UNL     1     -17.304 -13.209  -7.093  1.00  0.00    -0.348 OA
HETATM    8  C   UNL     1     -16.739 -11.775  -6.472  1.00  0.00     0.292 C 
HETATM    9  C   UNL     1     -16.174 -11.725  -5.005  1.00  0.00     0.204 C 
HETATM   10  C   UNL     1     -17.145 -10.855  -4.166  1.00  0.00     0.183 C 
HETATM   11  C   UNL     1     -18.349  -9.924  -4.097  1.00  0.00     0.187 C 
HETATM   12  C   UNL     1     -18.415  -9.719  -5.733  1.00  0.00     0.180 C 
HETATM   13  O   UNL     1     -17.414 -10.463  -6.725  1.00  0.00    -0.348 OA
HETATM   14  O   UNL     1     -18.591  -9.203  -2.658  1.00  0.00    -0.348 OA
HETATM   15  C   UNL     1     -19.849  -9.578  -1.505  1.00  0.00     0.292 C 
HETATM   16  C   UNL     1     -19.802 -10.674   0.293  1.00  0.00     0.204 C 
HETATM   17  C   UNL     1     -21.073 -12.230   0.429  1.00  0.00     0.183 C 
HETATM   18  C   UNL     1     -22.323 -12.583  -1.009  1.00  0.00     0.187 C 
HETATM   19  C   UNL     1     -22.334 -11.341  -2.499  1.00  0.00     0.180 C 
HETATM   20  O   UNL     1     -21.297  -9.866  -2.526  1.00  0.00    -0.348 OA
HETATM   21  O   UNL     1     -23.377 -13.574  -0.735  1.00  0.00    -0.348 OA
HETATM   22  C   UNL     1     -23.200 -15.094  -0.819  1.00  0.00     0.292 C 
HETATM   23  C   UNL     1     -22.024 -15.882  -0.166  1.00  0.00     0.204 C 
HETATM   24  C   UNL     1     -20.941 -16.193  -1.181  1.00  0.00     0.183 C 
HETATM   25  C   UNL     1     -21.128 -16.977  -2.444  1.00  0.00     0.187 C 
HETATM   26  C   UNL     1     -22.517 -16.242  -3.004  1.00  0.00     0.180 C 
HETATM   27  O   UNL     1     -23.535 -15.764  -2.058  1.00  0.00    -0.348 OA
HETATM   28  O   UNL     1     -19.893 -16.807  -3.322  1.00  0.00    -0.348 OA
HETATM   29  C   UNL     1     -18.401 -17.064  -3.328  1.00  0.00     0.292 C 
HETATM   30  C   UNL     1     -17.104 -17.078  -2.342  1.00  0.00     0.204 C 
HETATM   31  C   UNL     1     -16.835 -15.803  -1.493  1.00  0.00     0.183 C 
HETATM   32  C   UNL     1     -17.212 -14.515  -2.229  1.00  0.00     0.187 C 
HETATM   33  C   UNL     1     -18.134 -14.761  -3.345  1.00  0.00     0.180 C 
HETATM   34  O   UNL     1     -17.833 -15.928  -4.065  1.00  0.00    -0.348 OA
HETATM   35  O   UNL     1     -16.604 -13.245  -2.039  1.00  0.00    -0.348 OA
HETATM   36  C   UNL     1     -17.232 -12.191  -1.081  1.00  0.00     0.292 C 
HETATM   37  C   UNL     1     -17.332 -12.897   0.159  1.00  0.00     0.204 C 
HETATM   38  C   UNL     1     -18.733 -13.546  -0.093  1.00  0.00     0.183 C 
HETATM   39  C   UNL     1     -19.818 -13.101  -1.705  1.00  0.00     0.187 C 
HETATM   40  O   UNL     1     -20.624 -13.821  -3.205  1.00  0.00    -0.348 OA
HETATM   41  C   UNL     1     -20.157 -11.650  -1.528  1.00  0.00     0.180 C 
HETATM   42  O   UNL     1     -18.517 -11.343  -1.275  1.00  0.00    -0.348 OA
ENDROOT
BRANCH   1  43
HETATM   43  O   UNL     1     -18.852 -16.489  -7.011  1.00  0.00    -0.351 OA
BRANCH  43  44
HETATM   44  C   UNL     1     -17.480 -16.801  -7.051  1.00  0.00     0.257 C 
BRANCH  44  45
HETATM   45  C   UNL     1     -17.059 -17.182  -8.481  1.00  0.00     0.056 C 
HETATM   46  C   UNL     1     -17.554 -16.110  -9.446  1.00  0.00     0.010 C 
ENDBRANCH  44  45
BRANCH  44  47
HETATM   47  O   UNL     1     -16.610 -15.784  -6.627  1.00  0.00    -0.371 OA
HETATM   48  H   UNL     1     -16.360 -15.234  -7.382  1.00  0.00     0.212 HD
ENDBRANCH  44  47
ENDBRANCH  43  44
ENDBRANCH   1  43
BRANCH   2  49
HETATM   49  O   UNL     1     -21.962 -15.170  -6.754  1.00  0.00    -0.388 OA
HETATM   50  H   UNL     1     -22.268 -16.088  -6.889  1.00  0.00     0.210 HD
ENDBRANCH   2  49
BRANCH   5  51
HETATM   51  C   UNL     1     -19.411 -12.917  -8.993  1.00  0.00     0.198 C 
BRANCH  51  52
HETATM   52  O   UNL     1     -18.656 -11.708  -8.975  1.00  0.00    -0.398 OA
HETATM   53  H   UNL     1     -19.259 -10.979  -8.724  1.00  0.00     0.209 HD
ENDBRANCH  51  52
ENDBRANCH   5  51
BRANCH   9  54
HETATM   54  O   UNL     1     -14.834 -11.358  -4.640  1.00  0.00    -0.388 OA
HETATM   55  H   UNL     1     -14.409 -11.043  -5.474  1.00  0.00     0.210 HD
ENDBRANCH   9  54
BRANCH  38  56
HETATM   56  O   UNL     1     -19.188 -13.578   1.298  1.00  0.00    -0.390 OA
HETATM   57  H   UNL     1     -19.106 -12.652   1.654  1.00  0.00     0.210 HD
ENDBRANCH  38  56
BRANCH  41  58
HETATM   58  C   UNL     1     -21.727 -10.493  -0.622  1.00  0.00     0.198 C 
BRANCH  58  59
HETATM   59  O   UNL     1     -21.753  -8.979  -0.478  1.00  0.00    -0.398 OA
HETATM   60  H   UNL     1     -21.407  -8.732   0.425  1.00  0.00     0.209 HD
ENDBRANCH  58  59
ENDBRANCH  41  58
BRANCH  10  61
HETATM   61  O   UNL     1     -17.066 -11.390  -2.964  1.00  0.00    -0.390 OA
HETATM   62  H   UNL     1     -17.857 -11.065  -2.482  1.00  0.00     0.210 HD
ENDBRANCH  10  61
BRANCH  12  63
HETATM   63  C   UNL     1     -18.589  -8.297  -6.208  1.00  0.00     0.198 C 
BRANCH  63  64
HETATM   64  O   UNL     1     -19.679  -7.696  -5.507  1.00  0.00    -0.398 OA
HETATM   65  H   UNL     1     -20.309  -8.427  -5.327  1.00  0.00     0.209 HD
ENDBRANCH  63  64
ENDBRANCH  12  63
BRANCH  37  66
HETATM   66  O   UNL     1     -17.217 -12.048   1.316  1.00  0.00    -0.388 OA
HETATM   67  H   UNL     1     -17.933 -12.279   1.960  1.00  0.00     0.210 HD
ENDBRANCH  37  66
BRANCH  16  68
HETATM   68  O   UNL     1     -20.186  -9.913   1.518  1.00  0.00    -0.388 OA
HETATM   69  H   UNL     1     -20.996  -9.412   1.245  1.00  0.00     0.210 HD
ENDBRANCH  16  68
BRANCH  31  70
HETATM   70  O   UNL     1     -15.583 -15.661  -0.850  1.00  0.00    -0.390 OA
HETATM   71  H   UNL     1     -15.012 -16.389  -1.165  1.00  0.00     0.210 HD
ENDBRANCH  31  70
BRANCH  33  72
HETATM   72  C   UNL     1     -18.407 -13.651  -4.233  1.00  0.00     0.198 C 
BRANCH  72  73
HETATM   73  O   UNL     1     -19.204 -12.540  -4.037  1.00  0.00    -0.398 OA
HETATM   74  H   UNL     1     -18.740 -11.685  -4.024  1.00  0.00     0.209 HD
ENDBRANCH  72  73
ENDBRANCH  33  72
BRANCH  17  75
HETATM   75  O   UNL     1     -21.507 -12.434   1.789  1.00  0.00    -0.390 OA
HETATM   76  H   UNL     1     -22.097 -11.658   1.968  1.00  0.00     0.210 HD
ENDBRANCH  17  75
BRANCH  19  77
HETATM   77  C   UNL     1     -23.760 -10.860  -2.807  1.00  0.00     0.198 C 
BRANCH  77  78
HETATM   78  O   UNL     1     -24.571 -11.139  -1.678  1.00  0.00    -0.398 OA
HETATM   79  H   UNL     1     -25.433 -11.433  -2.019  1.00  0.00     0.209 HD
ENDBRANCH  77  78
ENDBRANCH  19  77
BRANCH  30  80
HETATM   80  O   UNL     1     -15.904 -17.152  -3.193  1.00  0.00    -0.388 OA
HETATM   81  H   UNL     1     -16.060 -16.561  -3.966  1.00  0.00     0.210 HD
ENDBRANCH  30  80
BRANCH  23  82
HETATM   82  O   UNL     1     -22.404 -17.183   0.326  1.00  0.00    -0.388 OA
HETATM   83  H   UNL     1     -22.999 -17.018   1.089  1.00  0.00     0.210 HD
ENDBRANCH  23  82
BRANCH  24  84
HETATM   84  O   UNL     1     -19.783 -16.630  -0.521  1.00  0.00    -0.390 OA
HETATM   85  H   UNL     1     -19.736 -17.506  -0.907  1.00  0.00     0.210 HD
ENDBRANCH  24  84
BRANCH  26  86
HETATM   86  C   UNL     1     -23.307 -17.113  -4.005  1.00  0.00     0.198 C 
BRANCH  86  87
HETATM   87  O   UNL     1     -24.369 -16.361  -4.608  1.00  0.00    -0.398 OA
HETATM   88  H   UNL     1     -24.584 -15.630  -3.994  1.00  0.00     0.209 HD
ENDBRANCH  86  87
ENDBRANCH  26  86
TORSDOF 27
BEGIN_RES ARG D 557
REMARK  4 active torsions:
REMARK  status: ('A' for Active; 'I' for Inactive)
REMARK    1  A    between atoms: CA   and  CB  
REMARK    2  A    between atoms: CB   and  CG  
REMARK    3  A    between atoms: CG   and  CD  
REMARK    4  A    between atoms: CD   and  NE  
REMARK       I    between atoms: NE   and  CZ  
REMARK       I    between atoms: CZ   and  NH1 
REMARK       I    between atoms: CZ   and  NH2 
ROOT
ATOM      1  CA  ARG D 557     -26.217   2.705 -17.014  1.00 35.49     0.159 C 
ENDROOT
BRANCH   1   2
ATOM      2  CB  ARG D 557     -26.789   1.319 -17.183  1.00 35.49     0.034 C 
BRANCH   2   3
ATOM      3  CG  ARG D 557     -25.926   0.196 -16.797  1.00 35.49     0.027 C 
BRANCH   3   4
ATOM      4  CD  ARG D 557     -26.656  -0.840 -16.032  1.00 35.49     0.116 C 
BRANCH   4   5
ATOM      5  NE  ARG D 557     -25.789  -1.577 -15.151  1.00 35.49    -0.212 N 
ATOM      6  CZ  ARG D 557     -24.584  -1.210 -14.776  1.00 35.49     0.666 C 
ATOM      7  NH1 ARG D 557     -24.020  -0.092 -15.196  1.00 35.49    -0.235 N 
ATOM      8  NH2 ARG D 557     -23.947  -1.992 -13.954  1.00 35.49    -0.235 N 
ATOM      9  HH  ARG D 557     -24.422   0.438 -15.735  1.00 35.49     0.174 HD
ATOM     10  HH  ARG D 557     -23.233   0.097 -14.915  1.00 35.49     0.174 HD
ATOM     11  HH  ARG D 557     -24.339  -2.703 -13.693  1.00 35.49     0.174 HD
ATOM     12  HH  ARG D 557     -23.169  -1.787 -13.686  1.00 35.49     0.174 HD
ATOM     13  HE  ARG D 557     -26.044  -2.345 -14.890  1.00 35.49     0.178 HD
ENDBRANCH   4   5
ENDBRANCH   3   4
ENDBRANCH   2   3
ENDBRANCH   1   2
END_RES ARG D 557
BEGIN_RES GLU D 570
REMARK  3 active torsions:
REMARK  status: ('A' for Active; 'I' for Inactive)
REMARK    5  A    between atoms: CA   and  CB  
REMARK    6  A    between atoms: CB   and  CG  
REMARK    7  A    between atoms: CG   and  CD  
ROOT
ATOM     14  CA  GLU D 570     -18.033  -6.348 -13.375  1.00 32.92     0.160 C 
ENDROOT
BRANCH  14  15
ATOM     15  CB  GLU D 570     -19.500  -6.345 -13.794  1.00 32.92     0.043 C 
BRANCH  15  16
ATOM     16  CG  GLU D 570     -19.797  -6.400 -15.249  1.00 32.92     0.100 C 
BRANCH  16  17
ATOM     17  CD  GLU D 570     -21.139  -7.024 -15.554  1.00 32.92     0.185 C 
ATOM     18  OE1 GLU D 570     -22.176  -6.391 -15.281  1.00 32.92    -0.647 OA
ATOM     19  OE2 GLU D 570     -21.152  -8.165 -16.055  1.00 32.92    -0.647 OA
ENDBRANCH  16  17
ENDBRANCH  15  16
ENDBRANCH  14  15
END_RES GLU D 570
ENDMDL
