MODEL 1
REMARK VINA RESULT:      -1.2      0.000      0.000
REMARK  3 active torsions:
REMARK  status: ('A' for Active; 'I' for Inactive)
REMARK    1  A    between atoms: C_4  and  C_27 
REMARK    2  A    between atoms: C_5  and  C_7 
REMARK    3  A    between atoms: C_27  and  O_29 
ROOT
HETATM    1 NA   UNL     3      -9.128   5.873 -17.188  1.00  0.00     0.000 Na
ENDROOT
TORSDOF 3
BEGIN_RES ARG D 557
REMARK  4 active torsions:
REMARK  status: ('A' for Active; 'I' for Inactive)
REMARK    1  A    between atoms: CA   and  CB  
REMARK    2  A    between atoms: CB   and  CG  
REMARK    3  A    between atoms: CG   and  CD  
REMARK    4  A    between atoms: CD   and  NE  
REMARK       I    between atoms: NE   and  CZ  
REMARK       I    between atoms: CZ   and  NH1 
REMARK       I    between atoms: CZ   and  NH2 
ROOT
ATOM      1  CA  ARG D 557     -26.217   2.705 -17.014  1.00 35.49     0.159 C 
ENDROOT
BRANCH   1   2
ATOM      2  CB  ARG D 557     -26.789   1.319 -17.183  1.00 35.49     0.034 C 
BRANCH   2   3
ATOM      3  CG  ARG D 557     -25.835   0.204 -17.163  1.00 35.49     0.027 C 
BRANCH   3   4
ATOM      4  CD  ARG D 557     -24.750   0.407 -16.176  1.00 35.49     0.116 C 
BRANCH   4   5
ATOM      5  NE  ARG D 557     -24.900  -0.442 -15.023  1.00 35.49    -0.212 N 
ATOM      6  CZ  ARG D 557     -24.082  -1.408 -14.669  1.00 35.49     0.666 C 
ATOM      7  NH1 ARG D 557     -23.007  -1.719 -15.370  1.00 35.49    -0.235 N 
ATOM      8  NH2 ARG D 557     -24.362  -2.063 -13.580  1.00 35.49    -0.235 N 
ATOM      9  HH  ARG D 557     -22.802  -1.300 -16.089  1.00 35.49     0.174 HD
ATOM     10  HH  ARG D 557     -22.509  -2.358 -15.089  1.00 35.49     0.174 HD
ATOM     11  HH  ARG D 557     -25.059  -1.835 -13.144  1.00 35.49     0.174 HD
ATOM     12  HH  ARG D 557     -23.856  -2.691 -13.318  1.00 35.49     0.174 HD
ATOM     13  HE  ARG D 557     -25.605  -0.359 -14.555  1.00 35.49     0.178 HD
ENDBRANCH   4   5
ENDBRANCH   3   4
ENDBRANCH   2   3
ENDBRANCH   1   2
END_RES ARG D 557
BEGIN_RES GLU D 570
REMARK  3 active torsions:
REMARK  status: ('A' for Active; 'I' for Inactive)
REMARK    5  A    between atoms: CA   and  CB  
REMARK    6  A    between atoms: CB   and  CG  
REMARK    7  A    between atoms: CG   and  CD  
ROOT
ATOM     14  CA  GLU D 570     -18.033  -6.348 -13.375  1.00 32.92     0.160 C 
ENDROOT
BRANCH  14  15
ATOM     15  CB  GLU D 570     -19.500  -6.345 -13.794  1.00 32.92     0.043 C 
BRANCH  15  16
ATOM     16  CG  GLU D 570     -20.446  -5.551 -12.969  1.00 32.92     0.100 C 
BRANCH  16  17
ATOM     17  CD  GLU D 570     -21.741  -5.246 -13.685  1.00 32.92     0.185 C 
ATOM     18  OE1 GLU D 570     -22.268  -4.127 -13.533  1.00 32.92    -0.647 OA
ATOM     19  OE2 GLU D 570     -22.242  -6.141 -14.393  1.00 32.92    -0.647 OA
ENDBRANCH  16  17
ENDBRANCH  15  16
ENDBRANCH  14  15
END_RES GLU D 570
ENDMDL
MODEL 2
REMARK VINA RESULT:      -1.1      8.744      8.744
REMARK  3 active torsions:
REMARK  status: ('A' for Active; 'I' for Inactive)
REMARK    1  A    between atoms: C_4  and  C_27 
REMARK    2  A    between atoms: C_5  and  C_7 
REMARK    3  A    between atoms: C_27  and  O_29 
ROOT
HETATM    1 NA   UNL     3     -35.578  -5.033 -21.928  1.00  0.00     0.000 Na
ENDROOT
TORSDOF 3
BEGIN_RES ARG D 557
REMARK  4 active torsions:
REMARK  status: ('A' for Active; 'I' for Inactive)
REMARK    1  A    between atoms: CA   and  CB  
REMARK    2  A    between atoms: CB   and  CG  
REMARK    3  A    between atoms: CG   and  CD  
REMARK    4  A    between atoms: CD   and  NE  
REMARK       I    between atoms: NE   and  CZ  
REMARK       I    between atoms: CZ   and  NH1 
REMARK       I    between atoms: CZ   and  NH2 
ROOT
ATOM      1  CA  ARG D 557     -26.217   2.705 -17.014  1.00 35.49     0.159 C 
ENDROOT
BRANCH   1   2
ATOM      2  CB  ARG D 557     -26.789   1.319 -17.183  1.00 35.49     0.034 C 
BRANCH   2   3
ATOM      3  CG  ARG D 557     -25.834   0.204 -17.171  1.00 35.49     0.027 C 
BRANCH   3   4
ATOM      4  CD  ARG D 557     -24.747   0.403 -16.185  1.00 35.49     0.116 C 
BRANCH   4   5
ATOM      5  NE  ARG D 557     -24.901  -0.441 -15.030  1.00 35.49    -0.212 N 
ATOM      6  CZ  ARG D 557     -24.086  -1.408 -14.671  1.00 35.49     0.666 C 
ATOM      7  NH1 ARG D 557     -23.012  -1.725 -15.369  1.00 35.49    -0.235 N 
ATOM      8  NH2 ARG D 557     -24.370  -2.058 -13.580  1.00 35.49    -0.235 N 
ATOM      9  HH  ARG D 557     -22.805  -1.310 -16.089  1.00 35.49     0.174 HD
ATOM     10  HH  ARG D 557     -22.516  -2.364 -15.086  1.00 35.49     0.174 HD
ATOM     11  HH  ARG D 557     -25.067  -1.826 -13.146  1.00 35.49     0.174 HD
ATOM     12  HH  ARG D 557     -23.866  -2.686 -13.315  1.00 35.49     0.174 HD
ATOM     13  HE  ARG D 557     -25.606  -0.353 -14.563  1.00 35.49     0.178 HD
ENDBRANCH   4   5
ENDBRANCH   3   4
ENDBRANCH   2   3
ENDBRANCH   1   2
END_RES ARG D 557
BEGIN_RES GLU D 570
REMARK  3 active torsions:
REMARK  status: ('A' for Active; 'I' for Inactive)
REMARK    5  A    between atoms: CA   and  CB  
REMARK    6  A    between atoms: CB   and  CG  
REMARK    7  A    between atoms: CG   and  CD  
ROOT
ATOM     14  CA  GLU D 570     -18.033  -6.348 -13.375  1.00 32.92     0.160 C 
ENDROOT
BRANCH  14  15
ATOM     15  CB  GLU D 570     -19.500  -6.345 -13.794  1.00 32.92     0.043 C 
BRANCH  15  16
ATOM     16  CG  GLU D 570     -20.442  -5.531 -12.983  1.00 32.92     0.100 C 
BRANCH  16  17
ATOM     17  CD  GLU D 570     -21.742  -5.247 -13.698  1.00 32.92     0.185 C 
ATOM     18  OE1 GLU D 570     -22.320  -4.162 -13.496  1.00 32.92    -0.647 OA
ATOM     19  OE2 GLU D 570     -22.197  -6.127 -14.456  1.00 32.92    -0.647 OA
ENDBRANCH  16  17
ENDBRANCH  15  16
ENDBRANCH  14  15
END_RES GLU D 570
ENDMDL
MODEL 3
REMARK VINA RESULT:      -1.1      6.177      6.255
REMARK  3 active torsions:
REMARK  status: ('A' for Active; 'I' for Inactive)
REMARK    1  A    between atoms: C_4  and  C_27 
REMARK    2  A    between atoms: C_5  and  C_7 
REMARK    3  A    between atoms: C_27  and  O_29 
ROOT
HETATM    1 NA   UNL     3     -11.262   1.513   2.422  1.00  0.00     0.000 Na
ENDROOT
TORSDOF 3
BEGIN_RES ARG D 557
REMARK  4 active torsions:
REMARK  status: ('A' for Active; 'I' for Inactive)
REMARK    1  A    between atoms: CA   and  CB  
REMARK    2  A    between atoms: CB   and  CG  
REMARK    3  A    between atoms: CG   and  CD  
REMARK    4  A    between atoms: CD   and  NE  
REMARK       I    between atoms: NE   and  CZ  
REMARK       I    between atoms: CZ   and  NH1 
REMARK       I    between atoms: CZ   and  NH2 
ROOT
ATOM      1  CA  ARG D 557     -26.217   2.705 -17.014  1.00 35.49     0.159 C 
ENDROOT
BRANCH   1   2
ATOM      2  CB  ARG D 557     -26.789   1.319 -17.183  1.00 35.49     0.034 C 
BRANCH   2   3
ATOM      3  CG  ARG D 557     -25.865   0.195 -16.990  1.00 35.49     0.027 C 
BRANCH   3   4
ATOM      4  CD  ARG D 557     -26.299  -0.712 -15.903  1.00 35.49     0.116 C 
BRANCH   4   5
ATOM      5  NE  ARG D 557     -25.257  -0.936 -14.936  1.00 35.49    -0.212 N 
ATOM      6  CZ  ARG D 557     -24.987  -2.081 -14.350  1.00 35.49     0.666 C 
ATOM      7  NH1 ARG D 557     -25.678  -3.181 -14.588  1.00 35.49    -0.235 N 
ATOM      8  NH2 ARG D 557     -23.990  -2.107 -13.513  1.00 35.49    -0.235 N 
ATOM      9  HH  ARG D 557     -26.336  -3.187 -15.136  1.00 35.49     0.174 HD
ATOM     10  HH  ARG D 557     -25.454  -3.899 -14.178  1.00 35.49     0.174 HD
ATOM     11  HH  ARG D 557     -23.557  -1.383 -13.384  1.00 35.49     0.174 HD
ATOM     12  HH  ARG D 557     -23.783  -2.828 -13.118  1.00 35.49     0.174 HD
ATOM     13  HE  ARG D 557     -24.808  -0.265 -14.669  1.00 35.49     0.178 HD
ENDBRANCH   4   5
ENDBRANCH   3   4
ENDBRANCH   2   3
ENDBRANCH   1   2
END_RES ARG D 557
BEGIN_RES GLU D 570
REMARK  3 active torsions:
REMARK  status: ('A' for Active; 'I' for Inactive)
REMARK    5  A    between atoms: CA   and  CB  
REMARK    6  A    between atoms: CB   and  CG  
REMARK    7  A    between atoms: CG   and  CD  
ROOT
ATOM     14  CA  GLU D 570     -18.033  -6.348 -13.375  1.00 32.92     0.160 C 
ENDROOT
BRANCH  14  15
ATOM     15  CB  GLU D 570     -19.500  -6.345 -13.794  1.00 32.92     0.043 C 
BRANCH  15  16
ATOM     16  CG  GLU D 570     -20.444  -5.539 -12.977  1.00 32.92     0.100 C 
BRANCH  16  17
ATOM     17  CD  GLU D 570     -21.678  -5.122 -13.742  1.00 32.92     0.185 C 
ATOM     18  OE1 GLU D 570     -21.610  -5.000 -14.980  1.00 32.92    -0.647 OA
ATOM     19  OE2 GLU D 570     -22.720  -4.900 -13.095  1.00 32.92    -0.647 OA
ENDBRANCH  16  17
ENDBRANCH  15  16
ENDBRANCH  14  15
END_RES GLU D 570
ENDMDL
MODEL 4
REMARK VINA RESULT:      -1.0      8.149      8.187
REMARK  3 active torsions:
REMARK  status: ('A' for Active; 'I' for Inactive)
REMARK    1  A    between atoms: C_4  and  C_27 
REMARK    2  A    between atoms: C_5  and  C_7 
REMARK    3  A    between atoms: C_27  and  O_29 
ROOT
HETATM    1 NA   UNL     3     -27.042 -13.646 -13.042  1.00  0.00     0.000 Na
ENDROOT
TORSDOF 3
BEGIN_RES ARG D 557
REMARK  4 active torsions:
REMARK  status: ('A' for Active; 'I' for Inactive)
REMARK    1  A    between atoms: CA   and  CB  
REMARK    2  A    between atoms: CB   and  CG  
REMARK    3  A    between atoms: CG   and  CD  
REMARK    4  A    between atoms: CD   and  NE  
REMARK       I    between atoms: NE   and  CZ  
REMARK       I    between atoms: CZ   and  NH1 
REMARK       I    between atoms: CZ   and  NH2 
ROOT
ATOM      1  CA  ARG D 557     -26.217   2.705 -17.014  1.00 35.49     0.159 C 
ENDROOT
BRANCH   1   2
ATOM      2  CB  ARG D 557     -26.789   1.319 -17.183  1.00 35.49     0.034 C 
BRANCH   2   3
ATOM      3  CG  ARG D 557     -25.864   0.195 -16.993  1.00 35.49     0.027 C 
BRANCH   3   4
ATOM      4  CD  ARG D 557     -26.286  -0.703 -15.893  1.00 35.49     0.116 C 
BRANCH   4   5
ATOM      5  NE  ARG D 557     -25.230  -0.925 -14.940  1.00 35.49    -0.212 N 
ATOM      6  CZ  ARG D 557     -24.956  -2.066 -14.350  1.00 35.49     0.666 C 
ATOM      7  NH1 ARG D 557     -25.655  -3.164 -14.570  1.00 35.49    -0.235 N 
ATOM      8  NH2 ARG D 557     -23.947  -2.090 -13.528  1.00 35.49    -0.235 N 
ATOM      9  HH  ARG D 557     -26.322  -3.172 -15.108  1.00 35.49     0.174 HD
ATOM     10  HH  ARG D 557     -25.428  -3.881 -14.159  1.00 35.49     0.174 HD
ATOM     11  HH  ARG D 557     -23.509  -1.368 -13.411  1.00 35.49     0.174 HD
ATOM     12  HH  ARG D 557     -23.737  -2.810 -13.132  1.00 35.49     0.174 HD
ATOM     13  HE  ARG D 557     -24.775  -0.253 -14.685  1.00 35.49     0.178 HD
ENDBRANCH   4   5
ENDBRANCH   3   4
ENDBRANCH   2   3
ENDBRANCH   1   2
END_RES ARG D 557
BEGIN_RES GLU D 570
REMARK  3 active torsions:
REMARK  status: ('A' for Active; 'I' for Inactive)
REMARK    5  A    between atoms: CA   and  CB  
REMARK    6  A    between atoms: CB   and  CG  
REMARK    7  A    between atoms: CG   and  CD  
ROOT
ATOM     14  CA  GLU D 570     -18.033  -6.348 -13.375  1.00 32.92     0.160 C 
ENDROOT
BRANCH  14  15
ATOM     15  CB  GLU D 570     -19.500  -6.345 -13.794  1.00 32.92     0.043 C 
BRANCH  15  16
ATOM     16  CG  GLU D 570     -20.446  -5.553 -12.967  1.00 32.92     0.100 C 
BRANCH  16  17
ATOM     17  CD  GLU D 570     -21.681  -5.128 -13.728  1.00 32.92     0.185 C 
ATOM     18  OE1 GLU D 570     -22.731  -4.899 -13.098  1.00 32.92    -0.647 OA
ATOM     19  OE2 GLU D 570     -21.601  -5.040 -14.969  1.00 32.92    -0.647 OA
ENDBRANCH  16  17
ENDBRANCH  15  16
ENDBRANCH  14  15
END_RES GLU D 570
ENDMDL
MODEL 5
REMARK VINA RESULT:      -1.0      2.547      2.713
REMARK  3 active torsions:
REMARK  status: ('A' for Active; 'I' for Inactive)
REMARK    1  A    between atoms: C_4  and  C_27 
REMARK    2  A    between atoms: C_5  and  C_7 
REMARK    3  A    between atoms: C_27  and  O_29 
ROOT
HETATM    1 NA   UNL     3     -11.062   2.308  -9.780  1.00  0.00     0.000 Na
ENDROOT
TORSDOF 3
BEGIN_RES ARG D 557
REMARK  4 active torsions:
REMARK  status: ('A' for Active; 'I' for Inactive)
REMARK    1  A    between atoms: CA   and  CB  
REMARK    2  A    between atoms: CB   and  CG  
REMARK    3  A    between atoms: CG   and  CD  
REMARK    4  A    between atoms: CD   and  NE  
REMARK       I    between atoms: NE   and  CZ  
REMARK       I    between atoms: CZ   and  NH1 
REMARK       I    between atoms: CZ   and  NH2 
ROOT
ATOM      1  CA  ARG D 557     -26.217   2.705 -17.014  1.00 35.49     0.159 C 
ENDROOT
BRANCH   1   2
ATOM      2  CB  ARG D 557     -26.789   1.319 -17.183  1.00 35.49     0.034 C 
BRANCH   2   3
ATOM      3  CG  ARG D 557     -25.837   0.202 -17.148  1.00 35.49     0.027 C 
BRANCH   3   4
ATOM      4  CD  ARG D 557     -24.760   0.410 -16.153  1.00 35.49     0.116 C 
BRANCH   4   5
ATOM      5  NE  ARG D 557     -24.908  -0.447 -15.006  1.00 35.49    -0.212 N 
ATOM      6  CZ  ARG D 557     -24.092  -1.418 -14.663  1.00 35.49     0.666 C 
ATOM      7  NH1 ARG D 557     -23.020  -1.727 -15.369  1.00 35.49    -0.235 N 
ATOM      8  NH2 ARG D 557     -24.370  -2.081 -13.578  1.00 35.49    -0.235 N 
ATOM      9  HH  ARG D 557     -22.816  -1.303 -16.085  1.00 35.49     0.174 HD
ATOM     10  HH  ARG D 557     -22.523  -2.368 -15.094  1.00 35.49     0.174 HD
ATOM     11  HH  ARG D 557     -25.065  -1.854 -13.138  1.00 35.49     0.174 HD
ATOM     12  HH  ARG D 557     -23.865  -2.711 -13.322  1.00 35.49     0.174 HD
ATOM     13  HE  ARG D 557     -25.611  -0.366 -14.535  1.00 35.49     0.178 HD
ENDBRANCH   4   5
ENDBRANCH   3   4
ENDBRANCH   2   3
ENDBRANCH   1   2
END_RES ARG D 557
BEGIN_RES GLU D 570
REMARK  3 active torsions:
REMARK  status: ('A' for Active; 'I' for Inactive)
REMARK    5  A    between atoms: CA   and  CB  
REMARK    6  A    between atoms: CB   and  CG  
REMARK    7  A    between atoms: CG   and  CD  
ROOT
ATOM     14  CA  GLU D 570     -18.033  -6.348 -13.375  1.00 32.92     0.160 C 
ENDROOT
BRANCH  14  15
ATOM     15  CB  GLU D 570     -19.500  -6.345 -13.794  1.00 32.92     0.043 C 
BRANCH  15  16
ATOM     16  CG  GLU D 570     -20.447  -5.556 -12.965  1.00 32.92     0.100 C 
BRANCH  16  17
ATOM     17  CD  GLU D 570     -21.741  -5.246 -13.681  1.00 32.92     0.185 C 
ATOM     18  OE1 GLU D 570     -22.259  -6.121 -14.401  1.00 32.92    -0.647 OA
ATOM     19  OE2 GLU D 570     -22.232  -4.109 -13.535  1.00 32.92    -0.647 OA
ENDBRANCH  16  17
ENDBRANCH  15  16
ENDBRANCH  14  15
END_RES GLU D 570
ENDMDL
MODEL 6
REMARK VINA RESULT:      -1.0      8.745      8.745
REMARK  3 active torsions:
REMARK  status: ('A' for Active; 'I' for Inactive)
REMARK    1  A    between atoms: C_4  and  C_27 
REMARK    2  A    between atoms: C_5  and  C_7 
REMARK    3  A    between atoms: C_27  and  O_29 
ROOT
HETATM    1 NA   UNL     3     -32.957  -9.422 -10.901  1.00  0.00     0.000 Na
ENDROOT
TORSDOF 3
BEGIN_RES ARG D 557
REMARK  4 active torsions:
REMARK  status: ('A' for Active; 'I' for Inactive)
REMARK    1  A    between atoms: CA   and  CB  
REMARK    2  A    between atoms: CB   and  CG  
REMARK    3  A    between atoms: CG   and  CD  
REMARK    4  A    between atoms: CD   and  NE  
REMARK       I    between atoms: NE   and  CZ  
REMARK       I    between atoms: CZ   and  NH1 
REMARK       I    between atoms: CZ   and  NH2 
ROOT
ATOM      1  CA  ARG D 557     -26.217   2.705 -17.014  1.00 35.49     0.159 C 
ENDROOT
BRANCH   1   2
ATOM      2  CB  ARG D 557     -26.789   1.319 -17.183  1.00 35.49     0.034 C 
BRANCH   2   3
ATOM      3  CG  ARG D 557     -25.835   0.203 -17.158  1.00 35.49     0.027 C 
BRANCH   3   4
ATOM      4  CD  ARG D 557     -24.750   0.410 -16.172  1.00 35.49     0.116 C 
BRANCH   4   5
ATOM      5  NE  ARG D 557     -24.898  -0.436 -15.017  1.00 35.49    -0.212 N 
ATOM      6  CZ  ARG D 557     -24.084  -1.407 -14.668  1.00 35.49     0.666 C 
ATOM      7  NH1 ARG D 557     -23.016  -1.727 -15.375  1.00 35.49    -0.235 N 
ATOM      8  NH2 ARG D 557     -24.362  -2.059 -13.576  1.00 35.49    -0.235 N 
ATOM      9  HH  ARG D 557     -22.813  -1.310 -16.096  1.00 35.49     0.174 HD
ATOM     10  HH  ARG D 557     -22.521  -2.368 -15.096  1.00 35.49     0.174 HD
ATOM     11  HH  ARG D 557     -25.054  -1.826 -13.136  1.00 35.49     0.174 HD
ATOM     12  HH  ARG D 557     -23.858  -2.690 -13.316  1.00 35.49     0.174 HD
ATOM     13  HE  ARG D 557     -25.599  -0.348 -14.545  1.00 35.49     0.178 HD
ENDBRANCH   4   5
ENDBRANCH   3   4
ENDBRANCH   2   3
ENDBRANCH   1   2
END_RES ARG D 557
BEGIN_RES GLU D 570
REMARK  3 active torsions:
REMARK  status: ('A' for Active; 'I' for Inactive)
REMARK    5  A    between atoms: CA   and  CB  
REMARK    6  A    between atoms: CB   and  CG  
REMARK    7  A    between atoms: CG   and  CD  
ROOT
ATOM     14  CA  GLU D 570     -18.033  -6.348 -13.375  1.00 32.92     0.160 C 
ENDROOT
BRANCH  14  15
ATOM     15  CB  GLU D 570     -19.500  -6.345 -13.794  1.00 32.92     0.043 C 
BRANCH  15  16
ATOM     16  CG  GLU D 570     -20.442  -5.532 -12.982  1.00 32.92     0.100 C 
BRANCH  16  17
ATOM     17  CD  GLU D 570     -21.736  -5.234 -13.704  1.00 32.92     0.185 C 
ATOM     18  OE1 GLU D 570     -22.315  -4.152 -13.487  1.00 32.92    -0.647 OA
ATOM     19  OE2 GLU D 570     -22.184  -6.099 -14.482  1.00 32.92    -0.647 OA
ENDBRANCH  16  17
ENDBRANCH  15  16
ENDBRANCH  14  15
END_RES GLU D 570
ENDMDL
MODEL 7
REMARK VINA RESULT:      -1.0     10.632     10.710
REMARK  3 active torsions:
REMARK  status: ('A' for Active; 'I' for Inactive)
REMARK    1  A    between atoms: C_4  and  C_27 
REMARK    2  A    between atoms: C_5  and  C_7 
REMARK    3  A    between atoms: C_27  and  O_29 
ROOT
HETATM    1 NA   UNL     3     -32.355  -8.543   4.535  1.00  0.00     0.000 Na
ENDROOT
TORSDOF 3
BEGIN_RES ARG D 557
REMARK  4 active torsions:
REMARK  status: ('A' for Active; 'I' for Inactive)
REMARK    1  A    between atoms: CA   and  CB  
REMARK    2  A    between atoms: CB   and  CG  
REMARK    3  A    between atoms: CG   and  CD  
REMARK    4  A    between atoms: CD   and  NE  
REMARK       I    between atoms: NE   and  CZ  
REMARK       I    between atoms: CZ   and  NH1 
REMARK       I    between atoms: CZ   and  NH2 
ROOT
ATOM      1  CA  ARG D 557     -26.217   2.705 -17.014  1.00 35.49     0.159 C 
ENDROOT
BRANCH   1   2
ATOM      2  CB  ARG D 557     -26.789   1.319 -17.183  1.00 35.49     0.034 C 
BRANCH   2   3
ATOM      3  CG  ARG D 557     -25.927   0.197 -16.792  1.00 35.49     0.027 C 
BRANCH   3   4
ATOM      4  CD  ARG D 557     -26.677  -0.877 -16.101  1.00 35.49     0.116 C 
BRANCH   4   5
ATOM      5  NE  ARG D 557     -25.883  -1.532 -15.096  1.00 35.49    -0.212 N 
ATOM      6  CZ  ARG D 557     -25.933  -2.809 -14.789  1.00 35.49     0.666 C 
ATOM      7  NH1 ARG D 557     -26.759  -3.650 -15.386  1.00 35.49    -0.235 N 
ATOM      8  NH2 ARG D 557     -25.123  -3.237 -13.865  1.00 35.49    -0.235 N 
ATOM      9  HH  ARG D 557     -27.299  -3.390 -15.998  1.00 35.49     0.174 HD
ATOM     10  HH  ARG D 557     -26.745  -4.472 -15.146  1.00 35.49     0.174 HD
ATOM     11  HH  ARG D 557     -24.596  -2.673 -13.502  1.00 35.49     0.174 HD
ATOM     12  HH  ARG D 557     -25.124  -4.056 -13.643  1.00 35.49     0.174 HD
ATOM     13  HE  ARG D 557     -25.375  -1.052 -14.612  1.00 35.49     0.178 HD
ENDBRANCH   4   5
ENDBRANCH   3   4
ENDBRANCH   2   3
ENDBRANCH   1   2
END_RES ARG D 557
BEGIN_RES GLU D 570
REMARK  3 active torsions:
REMARK  status: ('A' for Active; 'I' for Inactive)
REMARK    5  A    between atoms: CA   and  CB  
REMARK    6  A    between atoms: CB   and  CG  
REMARK    7  A    between atoms: CG   and  CD  
ROOT
ATOM     14  CA  GLU D 570     -18.033  -6.348 -13.375  1.00 32.92     0.160 C 
ENDROOT
BRANCH  14  15
ATOM     15  CB  GLU D 570     -19.500  -6.345 -13.794  1.00 32.92     0.043 C 
BRANCH  15  16
ATOM     16  CG  GLU D 570     -20.442  -5.531 -12.983  1.00 32.92     0.100 C 
BRANCH  16  17
ATOM     17  CD  GLU D 570     -21.744  -5.251 -13.697  1.00 32.92     0.185 C 
ATOM     18  OE1 GLU D 570     -22.219  -6.121 -14.452  1.00 32.92    -0.647 OA
ATOM     19  OE2 GLU D 570     -22.286  -4.144 -13.511  1.00 32.92    -0.647 OA
ENDBRANCH  16  17
ENDBRANCH  15  16
ENDBRANCH  14  15
END_RES GLU D 570
ENDMDL
MODEL 8
REMARK VINA RESULT:      -1.0      4.633      4.633
REMARK  3 active torsions:
REMARK  status: ('A' for Active; 'I' for Inactive)
REMARK    1  A    between atoms: C_4  and  C_27 
REMARK    2  A    between atoms: C_5  and  C_7 
REMARK    3  A    between atoms: C_27  and  O_29 
ROOT
HETATM    1 NA   UNL     3      -8.821  -9.486 -17.548  1.00  0.00     0.000 Na
ENDROOT
TORSDOF 3
BEGIN_RES ARG D 557
REMARK  4 active torsions:
REMARK  status: ('A' for Active; 'I' for Inactive)
REMARK    1  A    between atoms: CA   and  CB  
REMARK    2  A    between atoms: CB   and  CG  
REMARK    3  A    between atoms: CG   and  CD  
REMARK    4  A    between atoms: CD   and  NE  
REMARK       I    between atoms: NE   and  CZ  
REMARK       I    between atoms: CZ   and  NH1 
REMARK       I    between atoms: CZ   and  NH2 
ROOT
ATOM      1  CA  ARG D 557     -26.217   2.705 -17.014  1.00 35.49     0.159 C 
ENDROOT
BRANCH   1   2
ATOM      2  CB  ARG D 557     -26.789   1.319 -17.183  1.00 35.49     0.034 C 
BRANCH   2   3
ATOM      3  CG  ARG D 557     -25.835   0.203 -17.162  1.00 35.49     0.027 C 
BRANCH   3   4
ATOM      4  CD  ARG D 557     -24.745   0.412 -16.182  1.00 35.49     0.116 C 
BRANCH   4   5
ATOM      5  NE  ARG D 557     -24.887  -0.433 -15.025  1.00 35.49    -0.212 N 
ATOM      6  CZ  ARG D 557     -24.072  -1.404 -14.679  1.00 35.49     0.666 C 
ATOM      7  NH1 ARG D 557     -23.008  -1.725 -15.391  1.00 35.49    -0.235 N 
ATOM      8  NH2 ARG D 557     -24.343  -2.054 -13.584  1.00 35.49    -0.235 N 
ATOM      9  HH  ARG D 557     -22.809  -1.309 -16.114  1.00 35.49     0.174 HD
ATOM     10  HH  ARG D 557     -22.511  -2.366 -15.115  1.00 35.49     0.174 HD
ATOM     11  HH  ARG D 557     -25.033  -1.820 -13.140  1.00 35.49     0.174 HD
ATOM     12  HH  ARG D 557     -23.839  -2.684 -13.326  1.00 35.49     0.174 HD
ATOM     13  HE  ARG D 557     -25.585  -0.343 -14.548  1.00 35.49     0.178 HD
ENDBRANCH   4   5
ENDBRANCH   3   4
ENDBRANCH   2   3
ENDBRANCH   1   2
END_RES ARG D 557
BEGIN_RES GLU D 570
REMARK  3 active torsions:
REMARK  status: ('A' for Active; 'I' for Inactive)
REMARK    5  A    between atoms: CA   and  CB  
REMARK    6  A    between atoms: CB   and  CG  
REMARK    7  A    between atoms: CG   and  CD  
ROOT
ATOM     14  CA  GLU D 570     -18.033  -6.348 -13.375  1.00 32.92     0.160 C 
ENDROOT
BRANCH  14  15
ATOM     15  CB  GLU D 570     -19.500  -6.345 -13.794  1.00 32.92     0.043 C 
BRANCH  15  16
ATOM     16  CG  GLU D 570     -20.442  -5.532 -12.982  1.00 32.92     0.100 C 
BRANCH  16  17
ATOM     17  CD  GLU D 570     -21.738  -5.239 -13.701  1.00 32.92     0.185 C 
ATOM     18  OE1 GLU D 570     -22.300  -4.142 -13.515  1.00 32.92    -0.647 OA
ATOM     19  OE2 GLU D 570     -22.206  -6.122 -14.447  1.00 32.92    -0.647 OA
ENDBRANCH  16  17
ENDBRANCH  15  16
ENDBRANCH  14  15
END_RES GLU D 570
ENDMDL
MODEL 9
REMARK VINA RESULT:      -1.0      8.445      8.496
REMARK  3 active torsions:
REMARK  status: ('A' for Active; 'I' for Inactive)
REMARK    1  A    between atoms: C_4  and  C_27 
REMARK    2  A    between atoms: C_5  and  C_7 
REMARK    3  A    between atoms: C_27  and  O_29 
ROOT
HETATM    1 NA   UNL     3     -36.355  -0.649 -17.935  1.00  0.00     0.000 Na
ENDROOT
TORSDOF 3
BEGIN_RES ARG D 557
REMARK  4 active torsions:
REMARK  status: ('A' for Active; 'I' for Inactive)
REMARK    1  A    between atoms: CA   and  CB  
REMARK    2  A    between atoms: CB   and  CG  
REMARK    3  A    between atoms: CG   and  CD  
REMARK    4  A    between atoms: CD   and  NE  
REMARK       I    between atoms: NE   and  CZ  
REMARK       I    between atoms: CZ   and  NH1 
REMARK       I    between atoms: CZ   and  NH2 
ROOT
ATOM      1  CA  ARG D 557     -26.217   2.705 -17.014  1.00 35.49     0.159 C 
ENDROOT
BRANCH   1   2
ATOM      2  CB  ARG D 557     -26.789   1.319 -17.183  1.00 35.49     0.034 C 
BRANCH   2   3
ATOM      3  CG  ARG D 557     -25.835   0.203 -17.159  1.00 35.49     0.027 C 
BRANCH   3   4
ATOM      4  CD  ARG D 557     -24.749   0.410 -16.174  1.00 35.49     0.116 C 
BRANCH   4   5
ATOM      5  NE  ARG D 557     -24.892  -0.442 -15.023  1.00 35.49    -0.212 N 
ATOM      6  CZ  ARG D 557     -24.072  -1.409 -14.677  1.00 35.49     0.666 C 
ATOM      7  NH1 ARG D 557     -23.001  -1.718 -15.385  1.00 35.49    -0.235 N 
ATOM      8  NH2 ARG D 557     -24.345  -2.066 -13.587  1.00 35.49    -0.235 N 
ATOM      9  HH  ARG D 557     -22.801  -1.297 -16.104  1.00 35.49     0.174 HD
ATOM     10  HH  ARG D 557     -22.502  -2.357 -15.109  1.00 35.49     0.174 HD
ATOM     11  HH  ARG D 557     -25.039  -1.840 -13.147  1.00 35.49     0.174 HD
ATOM     12  HH  ARG D 557     -23.838  -2.695 -13.330  1.00 35.49     0.174 HD
ATOM     13  HE  ARG D 557     -25.594  -0.360 -14.550  1.00 35.49     0.178 HD
ENDBRANCH   4   5
ENDBRANCH   3   4
ENDBRANCH   2   3
ENDBRANCH   1   2
END_RES ARG D 557
BEGIN_RES GLU D 570
REMARK  3 active torsions:
REMARK  status: ('A' for Active; 'I' for Inactive)
REMARK    5  A    between atoms: CA   and  CB  
REMARK    6  A    between atoms: CB   and  CG  
REMARK    7  A    between atoms: CG   and  CD  
ROOT
ATOM     14  CA  GLU D 570     -18.033  -6.348 -13.375  1.00 32.92     0.160 C 
ENDROOT
BRANCH  14  15
ATOM     15  CB  GLU D 570     -19.500  -6.345 -13.794  1.00 32.92     0.043 C 
BRANCH  15  16
ATOM     16  CG  GLU D 570     -20.444  -5.543 -12.974  1.00 32.92     0.100 C 
BRANCH  16  17
ATOM     17  CD  GLU D 570     -21.748  -5.260 -13.684  1.00 32.92     0.185 C 
ATOM     18  OE1 GLU D 570     -22.232  -6.132 -14.431  1.00 32.92    -0.647 OA
ATOM     19  OE2 GLU D 570     -22.282  -4.148 -13.505  1.00 32.92    -0.647 OA
ENDBRANCH  16  17
ENDBRANCH  15  16
ENDBRANCH  14  15
END_RES GLU D 570
ENDMDL
