MODEL 1
REMARK VINA RESULT:      -1.1      0.000      0.000
REMARK  16 active torsions:
REMARK  status: ('A' for Active; 'I' for Inactive)
REMARK    1  A    between atoms: C_2  and  C_3 
REMARK    2  A    between atoms: C_3  and  C_4 
REMARK    3  A    between atoms: C_4  and  C_5 
REMARK    4  A    between atoms: C_5  and  C_6 
REMARK    5  A    between atoms: C_6  and  C_7 
REMARK    6  A    between atoms: C_7  and  C_8 
REMARK    7  A    between atoms: C_8  and  C_9 
REMARK    8  A    between atoms: C_9  and  C_10 
REMARK    9  A    between atoms: C_10  and  C_11 
REMARK   10  A    between atoms: C_11  and  C_12 
REMARK   11  A    between atoms: C_12  and  O_13 
REMARK   12  A    between atoms: O_13  and  C_14 
REMARK   13  A    between atoms: C_14  and  C_15 
REMARK   14  A    between atoms: C_15  and  O_16 
REMARK   15  A    between atoms: O_16  and  S_17 
REMARK   16  A    between atoms: S_17  and  O_20 
ROOT
HETATM    1  H   UNL     1     -37.258   2.898 -15.917  1.00  0.00     0.309 HD
HETATM    2  H   UNL     1     -36.271   4.027 -16.549  1.00  0.00     0.309 HD
HETATM    3  H   UNL     1     -37.026   2.969 -17.528  1.00  0.00     0.309 HD
HETATM    4  N   UNL     2     -36.547   3.051 -16.632  1.00  0.00     0.072 N 
ENDROOT
TORSDOF 16
BEGIN_RES ARG D 557
REMARK  4 active torsions:
REMARK  status: ('A' for Active; 'I' for Inactive)
REMARK    1  A    between atoms: CA   and  CB  
REMARK    2  A    between atoms: CB   and  CG  
REMARK    3  A    between atoms: CG   and  CD  
REMARK    4  A    between atoms: CD   and  NE  
REMARK       I    between atoms: NE   and  CZ  
REMARK       I    between atoms: CZ   and  NH1 
REMARK       I    between atoms: CZ   and  NH2 
ROOT
ATOM      1  CA  ARG D 557     -26.217   2.705 -17.014  1.00 35.49     0.159 C 
ENDROOT
BRANCH   1   2
ATOM      2  CB  ARG D 557     -26.789   1.319 -17.183  1.00 35.49     0.034 C 
BRANCH   2   3
ATOM      3  CG  ARG D 557     -25.837   0.202 -17.148  1.00 35.49     0.027 C 
BRANCH   3   4
ATOM      4  CD  ARG D 557     -24.753   0.415 -16.161  1.00 35.49     0.116 C 
BRANCH   4   5
ATOM      5  NE  ARG D 557     -24.895  -0.435 -15.009  1.00 35.49    -0.212 N 
ATOM      6  CZ  ARG D 557     -24.080  -1.408 -14.667  1.00 35.49     0.666 C 
ATOM      7  NH1 ARG D 557     -23.016  -1.725 -15.381  1.00 35.49    -0.235 N 
ATOM      8  NH2 ARG D 557     -24.351  -2.063 -13.576  1.00 35.49    -0.235 N 
ATOM      9  HH  ARG D 557     -22.817  -1.306 -16.102  1.00 35.49     0.174 HD
ATOM     10  HH  ARG D 557     -22.519  -2.367 -15.108  1.00 35.49     0.174 HD
ATOM     11  HH  ARG D 557     -25.041  -1.832 -13.131  1.00 35.49     0.174 HD
ATOM     12  HH  ARG D 557     -23.846  -2.695 -13.321  1.00 35.49     0.174 HD
ATOM     13  HE  ARG D 557     -25.594  -0.348 -14.532  1.00 35.49     0.178 HD
ENDBRANCH   4   5
ENDBRANCH   3   4
ENDBRANCH   2   3
ENDBRANCH   1   2
END_RES ARG D 557
BEGIN_RES GLU D 570
REMARK  3 active torsions:
REMARK  status: ('A' for Active; 'I' for Inactive)
REMARK    5  A    between atoms: CA   and  CB  
REMARK    6  A    between atoms: CB   and  CG  
REMARK    7  A    between atoms: CG   and  CD  
ROOT
ATOM     14  CA  GLU D 570     -18.033  -6.348 -13.375  1.00 32.92     0.160 C 
ENDROOT
BRANCH  14  15
ATOM     15  CB  GLU D 570     -19.500  -6.345 -13.794  1.00 32.92     0.043 C 
BRANCH  15  16
ATOM     16  CG  GLU D 570     -20.448  -5.562 -12.960  1.00 32.92     0.100 C 
BRANCH  16  17
ATOM     17  CD  GLU D 570     -21.736  -5.236 -13.681  1.00 32.92     0.185 C 
ATOM     18  OE1 GLU D 570     -22.242  -4.107 -13.534  1.00 32.92    -0.647 OA
ATOM     19  OE2 GLU D 570     -22.253  -6.125 -14.386  1.00 32.92    -0.647 OA
ENDBRANCH  16  17
ENDBRANCH  15  16
ENDBRANCH  14  15
END_RES GLU D 570
ENDMDL
MODEL 2
REMARK VINA RESULT:      -1.1      2.503      2.670
REMARK  16 active torsions:
REMARK  status: ('A' for Active; 'I' for Inactive)
REMARK    1  A    between atoms: C_2  and  C_3 
REMARK    2  A    between atoms: C_3  and  C_4 
REMARK    3  A    between atoms: C_4  and  C_5 
REMARK    4  A    between atoms: C_5  and  C_6 
REMARK    5  A    between atoms: C_6  and  C_7 
REMARK    6  A    between atoms: C_7  and  C_8 
REMARK    7  A    between atoms: C_8  and  C_9 
REMARK    8  A    between atoms: C_9  and  C_10 
REMARK    9  A    between atoms: C_10  and  C_11 
REMARK   10  A    between atoms: C_11  and  C_12 
REMARK   11  A    between atoms: C_12  and  O_13 
REMARK   12  A    between atoms: O_13  and  C_14 
REMARK   13  A    between atoms: C_14  and  C_15 
REMARK   14  A    between atoms: C_15  and  O_16 
REMARK   15  A    between atoms: O_16  and  S_17 
REMARK   16  A    between atoms: S_17  and  O_20 
ROOT
HETATM    1  H   UNL     1     -31.278  -2.624 -18.549  1.00  0.00     0.309 HD
HETATM    2  H   UNL     1     -31.627  -2.909 -16.985  1.00  0.00     0.309 HD
HETATM    3  H   UNL     1     -30.243  -2.151 -17.384  1.00  0.00     0.309 HD
HETATM    4  N   UNL     2     -30.866  -2.908 -17.662  1.00  0.00     0.072 N 
ENDROOT
TORSDOF 16
BEGIN_RES ARG D 557
REMARK  4 active torsions:
REMARK  status: ('A' for Active; 'I' for Inactive)
REMARK    1  A    between atoms: CA   and  CB  
REMARK    2  A    between atoms: CB   and  CG  
REMARK    3  A    between atoms: CG   and  CD  
REMARK    4  A    between atoms: CD   and  NE  
REMARK       I    between atoms: NE   and  CZ  
REMARK       I    between atoms: CZ   and  NH1 
REMARK       I    between atoms: CZ   and  NH2 
ROOT
ATOM      1  CA  ARG D 557     -26.217   2.705 -17.014  1.00 35.49     0.159 C 
ENDROOT
BRANCH   1   2
ATOM      2  CB  ARG D 557     -26.789   1.319 -17.183  1.00 35.49     0.034 C 
BRANCH   2   3
ATOM      3  CG  ARG D 557     -25.836   0.203 -17.150  1.00 35.49     0.027 C 
BRANCH   3   4
ATOM      4  CD  ARG D 557     -24.762   0.407 -16.151  1.00 35.49     0.116 C 
BRANCH   4   5
ATOM      5  NE  ARG D 557     -24.915  -0.452 -15.006  1.00 35.49    -0.212 N 
ATOM      6  CZ  ARG D 557     -24.098  -1.421 -14.659  1.00 35.49     0.666 C 
ATOM      7  NH1 ARG D 557     -23.021  -1.726 -15.359  1.00 35.49    -0.235 N 
ATOM      8  NH2 ARG D 557     -24.381  -2.085 -13.576  1.00 35.49    -0.235 N 
ATOM      9  HH  ARG D 557     -22.814  -1.301 -16.073  1.00 35.49     0.174 HD
ATOM     10  HH  ARG D 557     -22.524  -2.366 -15.082  1.00 35.49     0.174 HD
ATOM     11  HH  ARG D 557     -25.079  -1.861 -13.140  1.00 35.49     0.174 HD
ATOM     12  HH  ARG D 557     -23.876  -2.715 -13.318  1.00 35.49     0.174 HD
ATOM     13  HE  ARG D 557     -25.621  -0.373 -14.539  1.00 35.49     0.178 HD
ENDBRANCH   4   5
ENDBRANCH   3   4
ENDBRANCH   2   3
ENDBRANCH   1   2
END_RES ARG D 557
BEGIN_RES GLU D 570
REMARK  3 active torsions:
REMARK  status: ('A' for Active; 'I' for Inactive)
REMARK    5  A    between atoms: CA   and  CB  
REMARK    6  A    between atoms: CB   and  CG  
REMARK    7  A    between atoms: CG   and  CD  
ROOT
ATOM     14  CA  GLU D 570     -18.033  -6.348 -13.375  1.00 32.92     0.160 C 
ENDROOT
BRANCH  14  15
ATOM     15  CB  GLU D 570     -19.500  -6.345 -13.794  1.00 32.92     0.043 C 
BRANCH  15  16
ATOM     16  CG  GLU D 570     -20.439  -5.519 -12.992  1.00 32.92     0.100 C 
BRANCH  16  17
ATOM     17  CD  GLU D 570     -21.731  -5.223 -13.718  1.00 32.92     0.185 C 
ATOM     18  OE1 GLU D 570     -22.188  -6.069 -14.510  1.00 32.92    -0.647 OA
ATOM     19  OE2 GLU D 570     -22.284  -4.126 -13.504  1.00 32.92    -0.647 OA
ENDBRANCH  16  17
ENDBRANCH  15  16
ENDBRANCH  14  15
END_RES GLU D 570
ENDMDL
MODEL 3
REMARK VINA RESULT:      -1.0      3.694      4.327
REMARK  16 active torsions:
REMARK  status: ('A' for Active; 'I' for Inactive)
REMARK    1  A    between atoms: C_2  and  C_3 
REMARK    2  A    between atoms: C_3  and  C_4 
REMARK    3  A    between atoms: C_4  and  C_5 
REMARK    4  A    between atoms: C_5  and  C_6 
REMARK    5  A    between atoms: C_6  and  C_7 
REMARK    6  A    between atoms: C_7  and  C_8 
REMARK    7  A    between atoms: C_8  and  C_9 
REMARK    8  A    between atoms: C_9  and  C_10 
REMARK    9  A    between atoms: C_10  and  C_11 
REMARK   10  A    between atoms: C_11  and  C_12 
REMARK   11  A    between atoms: C_12  and  O_13 
REMARK   12  A    between atoms: O_13  and  C_14 
REMARK   13  A    between atoms: C_14  and  C_15 
REMARK   14  A    between atoms: C_15  and  O_16 
REMARK   15  A    between atoms: O_16  and  S_17 
REMARK   16  A    between atoms: S_17  and  O_20 
ROOT
HETATM    1  H   UNL     1     -33.053  -8.103 -10.213  1.00  0.00     0.309 HD
HETATM    2  H   UNL     1     -34.441  -8.934 -10.032  1.00  0.00     0.309 HD
HETATM    3  H   UNL     1     -33.045  -9.548  -9.463  1.00  0.00     0.309 HD
HETATM    4  N   UNL     2     -33.451  -9.040 -10.247  1.00  0.00     0.072 N 
ENDROOT
TORSDOF 16
BEGIN_RES ARG D 557
REMARK  4 active torsions:
REMARK  status: ('A' for Active; 'I' for Inactive)
REMARK    1  A    between atoms: CA   and  CB  
REMARK    2  A    between atoms: CB   and  CG  
REMARK    3  A    between atoms: CG   and  CD  
REMARK    4  A    between atoms: CD   and  NE  
REMARK       I    between atoms: NE   and  CZ  
REMARK       I    between atoms: CZ   and  NH1 
REMARK       I    between atoms: CZ   and  NH2 
ROOT
ATOM      1  CA  ARG D 557     -26.217   2.705 -17.014  1.00 35.49     0.159 C 
ENDROOT
BRANCH   1   2
ATOM      2  CB  ARG D 557     -26.789   1.319 -17.183  1.00 35.49     0.034 C 
BRANCH   2   3
ATOM      3  CG  ARG D 557     -25.835   0.203 -17.161  1.00 35.49     0.027 C 
BRANCH   3   4
ATOM      4  CD  ARG D 557     -24.769   0.392 -16.151  1.00 35.49     0.116 C 
BRANCH   4   5
ATOM      5  NE  ARG D 557     -24.947  -0.465 -15.009  1.00 35.49    -0.212 N 
ATOM      6  CZ  ARG D 557     -24.143  -1.441 -14.648  1.00 35.49     0.666 C 
ATOM      7  NH1 ARG D 557     -23.057  -1.754 -15.330  1.00 35.49    -0.235 N 
ATOM      8  NH2 ARG D 557     -24.449  -2.102 -13.570  1.00 35.49    -0.235 N 
ATOM      9  HH  ARG D 557     -22.836  -1.330 -16.042  1.00 35.49     0.174 HD
ATOM     10  HH  ARG D 557     -22.569  -2.398 -15.046  1.00 35.49     0.174 HD
ATOM     11  HH  ARG D 557     -25.152  -1.873 -13.145  1.00 35.49     0.174 HD
ATOM     12  HH  ARG D 557     -23.952  -2.736 -13.303  1.00 35.49     0.174 HD
ATOM     13  HE  ARG D 557     -25.660  -0.381 -14.553  1.00 35.49     0.178 HD
ENDBRANCH   4   5
ENDBRANCH   3   4
ENDBRANCH   2   3
ENDBRANCH   1   2
END_RES ARG D 557
BEGIN_RES GLU D 570
REMARK  3 active torsions:
REMARK  status: ('A' for Active; 'I' for Inactive)
REMARK    5  A    between atoms: CA   and  CB  
REMARK    6  A    between atoms: CB   and  CG  
REMARK    7  A    between atoms: CG   and  CD  
ROOT
ATOM     14  CA  GLU D 570     -18.033  -6.348 -13.375  1.00 32.92     0.160 C 
ENDROOT
BRANCH  14  15
ATOM     15  CB  GLU D 570     -19.500  -6.345 -13.794  1.00 32.92     0.043 C 
BRANCH  15  16
ATOM     16  CG  GLU D 570     -20.442  -5.533 -12.981  1.00 32.92     0.100 C 
BRANCH  16  17
ATOM     17  CD  GLU D 570     -21.662  -5.093 -13.757  1.00 32.92     0.185 C 
ATOM     18  OE1 GLU D 570     -21.957  -5.690 -14.811  1.00 32.92    -0.647 OA
ATOM     19  OE2 GLU D 570     -22.319  -4.130 -13.316  1.00 32.92    -0.647 OA
ENDBRANCH  16  17
ENDBRANCH  15  16
ENDBRANCH  14  15
END_RES GLU D 570
ENDMDL
MODEL 4
REMARK VINA RESULT:      -1.0      3.691      4.522
REMARK  16 active torsions:
REMARK  status: ('A' for Active; 'I' for Inactive)
REMARK    1  A    between atoms: C_2  and  C_3 
REMARK    2  A    between atoms: C_3  and  C_4 
REMARK    3  A    between atoms: C_4  and  C_5 
REMARK    4  A    between atoms: C_5  and  C_6 
REMARK    5  A    between atoms: C_6  and  C_7 
REMARK    6  A    between atoms: C_7  and  C_8 
REMARK    7  A    between atoms: C_8  and  C_9 
REMARK    8  A    between atoms: C_9  and  C_10 
REMARK    9  A    between atoms: C_10  and  C_11 
REMARK   10  A    between atoms: C_11  and  C_12 
REMARK   11  A    between atoms: C_12  and  O_13 
REMARK   12  A    between atoms: O_13  and  C_14 
REMARK   13  A    between atoms: C_14  and  C_15 
REMARK   14  A    between atoms: C_15  and  O_16 
REMARK   15  A    between atoms: O_16  and  S_17 
REMARK   16  A    between atoms: S_17  and  O_20 
ROOT
HETATM    1  H   UNL     1     -25.747  -3.266  -8.801  1.00  0.00     0.309 HD
HETATM    2  H   UNL     1     -24.610  -4.157  -9.552  1.00  0.00     0.309 HD
HETATM    3  H   UNL     1     -25.140  -2.776 -10.231  1.00  0.00     0.309 HD
HETATM    4  N   UNL     2     -25.447  -3.600  -9.715  1.00  0.00     0.072 N 
ENDROOT
TORSDOF 16
BEGIN_RES ARG D 557
REMARK  4 active torsions:
REMARK  status: ('A' for Active; 'I' for Inactive)
REMARK    1  A    between atoms: CA   and  CB  
REMARK    2  A    between atoms: CB   and  CG  
REMARK    3  A    between atoms: CG   and  CD  
REMARK    4  A    between atoms: CD   and  NE  
REMARK       I    between atoms: NE   and  CZ  
REMARK       I    between atoms: CZ   and  NH1 
REMARK       I    between atoms: CZ   and  NH2 
ROOT
ATOM      1  CA  ARG D 557     -26.217   2.705 -17.014  1.00 35.49     0.159 C 
ENDROOT
BRANCH   1   2
ATOM      2  CB  ARG D 557     -26.789   1.319 -17.183  1.00 35.49     0.034 C 
BRANCH   2   3
ATOM      3  CG  ARG D 557     -25.835   0.203 -17.160  1.00 35.49     0.027 C 
BRANCH   3   4
ATOM      4  CD  ARG D 557     -24.765   0.397 -16.155  1.00 35.49     0.116 C 
BRANCH   4   5
ATOM      5  NE  ARG D 557     -24.933  -0.461 -15.012  1.00 35.49    -0.212 N 
ATOM      6  CZ  ARG D 557     -24.121  -1.431 -14.653  1.00 35.49     0.666 C 
ATOM      7  NH1 ARG D 557     -23.035  -1.737 -15.339  1.00 35.49    -0.235 N 
ATOM      8  NH2 ARG D 557     -24.418  -2.094 -13.574  1.00 35.49    -0.235 N 
ATOM      9  HH  ARG D 557     -22.819  -1.312 -16.051  1.00 35.49     0.174 HD
ATOM     10  HH  ARG D 557     -22.542  -2.377 -15.055  1.00 35.49     0.174 HD
ATOM     11  HH  ARG D 557     -25.122  -1.870 -13.147  1.00 35.49     0.174 HD
ATOM     12  HH  ARG D 557     -23.917  -2.724 -13.308  1.00 35.49     0.174 HD
ATOM     13  HE  ARG D 557     -25.645  -0.382 -14.554  1.00 35.49     0.178 HD
ENDBRANCH   4   5
ENDBRANCH   3   4
ENDBRANCH   2   3
ENDBRANCH   1   2
END_RES ARG D 557
BEGIN_RES GLU D 570
REMARK  3 active torsions:
REMARK  status: ('A' for Active; 'I' for Inactive)
REMARK    5  A    between atoms: CA   and  CB  
REMARK    6  A    between atoms: CB   and  CG  
REMARK    7  A    between atoms: CG   and  CD  
ROOT
ATOM     14  CA  GLU D 570     -18.033  -6.348 -13.375  1.00 32.92     0.160 C 
ENDROOT
BRANCH  14  15
ATOM     15  CB  GLU D 570     -19.500  -6.345 -13.794  1.00 32.92     0.043 C 
BRANCH  15  16
ATOM     16  CG  GLU D 570     -20.439  -5.518 -12.993  1.00 32.92     0.100 C 
BRANCH  16  17
ATOM     17  CD  GLU D 570     -21.748  -5.259 -13.702  1.00 32.92     0.185 C 
ATOM     18  OE1 GLU D 570     -22.213  -6.136 -14.454  1.00 32.92    -0.647 OA
ATOM     19  OE2 GLU D 570     -22.305  -4.159 -13.516  1.00 32.92    -0.647 OA
ENDBRANCH  16  17
ENDBRANCH  15  16
ENDBRANCH  14  15
END_RES GLU D 570
ENDMDL
MODEL 5
REMARK VINA RESULT:      -1.0      4.941      5.387
REMARK  16 active torsions:
REMARK  status: ('A' for Active; 'I' for Inactive)
REMARK    1  A    between atoms: C_2  and  C_3 
REMARK    2  A    between atoms: C_3  and  C_4 
REMARK    3  A    between atoms: C_4  and  C_5 
REMARK    4  A    between atoms: C_5  and  C_6 
REMARK    5  A    between atoms: C_6  and  C_7 
REMARK    6  A    between atoms: C_7  and  C_8 
REMARK    7  A    between atoms: C_8  and  C_9 
REMARK    8  A    between atoms: C_9  and  C_10 
REMARK    9  A    between atoms: C_10  and  C_11 
REMARK   10  A    between atoms: C_11  and  C_12 
REMARK   11  A    between atoms: C_12  and  O_13 
REMARK   12  A    between atoms: O_13  and  C_14 
REMARK   13  A    between atoms: C_14  and  C_15 
REMARK   14  A    between atoms: C_15  and  O_16 
REMARK   15  A    between atoms: O_16  and  S_17 
REMARK   16  A    between atoms: S_17  and  O_20 
ROOT
HETATM    1  H   UNL     1     -34.964  -4.698  -1.202  1.00  0.00     0.309 HD
HETATM    2  H   UNL     1     -34.863  -6.244  -1.702  1.00  0.00     0.309 HD
HETATM    3  H   UNL     1     -34.524  -5.866  -0.156  1.00  0.00     0.309 HD
HETATM    4  N   UNL     2     -34.407  -5.547  -1.117  1.00  0.00     0.072 N 
ENDROOT
TORSDOF 16
BEGIN_RES ARG D 557
REMARK  4 active torsions:
REMARK  status: ('A' for Active; 'I' for Inactive)
REMARK    1  A    between atoms: CA   and  CB  
REMARK    2  A    between atoms: CB   and  CG  
REMARK    3  A    between atoms: CG   and  CD  
REMARK    4  A    between atoms: CD   and  NE  
REMARK       I    between atoms: NE   and  CZ  
REMARK       I    between atoms: CZ   and  NH1 
REMARK       I    between atoms: CZ   and  NH2 
ROOT
ATOM      1  CA  ARG D 557     -26.217   2.705 -17.014  1.00 35.49     0.159 C 
ENDROOT
BRANCH   1   2
ATOM      2  CB  ARG D 557     -26.789   1.319 -17.183  1.00 35.49     0.034 C 
BRANCH   2   3
ATOM      3  CG  ARG D 557     -25.835   0.204 -17.164  1.00 35.49     0.027 C 
BRANCH   3   4
ATOM      4  CD  ARG D 557     -24.742   0.412 -16.186  1.00 35.49     0.116 C 
BRANCH   4   5
ATOM      5  NE  ARG D 557     -24.885  -0.427 -15.026  1.00 35.49    -0.212 N 
ATOM      6  CZ  ARG D 557     -24.070  -1.397 -14.675  1.00 35.49     0.666 C 
ATOM      7  NH1 ARG D 557     -23.006  -1.721 -15.385  1.00 35.49    -0.235 N 
ATOM      8  NH2 ARG D 557     -24.343  -2.042 -13.578  1.00 35.49    -0.235 N 
ATOM      9  HH  ARG D 557     -22.806  -1.308 -16.109  1.00 35.49     0.174 HD
ATOM     10  HH  ARG D 557     -22.509  -2.361 -15.106  1.00 35.49     0.174 HD
ATOM     11  HH  ARG D 557     -25.033  -1.806 -13.136  1.00 35.49     0.174 HD
ATOM     12  HH  ARG D 557     -23.838  -2.671 -13.317  1.00 35.49     0.174 HD
ATOM     13  HE  ARG D 557     -25.584  -0.335 -14.550  1.00 35.49     0.178 HD
ENDBRANCH   4   5
ENDBRANCH   3   4
ENDBRANCH   2   3
ENDBRANCH   1   2
END_RES ARG D 557
BEGIN_RES GLU D 570
REMARK  3 active torsions:
REMARK  status: ('A' for Active; 'I' for Inactive)
REMARK    5  A    between atoms: CA   and  CB  
REMARK    6  A    between atoms: CB   and  CG  
REMARK    7  A    between atoms: CG   and  CD  
ROOT
ATOM     14  CA  GLU D 570     -18.033  -6.348 -13.375  1.00 32.92     0.160 C 
ENDROOT
BRANCH  14  15
ATOM     15  CB  GLU D 570     -19.500  -6.345 -13.794  1.00 32.92     0.043 C 
BRANCH  15  16
ATOM     16  CG  GLU D 570     -20.442  -5.533 -12.981  1.00 32.92     0.100 C 
BRANCH  16  17
ATOM     17  CD  GLU D 570     -21.743  -5.249 -13.696  1.00 32.92     0.185 C 
ATOM     18  OE1 GLU D 570     -22.314  -4.159 -13.503  1.00 32.92    -0.647 OA
ATOM     19  OE2 GLU D 570     -22.204  -6.133 -14.444  1.00 32.92    -0.647 OA
ENDBRANCH  16  17
ENDBRANCH  15  16
ENDBRANCH  14  15
END_RES GLU D 570
ENDMDL
MODEL 6
REMARK VINA RESULT:      -1.0      3.756      6.007
REMARK  16 active torsions:
REMARK  status: ('A' for Active; 'I' for Inactive)
REMARK    1  A    between atoms: C_2  and  C_3 
REMARK    2  A    between atoms: C_3  and  C_4 
REMARK    3  A    between atoms: C_4  and  C_5 
REMARK    4  A    between atoms: C_5  and  C_6 
REMARK    5  A    between atoms: C_6  and  C_7 
REMARK    6  A    between atoms: C_7  and  C_8 
REMARK    7  A    between atoms: C_8  and  C_9 
REMARK    8  A    between atoms: C_9  and  C_10 
REMARK    9  A    between atoms: C_10  and  C_11 
REMARK   10  A    between atoms: C_11  and  C_12 
REMARK   11  A    between atoms: C_12  and  O_13 
REMARK   12  A    between atoms: O_13  and  C_14 
REMARK   13  A    between atoms: C_14  and  C_15 
REMARK   14  A    between atoms: C_15  and  O_16 
REMARK   15  A    between atoms: O_16  and  S_17 
REMARK   16  A    between atoms: S_17  and  O_20 
ROOT
HETATM    1  H   UNL     1     -22.159  -8.618 -16.465  1.00  0.00     0.309 HD
HETATM    2  H   UNL     1     -20.659  -7.990 -16.538  1.00  0.00     0.309 HD
HETATM    3  H   UNL     1     -20.867  -9.604 -16.570  1.00  0.00     0.309 HD
HETATM    4  N   UNL     2     -21.205  -8.748 -16.132  1.00  0.00     0.072 N 
ENDROOT
TORSDOF 16
BEGIN_RES ARG D 557
REMARK  4 active torsions:
REMARK  status: ('A' for Active; 'I' for Inactive)
REMARK    1  A    between atoms: CA   and  CB  
REMARK    2  A    between atoms: CB   and  CG  
REMARK    3  A    between atoms: CG   and  CD  
REMARK    4  A    between atoms: CD   and  NE  
REMARK       I    between atoms: NE   and  CZ  
REMARK       I    between atoms: CZ   and  NH1 
REMARK       I    between atoms: CZ   and  NH2 
ROOT
ATOM      1  CA  ARG D 557     -26.217   2.705 -17.014  1.00 35.49     0.159 C 
ENDROOT
BRANCH   1   2
ATOM      2  CB  ARG D 557     -26.789   1.319 -17.183  1.00 35.49     0.034 C 
BRANCH   2   3
ATOM      3  CG  ARG D 557     -25.857   0.196 -17.025  1.00 35.49     0.027 C 
BRANCH   3   4
ATOM      4  CD  ARG D 557     -26.231  -0.694 -15.902  1.00 35.49     0.116 C 
BRANCH   4   5
ATOM      5  NE  ARG D 557     -25.173  -0.821 -14.935  1.00 35.49    -0.212 N 
ATOM      6  CZ  ARG D 557     -24.773  -1.941 -14.376  1.00 35.49     0.666 C 
ATOM      7  NH1 ARG D 557     -25.332  -3.107 -14.645  1.00 35.49    -0.235 N 
ATOM      8  NH2 ARG D 557     -23.783  -1.872 -13.535  1.00 35.49    -0.235 N 
ATOM      9  HH  ARG D 557     -25.984  -3.176 -15.197  1.00 35.49     0.174 HD
ATOM     10  HH  ARG D 557     -25.027  -3.804 -14.252  1.00 35.49     0.174 HD
ATOM     11  HH  ARG D 557     -23.436  -1.107 -13.386  1.00 35.49     0.174 HD
ATOM     12  HH  ARG D 557     -23.494  -2.575 -13.157  1.00 35.49     0.174 HD
ATOM     13  HE  ARG D 557     -24.805  -0.109 -14.650  1.00 35.49     0.178 HD
ENDBRANCH   4   5
ENDBRANCH   3   4
ENDBRANCH   2   3
ENDBRANCH   1   2
END_RES ARG D 557
BEGIN_RES GLU D 570
REMARK  3 active torsions:
REMARK  status: ('A' for Active; 'I' for Inactive)
REMARK    5  A    between atoms: CA   and  CB  
REMARK    6  A    between atoms: CB   and  CG  
REMARK    7  A    between atoms: CG   and  CD  
ROOT
ATOM     14  CA  GLU D 570     -18.033  -6.348 -13.375  1.00 32.92     0.160 C 
ENDROOT
BRANCH  14  15
ATOM     15  CB  GLU D 570     -19.500  -6.345 -13.794  1.00 32.92     0.043 C 
BRANCH  15  16
ATOM     16  CG  GLU D 570     -20.432  -5.489 -13.016  1.00 32.92     0.100 C 
BRANCH  16  17
ATOM     17  CD  GLU D 570     -21.783  -5.337 -13.676  1.00 32.92     0.185 C 
ATOM     18  OE1 GLU D 570     -22.073  -6.074 -14.638  1.00 32.92    -0.647 OA
ATOM     19  OE2 GLU D 570     -22.553  -4.460 -13.237  1.00 32.92    -0.647 OA
ENDBRANCH  16  17
ENDBRANCH  15  16
ENDBRANCH  14  15
END_RES GLU D 570
ENDMDL
MODEL 7
REMARK VINA RESULT:      -0.9      3.698      6.688
REMARK  16 active torsions:
REMARK  status: ('A' for Active; 'I' for Inactive)
REMARK    1  A    between atoms: C_2  and  C_3 
REMARK    2  A    between atoms: C_3  and  C_4 
REMARK    3  A    between atoms: C_4  and  C_5 
REMARK    4  A    between atoms: C_5  and  C_6 
REMARK    5  A    between atoms: C_6  and  C_7 
REMARK    6  A    between atoms: C_7  and  C_8 
REMARK    7  A    between atoms: C_8  and  C_9 
REMARK    8  A    between atoms: C_9  and  C_10 
REMARK    9  A    between atoms: C_10  and  C_11 
REMARK   10  A    between atoms: C_11  and  C_12 
REMARK   11  A    between atoms: C_12  and  O_13 
REMARK   12  A    between atoms: O_13  and  C_14 
REMARK   13  A    between atoms: C_14  and  C_15 
REMARK   14  A    between atoms: C_15  and  O_16 
REMARK   15  A    between atoms: O_16  and  S_17 
REMARK   16  A    between atoms: S_17  and  O_20 
ROOT
HETATM    1  H   UNL     1     -22.613  -6.815  -2.240  1.00  0.00     0.309 HD
HETATM    2  H   UNL     1     -22.813  -5.484  -1.324  1.00  0.00     0.309 HD
HETATM    3  H   UNL     1     -22.685  -5.346  -2.941  1.00  0.00     0.309 HD
HETATM    4  N   UNL     2     -22.314  -5.847  -2.134  1.00  0.00     0.072 N 
ENDROOT
TORSDOF 16
BEGIN_RES ARG D 557
REMARK  4 active torsions:
REMARK  status: ('A' for Active; 'I' for Inactive)
REMARK    1  A    between atoms: CA   and  CB  
REMARK    2  A    between atoms: CB   and  CG  
REMARK    3  A    between atoms: CG   and  CD  
REMARK    4  A    between atoms: CD   and  NE  
REMARK       I    between atoms: NE   and  CZ  
REMARK       I    between atoms: CZ   and  NH1 
REMARK       I    between atoms: CZ   and  NH2 
ROOT
ATOM      1  CA  ARG D 557     -26.217   2.705 -17.014  1.00 35.49     0.159 C 
ENDROOT
BRANCH   1   2
ATOM      2  CB  ARG D 557     -26.789   1.319 -17.183  1.00 35.49     0.034 C 
BRANCH   2   3
ATOM      3  CG  ARG D 557     -25.836   0.203 -17.153  1.00 35.49     0.027 C 
BRANCH   3   4
ATOM      4  CD  ARG D 557     -24.755   0.410 -16.163  1.00 35.49     0.116 C 
BRANCH   4   5
ATOM      5  NE  ARG D 557     -24.903  -0.441 -15.012  1.00 35.49    -0.212 N 
ATOM      6  CZ  ARG D 557     -24.085  -1.408 -14.661  1.00 35.49     0.666 C 
ATOM      7  NH1 ARG D 557     -23.011  -1.718 -15.363  1.00 35.49    -0.235 N 
ATOM      8  NH2 ARG D 557     -24.364  -2.065 -13.573  1.00 35.49    -0.235 N 
ATOM      9  HH  ARG D 557     -22.807  -1.297 -16.081  1.00 35.49     0.174 HD
ATOM     10  HH  ARG D 557     -22.512  -2.356 -15.084  1.00 35.49     0.174 HD
ATOM     11  HH  ARG D 557     -25.060  -1.838 -13.136  1.00 35.49     0.174 HD
ATOM     12  HH  ARG D 557     -23.857  -2.693 -13.312  1.00 35.49     0.174 HD
ATOM     13  HE  ARG D 557     -25.608  -0.359 -14.542  1.00 35.49     0.178 HD
ENDBRANCH   4   5
ENDBRANCH   3   4
ENDBRANCH   2   3
ENDBRANCH   1   2
END_RES ARG D 557
BEGIN_RES GLU D 570
REMARK  3 active torsions:
REMARK  status: ('A' for Active; 'I' for Inactive)
REMARK    5  A    between atoms: CA   and  CB  
REMARK    6  A    between atoms: CB   and  CG  
REMARK    7  A    between atoms: CG   and  CD  
ROOT
ATOM     14  CA  GLU D 570     -18.033  -6.348 -13.375  1.00 32.92     0.160 C 
ENDROOT
BRANCH  14  15
ATOM     15  CB  GLU D 570     -19.500  -6.345 -13.794  1.00 32.92     0.043 C 
BRANCH  15  16
ATOM     16  CG  GLU D 570     -20.441  -5.525 -12.988  1.00 32.92     0.100 C 
BRANCH  16  17
ATOM     17  CD  GLU D 570     -21.739  -5.240 -13.706  1.00 32.92     0.185 C 
ATOM     18  OE1 GLU D 570     -22.328  -4.164 -13.487  1.00 32.92    -0.647 OA
ATOM     19  OE2 GLU D 570     -22.180  -6.109 -14.484  1.00 32.92    -0.647 OA
ENDBRANCH  16  17
ENDBRANCH  15  16
ENDBRANCH  14  15
END_RES GLU D 570
ENDMDL
MODEL 8
REMARK VINA RESULT:      -0.7      4.613      5.742
REMARK  16 active torsions:
REMARK  status: ('A' for Active; 'I' for Inactive)
REMARK    1  A    between atoms: C_2  and  C_3 
REMARK    2  A    between atoms: C_3  and  C_4 
REMARK    3  A    between atoms: C_4  and  C_5 
REMARK    4  A    between atoms: C_5  and  C_6 
REMARK    5  A    between atoms: C_6  and  C_7 
REMARK    6  A    between atoms: C_7  and  C_8 
REMARK    7  A    between atoms: C_8  and  C_9 
REMARK    8  A    between atoms: C_9  and  C_10 
REMARK    9  A    between atoms: C_10  and  C_11 
REMARK   10  A    between atoms: C_11  and  C_12 
REMARK   11  A    between atoms: C_12  and  O_13 
REMARK   12  A    between atoms: O_13  and  C_14 
REMARK   13  A    between atoms: C_14  and  C_15 
REMARK   14  A    between atoms: C_15  and  O_16 
REMARK   15  A    between atoms: O_16  and  S_17 
REMARK   16  A    between atoms: S_17  and  O_20 
ROOT
HETATM    1  H   UNL     1     -29.935 -14.591 -18.261  1.00  0.00     0.309 HD
HETATM    2  H   UNL     1     -31.186 -13.576 -18.494  1.00  0.00     0.309 HD
HETATM    3  H   UNL     1     -31.455 -15.173 -18.329  1.00  0.00     0.309 HD
HETATM    4  N   UNL     2     -30.824 -14.492 -18.751  1.00  0.00     0.072 N 
ENDROOT
TORSDOF 16
BEGIN_RES ARG D 557
REMARK  4 active torsions:
REMARK  status: ('A' for Active; 'I' for Inactive)
REMARK    1  A    between atoms: CA   and  CB  
REMARK    2  A    between atoms: CB   and  CG  
REMARK    3  A    between atoms: CG   and  CD  
REMARK    4  A    between atoms: CD   and  NE  
REMARK       I    between atoms: NE   and  CZ  
REMARK       I    between atoms: CZ   and  NH1 
REMARK       I    between atoms: CZ   and  NH2 
ROOT
ATOM      1  CA  ARG D 557     -26.217   2.705 -17.014  1.00 35.49     0.159 C 
ENDROOT
BRANCH   1   2
ATOM      2  CB  ARG D 557     -26.789   1.319 -17.183  1.00 35.49     0.034 C 
BRANCH   2   3
ATOM      3  CG  ARG D 557     -25.863   0.195 -16.997  1.00 35.49     0.027 C 
BRANCH   3   4
ATOM      4  CD  ARG D 557     -26.283  -0.706 -15.900  1.00 35.49     0.116 C 
BRANCH   4   5
ATOM      5  NE  ARG D 557     -25.234  -0.913 -14.937  1.00 35.49    -0.212 N 
ATOM      6  CZ  ARG D 557     -24.939  -2.053 -14.354  1.00 35.49     0.666 C 
ATOM      7  NH1 ARG D 557     -25.610  -3.165 -14.592  1.00 35.49    -0.235 N 
ATOM      8  NH2 ARG D 557     -23.940  -2.061 -13.521  1.00 35.49    -0.235 N 
ATOM      9  HH  ARG D 557     -26.270  -3.184 -15.139  1.00 35.49     0.174 HD
ATOM     10  HH  ARG D 557     -25.371  -3.880 -14.185  1.00 35.49     0.174 HD
ATOM     11  HH  ARG D 557     -23.520  -1.330 -13.392  1.00 35.49     0.174 HD
ATOM     12  HH  ARG D 557     -23.718  -2.780 -13.128  1.00 35.49     0.174 HD
ATOM     13  HE  ARG D 557     -24.797  -0.233 -14.670  1.00 35.49     0.178 HD
ENDBRANCH   4   5
ENDBRANCH   3   4
ENDBRANCH   2   3
ENDBRANCH   1   2
END_RES ARG D 557
BEGIN_RES GLU D 570
REMARK  3 active torsions:
REMARK  status: ('A' for Active; 'I' for Inactive)
REMARK    5  A    between atoms: CA   and  CB  
REMARK    6  A    between atoms: CB   and  CG  
REMARK    7  A    between atoms: CG   and  CD  
ROOT
ATOM     14  CA  GLU D 570     -18.033  -6.348 -13.375  1.00 32.92     0.160 C 
ENDROOT
BRANCH  14  15
ATOM     15  CB  GLU D 570     -19.500  -6.345 -13.794  1.00 32.92     0.043 C 
BRANCH  15  16
ATOM     16  CG  GLU D 570     -20.448  -5.561 -12.961  1.00 32.92     0.100 C 
BRANCH  16  17
ATOM     17  CD  GLU D 570     -21.674  -5.116 -13.725  1.00 32.92     0.185 C 
ATOM     18  OE1 GLU D 570     -22.703  -4.811 -13.092  1.00 32.92    -0.647 OA
ATOM     19  OE2 GLU D 570     -21.610  -5.089 -14.969  1.00 32.92    -0.647 OA
ENDBRANCH  16  17
ENDBRANCH  15  16
ENDBRANCH  14  15
END_RES GLU D 570
ENDMDL
MODEL 9
REMARK VINA RESULT:      -0.6      3.390      3.939
REMARK  16 active torsions:
REMARK  status: ('A' for Active; 'I' for Inactive)
REMARK    1  A    between atoms: C_2  and  C_3 
REMARK    2  A    between atoms: C_3  and  C_4 
REMARK    3  A    between atoms: C_4  and  C_5 
REMARK    4  A    between atoms: C_5  and  C_6 
REMARK    5  A    between atoms: C_6  and  C_7 
REMARK    6  A    between atoms: C_7  and  C_8 
REMARK    7  A    between atoms: C_8  and  C_9 
REMARK    8  A    between atoms: C_9  and  C_10 
REMARK    9  A    between atoms: C_10  and  C_11 
REMARK   10  A    between atoms: C_11  and  C_12 
REMARK   11  A    between atoms: C_12  and  O_13 
REMARK   12  A    between atoms: O_13  and  C_14 
REMARK   13  A    between atoms: C_14  and  C_15 
REMARK   14  A    between atoms: C_15  and  O_16 
REMARK   15  A    between atoms: O_16  and  S_17 
REMARK   16  A    between atoms: S_17  and  O_20 
ROOT
HETATM    1  H   UNL     1     -36.075  -0.194 -16.218  1.00  0.00     0.309 HD
HETATM    2  H   UNL     1     -36.572  -1.609 -16.851  1.00  0.00     0.309 HD
HETATM    3  H   UNL     1     -35.406  -0.750 -17.594  1.00  0.00     0.309 HD
HETATM    4  N   UNL     2     -36.291  -0.661 -17.097  1.00  0.00     0.072 N 
ENDROOT
TORSDOF 16
BEGIN_RES ARG D 557
REMARK  4 active torsions:
REMARK  status: ('A' for Active; 'I' for Inactive)
REMARK    1  A    between atoms: CA   and  CB  
REMARK    2  A    between atoms: CB   and  CG  
REMARK    3  A    between atoms: CG   and  CD  
REMARK    4  A    between atoms: CD   and  NE  
REMARK       I    between atoms: NE   and  CZ  
REMARK       I    between atoms: CZ   and  NH1 
REMARK       I    between atoms: CZ   and  NH2 
ROOT
ATOM      1  CA  ARG D 557     -26.217   2.705 -17.014  1.00 35.49     0.159 C 
ENDROOT
BRANCH   1   2
ATOM      2  CB  ARG D 557     -26.789   1.319 -17.183  1.00 35.49     0.034 C 
BRANCH   2   3
ATOM      3  CG  ARG D 557     -28.230   1.227 -17.445  1.00 35.49     0.027 C 
BRANCH   3   4
ATOM      4  CD  ARG D 557     -28.916   0.305 -16.510  1.00 35.49     0.116 C 
BRANCH   4   5
ATOM      5  NE  ARG D 557     -29.273  -0.939 -17.140  1.00 35.49    -0.212 N 
ATOM      6  CZ  ARG D 557     -28.627  -2.077 -17.015  1.00 35.49     0.666 C 
ATOM      7  NH1 ARG D 557     -27.535  -2.195 -16.284  1.00 35.49    -0.235 N 
ATOM      8  NH2 ARG D 557     -29.107  -3.111 -17.642  1.00 35.49    -0.235 N 
ATOM      9  HH  ARG D 557     -27.203  -1.528 -15.861  1.00 35.49     0.174 HD
ATOM     10  HH  ARG D 557     -27.157  -2.963 -16.237  1.00 35.49     0.174 HD
ATOM     11  HH  ARG D 557     -29.818  -3.007 -18.102  1.00 35.49     0.174 HD
ATOM     12  HH  ARG D 557     -28.719  -3.863 -17.583  1.00 35.49     0.174 HD
ATOM     13  HE  ARG D 557     -29.924  -0.937 -17.688  1.00 35.49     0.178 HD
ENDBRANCH   4   5
ENDBRANCH   3   4
ENDBRANCH   2   3
ENDBRANCH   1   2
END_RES ARG D 557
BEGIN_RES GLU D 570
REMARK  3 active torsions:
REMARK  status: ('A' for Active; 'I' for Inactive)
REMARK    5  A    between atoms: CA   and  CB  
REMARK    6  A    between atoms: CB   and  CG  
REMARK    7  A    between atoms: CG   and  CD  
ROOT
ATOM     14  CA  GLU D 570     -18.033  -6.348 -13.375  1.00 32.92     0.160 C 
ENDROOT
BRANCH  14  15
ATOM     15  CB  GLU D 570     -19.500  -6.345 -13.794  1.00 32.92     0.043 C 
BRANCH  15  16
ATOM     16  CG  GLU D 570     -19.809  -5.988 -15.203  1.00 32.92     0.100 C 
BRANCH  16  17
ATOM     17  CD  GLU D 570     -21.260  -5.623 -15.414  1.00 32.92     0.185 C 
ATOM     18  OE1 GLU D 570     -22.115  -6.059 -14.620  1.00 32.92    -0.647 OA
ATOM     19  OE2 GLU D 570     -21.545  -4.907 -16.394  1.00 32.92    -0.647 OA
ENDBRANCH  16  17
ENDBRANCH  15  16
ENDBRANCH  14  15
END_RES GLU D 570
ENDMDL
