MODEL 1
REMARK VINA RESULT:      -7.2      0.000      0.000
REMARK  18 active torsions:
REMARK  status: ('A' for Active; 'I' for Inactive)
REMARK    1  A    between atoms: C_2  and  C_3 
REMARK    2  A    between atoms: C_3  and  C_4 
REMARK    3  A    between atoms: C_4  and  C_5 
REMARK    4  A    between atoms: C_5  and  C_6 
REMARK    5  A    between atoms: C_6  and  C_7 
REMARK    6  A    between atoms: C_7  and  C_8 
REMARK    7  A    between atoms: C_8  and  C_9 
REMARK    8  A    between atoms: C_9  and  C_10 
REMARK    9  A    between atoms: C_10  and  C_11 
REMARK   10  A    between atoms: C_11  and  C_12 
REMARK       I    between atoms: C_12  and  N_14 
REMARK   11  A    between atoms: N_14  and  C_15 
REMARK   12  A    between atoms: C_15  and  C_16 
REMARK   13  A    between atoms: C_16  and  C_17 
REMARK   14  A    between atoms: C_17  and  C_18 
REMARK   15  A    between atoms: C_18  and  C_19 
REMARK   16  A    between atoms: C_19  and  C_20 
REMARK   17  A    between atoms: C_19  and  N_23 
REMARK   18  A    between atoms: C_20  and  O_22 
ROOT
HETATM    1  C   UNK     1     -21.555  -6.013  -5.373  1.00  0.00     0.217 C 
HETATM    2  O   UNK     1     -22.673  -5.626  -5.686  1.00  0.00    -0.274 OA
HETATM    3  N   UNK     1     -20.393  -5.491  -5.903  1.00  0.00    -0.361 N 
HETATM    4  H   UNK     1     -19.491  -5.822  -5.582  1.00  0.00     0.162 HD
ENDROOT
BRANCH   3   5
HETATM    5  C   UNK     1     -20.435  -4.430  -6.892  1.00  0.00     0.122 C 
BRANCH   5   6
HETATM    6  C   UNK     1     -20.070  -4.933  -8.285  1.00  0.00     0.020 C 
BRANCH   6   7
HETATM    7  C   UNK     1     -20.869  -4.168  -9.330  1.00  0.00     0.004 C 
BRANCH   7   8
HETATM    8  C   UNK     1     -22.275  -4.740  -9.507  1.00  0.00     0.046 C 
BRANCH   8   9
HETATM    9  C   UNK     1     -23.330  -3.708  -9.110  1.00  0.00     0.314 C 
BRANCH   9  10
HETATM   10  C   UNK     1     -24.480  -3.670 -10.094  1.00  0.00     0.173 C 
HETATM   11  O   UNK     1     -25.498  -3.040  -9.820  1.00  0.00    -0.648 OA
BRANCH  10  12
HETATM   12  O   UNK     1     -24.297  -4.308 -11.264  1.00  0.00    -0.775 OA
HETATM   13  H   UNK     1     -23.574  -4.962 -11.288  1.00  0.00     0.167 HD
ENDBRANCH  10  12
ENDBRANCH   9  10
BRANCH   9  14
HETATM   14  N   UNK     1     -23.929  -4.117  -7.827  1.00  0.00     0.093 N 
HETATM   15  H   UNK     1     -24.653  -3.421  -7.630  1.00  0.00     0.314 HD
HETATM   16  H   UNK     1     -23.253  -3.955  -7.079  1.00  0.00     0.314 HD
ENDBRANCH   9  14
ENDBRANCH   8   9
ENDBRANCH   7   8
ENDBRANCH   6   7
ENDBRANCH   5   6
ENDBRANCH   3   5
BRANCH   1  17
HETATM   17  C   UNK     1     -21.341  -7.132  -4.364  1.00  0.00     0.103 C 
BRANCH  17  18
HETATM   18  C   UNK     1     -21.282  -6.545  -2.953  1.00  0.00     0.009 C 
BRANCH  18  19
HETATM   19  C   UNK     1     -21.577  -7.583  -1.881  1.00  0.00     0.000 C 
BRANCH  19  20
HETATM   20  C   UNK     1     -22.434  -6.972  -0.778  1.00  0.00     0.000 C 
BRANCH  20  21
HETATM   21  C   UNK     1     -22.786  -8.027   0.259  1.00  0.00     0.000 C 
BRANCH  21  22
HETATM   22  C   UNK     1     -21.630  -8.997   0.436  1.00  0.00     0.000 C 
BRANCH  22  23
HETATM   23  C   UNK     1     -22.114 -10.424   0.241  1.00  0.00     0.000 C 
BRANCH  23  24
HETATM   24  C   UNK     1     -23.586 -10.428  -0.136  1.00  0.00     0.000 C 
BRANCH  24  25
HETATM   25  C   UNK     1     -23.805 -11.274  -1.380  1.00  0.00    -0.000 C 
BRANCH  25  26
HETATM   26  C   UNK     1     -22.500 -11.443  -2.144  1.00  0.00    -0.005 C 
HETATM   27  C   UNK     1     -22.637 -10.894  -3.550  1.00  0.00     0.005 C 
ENDBRANCH  25  26
ENDBRANCH  24  25
ENDBRANCH  23  24
ENDBRANCH  22  23
ENDBRANCH  21  22
ENDBRANCH  20  21
ENDBRANCH  19  20
ENDBRANCH  18  19
ENDBRANCH  17  18
ENDBRANCH   1  17
TORSDOF 18
BEGIN_RES ARG D 557
REMARK  4 active torsions:
REMARK  status: ('A' for Active; 'I' for Inactive)
REMARK    1  A    between atoms: CA   and  CB  
REMARK    2  A    between atoms: CB   and  CG  
REMARK    3  A    between atoms: CG   and  CD  
REMARK    4  A    between atoms: CD   and  NE  
REMARK       I    between atoms: NE   and  CZ  
REMARK       I    between atoms: CZ   and  NH1 
REMARK       I    between atoms: CZ   and  NH2 
ROOT
ATOM      1  CA  ARG D 557     -26.217   2.705 -17.014  1.00 35.49     0.159 C 
ENDROOT
BRANCH   1   2
ATOM      2  CB  ARG D 557     -26.789   1.319 -17.183  1.00 35.49     0.034 C 
BRANCH   2   3
ATOM      3  CG  ARG D 557     -25.939   0.198 -16.764  1.00 35.49     0.027 C 
BRANCH   3   4
ATOM      4  CD  ARG D 557     -26.700  -0.848 -16.043  1.00 35.49     0.116 C 
BRANCH   4   5
ATOM      5  NE  ARG D 557     -25.941  -1.426 -14.966  1.00 35.49    -0.212 N 
ATOM      6  CZ  ARG D 557     -25.912  -2.700 -14.643  1.00 35.49     0.666 C 
ATOM      7  NH1 ARG D 557     -26.616  -3.611 -15.290  1.00 35.49    -0.235 N 
ATOM      8  NH2 ARG D 557     -25.149  -3.051 -13.649  1.00 35.49    -0.235 N 
ATOM      9  HH  ARG D 557     -27.123  -3.403 -15.949  1.00 35.49     0.174 HD
ATOM     10  HH  ARG D 557     -26.555  -4.427 -15.036  1.00 35.49     0.174 HD
ATOM     11  HH  ARG D 557     -24.701  -2.442 -13.254  1.00 35.49     0.174 HD
ATOM     12  HH  ARG D 557     -25.102  -3.864 -13.414  1.00 35.49     0.174 HD
ATOM     13  HE  ARG D 557     -25.514  -0.901 -14.451  1.00 35.49     0.178 HD
ENDBRANCH   4   5
ENDBRANCH   3   4
ENDBRANCH   2   3
ENDBRANCH   1   2
END_RES ARG D 557
BEGIN_RES GLU D 570
REMARK  3 active torsions:
REMARK  status: ('A' for Active; 'I' for Inactive)
REMARK    5  A    between atoms: CA   and  CB  
REMARK    6  A    between atoms: CB   and  CG  
REMARK    7  A    between atoms: CG   and  CD  
ROOT
ATOM     14  CA  GLU D 570     -18.033  -6.348 -13.375  1.00 32.92     0.160 C 
ENDROOT
BRANCH  14  15
ATOM     15  CB  GLU D 570     -19.500  -6.345 -13.794  1.00 32.92     0.043 C 
BRANCH  15  16
ATOM     16  CG  GLU D 570     -20.448  -5.559 -12.962  1.00 32.92     0.100 C 
BRANCH  16  17
ATOM     17  CD  GLU D 570     -21.744  -5.254 -13.676  1.00 32.92     0.185 C 
ATOM     18  OE1 GLU D 570     -22.183  -6.069 -14.509  1.00 32.92    -0.647 OA
ATOM     19  OE2 GLU D 570     -22.318  -4.179 -13.410  1.00 32.92    -0.647 OA
ENDBRANCH  16  17
ENDBRANCH  15  16
ENDBRANCH  14  15
END_RES GLU D 570
ENDMDL
MODEL 2
REMARK VINA RESULT:      -6.8      0.925      2.010
REMARK  18 active torsions:
REMARK  status: ('A' for Active; 'I' for Inactive)
REMARK    1  A    between atoms: C_2  and  C_3 
REMARK    2  A    between atoms: C_3  and  C_4 
REMARK    3  A    between atoms: C_4  and  C_5 
REMARK    4  A    between atoms: C_5  and  C_6 
REMARK    5  A    between atoms: C_6  and  C_7 
REMARK    6  A    between atoms: C_7  and  C_8 
REMARK    7  A    between atoms: C_8  and  C_9 
REMARK    8  A    between atoms: C_9  and  C_10 
REMARK    9  A    between atoms: C_10  and  C_11 
REMARK   10  A    between atoms: C_11  and  C_12 
REMARK       I    between atoms: C_12  and  N_14 
REMARK   11  A    between atoms: N_14  and  C_15 
REMARK   12  A    between atoms: C_15  and  C_16 
REMARK   13  A    between atoms: C_16  and  C_17 
REMARK   14  A    between atoms: C_17  and  C_18 
REMARK   15  A    between atoms: C_18  and  C_19 
REMARK   16  A    between atoms: C_19  and  C_20 
REMARK   17  A    between atoms: C_19  and  N_23 
REMARK   18  A    between atoms: C_20  and  O_22 
ROOT
HETATM    1  C   UNK     1     -21.292  -6.358  -6.064  1.00  0.00     0.217 C 
HETATM    2  O   UNK     1     -22.060  -5.441  -5.801  1.00  0.00    -0.274 OA
HETATM    3  N   UNK     1     -20.193  -6.217  -6.886  1.00  0.00    -0.361 N 
HETATM    4  H   UNK     1     -19.568  -6.999  -7.042  1.00  0.00     0.162 HD
ENDROOT
BRANCH   3   5
HETATM    5  C   UNK     1     -19.884  -4.942  -7.505  1.00  0.00     0.122 C 
BRANCH   5   6
HETATM    6  C   UNK     1     -19.928  -5.021  -9.029  1.00  0.00     0.020 C 
BRANCH   6   7
HETATM    7  C   UNK     1     -20.891  -3.972  -9.566  1.00  0.00     0.004 C 
BRANCH   7   8
HETATM    8  C   UNK     1     -22.291  -4.542  -9.792  1.00  0.00     0.046 C 
BRANCH   8   9
HETATM    9  C   UNK     1     -23.355  -3.586  -9.252  1.00  0.00     0.314 C 
BRANCH   9  10
HETATM   10  C   UNK     1     -24.565  -3.520 -10.158  1.00  0.00     0.173 C 
HETATM   11  O   UNK     1     -25.621  -3.059  -9.734  1.00  0.00    -0.648 OA
BRANCH  10  12
HETATM   12  O   UNK     1     -24.396  -3.939 -11.425  1.00  0.00    -0.775 OA
HETATM   13  H   UNK     1     -24.157  -4.878 -11.539  1.00  0.00     0.167 HD
ENDBRANCH  10  12
ENDBRANCH   9  10
BRANCH   9  14
HETATM   14  N   UNK     1     -23.855  -4.114  -7.971  1.00  0.00     0.093 N 
HETATM   15  H   UNK     1     -23.448  -3.512  -7.250  1.00  0.00     0.314 HD
HETATM   16  H   UNK     1     -23.411  -5.016  -7.787  1.00  0.00     0.314 HD
ENDBRANCH   9  14
ENDBRANCH   8   9
ENDBRANCH   7   8
ENDBRANCH   6   7
ENDBRANCH   5   6
ENDBRANCH   3   5
BRANCH   1  17
HETATM   17  C   UNK     1     -21.490  -7.761  -5.509  1.00  0.00     0.103 C 
BRANCH  17  18
HETATM   18  C   UNK     1     -20.414  -8.054  -4.463  1.00  0.00     0.009 C 
BRANCH  18  19
HETATM   19  C   UNK     1     -20.431  -9.505  -4.005  1.00  0.00     0.000 C 
BRANCH  19  20
HETATM   20  C   UNK     1     -21.848  -9.922  -3.628  1.00  0.00     0.000 C 
BRANCH  20  21
HETATM   21  C   UNK     1     -21.823 -10.821  -2.402  1.00  0.00     0.000 C 
BRANCH  21  22
HETATM   22  C   UNK     1     -20.531 -10.619  -1.628  1.00  0.00     0.000 C 
BRANCH  22  23
HETATM   23  C   UNK     1     -20.837 -10.391  -0.156  1.00  0.00     0.000 C 
BRANCH  23  24
HETATM   24  C   UNK     1     -21.905  -9.320  -0.006  1.00  0.00     0.000 C 
BRANCH  24  25
HETATM   25  C   UNK     1     -21.349  -7.966  -0.416  1.00  0.00    -0.000 C 
BRANCH  25  26
HETATM   26  C   UNK     1     -22.479  -7.008  -0.759  1.00  0.00    -0.005 C 
HETATM   27  C   UNK     1     -22.117  -6.179  -1.975  1.00  0.00     0.005 C 
ENDBRANCH  25  26
ENDBRANCH  24  25
ENDBRANCH  23  24
ENDBRANCH  22  23
ENDBRANCH  21  22
ENDBRANCH  20  21
ENDBRANCH  19  20
ENDBRANCH  18  19
ENDBRANCH  17  18
ENDBRANCH   1  17
TORSDOF 18
BEGIN_RES ARG D 557
REMARK  4 active torsions:
REMARK  status: ('A' for Active; 'I' for Inactive)
REMARK    1  A    between atoms: CA   and  CB  
REMARK    2  A    between atoms: CB   and  CG  
REMARK    3  A    between atoms: CG   and  CD  
REMARK    4  A    between atoms: CD   and  NE  
REMARK       I    between atoms: NE   and  CZ  
REMARK       I    between atoms: CZ   and  NH1 
REMARK       I    between atoms: CZ   and  NH2 
ROOT
ATOM      1  CA  ARG D 557     -26.217   2.705 -17.014  1.00 35.49     0.159 C 
ENDROOT
BRANCH   1   2
ATOM      2  CB  ARG D 557     -26.789   1.319 -17.183  1.00 35.49     0.034 C 
BRANCH   2   3
ATOM      3  CG  ARG D 557     -25.947   0.199 -16.746  1.00 35.49     0.027 C 
BRANCH   3   4
ATOM      4  CD  ARG D 557     -26.715  -0.830 -16.009  1.00 35.49     0.116 C 
BRANCH   4   5
ATOM      5  NE  ARG D 557     -25.876  -1.615 -15.141  1.00 35.49    -0.212 N 
ATOM      6  CZ  ARG D 557     -25.989  -2.906 -14.925  1.00 35.49     0.666 C 
ATOM      7  NH1 ARG D 557     -26.928  -3.641 -15.493  1.00 35.49    -0.235 N 
ATOM      8  NH2 ARG D 557     -25.126  -3.458 -14.122  1.00 35.49    -0.235 N 
ATOM      9  HH  ARG D 557     -27.505  -3.298 -16.026  1.00 35.49     0.174 HD
ATOM     10  HH  ARG D 557     -26.951  -4.479 -15.316  1.00 35.49     0.174 HD
ATOM     11  HH  ARG D 557     -24.526  -2.961 -13.776  1.00 35.49     0.174 HD
ATOM     12  HH  ARG D 557     -25.165  -4.290 -13.961  1.00 35.49     0.174 HD
ATOM     13  HE  ARG D 557     -25.289  -1.209 -14.679  1.00 35.49     0.178 HD
ENDBRANCH   4   5
ENDBRANCH   3   4
ENDBRANCH   2   3
ENDBRANCH   1   2
END_RES ARG D 557
BEGIN_RES GLU D 570
REMARK  3 active torsions:
REMARK  status: ('A' for Active; 'I' for Inactive)
REMARK    5  A    between atoms: CA   and  CB  
REMARK    6  A    between atoms: CB   and  CG  
REMARK    7  A    between atoms: CG   and  CD  
ROOT
ATOM     14  CA  GLU D 570     -18.033  -6.348 -13.375  1.00 32.92     0.160 C 
ENDROOT
BRANCH  14  15
ATOM     15  CB  GLU D 570     -19.500  -6.345 -13.794  1.00 32.92     0.043 C 
BRANCH  15  16
ATOM     16  CG  GLU D 570     -20.446  -5.548 -12.970  1.00 32.92     0.100 C 
BRANCH  16  17
ATOM     17  CD  GLU D 570     -21.735  -5.232 -13.692  1.00 32.92     0.185 C 
ATOM     18  OE1 GLU D 570     -22.159  -6.031 -14.550  1.00 32.92    -0.647 OA
ATOM     19  OE2 GLU D 570     -22.317  -4.167 -13.409  1.00 32.92    -0.647 OA
ENDBRANCH  16  17
ENDBRANCH  15  16
ENDBRANCH  14  15
END_RES GLU D 570
ENDMDL
MODEL 3
REMARK VINA RESULT:      -6.7      1.560      2.103
REMARK  18 active torsions:
REMARK  status: ('A' for Active; 'I' for Inactive)
REMARK    1  A    between atoms: C_2  and  C_3 
REMARK    2  A    between atoms: C_3  and  C_4 
REMARK    3  A    between atoms: C_4  and  C_5 
REMARK    4  A    between atoms: C_5  and  C_6 
REMARK    5  A    between atoms: C_6  and  C_7 
REMARK    6  A    between atoms: C_7  and  C_8 
REMARK    7  A    between atoms: C_8  and  C_9 
REMARK    8  A    between atoms: C_9  and  C_10 
REMARK    9  A    between atoms: C_10  and  C_11 
REMARK   10  A    between atoms: C_11  and  C_12 
REMARK       I    between atoms: C_12  and  N_14 
REMARK   11  A    between atoms: N_14  and  C_15 
REMARK   12  A    between atoms: C_15  and  C_16 
REMARK   13  A    between atoms: C_16  and  C_17 
REMARK   14  A    between atoms: C_17  and  C_18 
REMARK   15  A    between atoms: C_18  and  C_19 
REMARK   16  A    between atoms: C_19  and  C_20 
REMARK   17  A    between atoms: C_19  and  N_23 
REMARK   18  A    between atoms: C_20  and  O_22 
ROOT
HETATM    1  C   UNK     1     -20.949  -6.120  -5.897  1.00  0.00     0.217 C 
HETATM    2  O   UNK     1     -20.751  -5.201  -5.113  1.00  0.00    -0.274 OA
HETATM    3  N   UNK     1     -20.650  -6.051  -7.243  1.00  0.00    -0.361 N 
HETATM    4  H   UNK     1     -20.799  -6.855  -7.841  1.00  0.00     0.162 HD
ENDROOT
BRANCH   3   5
HETATM    5  C   UNK     1     -20.075  -4.850  -7.817  1.00  0.00     0.122 C 
BRANCH   5   6
HETATM    6  C   UNK     1     -20.055  -4.900  -9.342  1.00  0.00     0.020 C 
BRANCH   6   7
HETATM    7  C   UNK     1     -21.052  -3.894  -9.899  1.00  0.00     0.004 C 
BRANCH   7   8
HETATM    8  C   UNK     1     -22.468  -4.465  -9.959  1.00  0.00     0.046 C 
BRANCH   8   9
HETATM    9  C   UNK     1     -23.474  -3.474  -9.372  1.00  0.00     0.314 C 
BRANCH   9  10
HETATM   10  C   UNK     1     -24.647  -3.245 -10.300  1.00  0.00     0.173 C 
HETATM   11  O   UNK     1     -25.788  -3.219  -9.847  1.00  0.00    -0.648 OA
BRANCH  10  12
HETATM   12  O   UNK     1     -24.360  -3.032 -11.597  1.00  0.00    -0.775 OA
HETATM   13  H   UNK     1     -24.761  -2.240 -12.001  1.00  0.00     0.167 HD
ENDBRANCH  10  12
ENDBRANCH   9  10
BRANCH   9  14
HETATM   14  N   UNK     1     -24.052  -4.060  -8.150  1.00  0.00     0.093 N 
HETATM   15  H   UNK     1     -25.066  -3.978  -8.262  1.00  0.00     0.314 HD
HETATM   16  H   UNK     1     -23.863  -3.437  -7.362  1.00  0.00     0.314 HD
ENDBRANCH   9  14
ENDBRANCH   8   9
ENDBRANCH   7   8
ENDBRANCH   6   7
ENDBRANCH   5   6
ENDBRANCH   3   5
BRANCH   1  17
HETATM   17  C   UNK     1     -21.564  -7.441  -5.454  1.00  0.00     0.103 C 
BRANCH  17  18
HETATM   18  C   UNK     1     -20.525  -8.256  -4.683  1.00  0.00     0.009 C 
BRANCH  18  19
HETATM   19  C   UNK     1     -21.164  -9.250  -3.725  1.00  0.00     0.000 C 
BRANCH  19  20
HETATM   20  C   UNK     1     -20.580  -9.082  -2.326  1.00  0.00     0.000 C 
BRANCH  20  21
HETATM   21  C   UNK     1     -20.646  -7.624  -1.901  1.00  0.00     0.000 C 
BRANCH  21  22
HETATM   22  C   UNK     1     -22.029  -7.294  -1.365  1.00  0.00     0.000 C 
BRANCH  22  23
HETATM   23  C   UNK     1     -22.122  -7.676   0.104  1.00  0.00     0.000 C 
BRANCH  23  24
HETATM   24  C   UNK     1     -23.305  -8.604   0.326  1.00  0.00     0.000 C 
BRANCH  24  25
HETATM   25  C   UNK     1     -22.851 -10.053   0.268  1.00  0.00    -0.000 C 
BRANCH  25  26
HETATM   26  C   UNK     1     -23.940 -10.929  -0.333  1.00  0.00    -0.005 C 
HETATM   27  C   UNK     1     -23.579 -11.319  -1.753  1.00  0.00     0.005 C 
ENDBRANCH  25  26
ENDBRANCH  24  25
ENDBRANCH  23  24
ENDBRANCH  22  23
ENDBRANCH  21  22
ENDBRANCH  20  21
ENDBRANCH  19  20
ENDBRANCH  18  19
ENDBRANCH  17  18
ENDBRANCH   1  17
TORSDOF 18
BEGIN_RES ARG D 557
REMARK  4 active torsions:
REMARK  status: ('A' for Active; 'I' for Inactive)
REMARK    1  A    between atoms: CA   and  CB  
REMARK    2  A    between atoms: CB   and  CG  
REMARK    3  A    between atoms: CG   and  CD  
REMARK    4  A    between atoms: CD   and  NE  
REMARK       I    between atoms: NE   and  CZ  
REMARK       I    between atoms: CZ   and  NH1 
REMARK       I    between atoms: CZ   and  NH2 
ROOT
ATOM      1  CA  ARG D 557     -26.217   2.705 -17.014  1.00 35.49     0.159 C 
ENDROOT
BRANCH   1   2
ATOM      2  CB  ARG D 557     -26.789   1.319 -17.183  1.00 35.49     0.034 C 
BRANCH   2   3
ATOM      3  CG  ARG D 557     -28.152   1.101 -16.683  1.00 35.49     0.027 C 
BRANCH   3   4
ATOM      4  CD  ARG D 557     -28.790  -0.091 -17.285  1.00 35.49     0.116 C 
BRANCH   4   5
ATOM      5  NE  ARG D 557     -28.175  -1.316 -16.846  1.00 35.49    -0.212 N 
ATOM      6  CZ  ARG D 557     -28.655  -2.526 -17.031  1.00 35.49     0.666 C 
ATOM      7  NH1 ARG D 557     -29.799  -2.748 -17.650  1.00 35.49    -0.235 N 
ATOM      8  NH2 ARG D 557     -27.952  -3.525 -16.582  1.00 35.49    -0.235 N 
ATOM      9  HH  ARG D 557     -30.277  -2.105 -17.955  1.00 35.49     0.174 HD
ATOM     10  HH  ARG D 557     -30.061  -3.559 -17.744  1.00 35.49     0.174 HD
ATOM     11  HH  ARG D 557     -27.213  -3.352 -16.193  1.00 35.49     0.174 HD
ATOM     12  HH  ARG D 557     -28.227  -4.320 -16.686  1.00 35.49     0.174 HD
ATOM     13  HE  ARG D 557     -27.470  -1.262 -16.374  1.00 35.49     0.178 HD
ENDBRANCH   4   5
ENDBRANCH   3   4
ENDBRANCH   2   3
ENDBRANCH   1   2
END_RES ARG D 557
BEGIN_RES GLU D 570
REMARK  3 active torsions:
REMARK  status: ('A' for Active; 'I' for Inactive)
REMARK    5  A    between atoms: CA   and  CB  
REMARK    6  A    between atoms: CB   and  CG  
REMARK    7  A    between atoms: CG   and  CD  
ROOT
ATOM     14  CA  GLU D 570     -18.033  -6.348 -13.375  1.00 32.92     0.160 C 
ENDROOT
BRANCH  14  15
ATOM     15  CB  GLU D 570     -19.500  -6.345 -13.794  1.00 32.92     0.043 C 
BRANCH  15  16
ATOM     16  CG  GLU D 570     -20.442  -5.530 -12.984  1.00 32.92     0.100 C 
BRANCH  16  17
ATOM     17  CD  GLU D 570     -21.741  -5.245 -13.700  1.00 32.92     0.185 C 
ATOM     18  OE1 GLU D 570     -22.212  -6.108 -14.466  1.00 32.92    -0.647 OA
ATOM     19  OE2 GLU D 570     -22.286  -4.141 -13.505  1.00 32.92    -0.647 OA
ENDBRANCH  16  17
ENDBRANCH  15  16
ENDBRANCH  14  15
END_RES GLU D 570
ENDMDL
MODEL 4
REMARK VINA RESULT:      -6.5      2.286      3.616
REMARK  18 active torsions:
REMARK  status: ('A' for Active; 'I' for Inactive)
REMARK    1  A    between atoms: C_2  and  C_3 
REMARK    2  A    between atoms: C_3  and  C_4 
REMARK    3  A    between atoms: C_4  and  C_5 
REMARK    4  A    between atoms: C_5  and  C_6 
REMARK    5  A    between atoms: C_6  and  C_7 
REMARK    6  A    between atoms: C_7  and  C_8 
REMARK    7  A    between atoms: C_8  and  C_9 
REMARK    8  A    between atoms: C_9  and  C_10 
REMARK    9  A    between atoms: C_10  and  C_11 
REMARK   10  A    between atoms: C_11  and  C_12 
REMARK       I    between atoms: C_12  and  N_14 
REMARK   11  A    between atoms: N_14  and  C_15 
REMARK   12  A    between atoms: C_15  and  C_16 
REMARK   13  A    between atoms: C_16  and  C_17 
REMARK   14  A    between atoms: C_17  and  C_18 
REMARK   15  A    between atoms: C_18  and  C_19 
REMARK   16  A    between atoms: C_19  and  C_20 
REMARK   17  A    between atoms: C_19  and  N_23 
REMARK   18  A    between atoms: C_20  and  O_22 
ROOT
HETATM    1  C   UNK     1     -21.721  -4.567  -7.273  1.00  0.00     0.217 C 
HETATM    2  O   UNK     1     -21.506  -3.373  -7.102  1.00  0.00    -0.274 OA
HETATM    3  N   UNK     1     -21.717  -5.171  -8.513  1.00  0.00    -0.361 N 
HETATM    4  H   UNK     1     -21.864  -6.170  -8.595  1.00  0.00     0.162 HD
ENDROOT
BRANCH   3   5
HETATM    5  C   UNK     1     -21.457  -4.402  -9.716  1.00  0.00     0.122 C 
BRANCH   5   6
HETATM    6  C   UNK     1     -22.720  -4.202 -10.549  1.00  0.00     0.020 C 
BRANCH   6   7
HETATM    7  C   UNK     1     -22.337  -3.845 -11.978  1.00  0.00     0.004 C 
BRANCH   7   8
HETATM    8  C   UNK     1     -22.903  -2.490 -12.401  1.00  0.00     0.046 C 
BRANCH   8   9
HETATM    9  C   UNK     1     -24.043  -2.672 -13.403  1.00  0.00     0.314 C 
BRANCH   9  10
HETATM   10  C   UNK     1     -23.933  -1.707 -14.563  1.00  0.00     0.173 C 
HETATM   11  O   UNK     1     -23.048  -1.857 -15.401  1.00  0.00    -0.648 OA
BRANCH  10  12
HETATM   12  O   UNK     1     -24.865  -0.741 -14.637  1.00  0.00    -0.775 OA
HETATM   13  H   UNK     1     -24.837  -0.062 -13.937  1.00  0.00     0.167 HD
ENDBRANCH  10  12
ENDBRANCH   9  10
BRANCH   9  14
HETATM   14  N   UNK     1     -23.934  -4.015 -14.000  1.00  0.00     0.093 N 
HETATM   15  H   UNK     1     -24.898  -4.339 -14.119  1.00  0.00     0.314 HD
HETATM   16  H   UNK     1     -23.565  -4.661 -13.300  1.00  0.00     0.314 HD
ENDBRANCH   9  14
ENDBRANCH   8   9
ENDBRANCH   7   8
ENDBRANCH   6   7
ENDBRANCH   5   6
ENDBRANCH   3   5
BRANCH   1  17
HETATM   17  C   UNK     1     -22.029  -5.505  -6.114  1.00  0.00     0.103 C 
BRANCH  17  18
HETATM   18  C   UNK     1     -20.765  -5.722  -5.282  1.00  0.00     0.009 C 
BRANCH  18  19
HETATM   19  C   UNK     1     -20.584  -7.176  -4.872  1.00  0.00     0.000 C 
BRANCH  19  20
HETATM   20  C   UNK     1     -21.166  -7.407  -3.481  1.00  0.00     0.000 C 
BRANCH  20  21
HETATM   21  C   UNK     1     -21.435  -6.077  -2.797  1.00  0.00     0.000 C 
BRANCH  21  22
HETATM   22  C   UNK     1     -22.227  -6.293  -1.519  1.00  0.00     0.000 C 
BRANCH  22  23
HETATM   23  C   UNK     1     -22.163  -7.755  -1.107  1.00  0.00     0.000 C 
BRANCH  23  24
HETATM   24  C   UNK     1     -22.294  -7.878   0.402  1.00  0.00     0.000 C 
BRANCH  24  25
HETATM   25  C   UNK     1     -21.288  -8.886   0.933  1.00  0.00    -0.000 C 
BRANCH  25  26
HETATM   26  C   UNK     1     -21.541 -10.259   0.329  1.00  0.00    -0.005 C 
HETATM   27  C   UNK     1     -20.420 -11.212   0.698  1.00  0.00     0.005 C 
ENDBRANCH  25  26
ENDBRANCH  24  25
ENDBRANCH  23  24
ENDBRANCH  22  23
ENDBRANCH  21  22
ENDBRANCH  20  21
ENDBRANCH  19  20
ENDBRANCH  18  19
ENDBRANCH  17  18
ENDBRANCH   1  17
TORSDOF 18
BEGIN_RES ARG D 557
REMARK  4 active torsions:
REMARK  status: ('A' for Active; 'I' for Inactive)
REMARK    1  A    between atoms: CA   and  CB  
REMARK    2  A    between atoms: CB   and  CG  
REMARK    3  A    between atoms: CG   and  CD  
REMARK    4  A    between atoms: CD   and  NE  
REMARK       I    between atoms: NE   and  CZ  
REMARK       I    between atoms: CZ   and  NH1 
REMARK       I    between atoms: CZ   and  NH2 
ROOT
ATOM      1  CA  ARG D 557     -26.217   2.705 -17.014  1.00 35.49     0.159 C 
ENDROOT
BRANCH   1   2
ATOM      2  CB  ARG D 557     -26.789   1.319 -17.183  1.00 35.49     0.034 C 
BRANCH   2   3
ATOM      3  CG  ARG D 557     -28.227   1.227 -17.465  1.00 35.49     0.027 C 
BRANCH   3   4
ATOM      4  CD  ARG D 557     -28.928   0.316 -16.532  1.00 35.49     0.116 C 
BRANCH   4   5
ATOM      5  NE  ARG D 557     -29.216  -0.959 -17.133  1.00 35.49    -0.212 N 
ATOM      6  CZ  ARG D 557     -28.518  -2.061 -16.969  1.00 35.49     0.666 C 
ATOM      7  NH1 ARG D 557     -27.433  -2.107 -16.218  1.00 35.49    -0.235 N 
ATOM      8  NH2 ARG D 557     -28.938  -3.133 -17.575  1.00 35.49    -0.235 N 
ATOM      9  HH  ARG D 557     -27.140  -1.414 -15.809  1.00 35.49     0.174 HD
ATOM     10  HH  ARG D 557     -27.020  -2.855 -16.146  1.00 35.49     0.174 HD
ATOM     11  HH  ARG D 557     -29.646  -3.075 -18.047  1.00 35.49     0.174 HD
ATOM     12  HH  ARG D 557     -28.516  -3.864 -17.489  1.00 35.49     0.174 HD
ATOM     13  HE  ARG D 557     -29.857  -1.003 -17.691  1.00 35.49     0.178 HD
ENDBRANCH   4   5
ENDBRANCH   3   4
ENDBRANCH   2   3
ENDBRANCH   1   2
END_RES ARG D 557
BEGIN_RES GLU D 570
REMARK  3 active torsions:
REMARK  status: ('A' for Active; 'I' for Inactive)
REMARK    5  A    between atoms: CA   and  CB  
REMARK    6  A    between atoms: CB   and  CG  
REMARK    7  A    between atoms: CG   and  CD  
ROOT
ATOM     14  CA  GLU D 570     -18.033  -6.348 -13.375  1.00 32.92     0.160 C 
ENDROOT
BRANCH  14  15
ATOM     15  CB  GLU D 570     -19.500  -6.345 -13.794  1.00 32.92     0.043 C 
BRANCH  15  16
ATOM     16  CG  GLU D 570     -19.796  -6.278 -15.248  1.00 32.92     0.100 C 
BRANCH  16  17
ATOM     17  CD  GLU D 570     -21.249  -5.984 -15.541  1.00 32.92     0.185 C 
ATOM     18  OE1 GLU D 570     -22.074  -6.918 -15.509  1.00 32.92    -0.647 OA
ATOM     19  OE2 GLU D 570     -21.563  -4.811 -15.821  1.00 32.92    -0.647 OA
ENDBRANCH  16  17
ENDBRANCH  15  16
ENDBRANCH  14  15
END_RES GLU D 570
ENDMDL
MODEL 5
REMARK VINA RESULT:      -6.5      1.879      2.820
REMARK  18 active torsions:
REMARK  status: ('A' for Active; 'I' for Inactive)
REMARK    1  A    between atoms: C_2  and  C_3 
REMARK    2  A    between atoms: C_3  and  C_4 
REMARK    3  A    between atoms: C_4  and  C_5 
REMARK    4  A    between atoms: C_5  and  C_6 
REMARK    5  A    between atoms: C_6  and  C_7 
REMARK    6  A    between atoms: C_7  and  C_8 
REMARK    7  A    between atoms: C_8  and  C_9 
REMARK    8  A    between atoms: C_9  and  C_10 
REMARK    9  A    between atoms: C_10  and  C_11 
REMARK   10  A    between atoms: C_11  and  C_12 
REMARK       I    between atoms: C_12  and  N_14 
REMARK   11  A    between atoms: N_14  and  C_15 
REMARK   12  A    between atoms: C_15  and  C_16 
REMARK   13  A    between atoms: C_16  and  C_17 
REMARK   14  A    between atoms: C_17  and  C_18 
REMARK   15  A    between atoms: C_18  and  C_19 
REMARK   16  A    between atoms: C_19  and  C_20 
REMARK   17  A    between atoms: C_19  and  N_23 
REMARK   18  A    between atoms: C_20  and  O_22 
ROOT
HETATM    1  C   UNK     1     -21.460  -4.605  -7.111  1.00  0.00     0.217 C 
HETATM    2  O   UNK     1     -22.669  -4.446  -7.003  1.00  0.00    -0.274 OA
HETATM    3  N   UNK     1     -20.774  -4.440  -8.297  1.00  0.00    -0.361 N 
HETATM    4  H   UNK     1     -19.767  -4.548  -8.324  1.00  0.00     0.162 HD
ENDROOT
BRANCH   3   5
HETATM    5  C   UNK     1     -21.469  -4.065  -9.514  1.00  0.00     0.122 C 
BRANCH   5   6
HETATM    6  C   UNK     1     -20.541  -4.069 -10.726  1.00  0.00     0.020 C 
BRANCH   6   7
HETATM    7  C   UNK     1     -21.360  -3.891 -11.996  1.00  0.00     0.004 C 
BRANCH   7   8
HETATM    8  C   UNK     1     -22.252  -2.652 -11.933  1.00  0.00     0.046 C 
BRANCH   8   9
HETATM    9  C   UNK     1     -23.589  -2.916 -12.625  1.00  0.00     0.314 C 
BRANCH   9  10
HETATM   10  C   UNK     1     -23.627  -2.334 -14.021  1.00  0.00     0.173 C 
HETATM   11  O   UNK     1     -23.392  -3.053 -14.989  1.00  0.00    -0.648 OA
BRANCH  10  12
HETATM   12  O   UNK     1     -23.968  -1.037 -14.128  1.00  0.00    -0.775 OA
HETATM   13  H   UNK     1     -24.346  -0.625 -13.328  1.00  0.00     0.167 HD
ENDBRANCH  10  12
ENDBRANCH   9  10
BRANCH   9  14
HETATM   14  N   UNK     1     -23.747  -4.370 -12.804  1.00  0.00     0.093 N 
HETATM   15  H   UNK     1     -24.586  -4.485 -13.379  1.00  0.00     0.314 HD
HETATM   16  H   UNK     1     -24.027  -4.786 -11.914  1.00  0.00     0.314 HD
ENDBRANCH   9  14
ENDBRANCH   8   9
ENDBRANCH   7   8
ENDBRANCH   6   7
ENDBRANCH   5   6
ENDBRANCH   3   5
BRANCH   1  17
HETATM   17  C   UNK     1     -20.591  -5.017  -5.931  1.00  0.00     0.103 C 
BRANCH  17  18
HETATM   18  C   UNK     1     -20.990  -6.418  -5.466  1.00  0.00     0.009 C 
BRANCH  18  19
HETATM   19  C   UNK     1     -21.870  -6.388  -4.225  1.00  0.00     0.000 C 
BRANCH  19  20
HETATM   20  C   UNK     1     -21.538  -7.566  -3.316  1.00  0.00     0.000 C 
BRANCH  20  21
HETATM   21  C   UNK     1     -21.101  -7.066  -1.948  1.00  0.00     0.000 C 
BRANCH  21  22
HETATM   22  C   UNK     1     -22.310  -6.868  -1.049  1.00  0.00     0.000 C 
BRANCH  22  23
HETATM   23  C   UNK     1     -22.153  -7.687   0.222  1.00  0.00     0.000 C 
BRANCH  23  24
HETATM   24  C   UNK     1     -23.302  -8.674   0.350  1.00  0.00     0.000 C 
BRANCH  24  25
HETATM   25  C   UNK     1     -22.986  -9.946  -0.419  1.00  0.00    -0.000 C 
BRANCH  25  26
HETATM   26  C   UNK     1     -23.926 -11.068  -0.002  1.00  0.00    -0.005 C 
HETATM   27  C   UNK     1     -24.033 -12.104  -1.104  1.00  0.00     0.005 C 
ENDBRANCH  25  26
ENDBRANCH  24  25
ENDBRANCH  23  24
ENDBRANCH  22  23
ENDBRANCH  21  22
ENDBRANCH  20  21
ENDBRANCH  19  20
ENDBRANCH  18  19
ENDBRANCH  17  18
ENDBRANCH   1  17
TORSDOF 18
BEGIN_RES ARG D 557
REMARK  4 active torsions:
REMARK  status: ('A' for Active; 'I' for Inactive)
REMARK    1  A    between atoms: CA   and  CB  
REMARK    2  A    between atoms: CB   and  CG  
REMARK    3  A    between atoms: CG   and  CD  
REMARK    4  A    between atoms: CD   and  NE  
REMARK       I    between atoms: NE   and  CZ  
REMARK       I    between atoms: CZ   and  NH1 
REMARK       I    between atoms: CZ   and  NH2 
ROOT
ATOM      1  CA  ARG D 557     -26.217   2.705 -17.014  1.00 35.49     0.159 C 
ENDROOT
BRANCH   1   2
ATOM      2  CB  ARG D 557     -26.789   1.319 -17.183  1.00 35.49     0.034 C 
BRANCH   2   3
ATOM      3  CG  ARG D 557     -26.247   0.270 -16.311  1.00 35.49     0.027 C 
BRANCH   3   4
ATOM      4  CD  ARG D 557     -27.182  -0.866 -16.147  1.00 35.49     0.116 C 
BRANCH   4   5
ATOM      5  NE  ARG D 557     -26.533  -2.029 -15.601  1.00 35.49    -0.212 N 
ATOM      6  CZ  ARG D 557     -26.907  -3.275 -15.786  1.00 35.49     0.666 C 
ATOM      7  NH1 ARG D 557     -27.965  -3.599 -16.507  1.00 35.49    -0.235 N 
ATOM      8  NH2 ARG D 557     -26.186  -4.207 -15.232  1.00 35.49    -0.235 N 
ATOM      9  HH  ARG D 557     -28.452  -3.002 -16.882  1.00 35.49     0.174 HD
ATOM     10  HH  ARG D 557     -28.159  -4.429 -16.595  1.00 35.49     0.174 HD
ATOM     11  HH  ARG D 557     -25.504  -3.969 -14.779  1.00 35.49     0.174 HD
ATOM     12  HH  ARG D 557     -26.394  -5.023 -15.333  1.00 35.49     0.174 HD
ATOM     13  HE  ARG D 557     -25.884  -1.909 -15.065  1.00 35.49     0.178 HD
ENDBRANCH   4   5
ENDBRANCH   3   4
ENDBRANCH   2   3
ENDBRANCH   1   2
END_RES ARG D 557
BEGIN_RES GLU D 570
REMARK  3 active torsions:
REMARK  status: ('A' for Active; 'I' for Inactive)
REMARK    5  A    between atoms: CA   and  CB  
REMARK    6  A    between atoms: CB   and  CG  
REMARK    7  A    between atoms: CG   and  CD  
ROOT
ATOM     14  CA  GLU D 570     -18.033  -6.348 -13.375  1.00 32.92     0.160 C 
ENDROOT
BRANCH  14  15
ATOM     15  CB  GLU D 570     -19.500  -6.345 -13.794  1.00 32.92     0.043 C 
BRANCH  15  16
ATOM     16  CG  GLU D 570     -19.804  -6.064 -15.221  1.00 32.92     0.100 C 
BRANCH  16  17
ATOM     17  CD  GLU D 570     -21.275  -5.834 -15.476  1.00 32.92     0.185 C 
ATOM     18  OE1 GLU D 570     -22.100  -6.168 -14.604  1.00 32.92    -0.647 OA
ATOM     19  OE2 GLU D 570     -21.608  -5.330 -16.567  1.00 32.92    -0.647 OA
ENDBRANCH  16  17
ENDBRANCH  15  16
ENDBRANCH  14  15
END_RES GLU D 570
ENDMDL
MODEL 6
REMARK VINA RESULT:      -6.5      2.038      3.825
REMARK  18 active torsions:
REMARK  status: ('A' for Active; 'I' for Inactive)
REMARK    1  A    between atoms: C_2  and  C_3 
REMARK    2  A    between atoms: C_3  and  C_4 
REMARK    3  A    between atoms: C_4  and  C_5 
REMARK    4  A    between atoms: C_5  and  C_6 
REMARK    5  A    between atoms: C_6  and  C_7 
REMARK    6  A    between atoms: C_7  and  C_8 
REMARK    7  A    between atoms: C_8  and  C_9 
REMARK    8  A    between atoms: C_9  and  C_10 
REMARK    9  A    between atoms: C_10  and  C_11 
REMARK   10  A    between atoms: C_11  and  C_12 
REMARK       I    between atoms: C_12  and  N_14 
REMARK   11  A    between atoms: N_14  and  C_15 
REMARK   12  A    between atoms: C_15  and  C_16 
REMARK   13  A    between atoms: C_16  and  C_17 
REMARK   14  A    between atoms: C_17  and  C_18 
REMARK   15  A    between atoms: C_18  and  C_19 
REMARK   16  A    between atoms: C_19  and  C_20 
REMARK   17  A    between atoms: C_19  and  N_23 
REMARK   18  A    between atoms: C_20  and  O_22 
ROOT
HETATM    1  C   UNK     1     -22.556  -4.085  -7.572  1.00  0.00     0.217 C 
HETATM    2  O   UNK     1     -23.403  -4.592  -6.848  1.00  0.00    -0.274 OA
HETATM    3  N   UNK     1     -22.839  -3.531  -8.803  1.00  0.00    -0.361 N 
HETATM    4  H   UNK     1     -22.107  -3.091  -9.347  1.00  0.00     0.162 HD
ENDROOT
BRANCH   3   5
HETATM    5  C   UNK     1     -24.194  -3.525  -9.324  1.00  0.00     0.122 C 
BRANCH   5   6
HETATM    6  C   UNK     1     -24.225  -3.303 -10.833  1.00  0.00     0.020 C 
BRANCH   6   7
HETATM    7  C   UNK     1     -22.869  -3.653 -11.428  1.00  0.00     0.004 C 
BRANCH   7   8
HETATM    8  C   UNK     1     -22.708  -3.111 -12.847  1.00  0.00     0.046 C 
BRANCH   8   9
HETATM    9  C   UNK     1     -24.057  -3.067 -13.563  1.00  0.00     0.314 C 
BRANCH   9  10
HETATM   10  C   UNK     1     -24.078  -2.028 -14.664  1.00  0.00     0.173 C 
HETATM   11  O   UNK     1     -25.049  -1.286 -14.785  1.00  0.00    -0.648 OA
BRANCH  10  12
HETATM   12  O   UNK     1     -22.983  -1.946 -15.439  1.00  0.00    -0.775 OA
HETATM   13  H   UNK     1     -22.912  -1.151 -16.000  1.00  0.00     0.167 HD
ENDBRANCH  10  12
ENDBRANCH   9  10
BRANCH   9  14
HETATM   14  N   UNK     1     -24.273  -4.358 -14.240  1.00  0.00     0.093 N 
HETATM   15  H   UNK     1     -25.232  -4.631 -14.007  1.00  0.00     0.314 HD
HETATM   16  H   UNK     1     -23.716  -5.075 -13.773  1.00  0.00     0.314 HD
ENDBRANCH   9  14
ENDBRANCH   8   9
ENDBRANCH   7   8
ENDBRANCH   6   7
ENDBRANCH   5   6
ENDBRANCH   3   5
BRANCH   1  17
HETATM   17  C   UNK     1     -21.087  -4.029  -7.178  1.00  0.00     0.103 C 
BRANCH  17  18
HETATM   18  C   UNK     1     -20.530  -5.450  -7.075  1.00  0.00     0.009 C 
BRANCH  18  19
HETATM   19  C   UNK     1     -20.431  -5.930  -5.635  1.00  0.00     0.000 C 
BRANCH  19  20
HETATM   20  C   UNK     1     -21.002  -7.339  -5.510  1.00  0.00     0.000 C 
BRANCH  20  21
HETATM   21  C   UNK     1     -20.459  -8.017  -4.263  1.00  0.00     0.000 C 
BRANCH  21  22
HETATM   22  C   UNK     1     -21.576  -8.732  -3.523  1.00  0.00     0.000 C 
BRANCH  22  23
HETATM   23  C   UNK     1     -21.021  -9.432  -2.293  1.00  0.00     0.000 C 
BRANCH  23  24
HETATM   24  C   UNK     1     -21.939 -10.572  -1.883  1.00  0.00     0.000 C 
BRANCH  24  25
HETATM   25  C   UNK     1     -22.907 -10.102  -0.809  1.00  0.00    -0.000 C 
BRANCH  25  26
HETATM   26  C   UNK     1     -22.203  -9.182   0.177  1.00  0.00    -0.005 C 
HETATM   27  C   UNK     1     -23.086  -7.997   0.515  1.00  0.00     0.005 C 
ENDBRANCH  25  26
ENDBRANCH  24  25
ENDBRANCH  23  24
ENDBRANCH  22  23
ENDBRANCH  21  22
ENDBRANCH  20  21
ENDBRANCH  19  20
ENDBRANCH  18  19
ENDBRANCH  17  18
ENDBRANCH   1  17
TORSDOF 18
BEGIN_RES ARG D 557
REMARK  4 active torsions:
REMARK  status: ('A' for Active; 'I' for Inactive)
REMARK    1  A    between atoms: CA   and  CB  
REMARK    2  A    between atoms: CB   and  CG  
REMARK    3  A    between atoms: CG   and  CD  
REMARK    4  A    between atoms: CD   and  NE  
REMARK       I    between atoms: NE   and  CZ  
REMARK       I    between atoms: CZ   and  NH1 
REMARK       I    between atoms: CZ   and  NH2 
ROOT
ATOM      1  CA  ARG D 557     -26.217   2.705 -17.014  1.00 35.49     0.159 C 
ENDROOT
BRANCH   1   2
ATOM      2  CB  ARG D 557     -26.789   1.319 -17.183  1.00 35.49     0.034 C 
BRANCH   2   3
ATOM      3  CG  ARG D 557     -28.236   1.225 -17.414  1.00 35.49     0.027 C 
BRANCH   3   4
ATOM      4  CD  ARG D 557     -28.892   0.264 -16.498  1.00 35.49     0.116 C 
BRANCH   4   5
ATOM      5  NE  ARG D 557     -28.016  -0.817 -16.127  1.00 35.49    -0.212 N 
ATOM      6  CZ  ARG D 557     -28.102  -2.057 -16.554  1.00 35.49     0.666 C 
ATOM      7  NH1 ARG D 557     -29.046  -2.456 -17.387  1.00 35.49    -0.235 N 
ATOM      8  NH2 ARG D 557     -27.208  -2.901 -16.130  1.00 35.49    -0.235 N 
ATOM      9  HH  ARG D 557     -29.643  -1.916 -17.680  1.00 35.49     0.174 HD
ATOM     10  HH  ARG D 557     -29.051  -3.277 -17.633  1.00 35.49     0.174 HD
ATOM     11  HH  ARG D 557     -26.606  -2.614 -15.598  1.00 35.49     0.174 HD
ATOM     12  HH  ARG D 557     -27.229  -3.709 -16.386  1.00 35.49     0.174 HD
ATOM     13  HE  ARG D 557     -27.422  -0.665 -15.538  1.00 35.49     0.178 HD
ENDBRANCH   4   5
ENDBRANCH   3   4
ENDBRANCH   2   3
ENDBRANCH   1   2
END_RES ARG D 557
BEGIN_RES GLU D 570
REMARK  3 active torsions:
REMARK  status: ('A' for Active; 'I' for Inactive)
REMARK    5  A    between atoms: CA   and  CB  
REMARK    6  A    between atoms: CB   and  CG  
REMARK    7  A    between atoms: CG   and  CD  
ROOT
ATOM     14  CA  GLU D 570     -18.033  -6.348 -13.375  1.00 32.92     0.160 C 
ENDROOT
BRANCH  14  15
ATOM     15  CB  GLU D 570     -19.500  -6.345 -13.794  1.00 32.92     0.043 C 
BRANCH  15  16
ATOM     16  CG  GLU D 570     -19.820  -5.860 -15.162  1.00 32.92     0.100 C 
BRANCH  16  17
ATOM     17  CD  GLU D 570     -21.293  -5.590 -15.361  1.00 32.92     0.185 C 
ATOM     18  OE1 GLU D 570     -21.643  -4.561 -15.970  1.00 32.92    -0.647 OA
ATOM     19  OE2 GLU D 570     -22.107  -6.408 -14.889  1.00 32.92    -0.647 OA
ENDBRANCH  16  17
ENDBRANCH  15  16
ENDBRANCH  14  15
END_RES GLU D 570
ENDMDL
MODEL 7
REMARK VINA RESULT:      -6.3      1.733      2.283
REMARK  18 active torsions:
REMARK  status: ('A' for Active; 'I' for Inactive)
REMARK    1  A    between atoms: C_2  and  C_3 
REMARK    2  A    between atoms: C_3  and  C_4 
REMARK    3  A    between atoms: C_4  and  C_5 
REMARK    4  A    between atoms: C_5  and  C_6 
REMARK    5  A    between atoms: C_6  and  C_7 
REMARK    6  A    between atoms: C_7  and  C_8 
REMARK    7  A    between atoms: C_8  and  C_9 
REMARK    8  A    between atoms: C_9  and  C_10 
REMARK    9  A    between atoms: C_10  and  C_11 
REMARK   10  A    between atoms: C_11  and  C_12 
REMARK       I    between atoms: C_12  and  N_14 
REMARK   11  A    between atoms: N_14  and  C_15 
REMARK   12  A    between atoms: C_15  and  C_16 
REMARK   13  A    between atoms: C_16  and  C_17 
REMARK   14  A    between atoms: C_17  and  C_18 
REMARK   15  A    between atoms: C_18  and  C_19 
REMARK   16  A    between atoms: C_19  and  C_20 
REMARK   17  A    between atoms: C_19  and  N_23 
REMARK   18  A    between atoms: C_20  and  O_22 
ROOT
HETATM    1  C   UNK     1     -20.676  -6.719  -5.750  1.00  0.00     0.217 C 
HETATM    2  O   UNK     1     -19.793  -7.530  -5.997  1.00  0.00    -0.274 OA
HETATM    3  N   UNK     1     -20.626  -5.397  -6.141  1.00  0.00    -0.361 N 
HETATM    4  H   UNK     1     -21.401  -4.776  -5.944  1.00  0.00     0.162 HD
ENDROOT
BRANCH   3   5
HETATM    5  C   UNK     1     -19.489  -4.881  -6.880  1.00  0.00     0.122 C 
BRANCH   5   6
HETATM    6  C   UNK     1     -19.920  -4.083  -8.107  1.00  0.00     0.020 C 
BRANCH   6   7
HETATM    7  C   UNK     1     -21.136  -4.741  -8.743  1.00  0.00     0.004 C 
BRANCH   7   8
HETATM    8  C   UNK     1     -21.839  -3.813  -9.732  1.00  0.00     0.046 C 
BRANCH   8   9
HETATM    9  C   UNK     1     -21.341  -4.067 -11.155  1.00  0.00     0.314 C 
BRANCH   9  10
HETATM   10  C   UNK     1     -22.454  -3.939 -12.173  1.00  0.00     0.173 C 
HETATM   11  O   UNK     1     -23.538  -4.477 -11.963  1.00  0.00    -0.648 OA
BRANCH  10  12
HETATM   12  O   UNK     1     -22.199  -3.186 -13.257  1.00  0.00    -0.775 OA
HETATM   13  H   UNK     1     -21.368  -3.381 -13.731  1.00  0.00     0.167 HD
ENDBRANCH  10  12
ENDBRANCH   9  10
BRANCH   9  14
HETATM   14  N   UNK     1     -20.368  -3.017 -11.507  1.00  0.00     0.093 N 
HETATM   15  H   UNK     1     -20.278  -3.060 -12.526  1.00  0.00     0.314 HD
HETATM   16  H   UNK     1     -19.441  -3.303 -11.187  1.00  0.00     0.314 HD
ENDBRANCH   9  14
ENDBRANCH   8   9
ENDBRANCH   7   8
ENDBRANCH   6   7
ENDBRANCH   5   6
ENDBRANCH   3   5
BRANCH   1  17
HETATM   17  C   UNK     1     -21.925  -7.099  -4.967  1.00  0.00     0.103 C 
BRANCH  17  18
HETATM   18  C   UNK     1     -21.548  -7.404  -3.518  1.00  0.00     0.009 C 
BRANCH  18  19
HETATM   19  C   UNK     1     -21.613  -6.170  -2.630  1.00  0.00     0.000 C 
BRANCH  19  20
HETATM   20  C   UNK     1     -22.320  -6.501  -1.320  1.00  0.00     0.000 C 
BRANCH  20  21
HETATM   21  C   UNK     1     -21.701  -7.736  -0.686  1.00  0.00     0.000 C 
BRANCH  21  22
HETATM   22  C   UNK     1     -22.725  -8.454   0.177  1.00  0.00     0.000 C 
BRANCH  22  23
HETATM   23  C   UNK     1     -22.538  -9.958   0.062  1.00  0.00     0.000 C 
BRANCH  23  24
HETATM   24  C   UNK     1     -23.861 -10.623  -0.281  1.00  0.00     0.000 C 
BRANCH  24  25
HETATM   25  C   UNK     1     -23.765 -12.124  -0.059  1.00  0.00    -0.000 C 
BRANCH  25  26
HETATM   26  C   UNK     1     -22.507 -12.466   0.726  1.00  0.00    -0.005 C 
HETATM   27  C   UNK     1     -22.787 -13.588   1.706  1.00  0.00     0.005 C 
ENDBRANCH  25  26
ENDBRANCH  24  25
ENDBRANCH  23  24
ENDBRANCH  22  23
ENDBRANCH  21  22
ENDBRANCH  20  21
ENDBRANCH  19  20
ENDBRANCH  18  19
ENDBRANCH  17  18
ENDBRANCH   1  17
TORSDOF 18
BEGIN_RES ARG D 557
REMARK  4 active torsions:
REMARK  status: ('A' for Active; 'I' for Inactive)
REMARK    1  A    between atoms: CA   and  CB  
REMARK    2  A    between atoms: CB   and  CG  
REMARK    3  A    between atoms: CG   and  CD  
REMARK    4  A    between atoms: CD   and  NE  
REMARK       I    between atoms: NE   and  CZ  
REMARK       I    between atoms: CZ   and  NH1 
REMARK       I    between atoms: CZ   and  NH2 
ROOT
ATOM      1  CA  ARG D 557     -26.217   2.705 -17.014  1.00 35.49     0.159 C 
ENDROOT
BRANCH   1   2
ATOM      2  CB  ARG D 557     -26.789   1.319 -17.183  1.00 35.49     0.034 C 
BRANCH   2   3
ATOM      3  CG  ARG D 557     -26.057   0.220 -16.542  1.00 35.49     0.027 C 
BRANCH   3   4
ATOM      4  CD  ARG D 557     -26.959  -0.739 -15.864  1.00 35.49     0.116 C 
BRANCH   4   5
ATOM      5  NE  ARG D 557     -26.301  -1.982 -15.560  1.00 35.49    -0.212 N 
ATOM      6  CZ  ARG D 557     -25.260  -2.127 -14.770  1.00 35.49     0.666 C 
ATOM      7  NH1 ARG D 557     -24.683  -1.107 -14.163  1.00 35.49    -0.235 N 
ATOM      8  NH2 ARG D 557     -24.806  -3.334 -14.592  1.00 35.49    -0.235 N 
ATOM      9  HH  ARG D 557     -24.967  -0.305 -14.264  1.00 35.49     0.174 HD
ATOM     10  HH  ARG D 557     -24.009  -1.263 -13.658  1.00 35.49     0.174 HD
ATOM     11  HH  ARG D 557     -25.203  -3.974 -14.991  1.00 35.49     0.174 HD
ATOM     12  HH  ARG D 557     -24.138  -3.467 -14.087  1.00 35.49     0.174 HD
ATOM     13  HE  ARG D 557     -26.562  -2.682 -15.966  1.00 35.49     0.178 HD
ENDBRANCH   4   5
ENDBRANCH   3   4
ENDBRANCH   2   3
ENDBRANCH   1   2
END_RES ARG D 557
BEGIN_RES GLU D 570
REMARK  3 active torsions:
REMARK  status: ('A' for Active; 'I' for Inactive)
REMARK    5  A    between atoms: CA   and  CB  
REMARK    6  A    between atoms: CB   and  CG  
REMARK    7  A    between atoms: CG   and  CD  
ROOT
ATOM     14  CA  GLU D 570     -18.033  -6.348 -13.375  1.00 32.92     0.160 C 
ENDROOT
BRANCH  14  15
ATOM     15  CB  GLU D 570     -19.500  -6.345 -13.794  1.00 32.92     0.043 C 
BRANCH  15  16
ATOM     16  CG  GLU D 570     -19.801  -6.114 -15.230  1.00 32.92     0.100 C 
BRANCH  16  17
ATOM     17  CD  GLU D 570     -21.220  -5.653 -15.468  1.00 32.92     0.185 C 
ATOM     18  OE1 GLU D 570     -21.449  -4.850 -16.393  1.00 32.92    -0.647 OA
ATOM     19  OE2 GLU D 570     -22.111  -6.087 -14.711  1.00 32.92    -0.647 OA
ENDBRANCH  16  17
ENDBRANCH  15  16
ENDBRANCH  14  15
END_RES GLU D 570
ENDMDL
MODEL 8
REMARK VINA RESULT:      -6.2      1.811      2.235
REMARK  18 active torsions:
REMARK  status: ('A' for Active; 'I' for Inactive)
REMARK    1  A    between atoms: C_2  and  C_3 
REMARK    2  A    between atoms: C_3  and  C_4 
REMARK    3  A    between atoms: C_4  and  C_5 
REMARK    4  A    between atoms: C_5  and  C_6 
REMARK    5  A    between atoms: C_6  and  C_7 
REMARK    6  A    between atoms: C_7  and  C_8 
REMARK    7  A    between atoms: C_8  and  C_9 
REMARK    8  A    between atoms: C_9  and  C_10 
REMARK    9  A    between atoms: C_10  and  C_11 
REMARK   10  A    between atoms: C_11  and  C_12 
REMARK       I    between atoms: C_12  and  N_14 
REMARK   11  A    between atoms: N_14  and  C_15 
REMARK   12  A    between atoms: C_15  and  C_16 
REMARK   13  A    between atoms: C_16  and  C_17 
REMARK   14  A    between atoms: C_17  and  C_18 
REMARK   15  A    between atoms: C_18  and  C_19 
REMARK   16  A    between atoms: C_19  and  C_20 
REMARK   17  A    between atoms: C_19  and  N_23 
REMARK   18  A    between atoms: C_20  and  O_22 
ROOT
HETATM    1  C   UNK     1     -21.203  -6.671  -5.536  1.00  0.00     0.217 C 
HETATM    2  O   UNK     1     -20.886  -7.351  -6.503  1.00  0.00    -0.274 OA
HETATM    3  N   UNK     1     -20.968  -5.314  -5.449  1.00  0.00    -0.361 N 
HETATM    4  H   UNK     1     -21.285  -4.792  -4.642  1.00  0.00     0.162 HD
ENDROOT
BRANCH   3   5
HETATM    5  C   UNK     1     -20.308  -4.602  -6.527  1.00  0.00     0.122 C 
BRANCH   5   6
HETATM    6  C   UNK     1     -21.230  -3.581  -7.186  1.00  0.00     0.020 C 
BRANCH   6   7
HETATM    7  C   UNK     1     -22.440  -4.291  -7.776  1.00  0.00     0.004 C 
BRANCH   7   8
HETATM    8  C   UNK     1     -22.399  -4.319  -9.303  1.00  0.00     0.046 C 
BRANCH   8   9
HETATM    9  C   UNK     1     -23.435  -3.358  -9.886  1.00  0.00     0.314 C 
BRANCH   9  10
HETATM   10  C   UNK     1     -24.005  -3.868 -11.192  1.00  0.00     0.173 C 
HETATM   11  O   UNK     1     -23.579  -4.913 -11.677  1.00  0.00    -0.648 OA
BRANCH  10  12
HETATM   12  O   UNK     1     -25.003  -3.152 -11.739  1.00  0.00    -0.775 OA
HETATM   13  H   UNK     1     -25.846  -3.145 -11.248  1.00  0.00     0.167 HD
ENDBRANCH  10  12
ENDBRANCH   9  10
BRANCH   9  14
HETATM   14  N   UNK     1     -24.582  -3.285  -8.963  1.00  0.00     0.093 N 
HETATM   15  H   UNK     1     -24.188  -2.998  -8.063  1.00  0.00     0.314 HD
HETATM   16  H   UNK     1     -24.914  -4.232  -8.771  1.00  0.00     0.314 HD
ENDBRANCH   9  14
ENDBRANCH   8   9
ENDBRANCH   7   8
ENDBRANCH   6   7
ENDBRANCH   5   6
ENDBRANCH   3   5
BRANCH   1  17
HETATM   17  C   UNK     1     -21.888  -7.273  -4.316  1.00  0.00     0.103 C 
BRANCH  17  18
HETATM   18  C   UNK     1     -21.577  -6.424  -3.084  1.00  0.00     0.009 C 
BRANCH  18  19
HETATM   19  C   UNK     1     -21.347  -7.269  -1.840  1.00  0.00     0.000 C 
BRANCH  19  20
HETATM   20  C   UNK     1     -22.476  -7.050  -0.839  1.00  0.00     0.000 C 
BRANCH  20  21
HETATM   21  C   UNK     1     -22.192  -7.810   0.447  1.00  0.00     0.000 C 
BRANCH  21  22
HETATM   22  C   UNK     1     -20.897  -8.595   0.320  1.00  0.00     0.000 C 
BRANCH  22  23
HETATM   23  C   UNK     1     -20.860  -9.708   1.353  1.00  0.00     0.000 C 
BRANCH  23  24
HETATM   24  C   UNK     1     -20.574 -11.039   0.676  1.00  0.00     0.000 C 
BRANCH  24  25
HETATM   25  C   UNK     1     -21.599 -11.299  -0.416  1.00  0.00    -0.000 C 
BRANCH  25  26
HETATM   26  C   UNK     1     -22.903 -11.801   0.186  1.00  0.00    -0.005 C 
HETATM   27  C   UNK     1     -24.057 -10.917  -0.245  1.00  0.00     0.005 C 
ENDBRANCH  25  26
ENDBRANCH  24  25
ENDBRANCH  23  24
ENDBRANCH  22  23
ENDBRANCH  21  22
ENDBRANCH  20  21
ENDBRANCH  19  20
ENDBRANCH  18  19
ENDBRANCH  17  18
ENDBRANCH   1  17
TORSDOF 18
BEGIN_RES ARG D 557
REMARK  4 active torsions:
REMARK  status: ('A' for Active; 'I' for Inactive)
REMARK    1  A    between atoms: CA   and  CB  
REMARK    2  A    between atoms: CB   and  CG  
REMARK    3  A    between atoms: CG   and  CD  
REMARK    4  A    between atoms: CD   and  NE  
REMARK       I    between atoms: NE   and  CZ  
REMARK       I    between atoms: CZ   and  NH1 
REMARK       I    between atoms: CZ   and  NH2 
ROOT
ATOM      1  CA  ARG D 557     -26.217   2.705 -17.014  1.00 35.49     0.159 C 
ENDROOT
BRANCH   1   2
ATOM      2  CB  ARG D 557     -26.789   1.319 -17.183  1.00 35.49     0.034 C 
BRANCH   2   3
ATOM      3  CG  ARG D 557     -28.232   1.226 -17.434  1.00 35.49     0.027 C 
BRANCH   3   4
ATOM      4  CD  ARG D 557     -28.908   0.296 -16.501  1.00 35.49     0.116 C 
BRANCH   4   5
ATOM      5  NE  ARG D 557     -28.126  -0.886 -16.252  1.00 35.49    -0.212 N 
ATOM      6  CZ  ARG D 557     -28.371  -2.085 -16.733  1.00 35.49     0.666 C 
ATOM      7  NH1 ARG D 557     -29.407  -2.339 -17.510  1.00 35.49    -0.235 N 
ATOM      8  NH2 ARG D 557     -27.542  -3.038 -16.420  1.00 35.49    -0.235 N 
ATOM      9  HH  ARG D 557     -29.964  -1.727 -17.731  1.00 35.49     0.174 HD
ATOM     10  HH  ARG D 557     -29.515  -3.140 -17.796  1.00 35.49     0.174 HD
ATOM     11  HH  ARG D 557     -26.877  -2.843 -15.922  1.00 35.49     0.174 HD
ATOM     12  HH  ARG D 557     -27.665  -3.824 -16.714  1.00 35.49     0.174 HD
ATOM     13  HE  ARG D 557     -27.480  -0.829 -15.702  1.00 35.49     0.178 HD
ENDBRANCH   4   5
ENDBRANCH   3   4
ENDBRANCH   2   3
ENDBRANCH   1   2
END_RES ARG D 557
BEGIN_RES GLU D 570
REMARK  3 active torsions:
REMARK  status: ('A' for Active; 'I' for Inactive)
REMARK    5  A    between atoms: CA   and  CB  
REMARK    6  A    between atoms: CB   and  CG  
REMARK    7  A    between atoms: CG   and  CD  
ROOT
ATOM     14  CA  GLU D 570     -18.033  -6.348 -13.375  1.00 32.92     0.160 C 
ENDROOT
BRANCH  14  15
ATOM     15  CB  GLU D 570     -19.500  -6.345 -13.794  1.00 32.92     0.043 C 
BRANCH  15  16
ATOM     16  CG  GLU D 570     -20.089  -7.636 -14.233  1.00 32.92     0.100 C 
BRANCH  16  17
ATOM     17  CD  GLU D 570     -21.141  -7.470 -15.305  1.00 32.92     0.185 C 
ATOM     18  OE1 GLU D 570     -21.134  -8.239 -16.285  1.00 32.92    -0.647 OA
ATOM     19  OE2 GLU D 570     -21.972  -6.550 -15.170  1.00 32.92    -0.647 OA
ENDBRANCH  16  17
ENDBRANCH  15  16
ENDBRANCH  14  15
END_RES GLU D 570
ENDMDL
MODEL 9
REMARK VINA RESULT:      -6.1      3.205      8.812
REMARK  18 active torsions:
REMARK  status: ('A' for Active; 'I' for Inactive)
REMARK    1  A    between atoms: C_2  and  C_3 
REMARK    2  A    between atoms: C_3  and  C_4 
REMARK    3  A    between atoms: C_4  and  C_5 
REMARK    4  A    between atoms: C_5  and  C_6 
REMARK    5  A    between atoms: C_6  and  C_7 
REMARK    6  A    between atoms: C_7  and  C_8 
REMARK    7  A    between atoms: C_8  and  C_9 
REMARK    8  A    between atoms: C_9  and  C_10 
REMARK    9  A    between atoms: C_10  and  C_11 
REMARK   10  A    between atoms: C_11  and  C_12 
REMARK       I    between atoms: C_12  and  N_14 
REMARK   11  A    between atoms: N_14  and  C_15 
REMARK   12  A    between atoms: C_15  and  C_16 
REMARK   13  A    between atoms: C_16  and  C_17 
REMARK   14  A    between atoms: C_17  and  C_18 
REMARK   15  A    between atoms: C_18  and  C_19 
REMARK   16  A    between atoms: C_19  and  C_20 
REMARK   17  A    between atoms: C_19  and  N_23 
REMARK   18  A    between atoms: C_20  and  O_22 
ROOT
HETATM    1  C   UNK     1     -20.429  -6.293  -5.512  1.00  0.00     0.217 C 
HETATM    2  O   UNK     1     -20.229  -7.481  -5.732  1.00  0.00    -0.274 OA
HETATM    3  N   UNK     1     -21.147  -5.831  -4.429  1.00  0.00    -0.361 N 
HETATM    4  H   UNK     1     -21.252  -4.836  -4.272  1.00  0.00     0.162 HD
ENDROOT
BRANCH   3   5
HETATM    5  C   UNK     1     -21.726  -6.753  -3.470  1.00  0.00     0.122 C 
BRANCH   5   6
HETATM    6  C   UNK     1     -22.050  -6.069  -2.144  1.00  0.00     0.020 C 
BRANCH   6   7
HETATM    7  C   UNK     1     -22.161  -7.115  -1.045  1.00  0.00     0.004 C 
BRANCH   7   8
HETATM    8  C   UNK     1     -21.172  -8.263  -1.244  1.00  0.00     0.046 C 
BRANCH   8   9
HETATM    9  C   UNK     1     -21.708  -9.550  -0.618  1.00  0.00     0.314 C 
BRANCH   9  10
HETATM   10  C   UNK     1     -20.854 -10.010   0.544  1.00  0.00     0.173 C 
HETATM   11  O   UNK     1     -20.839  -9.361   1.586  1.00  0.00    -0.648 OA
BRANCH  10  12
HETATM   12  O   UNK     1     -20.177 -11.161   0.379  1.00  0.00    -0.775 OA
HETATM   13  H   UNK     1     -19.718 -11.506   1.167  1.00  0.00     0.167 HD
ENDBRANCH  10  12
ENDBRANCH   9  10
BRANCH   9  14
HETATM   14  N   UNK     1     -23.036  -9.275  -0.041  1.00  0.00     0.093 N 
HETATM   15  H   UNK     1     -23.420  -8.504  -0.595  1.00  0.00     0.314 HD
HETATM   16  H   UNK     1     -22.916  -8.850   0.881  1.00  0.00     0.314 HD
ENDBRANCH   9  14
ENDBRANCH   8   9
ENDBRANCH   7   8
ENDBRANCH   6   7
ENDBRANCH   5   6
ENDBRANCH   3   5
BRANCH   1  17
HETATM   17  C   UNK     1     -19.904  -5.202  -6.434  1.00  0.00     0.103 C 
BRANCH  17  18
HETATM   18  C   UNK     1     -20.483  -5.393  -7.836  1.00  0.00     0.009 C 
BRANCH  18  19
HETATM   19  C   UNK     1     -21.514  -4.331  -8.186  1.00  0.00     0.000 C 
BRANCH  19  20
HETATM   20  C   UNK     1     -21.966  -4.493  -9.634  1.00  0.00     0.000 C 
BRANCH  20  21
HETATM   21  C   UNK     1     -20.843  -4.106 -10.581  1.00  0.00     0.000 C 
BRANCH  21  22
HETATM   22  C   UNK     1     -21.299  -2.994 -11.511  1.00  0.00     0.000 C 
BRANCH  22  23
HETATM   23  C   UNK     1     -22.755  -3.200 -11.894  1.00  0.00     0.000 C 
BRANCH  23  24
HETATM   24  C   UNK     1     -22.944  -2.946 -13.381  1.00  0.00     0.000 C 
BRANCH  24  25
HETATM   25  C   UNK     1     -22.547  -4.178 -14.177  1.00  0.00    -0.000 C 
BRANCH  25  26
HETATM   26  C   UNK     1     -23.208  -5.421 -13.600  1.00  0.00    -0.005 C 
HETATM   27  C   UNK     1     -24.002  -6.141 -14.671  1.00  0.00     0.005 C 
ENDBRANCH  25  26
ENDBRANCH  24  25
ENDBRANCH  23  24
ENDBRANCH  22  23
ENDBRANCH  21  22
ENDBRANCH  20  21
ENDBRANCH  19  20
ENDBRANCH  18  19
ENDBRANCH  17  18
ENDBRANCH   1  17
TORSDOF 18
BEGIN_RES ARG D 557
REMARK  4 active torsions:
REMARK  status: ('A' for Active; 'I' for Inactive)
REMARK    1  A    between atoms: CA   and  CB  
REMARK    2  A    between atoms: CB   and  CG  
REMARK    3  A    between atoms: CG   and  CD  
REMARK    4  A    between atoms: CD   and  NE  
REMARK       I    between atoms: NE   and  CZ  
REMARK       I    between atoms: CZ   and  NH1 
REMARK       I    between atoms: CZ   and  NH2 
ROOT
ATOM      1  CA  ARG D 557     -26.217   2.705 -17.014  1.00 35.49     0.159 C 
ENDROOT
BRANCH   1   2
ATOM      2  CB  ARG D 557     -26.789   1.319 -17.183  1.00 35.49     0.034 C 
BRANCH   2   3
ATOM      3  CG  ARG D 557     -28.233   1.226 -17.432  1.00 35.49     0.027 C 
BRANCH   3   4
ATOM      4  CD  ARG D 557     -28.908   0.299 -16.495  1.00 35.49     0.116 C 
BRANCH   4   5
ATOM      5  NE  ARG D 557     -29.317  -0.921 -17.139  1.00 35.49    -0.212 N 
ATOM      6  CZ  ARG D 557     -28.704  -2.080 -17.048  1.00 35.49     0.666 C 
ATOM      7  NH1 ARG D 557     -27.601  -2.246 -16.341  1.00 35.49    -0.235 N 
ATOM      8  NH2 ARG D 557     -29.228  -3.088 -17.683  1.00 35.49    -0.235 N 
ATOM      9  HH  ARG D 557     -27.240  -1.597 -15.913  1.00 35.49     0.174 HD
ATOM     10  HH  ARG D 557     -27.247  -3.025 -16.316  1.00 35.49     0.174 HD
ATOM     11  HH  ARG D 557     -29.944  -2.953 -18.126  1.00 35.49     0.174 HD
ATOM     12  HH  ARG D 557     -28.863  -3.852 -17.645  1.00 35.49     0.174 HD
ATOM     13  HE  ARG D 557     -29.977  -0.889 -17.673  1.00 35.49     0.178 HD
ENDBRANCH   4   5
ENDBRANCH   3   4
ENDBRANCH   2   3
ENDBRANCH   1   2
END_RES ARG D 557
BEGIN_RES GLU D 570
REMARK  3 active torsions:
REMARK  status: ('A' for Active; 'I' for Inactive)
REMARK    5  A    between atoms: CA   and  CB  
REMARK    6  A    between atoms: CB   and  CG  
REMARK    7  A    between atoms: CG   and  CD  
ROOT
ATOM     14  CA  GLU D 570     -18.033  -6.348 -13.375  1.00 32.92     0.160 C 
ENDROOT
BRANCH  14  15
ATOM     15  CB  GLU D 570     -19.500  -6.345 -13.794  1.00 32.92     0.043 C 
BRANCH  15  16
ATOM     16  CG  GLU D 570     -20.082  -7.631 -14.259  1.00 32.92     0.100 C 
BRANCH  16  17
ATOM     17  CD  GLU D 570     -20.735  -7.525 -15.618  1.00 32.92     0.185 C 
ATOM     18  OE1 GLU D 570     -21.426  -8.475 -16.032  1.00 32.92    -0.647 OA
ATOM     19  OE2 GLU D 570     -20.539  -6.488 -16.281  1.00 32.92    -0.647 OA
ENDBRANCH  16  17
ENDBRANCH  15  16
ENDBRANCH  14  15
END_RES GLU D 570
ENDMDL
