MODEL 1
REMARK VINA RESULT:      -7.9      0.000      0.000
REMARK  12 active torsions:
REMARK  status: ('A' for Active; 'I' for Inactive)
REMARK    1  A    between atoms: C_2  and  C_3 
REMARK    2  A    between atoms: C_3  and  C_4 
REMARK    3  A    between atoms: C_4  and  C_5 
REMARK    4  A    between atoms: C_5  and  C_6 
REMARK    5  A    between atoms: C_6  and  C_7 
REMARK    6  A    between atoms: C_7  and  C_8 
REMARK    7  A    between atoms: C_8  and  C_9 
REMARK    8  A    between atoms: C_9  and  C_10 
REMARK    9  A    between atoms: C_10  and  C_11 
REMARK   10  A    between atoms: C_11  and  C_12 
REMARK       I    between atoms: C_12  and  N_14 
REMARK   11  A    between atoms: C_18  and  C_19 
REMARK   12  A    between atoms: C_19  and  O_21 
ROOT
HETATM    1  C   UNL     1     -20.466  -5.136  -7.521  1.00  0.00     0.103 C 
ENDROOT
BRANCH   1   2
HETATM    2  C   UNL     1     -20.618  -5.147  -6.002  1.00  0.00     0.009 C 
BRANCH   2   3
HETATM    3  C   UNL     1     -20.709  -6.578  -5.467  1.00  0.00     0.000 C 
BRANCH   3   4
HETATM    4  C   UNL     1     -21.848  -6.711  -4.456  1.00  0.00     0.000 C 
BRANCH   4   5
HETATM    5  C   UNL     1     -21.315  -6.894  -3.036  1.00  0.00     0.000 C 
BRANCH   5   6
HETATM    6  C   UNL     1     -22.193  -6.155  -2.026  1.00  0.00     0.000 C 
BRANCH   6   7
HETATM    7  C   UNL     1     -22.323  -6.943  -0.725  1.00  0.00     0.000 C 
BRANCH   7   8
HETATM    8  C   UNL     1     -21.395  -8.158  -0.721  1.00  0.00     0.000 C 
BRANCH   8   9
HETATM    9  C   UNL     1     -21.902  -9.231   0.241  1.00  0.00    -0.000 C 
BRANCH   9  10
HETATM   10  C   UNL     1     -23.416  -9.409   0.127  1.00  0.00    -0.005 C 
HETATM   11  C   UNL     1     -23.772 -10.830  -0.280  1.00  0.00     0.005 C 
ENDBRANCH   9  10
ENDBRANCH   8   9
ENDBRANCH   7   8
ENDBRANCH   6   7
ENDBRANCH   5   6
ENDBRANCH   4   5
ENDBRANCH   3   4
ENDBRANCH   2   3
ENDBRANCH   1   2
BRANCH   1  12
HETATM   12  C   UNL     1     -21.701  -4.599  -8.222  1.00  0.00     0.220 C 
HETATM   13  O   UNL     1     -22.785  -4.451  -7.647  1.00  0.00    -0.273 OA
HETATM   14  N   UNL     1     -21.579  -4.248  -9.543  1.00  0.00    -0.338 N 
HETATM   15  C   UNL     1     -20.401  -4.379 -10.382  1.00  0.00     0.127 C 
HETATM   16  C   UNL     1     -22.662  -3.576 -10.277  1.00  0.00     0.185 C 
HETATM   17  C   UNL     1     -20.487  -3.174 -11.296  1.00  0.00     0.022 C 
HETATM   18  C   UNL     1     -21.983  -3.001 -11.533  1.00  0.00     0.038 C 
BRANCH  16  19
HETATM   19  C   UNL     1     -23.816  -4.536 -10.630  1.00  0.00     0.163 C 
HETATM   20  O   UNL     1     -23.852  -5.251 -11.623  1.00  0.00    -0.648 OA
BRANCH  19  21
HETATM   21  O   UNL     1     -24.854  -4.481  -9.764  1.00  0.00    -0.775 OA
HETATM   22  H   UNL     1     -25.671  -4.094 -10.173  1.00  0.00     0.167 HD
ENDBRANCH  19  21
ENDBRANCH  16  19
ENDBRANCH   1  12
TORSDOF 12
BEGIN_RES ARG D 557
REMARK  4 active torsions:
REMARK  status: ('A' for Active; 'I' for Inactive)
REMARK    1  A    between atoms: CA   and  CB  
REMARK    2  A    between atoms: CB   and  CG  
REMARK    3  A    between atoms: CG   and  CD  
REMARK    4  A    between atoms: CD   and  NE  
REMARK       I    between atoms: NE   and  CZ  
REMARK       I    between atoms: CZ   and  NH1 
REMARK       I    between atoms: CZ   and  NH2 
ROOT
ATOM      1  CA  ARG D 557     -26.217   2.705 -17.014  1.00 35.49     0.159 C 
ENDROOT
BRANCH   1   2
ATOM      2  CB  ARG D 557     -26.789   1.319 -17.183  1.00 35.49     0.034 C 
BRANCH   2   3
ATOM      3  CG  ARG D 557     -25.935   0.197 -16.773  1.00 35.49     0.027 C 
BRANCH   3   4
ATOM      4  CD  ARG D 557     -26.690  -0.853 -16.052  1.00 35.49     0.116 C 
BRANCH   4   5
ATOM      5  NE  ARG D 557     -25.922  -1.437 -14.985  1.00 35.49    -0.212 N 
ATOM      6  CZ  ARG D 557     -25.912  -2.708 -14.652  1.00 35.49     0.666 C 
ATOM      7  NH1 ARG D 557     -26.645  -3.611 -15.278  1.00 35.49    -0.235 N 
ATOM      8  NH2 ARG D 557     -25.137  -3.066 -13.669  1.00 35.49    -0.235 N 
ATOM      9  HH  ARG D 557     -27.160  -3.398 -15.929  1.00 35.49     0.174 HD
ATOM     10  HH  ARG D 557     -26.596  -4.426 -15.019  1.00 35.49     0.174 HD
ATOM     11  HH  ARG D 557     -24.670  -2.463 -13.289  1.00 35.49     0.174 HD
ATOM     12  HH  ARG D 557     -25.102  -3.878 -13.429  1.00 35.49     0.174 HD
ATOM     13  HE  ARG D 557     -25.476  -0.916 -14.482  1.00 35.49     0.178 HD
ENDBRANCH   4   5
ENDBRANCH   3   4
ENDBRANCH   2   3
ENDBRANCH   1   2
END_RES ARG D 557
BEGIN_RES GLU D 570
REMARK  3 active torsions:
REMARK  status: ('A' for Active; 'I' for Inactive)
REMARK    5  A    between atoms: CA   and  CB  
REMARK    6  A    between atoms: CB   and  CG  
REMARK    7  A    between atoms: CG   and  CD  
ROOT
ATOM     14  CA  GLU D 570     -18.033  -6.348 -13.375  1.00 32.92     0.160 C 
ENDROOT
BRANCH  14  15
ATOM     15  CB  GLU D 570     -19.500  -6.345 -13.794  1.00 32.92     0.043 C 
BRANCH  15  16
ATOM     16  CG  GLU D 570     -19.801  -6.116 -15.231  1.00 32.92     0.100 C 
BRANCH  16  17
ATOM     17  CD  GLU D 570     -21.109  -5.392 -15.451  1.00 32.92     0.185 C 
ATOM     18  OE1 GLU D 570     -21.852  -5.174 -14.474  1.00 32.92    -0.647 OA
ATOM     19  OE2 GLU D 570     -21.401  -5.053 -16.614  1.00 32.92    -0.647 OA
ENDBRANCH  16  17
ENDBRANCH  15  16
ENDBRANCH  14  15
END_RES GLU D 570
ENDMDL
MODEL 2
REMARK VINA RESULT:      -7.7      0.963      1.224
REMARK  12 active torsions:
REMARK  status: ('A' for Active; 'I' for Inactive)
REMARK    1  A    between atoms: C_2  and  C_3 
REMARK    2  A    between atoms: C_3  and  C_4 
REMARK    3  A    between atoms: C_4  and  C_5 
REMARK    4  A    between atoms: C_5  and  C_6 
REMARK    5  A    between atoms: C_6  and  C_7 
REMARK    6  A    between atoms: C_7  and  C_8 
REMARK    7  A    between atoms: C_8  and  C_9 
REMARK    8  A    between atoms: C_9  and  C_10 
REMARK    9  A    between atoms: C_10  and  C_11 
REMARK   10  A    between atoms: C_11  and  C_12 
REMARK       I    between atoms: C_12  and  N_14 
REMARK   11  A    between atoms: C_18  and  C_19 
REMARK   12  A    between atoms: C_19  and  O_21 
ROOT
HETATM    1  C   UNL     1     -20.368  -5.402  -7.597  1.00  0.00     0.103 C 
ENDROOT
BRANCH   1   2
HETATM    2  C   UNL     1     -20.373  -5.332  -6.072  1.00  0.00     0.009 C 
BRANCH   2   3
HETATM    3  C   UNL     1     -20.510  -6.726  -5.457  1.00  0.00     0.000 C 
BRANCH   3   4
HETATM    4  C   UNL     1     -21.736  -6.803  -4.547  1.00  0.00     0.000 C 
BRANCH   4   5
HETATM    5  C   UNL     1     -21.467  -6.155  -3.190  1.00  0.00     0.000 C 
BRANCH   5   6
HETATM    6  C   UNL     1     -21.437  -7.205  -2.080  1.00  0.00     0.000 C 
BRANCH   6   7
HETATM    7  C   UNL     1     -22.396  -6.842  -0.950  1.00  0.00     0.000 C 
BRANCH   7   8
HETATM    8  C   UNL     1     -22.200  -7.762   0.256  1.00  0.00     0.000 C 
BRANCH   8   9
HETATM    9  C   UNL     1     -23.314  -8.805   0.335  1.00  0.00    -0.000 C 
BRANCH   9  10
HETATM   10  C   UNL     1     -22.820 -10.180  -0.114  1.00  0.00    -0.005 C 
HETATM   11  C   UNL     1     -23.985 -11.105  -0.426  1.00  0.00     0.005 C 
ENDBRANCH   9  10
ENDBRANCH   8   9
ENDBRANCH   7   8
ENDBRANCH   6   7
ENDBRANCH   5   6
ENDBRANCH   4   5
ENDBRANCH   3   4
ENDBRANCH   2   3
ENDBRANCH   1   2
BRANCH   1  12
HETATM   12  C   UNL     1     -21.623  -4.805  -8.209  1.00  0.00     0.220 C 
HETATM   13  O   UNL     1     -22.676  -4.669  -7.576  1.00  0.00    -0.273 OA
HETATM   14  N   UNL     1     -21.556  -4.385  -9.513  1.00  0.00    -0.338 N 
HETATM   15  C   UNL     1     -20.421  -4.492 -10.413  1.00  0.00     0.127 C 
HETATM   16  C   UNL     1     -22.657  -3.655 -10.158  1.00  0.00     0.185 C 
HETATM   17  C   UNL     1     -20.524  -3.237 -11.257  1.00  0.00     0.022 C 
HETATM   18  C   UNL     1     -22.026  -3.025 -11.412  1.00  0.00     0.038 C 
BRANCH  16  19
HETATM   19  C   UNL     1     -23.846  -4.573 -10.506  1.00  0.00     0.163 C 
HETATM   20  O   UNL     1     -23.894  -5.319 -11.476  1.00  0.00    -0.648 OA
BRANCH  19  21
HETATM   21  O   UNL     1     -24.900  -4.442  -9.667  1.00  0.00    -0.775 OA
HETATM   22  H   UNL     1     -25.313  -5.312  -9.434  1.00  0.00     0.167 HD
ENDBRANCH  19  21
ENDBRANCH  16  19
ENDBRANCH   1  12
TORSDOF 12
BEGIN_RES ARG D 557
REMARK  4 active torsions:
REMARK  status: ('A' for Active; 'I' for Inactive)
REMARK    1  A    between atoms: CA   and  CB  
REMARK    2  A    between atoms: CB   and  CG  
REMARK    3  A    between atoms: CG   and  CD  
REMARK    4  A    between atoms: CD   and  NE  
REMARK       I    between atoms: NE   and  CZ  
REMARK       I    between atoms: CZ   and  NH1 
REMARK       I    between atoms: CZ   and  NH2 
ROOT
ATOM      1  CA  ARG D 557     -26.217   2.705 -17.014  1.00 35.49     0.159 C 
ENDROOT
BRANCH   1   2
ATOM      2  CB  ARG D 557     -26.789   1.319 -17.183  1.00 35.49     0.034 C 
BRANCH   2   3
ATOM      3  CG  ARG D 557     -28.241   1.179 -17.018  1.00 35.49     0.027 C 
BRANCH   3   4
ATOM      4  CD  ARG D 557     -28.642  -0.212 -16.707  1.00 35.49     0.116 C 
BRANCH   4   5
ATOM      5  NE  ARG D 557     -27.619  -0.923 -15.986  1.00 35.49    -0.212 N 
ATOM      6  CZ  ARG D 557     -27.397  -2.217 -16.043  1.00 35.49     0.666 C 
ATOM      7  NH1 ARG D 557     -28.126  -3.030 -16.785  1.00 35.49    -0.235 N 
ATOM      8  NH2 ARG D 557     -26.411  -2.689 -15.337  1.00 35.49    -0.235 N 
ATOM      9  HH  ARG D 557     -28.779  -2.740 -17.260  1.00 35.49     0.174 HD
ATOM     10  HH  ARG D 557     -27.933  -3.864 -16.785  1.00 35.49     0.174 HD
ATOM     11  HH  ARG D 557     -25.952  -2.140 -14.873  1.00 35.49     0.174 HD
ATOM     12  HH  ARG D 557     -26.234  -3.518 -15.352  1.00 35.49     0.174 HD
ATOM     13  HE  ARG D 557     -27.148  -0.488 -15.427  1.00 35.49     0.178 HD
ENDBRANCH   4   5
ENDBRANCH   3   4
ENDBRANCH   2   3
ENDBRANCH   1   2
END_RES ARG D 557
BEGIN_RES GLU D 570
REMARK  3 active torsions:
REMARK  status: ('A' for Active; 'I' for Inactive)
REMARK    5  A    between atoms: CA   and  CB  
REMARK    6  A    between atoms: CB   and  CG  
REMARK    7  A    between atoms: CG   and  CD  
ROOT
ATOM     14  CA  GLU D 570     -18.033  -6.348 -13.375  1.00 32.92     0.160 C 
ENDROOT
BRANCH  14  15
ATOM     15  CB  GLU D 570     -19.500  -6.345 -13.794  1.00 32.92     0.043 C 
BRANCH  15  16
ATOM     16  CG  GLU D 570     -19.808  -5.997 -15.205  1.00 32.92     0.100 C 
BRANCH  16  17
ATOM     17  CD  GLU D 570     -21.144  -5.310 -15.365  1.00 32.92     0.185 C 
ATOM     18  OE1 GLU D 570     -21.546  -5.026 -16.509  1.00 32.92    -0.647 OA
ATOM     19  OE2 GLU D 570     -21.789  -5.038 -14.332  1.00 32.92    -0.647 OA
ENDBRANCH  16  17
ENDBRANCH  15  16
ENDBRANCH  14  15
END_RES GLU D 570
ENDMDL
MODEL 3
REMARK VINA RESULT:      -7.5      1.906      2.680
REMARK  12 active torsions:
REMARK  status: ('A' for Active; 'I' for Inactive)
REMARK    1  A    between atoms: C_2  and  C_3 
REMARK    2  A    between atoms: C_3  and  C_4 
REMARK    3  A    between atoms: C_4  and  C_5 
REMARK    4  A    between atoms: C_5  and  C_6 
REMARK    5  A    between atoms: C_6  and  C_7 
REMARK    6  A    between atoms: C_7  and  C_8 
REMARK    7  A    between atoms: C_8  and  C_9 
REMARK    8  A    between atoms: C_9  and  C_10 
REMARK    9  A    between atoms: C_10  and  C_11 
REMARK   10  A    between atoms: C_11  and  C_12 
REMARK       I    between atoms: C_12  and  N_14 
REMARK   11  A    between atoms: C_18  and  C_19 
REMARK   12  A    between atoms: C_19  and  O_21 
ROOT
HETATM    1  C   UNL     1     -21.144  -3.956  -7.080  1.00  0.00     0.103 C 
ENDROOT
BRANCH   1   2
HETATM    2  C   UNL     1     -19.954  -4.530  -6.317  1.00  0.00     0.009 C 
BRANCH   2   3
HETATM    3  C   UNL     1     -20.300  -5.884  -5.694  1.00  0.00     0.000 C 
BRANCH   3   4
HETATM    4  C   UNL     1     -21.786  -5.963  -5.349  1.00  0.00     0.000 C 
BRANCH   4   5
HETATM    5  C   UNL     1     -22.111  -7.232  -4.562  1.00  0.00     0.000 C 
BRANCH   5   6
HETATM    6  C   UNL     1     -21.382  -7.242  -3.218  1.00  0.00     0.000 C 
BRANCH   6   7
HETATM    7  C   UNL     1     -22.010  -6.253  -2.240  1.00  0.00     0.000 C 
BRANCH   7   8
HETATM    8  C   UNL     1     -22.307  -6.919  -0.897  1.00  0.00     0.000 C 
BRANCH   8   9
HETATM    9  C   UNL     1     -22.209  -8.440  -1.006  1.00  0.00    -0.000 C 
BRANCH   9  10
HETATM   10  C   UNL     1     -21.136  -8.996  -0.072  1.00  0.00    -0.005 C 
HETATM   11  C   UNL     1     -21.306  -8.459   1.340  1.00  0.00     0.005 C 
ENDBRANCH   9  10
ENDBRANCH   8   9
ENDBRANCH   7   8
ENDBRANCH   6   7
ENDBRANCH   5   6
ENDBRANCH   4   5
ENDBRANCH   3   4
ENDBRANCH   2   3
ENDBRANCH   1   2
BRANCH   1  12
HETATM   12  C   UNL     1     -21.018  -4.150  -8.581  1.00  0.00     0.220 C 
HETATM   13  O   UNL     1     -19.933  -4.341  -9.141  1.00  0.00    -0.273 OA
HETATM   14  N   UNL     1     -22.172  -4.130  -9.323  1.00  0.00    -0.338 N 
HETATM   15  C   UNL     1     -23.521  -3.891  -8.843  1.00  0.00     0.127 C 
HETATM   16  C   UNL     1     -22.185  -4.458 -10.756  1.00  0.00     0.185 C 
HETATM   17  C   UNL     1     -24.370  -4.780  -9.729  1.00  0.00     0.022 C 
HETATM   18  C   UNL     1     -23.666  -4.727 -11.080  1.00  0.00     0.038 C 
BRANCH  16  19
HETATM   19  C   UNL     1     -21.599  -3.327 -11.624  1.00  0.00     0.163 C 
HETATM   20  O   UNL     1     -22.259  -2.462 -12.185  1.00  0.00    -0.648 OA
BRANCH  19  21
HETATM   21  O   UNL     1     -20.256  -3.400 -11.780  1.00  0.00    -0.775 OA
HETATM   22  H   UNL     1     -19.763  -2.923 -11.064  1.00  0.00     0.167 HD
ENDBRANCH  19  21
ENDBRANCH  16  19
ENDBRANCH   1  12
TORSDOF 12
BEGIN_RES ARG D 557
REMARK  4 active torsions:
REMARK  status: ('A' for Active; 'I' for Inactive)
REMARK    1  A    between atoms: CA   and  CB  
REMARK    2  A    between atoms: CB   and  CG  
REMARK    3  A    between atoms: CG   and  CD  
REMARK    4  A    between atoms: CD   and  NE  
REMARK       I    between atoms: NE   and  CZ  
REMARK       I    between atoms: CZ   and  NH1 
REMARK       I    between atoms: CZ   and  NH2 
ROOT
ATOM      1  CA  ARG D 557     -26.217   2.705 -17.014  1.00 35.49     0.159 C 
ENDROOT
BRANCH   1   2
ATOM      2  CB  ARG D 557     -26.789   1.319 -17.183  1.00 35.49     0.034 C 
BRANCH   2   3
ATOM      3  CG  ARG D 557     -28.233   1.226 -17.433  1.00 35.49     0.027 C 
BRANCH   3   4
ATOM      4  CD  ARG D 557     -28.911   0.311 -16.487  1.00 35.49     0.116 C 
BRANCH   4   5
ATOM      5  NE  ARG D 557     -29.296  -0.927 -17.112  1.00 35.49    -0.212 N 
ATOM      6  CZ  ARG D 557     -28.652  -2.069 -17.017  1.00 35.49     0.666 C 
ATOM      7  NH1 ARG D 557     -27.536  -2.197 -16.323  1.00 35.49    -0.235 N 
ATOM      8  NH2 ARG D 557     -29.158  -3.097 -17.633  1.00 35.49    -0.235 N 
ATOM      9  HH  ARG D 557     -27.186  -1.534 -15.908  1.00 35.49     0.174 HD
ATOM     10  HH  ARG D 557     -27.161  -2.967 -16.295  1.00 35.49     0.174 HD
ATOM     11  HH  ARG D 557     -29.884  -2.986 -18.067  1.00 35.49     0.174 HD
ATOM     12  HH  ARG D 557     -28.773  -3.851 -17.592  1.00 35.49     0.174 HD
ATOM     13  HE  ARG D 557     -29.965  -0.918 -17.637  1.00 35.49     0.178 HD
ENDBRANCH   4   5
ENDBRANCH   3   4
ENDBRANCH   2   3
ENDBRANCH   1   2
END_RES ARG D 557
BEGIN_RES GLU D 570
REMARK  3 active torsions:
REMARK  status: ('A' for Active; 'I' for Inactive)
REMARK    5  A    between atoms: CA   and  CB  
REMARK    6  A    between atoms: CB   and  CG  
REMARK    7  A    between atoms: CG   and  CD  
ROOT
ATOM     14  CA  GLU D 570     -18.033  -6.348 -13.375  1.00 32.92     0.160 C 
ENDROOT
BRANCH  14  15
ATOM     15  CB  GLU D 570     -19.500  -6.345 -13.794  1.00 32.92     0.043 C 
BRANCH  15  16
ATOM     16  CG  GLU D 570     -19.810  -5.967 -15.197  1.00 32.92     0.100 C 
BRANCH  16  17
ATOM     17  CD  GLU D 570     -21.214  -5.435 -15.367  1.00 32.92     0.185 C 
ATOM     18  OE1 GLU D 570     -21.538  -4.917 -16.453  1.00 32.92    -0.647 OA
ATOM     19  OE2 GLU D 570     -21.994  -5.522 -14.398  1.00 32.92    -0.647 OA
ENDBRANCH  16  17
ENDBRANCH  15  16
ENDBRANCH  14  15
END_RES GLU D 570
ENDMDL
MODEL 4
REMARK VINA RESULT:      -7.4      1.860      2.526
REMARK  12 active torsions:
REMARK  status: ('A' for Active; 'I' for Inactive)
REMARK    1  A    between atoms: C_2  and  C_3 
REMARK    2  A    between atoms: C_3  and  C_4 
REMARK    3  A    between atoms: C_4  and  C_5 
REMARK    4  A    between atoms: C_5  and  C_6 
REMARK    5  A    between atoms: C_6  and  C_7 
REMARK    6  A    between atoms: C_7  and  C_8 
REMARK    7  A    between atoms: C_8  and  C_9 
REMARK    8  A    between atoms: C_9  and  C_10 
REMARK    9  A    between atoms: C_10  and  C_11 
REMARK   10  A    between atoms: C_11  and  C_12 
REMARK       I    between atoms: C_12  and  N_14 
REMARK   11  A    between atoms: C_18  and  C_19 
REMARK   12  A    between atoms: C_19  and  O_21 
ROOT
HETATM    1  C   UNL     1     -19.845  -4.110  -8.316  1.00  0.00     0.103 C 
ENDROOT
BRANCH   1   2
HETATM    2  C   UNL     1     -19.894  -5.268  -7.323  1.00  0.00     0.009 C 
BRANCH   2   3
HETATM    3  C   UNL     1     -19.934  -4.758  -5.881  1.00  0.00     0.000 C 
BRANCH   3   4
HETATM    4  C   UNL     1     -20.943  -5.548  -5.050  1.00  0.00     0.000 C 
BRANCH   4   5
HETATM    5  C   UNL     1     -21.184  -6.939  -5.635  1.00  0.00     0.000 C 
BRANCH   5   6
HETATM    6  C   UNL     1     -21.053  -8.014  -4.556  1.00  0.00     0.000 C 
BRANCH   6   7
HETATM    7  C   UNL     1     -21.451  -7.474  -3.185  1.00  0.00     0.000 C 
BRANCH   7   8
HETATM    8  C   UNL     1     -20.425  -7.862  -2.120  1.00  0.00     0.000 C 
BRANCH   8   9
HETATM    9  C   UNL     1     -21.116  -8.313  -0.834  1.00  0.00    -0.000 C 
BRANCH   9  10
HETATM   10  C   UNL     1     -22.299  -7.408  -0.492  1.00  0.00    -0.005 C 
HETATM   11  C   UNL     1     -23.193  -8.048   0.558  1.00  0.00     0.005 C 
ENDBRANCH   9  10
ENDBRANCH   8   9
ENDBRANCH   7   8
ENDBRANCH   6   7
ENDBRANCH   5   6
ENDBRANCH   4   5
ENDBRANCH   3   4
ENDBRANCH   2   3
ENDBRANCH   1   2
BRANCH   1  12
HETATM   12  C   UNL     1     -20.428  -4.480  -9.668  1.00  0.00     0.220 C 
HETATM   13  O   UNL     1     -19.762  -5.017 -10.559  1.00  0.00    -0.273 OA
HETATM   14  N   UNL     1     -21.759  -4.218  -9.878  1.00  0.00    -0.338 N 
HETATM   15  C   UNL     1     -22.682  -3.570  -8.964  1.00  0.00     0.127 C 
HETATM   16  C   UNL     1     -22.463  -4.671 -11.087  1.00  0.00     0.185 C 
HETATM   17  C   UNL     1     -23.996  -4.275  -9.235  1.00  0.00     0.022 C 
HETATM   18  C   UNL     1     -23.957  -4.553 -10.734  1.00  0.00     0.038 C 
BRANCH  16  19
HETATM   19  C   UNL     1     -22.094  -3.837 -12.330  1.00  0.00     0.163 C 
HETATM   20  O   UNL     1     -22.244  -4.203 -13.488  1.00  0.00    -0.648 OA
BRANCH  19  21
HETATM   21  O   UNL     1     -21.510  -2.651 -12.037  1.00  0.00    -0.775 OA
HETATM   22  H   UNL     1     -22.160  -1.976 -11.715  1.00  0.00     0.167 HD
ENDBRANCH  19  21
ENDBRANCH  16  19
ENDBRANCH   1  12
TORSDOF 12
BEGIN_RES ARG D 557
REMARK  4 active torsions:
REMARK  status: ('A' for Active; 'I' for Inactive)
REMARK    1  A    between atoms: CA   and  CB  
REMARK    2  A    between atoms: CB   and  CG  
REMARK    3  A    between atoms: CG   and  CD  
REMARK    4  A    between atoms: CD   and  NE  
REMARK       I    between atoms: NE   and  CZ  
REMARK       I    between atoms: CZ   and  NH1 
REMARK       I    between atoms: CZ   and  NH2 
ROOT
ATOM      1  CA  ARG D 557     -26.217   2.705 -17.014  1.00 35.49     0.159 C 
ENDROOT
BRANCH   1   2
ATOM      2  CB  ARG D 557     -26.789   1.319 -17.183  1.00 35.49     0.034 C 
BRANCH   2   3
ATOM      3  CG  ARG D 557     -25.834   0.204 -17.170  1.00 35.49     0.027 C 
BRANCH   3   4
ATOM      4  CD  ARG D 557     -24.753   0.399 -16.178  1.00 35.49     0.116 C 
BRANCH   4   5
ATOM      5  NE  ARG D 557     -24.922  -0.439 -15.020  1.00 35.49    -0.212 N 
ATOM      6  CZ  ARG D 557     -24.124  -1.418 -14.656  1.00 35.49     0.666 C 
ATOM      7  NH1 ARG D 557     -23.052  -1.754 -15.351  1.00 35.49    -0.235 N 
ATOM      8  NH2 ARG D 557     -24.420  -2.060 -13.564  1.00 35.49    -0.235 N 
ATOM      9  HH  ARG D 557     -22.837  -1.344 -16.072  1.00 35.49     0.174 HD
ATOM     10  HH  ARG D 557     -22.567  -2.399 -15.064  1.00 35.49     0.174 HD
ATOM     11  HH  ARG D 557     -25.114  -1.816 -13.132  1.00 35.49     0.174 HD
ATOM     12  HH  ARG D 557     -23.926  -2.695 -13.295  1.00 35.49     0.174 HD
ATOM     13  HE  ARG D 557     -25.627  -0.340 -14.555  1.00 35.49     0.178 HD
ENDBRANCH   4   5
ENDBRANCH   3   4
ENDBRANCH   2   3
ENDBRANCH   1   2
END_RES ARG D 557
BEGIN_RES GLU D 570
REMARK  3 active torsions:
REMARK  status: ('A' for Active; 'I' for Inactive)
REMARK    5  A    between atoms: CA   and  CB  
REMARK    6  A    between atoms: CB   and  CG  
REMARK    7  A    between atoms: CG   and  CD  
ROOT
ATOM     14  CA  GLU D 570     -18.033  -6.348 -13.375  1.00 32.92     0.160 C 
ENDROOT
BRANCH  14  15
ATOM     15  CB  GLU D 570     -19.500  -6.345 -13.794  1.00 32.92     0.043 C 
BRANCH  15  16
ATOM     16  CG  GLU D 570     -19.796  -6.361 -15.250  1.00 32.92     0.100 C 
BRANCH  16  17
ATOM     17  CD  GLU D 570     -20.922  -7.301 -15.612  1.00 32.92     0.185 C 
ATOM     18  OE1 GLU D 570     -22.043  -6.828 -15.882  1.00 32.92    -0.647 OA
ATOM     19  OE2 GLU D 570     -20.686  -8.526 -15.609  1.00 32.92    -0.647 OA
ENDBRANCH  16  17
ENDBRANCH  15  16
ENDBRANCH  14  15
END_RES GLU D 570
ENDMDL
MODEL 5
REMARK VINA RESULT:      -7.1      3.370      6.004
REMARK  12 active torsions:
REMARK  status: ('A' for Active; 'I' for Inactive)
REMARK    1  A    between atoms: C_2  and  C_3 
REMARK    2  A    between atoms: C_3  and  C_4 
REMARK    3  A    between atoms: C_4  and  C_5 
REMARK    4  A    between atoms: C_5  and  C_6 
REMARK    5  A    between atoms: C_6  and  C_7 
REMARK    6  A    between atoms: C_7  and  C_8 
REMARK    7  A    between atoms: C_8  and  C_9 
REMARK    8  A    between atoms: C_9  and  C_10 
REMARK    9  A    between atoms: C_10  and  C_11 
REMARK   10  A    between atoms: C_11  and  C_12 
REMARK       I    between atoms: C_12  and  N_14 
REMARK   11  A    between atoms: C_18  and  C_19 
REMARK   12  A    between atoms: C_19  and  O_21 
ROOT
HETATM    1  C   UNL     1     -23.763  -3.958 -13.418  1.00  0.00     0.103 C 
ENDROOT
BRANCH   1   2
HETATM    2  C   UNL     1     -24.389  -3.031 -12.379  1.00  0.00     0.009 C 
BRANCH   2   3
HETATM    3  C   UNL     1     -23.796  -3.278 -10.991  1.00  0.00     0.000 C 
BRANCH   3   4
HETATM    4  C   UNL     1     -22.372  -3.822 -11.094  1.00  0.00     0.000 C 
BRANCH   4   5
HETATM    5  C   UNL     1     -21.792  -4.138  -9.716  1.00  0.00     0.000 C 
BRANCH   5   6
HETATM    6  C   UNL     1     -22.890  -4.154  -8.653  1.00  0.00     0.000 C 
BRANCH   6   7
HETATM    7  C   UNL     1     -22.308  -4.377  -7.260  1.00  0.00     0.000 C 
BRANCH   7   8
HETATM    8  C   UNL     1     -20.828  -4.000  -7.214  1.00  0.00     0.000 C 
BRANCH   8   9
HETATM    9  C   UNL     1     -20.118  -4.707  -6.060  1.00  0.00    -0.000 C 
BRANCH   9  10
HETATM   10  C   UNL     1     -20.837  -5.999  -5.675  1.00  0.00    -0.005 C 
HETATM   11  C   UNL     1     -21.221  -5.996  -4.204  1.00  0.00     0.005 C 
ENDBRANCH   9  10
ENDBRANCH   8   9
ENDBRANCH   7   8
ENDBRANCH   6   7
ENDBRANCH   5   6
ENDBRANCH   4   5
ENDBRANCH   3   4
ENDBRANCH   2   3
ENDBRANCH   1   2
BRANCH   1  12
HETATM   12  C   UNL     1     -24.753  -4.382 -14.489  1.00  0.00     0.220 C 
HETATM   13  O   UNL     1     -25.631  -3.628 -14.923  1.00  0.00    -0.273 OA
HETATM   14  N   UNL     1     -24.635  -5.651 -14.995  1.00  0.00    -0.338 N 
HETATM   15  C   UNL     1     -23.691  -6.676 -14.588  1.00  0.00     0.127 C 
HETATM   16  C   UNL     1     -25.437  -6.115 -16.137  1.00  0.00     0.185 C 
HETATM   17  C   UNL     1     -23.390  -7.408 -15.879  1.00  0.00     0.022 C 
HETATM   18  C   UNL     1     -24.716  -7.382 -16.631  1.00  0.00     0.038 C 
BRANCH  16  19
HETATM   19  C   UNL     1     -26.903  -6.397 -15.750  1.00  0.00     0.163 C 
HETATM   20  O   UNL     1     -27.309  -7.444 -15.261  1.00  0.00    -0.648 OA
BRANCH  19  21
HETATM   21  O   UNL     1     -27.752  -5.391 -16.063  1.00  0.00    -0.775 OA
HETATM   22  H   UNL     1     -27.927  -4.788 -15.296  1.00  0.00     0.167 HD
ENDBRANCH  19  21
ENDBRANCH  16  19
ENDBRANCH   1  12
TORSDOF 12
BEGIN_RES ARG D 557
REMARK  4 active torsions:
REMARK  status: ('A' for Active; 'I' for Inactive)
REMARK    1  A    between atoms: CA   and  CB  
REMARK    2  A    between atoms: CB   and  CG  
REMARK    3  A    between atoms: CG   and  CD  
REMARK    4  A    between atoms: CD   and  NE  
REMARK       I    between atoms: NE   and  CZ  
REMARK       I    between atoms: CZ   and  NH1 
REMARK       I    between atoms: CZ   and  NH2 
ROOT
ATOM      1  CA  ARG D 557     -26.217   2.705 -17.014  1.00 35.49     0.159 C 
ENDROOT
BRANCH   1   2
ATOM      2  CB  ARG D 557     -26.789   1.319 -17.183  1.00 35.49     0.034 C 
BRANCH   2   3
ATOM      3  CG  ARG D 557     -28.232   1.226 -17.435  1.00 35.49     0.027 C 
BRANCH   3   4
ATOM      4  CD  ARG D 557     -28.910   0.301 -16.498  1.00 35.49     0.116 C 
BRANCH   4   5
ATOM      5  NE  ARG D 557     -29.319  -0.919 -17.141  1.00 35.49    -0.212 N 
ATOM      6  CZ  ARG D 557     -28.703  -2.077 -17.054  1.00 35.49     0.666 C 
ATOM      7  NH1 ARG D 557     -27.596  -2.241 -16.354  1.00 35.49    -0.235 N 
ATOM      8  NH2 ARG D 557     -29.228  -3.085 -17.688  1.00 35.49    -0.235 N 
ATOM      9  HH  ARG D 557     -27.234  -1.591 -15.927  1.00 35.49     0.174 HD
ATOM     10  HH  ARG D 557     -27.240  -3.019 -16.331  1.00 35.49     0.174 HD
ATOM     11  HH  ARG D 557     -29.947  -2.952 -18.127  1.00 35.49     0.174 HD
ATOM     12  HH  ARG D 557     -28.861  -3.849 -17.653  1.00 35.49     0.174 HD
ATOM     13  HE  ARG D 557     -29.983  -0.888 -17.672  1.00 35.49     0.178 HD
ENDBRANCH   4   5
ENDBRANCH   3   4
ENDBRANCH   2   3
ENDBRANCH   1   2
END_RES ARG D 557
BEGIN_RES GLU D 570
REMARK  3 active torsions:
REMARK  status: ('A' for Active; 'I' for Inactive)
REMARK    5  A    between atoms: CA   and  CB  
REMARK    6  A    between atoms: CB   and  CG  
REMARK    7  A    between atoms: CG   and  CD  
ROOT
ATOM     14  CA  GLU D 570     -18.033  -6.348 -13.375  1.00 32.92     0.160 C 
ENDROOT
BRANCH  14  15
ATOM     15  CB  GLU D 570     -19.500  -6.345 -13.794  1.00 32.92     0.043 C 
BRANCH  15  16
ATOM     16  CG  GLU D 570     -19.819  -6.795 -15.174  1.00 32.92     0.100 C 
BRANCH  16  17
ATOM     17  CD  GLU D 570     -20.481  -5.721 -16.005  1.00 32.92     0.185 C 
ATOM     18  OE1 GLU D 570     -21.070  -4.786 -15.429  1.00 32.92    -0.647 OA
ATOM     19  OE2 GLU D 570     -20.424  -5.824 -17.246  1.00 32.92    -0.647 OA
ENDBRANCH  16  17
ENDBRANCH  15  16
ENDBRANCH  14  15
END_RES GLU D 570
ENDMDL
MODEL 6
REMARK VINA RESULT:      -7.1      5.373      9.711
REMARK  12 active torsions:
REMARK  status: ('A' for Active; 'I' for Inactive)
REMARK    1  A    between atoms: C_2  and  C_3 
REMARK    2  A    between atoms: C_3  and  C_4 
REMARK    3  A    between atoms: C_4  and  C_5 
REMARK    4  A    between atoms: C_5  and  C_6 
REMARK    5  A    between atoms: C_6  and  C_7 
REMARK    6  A    between atoms: C_7  and  C_8 
REMARK    7  A    between atoms: C_8  and  C_9 
REMARK    8  A    between atoms: C_9  and  C_10 
REMARK    9  A    between atoms: C_10  and  C_11 
REMARK   10  A    between atoms: C_11  and  C_12 
REMARK       I    between atoms: C_12  and  N_14 
REMARK   11  A    between atoms: C_18  and  C_19 
REMARK   12  A    between atoms: C_19  and  O_21 
ROOT
HETATM    1  C   UNL     1     -23.540  -5.966 -13.727  1.00  0.00     0.103 C 
ENDROOT
BRANCH   1   2
HETATM    2  C   UNL     1     -24.474  -5.501 -14.843  1.00  0.00     0.009 C 
BRANCH   2   3
HETATM    3  C   UNL     1     -24.960  -6.684 -15.683  1.00  0.00     0.000 C 
BRANCH   3   4
HETATM    4  C   UNL     1     -26.484  -6.685 -15.794  1.00  0.00     0.000 C 
BRANCH   4   5
HETATM    5  C   UNL     1     -26.964  -5.764 -16.915  1.00  0.00     0.000 C 
BRANCH   5   6
HETATM    6  C   UNL     1     -27.611  -4.502 -16.344  1.00  0.00     0.000 C 
BRANCH   6   7
HETATM    7  C   UNL     1     -28.655  -3.935 -17.303  1.00  0.00     0.000 C 
BRANCH   7   8
HETATM    8  C   UNL     1     -29.346  -5.049 -18.089  1.00  0.00     0.000 C 
BRANCH   8   9
HETATM    9  C   UNL     1     -30.630  -5.496 -17.391  1.00  0.00    -0.000 C 
BRANCH   9  10
HETATM   10  C   UNL     1     -30.755  -7.019 -17.380  1.00  0.00    -0.005 C 
HETATM   11  C   UNL     1     -29.884  -7.648 -18.456  1.00  0.00     0.005 C 
ENDBRANCH   9  10
ENDBRANCH   8   9
ENDBRANCH   7   8
ENDBRANCH   6   7
ENDBRANCH   5   6
ENDBRANCH   4   5
ENDBRANCH   3   4
ENDBRANCH   2   3
ENDBRANCH   1   2
BRANCH   1  12
HETATM   12  C   UNL     1     -22.825  -4.809 -13.052  1.00  0.00     0.220 C 
HETATM   13  O   UNL     1     -22.099  -4.021 -13.667  1.00  0.00    -0.273 OA
HETATM   14  N   UNL     1     -23.025  -4.639 -11.705  1.00  0.00    -0.338 N 
HETATM   15  C   UNL     1     -23.814  -5.477 -10.821  1.00  0.00     0.127 C 
HETATM   16  C   UNL     1     -22.508  -3.469 -10.980  1.00  0.00     0.185 C 
HETATM   17  C   UNL     1     -24.397  -4.490  -9.830  1.00  0.00     0.022 C 
HETATM   18  C   UNL     1     -23.291  -3.455  -9.655  1.00  0.00     0.038 C 
BRANCH  16  19
HETATM   19  C   UNL     1     -20.986  -3.544 -10.751  1.00  0.00     0.163 C 
HETATM   20  O   UNL     1     -20.444  -4.143  -9.831  1.00  0.00    -0.648 OA
BRANCH  19  21
HETATM   21  O   UNL     1     -20.265  -2.818 -11.638  1.00  0.00    -0.775 OA
HETATM   22  H   UNL     1     -20.675  -2.804 -12.541  1.00  0.00     0.167 HD
ENDBRANCH  19  21
ENDBRANCH  16  19
ENDBRANCH   1  12
TORSDOF 12
BEGIN_RES ARG D 557
REMARK  4 active torsions:
REMARK  status: ('A' for Active; 'I' for Inactive)
REMARK    1  A    between atoms: CA   and  CB  
REMARK    2  A    between atoms: CB   and  CG  
REMARK    3  A    between atoms: CG   and  CD  
REMARK    4  A    between atoms: CD   and  NE  
REMARK       I    between atoms: NE   and  CZ  
REMARK       I    between atoms: CZ   and  NH1 
REMARK       I    between atoms: CZ   and  NH2 
ROOT
ATOM      1  CA  ARG D 557     -26.217   2.705 -17.014  1.00 35.49     0.159 C 
ENDROOT
BRANCH   1   2
ATOM      2  CB  ARG D 557     -26.789   1.319 -17.183  1.00 35.49     0.034 C 
BRANCH   2   3
ATOM      3  CG  ARG D 557     -25.922   0.196 -16.807  1.00 35.49     0.027 C 
BRANCH   3   4
ATOM      4  CD  ARG D 557     -26.682  -0.933 -16.223  1.00 35.49     0.116 C 
BRANCH   4   5
ATOM      5  NE  ARG D 557     -25.977  -1.557 -15.135  1.00 35.49    -0.212 N 
ATOM      6  CZ  ARG D 557     -24.776  -1.231 -14.710  1.00 35.49     0.666 C 
ATOM      7  NH1 ARG D 557     -24.063  -0.271 -15.269  1.00 35.49    -0.235 N 
ATOM      8  NH2 ARG D 557     -24.299  -1.891 -13.695  1.00 35.49    -0.235 N 
ATOM      9  HH  ARG D 557     -24.358   0.178 -15.937  1.00 35.49     0.174 HD
ATOM     10  HH  ARG D 557     -23.287  -0.100 -14.947  1.00 35.49     0.174 HD
ATOM     11  HH  ARG D 557     -24.785  -2.500 -13.349  1.00 35.49     0.174 HD
ATOM     12  HH  ARG D 557     -23.530  -1.706 -13.390  1.00 35.49     0.174 HD
ATOM     13  HE  ARG D 557     -26.333  -2.234 -14.764  1.00 35.49     0.178 HD
ENDBRANCH   4   5
ENDBRANCH   3   4
ENDBRANCH   2   3
ENDBRANCH   1   2
END_RES ARG D 557
BEGIN_RES GLU D 570
REMARK  3 active torsions:
REMARK  status: ('A' for Active; 'I' for Inactive)
REMARK    5  A    between atoms: CA   and  CB  
REMARK    6  A    between atoms: CB   and  CG  
REMARK    7  A    between atoms: CG   and  CD  
ROOT
ATOM     14  CA  GLU D 570     -18.033  -6.348 -13.375  1.00 32.92     0.160 C 
ENDROOT
BRANCH  14  15
ATOM     15  CB  GLU D 570     -19.500  -6.345 -13.794  1.00 32.92     0.043 C 
BRANCH  15  16
ATOM     16  CG  GLU D 570     -19.798  -6.196 -15.242  1.00 32.92     0.100 C 
BRANCH  16  17
ATOM     17  CD  GLU D 570     -20.722  -7.270 -15.767  1.00 32.92     0.185 C 
ATOM     18  OE1 GLU D 570     -20.638  -8.422 -15.299  1.00 32.92    -0.647 OA
ATOM     19  OE2 GLU D 570     -21.526  -6.960 -16.668  1.00 32.92    -0.647 OA
ENDBRANCH  16  17
ENDBRANCH  15  16
ENDBRANCH  14  15
END_RES GLU D 570
ENDMDL
MODEL 7
REMARK VINA RESULT:      -7.1      2.093      3.235
REMARK  12 active torsions:
REMARK  status: ('A' for Active; 'I' for Inactive)
REMARK    1  A    between atoms: C_2  and  C_3 
REMARK    2  A    between atoms: C_3  and  C_4 
REMARK    3  A    between atoms: C_4  and  C_5 
REMARK    4  A    between atoms: C_5  and  C_6 
REMARK    5  A    between atoms: C_6  and  C_7 
REMARK    6  A    between atoms: C_7  and  C_8 
REMARK    7  A    between atoms: C_8  and  C_9 
REMARK    8  A    between atoms: C_9  and  C_10 
REMARK    9  A    between atoms: C_10  and  C_11 
REMARK   10  A    between atoms: C_11  and  C_12 
REMARK       I    between atoms: C_12  and  N_14 
REMARK   11  A    between atoms: C_18  and  C_19 
REMARK   12  A    between atoms: C_19  and  O_21 
ROOT
HETATM    1  C   UNL     1     -21.160  -7.555  -4.982  1.00  0.00     0.103 C 
ENDROOT
BRANCH   1   2
HETATM    2  C   UNL     1     -21.721  -7.888  -3.601  1.00  0.00     0.009 C 
BRANCH   2   3
HETATM    3  C   UNL     1     -21.056  -7.037  -2.517  1.00  0.00     0.000 C 
BRANCH   3   4
HETATM    4  C   UNL     1     -21.151  -7.719  -1.153  1.00  0.00     0.000 C 
BRANCH   4   5
HETATM    5  C   UNL     1     -22.450  -7.355  -0.435  1.00  0.00     0.000 C 
BRANCH   5   6
HETATM    6  C   UNL     1     -23.061  -8.582   0.242  1.00  0.00     0.000 C 
BRANCH   6   7
HETATM    7  C   UNL     1     -22.353  -9.863  -0.191  1.00  0.00     0.000 C 
BRANCH   7   8
HETATM    8  C   UNL     1     -23.166 -10.613  -1.246  1.00  0.00     0.000 C 
BRANCH   8   9
HETATM    9  C   UNL     1     -24.084 -11.648  -0.596  1.00  0.00    -0.000 C 
BRANCH   9  10
HETATM   10  C   UNL     1     -23.410 -12.312   0.604  1.00  0.00    -0.005 C 
HETATM   11  C   UNL     1     -23.377 -13.823   0.447  1.00  0.00     0.005 C 
ENDBRANCH   9  10
ENDBRANCH   8   9
ENDBRANCH   7   8
ENDBRANCH   6   7
ENDBRANCH   5   6
ENDBRANCH   4   5
ENDBRANCH   3   4
ENDBRANCH   2   3
ENDBRANCH   1   2
BRANCH   1  12
HETATM   12  C   UNL     1     -21.799  -6.316  -5.584  1.00  0.00     0.220 C 
HETATM   13  O   UNL     1     -22.912  -5.905  -5.241  1.00  0.00    -0.273 OA
HETATM   14  N   UNL     1     -21.082  -5.628  -6.530  1.00  0.00    -0.338 N 
HETATM   15  C   UNL     1     -19.782  -5.978  -7.073  1.00  0.00     0.127 C 
HETATM   16  C   UNL     1     -21.534  -4.336  -7.067  1.00  0.00     0.185 C 
HETATM   17  C   UNL     1     -19.129  -4.631  -7.311  1.00  0.00     0.022 C 
HETATM   18  C   UNL     1     -20.286  -3.736  -7.739  1.00  0.00     0.038 C 
BRANCH  16  19
HETATM   19  C   UNL     1     -22.708  -4.488  -8.055  1.00  0.00     0.163 C 
HETATM   20  O   UNL     1     -22.593  -4.777  -9.239  1.00  0.00    -0.648 OA
BRANCH  19  21
HETATM   21  O   UNL     1     -23.915  -4.203  -7.514  1.00  0.00    -0.775 OA
HETATM   22  H   UNL     1     -23.846  -3.632  -6.707  1.00  0.00     0.167 HD
ENDBRANCH  19  21
ENDBRANCH  16  19
ENDBRANCH   1  12
TORSDOF 12
BEGIN_RES ARG D 557
REMARK  4 active torsions:
REMARK  status: ('A' for Active; 'I' for Inactive)
REMARK    1  A    between atoms: CA   and  CB  
REMARK    2  A    between atoms: CB   and  CG  
REMARK    3  A    between atoms: CG   and  CD  
REMARK    4  A    between atoms: CD   and  NE  
REMARK       I    between atoms: NE   and  CZ  
REMARK       I    between atoms: CZ   and  NH1 
REMARK       I    between atoms: CZ   and  NH2 
ROOT
ATOM      1  CA  ARG D 557     -26.217   2.705 -17.014  1.00 35.49     0.159 C 
ENDROOT
BRANCH   1   2
ATOM      2  CB  ARG D 557     -26.789   1.319 -17.183  1.00 35.49     0.034 C 
BRANCH   2   3
ATOM      3  CG  ARG D 557     -28.232   1.226 -17.439  1.00 35.49     0.027 C 
BRANCH   3   4
ATOM      4  CD  ARG D 557     -28.913   0.304 -16.502  1.00 35.49     0.116 C 
BRANCH   4   5
ATOM      5  NE  ARG D 557     -29.276  -0.938 -17.132  1.00 35.49    -0.212 N 
ATOM      6  CZ  ARG D 557     -28.626  -2.075 -17.020  1.00 35.49     0.666 C 
ATOM      7  NH1 ARG D 557     -27.524  -2.194 -16.303  1.00 35.49    -0.235 N 
ATOM      8  NH2 ARG D 557     -29.112  -3.108 -17.645  1.00 35.49    -0.235 N 
ATOM      9  HH  ARG D 557     -27.188  -1.528 -15.881  1.00 35.49     0.174 HD
ATOM     10  HH  ARG D 557     -27.145  -2.962 -16.264  1.00 35.49     0.174 HD
ATOM     11  HH  ARG D 557     -29.829  -3.003 -18.094  1.00 35.49     0.174 HD
ATOM     12  HH  ARG D 557     -28.723  -3.860 -17.593  1.00 35.49     0.174 HD
ATOM     13  HE  ARG D 557     -29.933  -0.935 -17.671  1.00 35.49     0.178 HD
ENDBRANCH   4   5
ENDBRANCH   3   4
ENDBRANCH   2   3
ENDBRANCH   1   2
END_RES ARG D 557
BEGIN_RES GLU D 570
REMARK  3 active torsions:
REMARK  status: ('A' for Active; 'I' for Inactive)
REMARK    5  A    between atoms: CA   and  CB  
REMARK    6  A    between atoms: CB   and  CG  
REMARK    7  A    between atoms: CG   and  CD  
ROOT
ATOM     14  CA  GLU D 570     -18.033  -6.348 -13.375  1.00 32.92     0.160 C 
ENDROOT
BRANCH  14  15
ATOM     15  CB  GLU D 570     -19.500  -6.345 -13.794  1.00 32.92     0.043 C 
BRANCH  15  16
ATOM     16  CG  GLU D 570     -20.452  -5.578 -12.949  1.00 32.92     0.100 C 
BRANCH  16  17
ATOM     17  CD  GLU D 570     -21.709  -5.182 -13.688  1.00 32.92     0.185 C 
ATOM     18  OE1 GLU D 570     -22.637  -4.641 -13.057  1.00 32.92    -0.647 OA
ATOM     19  OE2 GLU D 570     -21.772  -5.431 -14.909  1.00 32.92    -0.647 OA
ENDBRANCH  16  17
ENDBRANCH  15  16
ENDBRANCH  14  15
END_RES GLU D 570
ENDMDL
MODEL 8
REMARK VINA RESULT:      -6.7      2.012      2.853
REMARK  12 active torsions:
REMARK  status: ('A' for Active; 'I' for Inactive)
REMARK    1  A    between atoms: C_2  and  C_3 
REMARK    2  A    between atoms: C_3  and  C_4 
REMARK    3  A    between atoms: C_4  and  C_5 
REMARK    4  A    between atoms: C_5  and  C_6 
REMARK    5  A    between atoms: C_6  and  C_7 
REMARK    6  A    between atoms: C_7  and  C_8 
REMARK    7  A    between atoms: C_8  and  C_9 
REMARK    8  A    between atoms: C_9  and  C_10 
REMARK    9  A    between atoms: C_10  and  C_11 
REMARK   10  A    between atoms: C_11  and  C_12 
REMARK       I    between atoms: C_12  and  N_14 
REMARK   11  A    between atoms: C_18  and  C_19 
REMARK   12  A    between atoms: C_19  and  O_21 
ROOT
HETATM    1  C   UNL     1     -20.855  -7.617  -5.191  1.00  0.00     0.103 C 
ENDROOT
BRANCH   1   2
HETATM    2  C   UNL     1     -21.058  -7.963  -3.718  1.00  0.00     0.009 C 
BRANCH   2   3
HETATM    3  C   UNL     1     -20.023  -8.984  -3.242  1.00  0.00     0.000 C 
BRANCH   3   4
HETATM    4  C   UNL     1     -19.973  -9.041  -1.716  1.00  0.00     0.000 C 
BRANCH   4   5
HETATM    5  C   UNL     1     -20.829  -7.943  -1.087  1.00  0.00     0.000 C 
BRANCH   5   6
HETATM    6  C   UNL     1     -21.411  -8.403   0.250  1.00  0.00     0.000 C 
BRANCH   6   7
HETATM    7  C   UNL     1     -22.902  -8.704   0.130  1.00  0.00     0.000 C 
BRANCH   7   8
HETATM    8  C   UNL     1     -23.144  -9.983  -0.672  1.00  0.00     0.000 C 
BRANCH   8   9
HETATM    9  C   UNL     1     -24.115 -10.910   0.058  1.00  0.00    -0.000 C 
BRANCH   9  10
HETATM   10  C   UNL     1     -23.494 -12.285   0.302  1.00  0.00    -0.005 C 
HETATM   11  C   UNL     1     -23.746 -13.217  -0.872  1.00  0.00     0.005 C 
ENDBRANCH   9  10
ENDBRANCH   8   9
ENDBRANCH   7   8
ENDBRANCH   6   7
ENDBRANCH   5   6
ENDBRANCH   4   5
ENDBRANCH   3   4
ENDBRANCH   2   3
ENDBRANCH   1   2
BRANCH   1  12
HETATM   12  C   UNL     1     -21.591  -6.353  -5.597  1.00  0.00     0.220 C 
HETATM   13  O   UNL     1     -22.645  -5.993  -5.062  1.00  0.00    -0.273 OA
HETATM   14  N   UNL     1     -21.032  -5.582  -6.585  1.00  0.00    -0.338 N 
HETATM   15  C   UNL     1     -19.824  -5.862  -7.339  1.00  0.00     0.127 C 
HETATM   16  C   UNL     1     -21.574  -4.265  -6.950  1.00  0.00     0.185 C 
HETATM   17  C   UNL     1     -19.230  -4.487  -7.571  1.00  0.00     0.022 C 
HETATM   18  C   UNL     1     -20.449  -3.590  -7.753  1.00  0.00     0.038 C 
BRANCH  16  19
HETATM   19  C   UNL     1     -22.881  -4.372  -7.761  1.00  0.00     0.163 C 
HETATM   20  O   UNL     1     -22.942  -4.497  -8.977  1.00  0.00    -0.648 OA
BRANCH  19  21
HETATM   21  O   UNL     1     -24.000  -4.247  -7.010  1.00  0.00    -0.775 OA
HETATM   22  H   UNL     1     -23.833  -3.781  -6.151  1.00  0.00     0.167 HD
ENDBRANCH  19  21
ENDBRANCH  16  19
ENDBRANCH   1  12
TORSDOF 12
BEGIN_RES ARG D 557
REMARK  4 active torsions:
REMARK  status: ('A' for Active; 'I' for Inactive)
REMARK    1  A    between atoms: CA   and  CB  
REMARK    2  A    between atoms: CB   and  CG  
REMARK    3  A    between atoms: CG   and  CD  
REMARK    4  A    between atoms: CD   and  NE  
REMARK       I    between atoms: NE   and  CZ  
REMARK       I    between atoms: CZ   and  NH1 
REMARK       I    between atoms: CZ   and  NH2 
ROOT
ATOM      1  CA  ARG D 557     -26.217   2.705 -17.014  1.00 35.49     0.159 C 
ENDROOT
BRANCH   1   2
ATOM      2  CB  ARG D 557     -26.789   1.319 -17.183  1.00 35.49     0.034 C 
BRANCH   2   3
ATOM      3  CG  ARG D 557     -25.839   0.201 -17.127  1.00 35.49     0.027 C 
BRANCH   3   4
ATOM      4  CD  ARG D 557     -24.756   0.430 -16.144  1.00 35.49     0.116 C 
BRANCH   4   5
ATOM      5  NE  ARG D 557     -24.875  -0.430 -14.996  1.00 35.49    -0.212 N 
ATOM      6  CZ  ARG D 557     -24.047  -1.398 -14.671  1.00 35.49     0.666 C 
ATOM      7  NH1 ARG D 557     -22.989  -1.700 -15.401  1.00 35.49    -0.235 N 
ATOM      8  NH2 ARG D 557     -24.298  -2.063 -13.582  1.00 35.49    -0.235 N 
ATOM      9  HH  ARG D 557     -22.803  -1.274 -16.121  1.00 35.49     0.174 HD
ATOM     10  HH  ARG D 557     -22.483  -2.340 -15.139  1.00 35.49     0.174 HD
ATOM     11  HH  ARG D 557     -24.985  -1.841 -13.126  1.00 35.49     0.174 HD
ATOM     12  HH  ARG D 557     -23.785  -2.692 -13.338  1.00 35.49     0.174 HD
ATOM     13  HE  ARG D 557     -25.568  -0.353 -14.509  1.00 35.49     0.178 HD
ENDBRANCH   4   5
ENDBRANCH   3   4
ENDBRANCH   2   3
ENDBRANCH   1   2
END_RES ARG D 557
BEGIN_RES GLU D 570
REMARK  3 active torsions:
REMARK  status: ('A' for Active; 'I' for Inactive)
REMARK    5  A    between atoms: CA   and  CB  
REMARK    6  A    between atoms: CB   and  CG  
REMARK    7  A    between atoms: CG   and  CD  
ROOT
ATOM     14  CA  GLU D 570     -18.033  -6.348 -13.375  1.00 32.92     0.160 C 
ENDROOT
BRANCH  14  15
ATOM     15  CB  GLU D 570     -19.500  -6.345 -13.794  1.00 32.92     0.043 C 
BRANCH  15  16
ATOM     16  CG  GLU D 570     -19.818  -5.885 -15.171  1.00 32.92     0.100 C 
BRANCH  16  17
ATOM     17  CD  GLU D 570     -21.298  -5.691 -15.400  1.00 32.92     0.185 C 
ATOM     18  OE1 GLU D 570     -22.042  -6.690 -15.432  1.00 32.92    -0.647 OA
ATOM     19  OE2 GLU D 570     -21.717  -4.528 -15.566  1.00 32.92    -0.647 OA
ENDBRANCH  16  17
ENDBRANCH  15  16
ENDBRANCH  14  15
END_RES GLU D 570
ENDMDL
MODEL 9
REMARK VINA RESULT:      -6.6      3.552      7.969
REMARK  12 active torsions:
REMARK  status: ('A' for Active; 'I' for Inactive)
REMARK    1  A    between atoms: C_2  and  C_3 
REMARK    2  A    between atoms: C_3  and  C_4 
REMARK    3  A    between atoms: C_4  and  C_5 
REMARK    4  A    between atoms: C_5  and  C_6 
REMARK    5  A    between atoms: C_6  and  C_7 
REMARK    6  A    between atoms: C_7  and  C_8 
REMARK    7  A    between atoms: C_8  and  C_9 
REMARK    8  A    between atoms: C_9  and  C_10 
REMARK    9  A    between atoms: C_10  and  C_11 
REMARK   10  A    between atoms: C_11  and  C_12 
REMARK       I    between atoms: C_12  and  N_14 
REMARK   11  A    between atoms: C_18  and  C_19 
REMARK   12  A    between atoms: C_19  and  O_21 
ROOT
HETATM    1  C   UNL     1     -20.979  -9.133  -3.855  1.00  0.00     0.103 C 
ENDROOT
BRANCH   1   2
HETATM    2  C   UNL     1     -21.562  -8.142  -4.859  1.00  0.00     0.009 C 
BRANCH   2   3
HETATM    3  C   UNL     1     -20.496  -7.156  -5.342  1.00  0.00     0.000 C 
BRANCH   3   4
HETATM    4  C   UNL     1     -21.110  -5.787  -5.633  1.00  0.00     0.000 C 
BRANCH   4   5
HETATM    5  C   UNL     1     -20.034  -4.716  -5.803  1.00  0.00     0.000 C 
BRANCH   5   6
HETATM    6  C   UNL     1     -19.481  -4.719  -7.228  1.00  0.00     0.000 C 
BRANCH   6   7
HETATM    7  C   UNL     1     -20.574  -5.039  -8.244  1.00  0.00     0.000 C 
BRANCH   7   8
HETATM    8  C   UNL     1     -20.402  -4.214  -9.518  1.00  0.00     0.000 C 
BRANCH   8   9
HETATM    9  C   UNL     1     -21.752  -3.721 -10.038  1.00  0.00    -0.000 C 
BRANCH   9  10
HETATM   10  C   UNL     1     -22.890  -4.129  -9.104  1.00  0.00    -0.005 C 
HETATM   11  C   UNL     1     -24.132  -4.517  -9.889  1.00  0.00     0.005 C 
ENDBRANCH   9  10
ENDBRANCH   8   9
ENDBRANCH   7   8
ENDBRANCH   6   7
ENDBRANCH   5   6
ENDBRANCH   4   5
ENDBRANCH   3   4
ENDBRANCH   2   3
ENDBRANCH   1   2
BRANCH   1  12
HETATM   12  C   UNL     1     -21.336  -8.782  -2.421  1.00  0.00     0.220 C 
HETATM   13  O   UNL     1     -21.032  -7.703  -1.902  1.00  0.00    -0.273 OA
HETATM   14  N   UNL     1     -22.046  -9.708  -1.699  1.00  0.00    -0.338 N 
HETATM   15  C   UNL     1     -22.461 -11.030  -2.132  1.00  0.00     0.127 C 
HETATM   16  C   UNL     1     -22.576  -9.415  -0.359  1.00  0.00     0.185 C 
HETATM   17  C   UNL     1     -23.799 -11.218  -1.446  1.00  0.00     0.022 C 
HETATM   18  C   UNL     1     -23.624 -10.513  -0.106  1.00  0.00     0.038 C 
BRANCH  16  19
HETATM   19  C   UNL     1     -21.475  -9.406   0.720  1.00  0.00     0.163 C 
HETATM   20  O   UNL     1     -21.158  -8.430   1.389  1.00  0.00    -0.648 OA
BRANCH  19  21
HETATM   21  O   UNL     1     -20.813 -10.581   0.833  1.00  0.00    -0.775 OA
HETATM   22  H   UNL     1     -21.330 -11.262   1.335  1.00  0.00     0.167 HD
ENDBRANCH  19  21
ENDBRANCH  16  19
ENDBRANCH   1  12
TORSDOF 12
BEGIN_RES ARG D 557
REMARK  4 active torsions:
REMARK  status: ('A' for Active; 'I' for Inactive)
REMARK    1  A    between atoms: CA   and  CB  
REMARK    2  A    between atoms: CB   and  CG  
REMARK    3  A    between atoms: CG   and  CD  
REMARK    4  A    between atoms: CD   and  NE  
REMARK       I    between atoms: NE   and  CZ  
REMARK       I    between atoms: CZ   and  NH1 
REMARK       I    between atoms: CZ   and  NH2 
ROOT
ATOM      1  CA  ARG D 557     -26.217   2.705 -17.014  1.00 35.49     0.159 C 
ENDROOT
BRANCH   1   2
ATOM      2  CB  ARG D 557     -26.789   1.319 -17.183  1.00 35.49     0.034 C 
BRANCH   2   3
ATOM      3  CG  ARG D 557     -25.916   0.195 -16.822  1.00 35.49     0.027 C 
BRANCH   3   4
ATOM      4  CD  ARG D 557     -26.643  -0.875 -16.101  1.00 35.49     0.116 C 
BRANCH   4   5
ATOM      5  NE  ARG D 557     -25.838  -1.479 -15.072  1.00 35.49    -0.212 N 
ATOM      6  CZ  ARG D 557     -25.857  -2.747 -14.727  1.00 35.49     0.666 C 
ATOM      7  NH1 ARG D 557     -26.656  -3.626 -15.302  1.00 35.49    -0.235 N 
ATOM      8  NH2 ARG D 557     -25.042  -3.125 -13.786  1.00 35.49    -0.235 N 
ATOM      9  HH  ARG D 557     -27.199  -3.400 -15.925  1.00 35.49     0.174 HD
ATOM     10  HH  ARG D 557     -26.623  -4.440 -15.037  1.00 35.49     0.174 HD
ATOM     11  HH  ARG D 557     -24.532  -2.536 -13.438  1.00 35.49     0.174 HD
ATOM     12  HH  ARG D 557     -25.023  -3.936 -13.539  1.00 35.49     0.174 HD
ATOM     13  HE  ARG D 557     -25.345  -0.970 -14.600  1.00 35.49     0.178 HD
ENDBRANCH   4   5
ENDBRANCH   3   4
ENDBRANCH   2   3
ENDBRANCH   1   2
END_RES ARG D 557
BEGIN_RES GLU D 570
REMARK  3 active torsions:
REMARK  status: ('A' for Active; 'I' for Inactive)
REMARK    5  A    between atoms: CA   and  CB  
REMARK    6  A    between atoms: CB   and  CG  
REMARK    7  A    between atoms: CG   and  CD  
ROOT
ATOM     14  CA  GLU D 570     -18.033  -6.348 -13.375  1.00 32.92     0.160 C 
ENDROOT
BRANCH  14  15
ATOM     15  CB  GLU D 570     -19.500  -6.345 -13.794  1.00 32.92     0.043 C 
BRANCH  15  16
ATOM     16  CG  GLU D 570     -20.438  -5.513 -12.996  1.00 32.92     0.100 C 
BRANCH  16  17
ATOM     17  CD  GLU D 570     -21.701  -5.165 -13.748  1.00 32.92     0.185 C 
ATOM     18  OE1 GLU D 570     -21.635  -4.942 -14.972  1.00 32.92    -0.647 OA
ATOM     19  OE2 GLU D 570     -22.766  -5.097 -13.103  1.00 32.92    -0.647 OA
ENDBRANCH  16  17
ENDBRANCH  15  16
ENDBRANCH  14  15
END_RES GLU D 570
ENDMDL
