MODEL 1
REMARK VINA RESULT:      -7.5      0.000      0.000
REMARK  13 active torsions:
REMARK  status: ('A' for Active; 'I' for Inactive)
REMARK    1  A    between atoms: C_2  and  C_3 
REMARK    2  A    between atoms: C_3  and  C_4 
REMARK    3  A    between atoms: C_4  and  C_5 
REMARK    4  A    between atoms: C_5  and  C_6 
REMARK    5  A    between atoms: C_6  and  O_7 
REMARK    6  A    between atoms: O_7  and  C_8 
REMARK    7  A    between atoms: C_8  and  C_10 
REMARK    8  A    between atoms: C_15  and  C_16 
REMARK    9  A    between atoms: C_16  and  C_18 
REMARK   10  A    between atoms: C_19  and  O_29 
REMARK   11  A    between atoms: C_21  and  N_24 
REMARK   12  A    between atoms: N_24  and  C_25 
REMARK   13  A    between atoms: N_24  and  C_27 
ROOT
HETATM    1  C   UNL     1     -21.552  -6.939  -3.524  1.00  0.00     0.053 A 
HETATM    2  C   UNL     1     -21.911  -6.317  -2.317  1.00  0.00     0.018 A 
HETATM    3  C   UNL     1     -22.115  -7.080  -1.164  1.00  0.00     0.001 A 
HETATM    4  C   UNL     1     -21.970  -8.464  -1.217  1.00  0.00     0.001 A 
HETATM    5  C   UNL     1     -21.551  -9.086  -2.399  1.00  0.00     0.016 A 
HETATM    6  C   UNL     1     -21.298  -8.317  -3.544  1.00  0.00     0.031 A 
ENDROOT
BRANCH   6   7
HETATM    7  C   UNL     1     -20.732  -9.009  -4.727  1.00  0.00     0.196 C 
HETATM    8  O   UNL     1     -21.408  -9.114  -5.745  1.00  0.00    -0.287 OA
BRANCH   7   9
HETATM    9  C   UNL     1     -19.360  -9.595  -4.683  1.00  0.00     0.048 A 
HETATM   10  C   UNL     1     -19.011 -10.633  -5.548  1.00  0.00     0.082 A 
HETATM   11  C   UNL     1     -17.739 -11.214  -5.481  1.00  0.00     0.066 A 
HETATM   12  C   UNL     1     -16.774 -10.780  -4.557  1.00  0.00     0.032 A 
HETATM   13  C   UNL     1     -17.123  -9.694  -3.746  1.00  0.00     0.030 A 
HETATM   14  C   UNL     1     -18.402  -9.128  -3.778  1.00  0.00     0.020 A 
BRANCH  10  15
HETATM   15  O   UNL     1     -19.864 -11.134  -6.495  1.00  0.00    -0.360 OA
HETATM   16  H   UNL     1     -19.757 -12.111  -6.506  1.00  0.00     0.217 HD
ENDBRANCH  10  15
BRANCH  12  17
HETATM   17  N   UNL     1     -15.558 -11.432  -4.407  1.00  0.00    -0.382 N 
BRANCH  17  18
HETATM   18  C   UNL     1     -14.705 -11.741  -5.559  1.00  0.00     0.118 C 
HETATM   19  C   UNL     1     -13.377 -12.358  -5.153  1.00  0.00     0.026 C 
ENDBRANCH  17  18
BRANCH  17  20
HETATM   20  C   UNL     1     -15.090 -11.825  -3.072  1.00  0.00     0.118 C 
HETATM   21  C   UNL     1     -15.939 -12.952  -2.492  1.00  0.00     0.026 C 
ENDBRANCH  17  20
ENDBRANCH  12  17
ENDBRANCH   7   9
ENDBRANCH   6   7
BRANCH   1  22
HETATM   22  C   UNL     1     -21.622  -6.089  -4.736  1.00  0.00     0.294 C 
HETATM   23  O   UNL     1     -22.648  -5.893  -5.359  1.00  0.00    -0.259 OA
BRANCH  22  24
HETATM   24  O   UNL     1     -20.360  -5.815  -5.140  1.00  0.00    -0.317 OA
BRANCH  24  25
HETATM   25  C   UNL     1     -20.178  -4.618  -5.900  1.00  0.00     0.179 C 
BRANCH  25  26
HETATM   26  C   UNL     1     -19.331  -4.767  -7.154  1.00  0.00     0.027 C 
BRANCH  26  27
HETATM   27  C   UNL     1     -20.152  -5.102  -8.397  1.00  0.00     0.002 C 
BRANCH  27  28
HETATM   28  C   UNL     1     -21.231  -4.039  -8.610  1.00  0.00    -0.000 C 
BRANCH  28  29
HETATM   29  C   UNL     1     -22.382  -4.566  -9.460  1.00  0.00    -0.005 C 
HETATM   30  C   UNL     1     -23.703  -3.948  -9.034  1.00  0.00     0.005 C 
ENDBRANCH  28  29
ENDBRANCH  27  28
ENDBRANCH  26  27
ENDBRANCH  25  26
ENDBRANCH  24  25
ENDBRANCH  22  24
ENDBRANCH   1  22
TORSDOF 13
BEGIN_RES ARG D 557
REMARK  4 active torsions:
REMARK  status: ('A' for Active; 'I' for Inactive)
REMARK    1  A    between atoms: CA   and  CB  
REMARK    2  A    between atoms: CB   and  CG  
REMARK    3  A    between atoms: CG   and  CD  
REMARK    4  A    between atoms: CD   and  NE  
REMARK       I    between atoms: NE   and  CZ  
REMARK       I    between atoms: CZ   and  NH1 
REMARK       I    between atoms: CZ   and  NH2 
ROOT
ATOM      1  CA  ARG D 557     -26.217   2.705 -17.014  1.00 35.49     0.159 C 
ENDROOT
BRANCH   1   2
ATOM      2  CB  ARG D 557     -26.789   1.319 -17.183  1.00 35.49     0.034 C 
BRANCH   2   3
ATOM      3  CG  ARG D 557     -25.861   0.195 -17.005  1.00 35.49     0.027 C 
BRANCH   3   4
ATOM      4  CD  ARG D 557     -26.286  -0.721 -15.922  1.00 35.49     0.116 C 
BRANCH   4   5
ATOM      5  NE  ARG D 557     -25.245  -0.929 -14.949  1.00 35.49    -0.212 N 
ATOM      6  CZ  ARG D 557     -24.997  -2.055 -14.320  1.00 35.49     0.666 C 
ATOM      7  NH1 ARG D 557     -25.712  -3.148 -14.512  1.00 35.49    -0.235 N 
ATOM      8  NH2 ARG D 557     -23.999  -2.068 -13.485  1.00 35.49    -0.235 N 
ATOM      9  HH  ARG D 557     -26.372  -3.163 -15.058  1.00 35.49     0.174 HD
ATOM     10  HH  ARG D 557     -25.502  -3.854 -14.075  1.00 35.49     0.174 HD
ATOM     11  HH  ARG D 557     -23.550  -1.350 -13.386  1.00 35.49     0.174 HD
ATOM     12  HH  ARG D 557     -23.805  -2.778 -13.063  1.00 35.49     0.174 HD
ATOM     13  HE  ARG D 557     -24.782  -0.257 -14.711  1.00 35.49     0.178 HD
ENDBRANCH   4   5
ENDBRANCH   3   4
ENDBRANCH   2   3
ENDBRANCH   1   2
END_RES ARG D 557
BEGIN_RES GLU D 570
REMARK  3 active torsions:
REMARK  status: ('A' for Active; 'I' for Inactive)
REMARK    5  A    between atoms: CA   and  CB  
REMARK    6  A    between atoms: CB   and  CG  
REMARK    7  A    between atoms: CG   and  CD  
ROOT
ATOM     14  CA  GLU D 570     -18.033  -6.348 -13.375  1.00 32.92     0.160 C 
ENDROOT
BRANCH  14  15
ATOM     15  CB  GLU D 570     -19.500  -6.345 -13.794  1.00 32.92     0.043 C 
BRANCH  15  16
ATOM     16  CG  GLU D 570     -20.453  -5.586 -12.944  1.00 32.92     0.100 C 
BRANCH  16  17
ATOM     17  CD  GLU D 570     -21.714  -5.194 -13.678  1.00 32.92     0.185 C 
ATOM     18  OE1 GLU D 570     -22.638  -4.647 -13.045  1.00 32.92    -0.647 OA
ATOM     19  OE2 GLU D 570     -21.786  -5.452 -14.896  1.00 32.92    -0.647 OA
ENDBRANCH  16  17
ENDBRANCH  15  16
ENDBRANCH  14  15
END_RES GLU D 570
ENDMDL
MODEL 2
REMARK VINA RESULT:      -7.4      3.078      6.904
REMARK  13 active torsions:
REMARK  status: ('A' for Active; 'I' for Inactive)
REMARK    1  A    between atoms: C_2  and  C_3 
REMARK    2  A    between atoms: C_3  and  C_4 
REMARK    3  A    between atoms: C_4  and  C_5 
REMARK    4  A    between atoms: C_5  and  C_6 
REMARK    5  A    between atoms: C_6  and  O_7 
REMARK    6  A    between atoms: O_7  and  C_8 
REMARK    7  A    between atoms: C_8  and  C_10 
REMARK    8  A    between atoms: C_15  and  C_16 
REMARK    9  A    between atoms: C_16  and  C_18 
REMARK   10  A    between atoms: C_19  and  O_29 
REMARK   11  A    between atoms: C_21  and  N_24 
REMARK   12  A    between atoms: N_24  and  C_25 
REMARK   13  A    between atoms: N_24  and  C_27 
ROOT
HETATM    1  C   UNL     1     -22.333 -10.012  -1.632  1.00  0.00     0.053 A 
HETATM    2  C   UNL     1     -23.351 -10.077  -0.667  1.00  0.00     0.018 A 
HETATM    3  C   UNL     1     -23.347  -9.204   0.423  1.00  0.00     0.001 A 
HETATM    4  C   UNL     1     -22.322  -8.271   0.556  1.00  0.00     0.001 A 
HETATM    5  C   UNL     1     -21.338  -8.156  -0.432  1.00  0.00     0.016 A 
HETATM    6  C   UNL     1     -21.368  -8.999  -1.552  1.00  0.00     0.031 A 
ENDROOT
BRANCH   6   7
HETATM    7  C   UNL     1     -20.381  -8.748  -2.630  1.00  0.00     0.196 C 
HETATM    8  O   UNL     1     -19.268  -9.260  -2.560  1.00  0.00    -0.287 OA
BRANCH   7   9
HETATM    9  C   UNL     1     -20.721  -7.864  -3.784  1.00  0.00     0.048 A 
HETATM   10  C   UNL     1     -20.709  -8.370  -5.084  1.00  0.00     0.082 A 
HETATM   11  C   UNL     1     -20.985  -7.535  -6.173  1.00  0.00     0.066 A 
HETATM   12  C   UNL     1     -21.284  -6.173  -6.004  1.00  0.00     0.032 A 
HETATM   13  C   UNL     1     -21.356  -5.703  -4.687  1.00  0.00     0.030 A 
HETATM   14  C   UNL     1     -21.047  -6.519  -3.593  1.00  0.00     0.020 A 
BRANCH  10  15
HETATM   15  O   UNL     1     -20.440  -9.683  -5.371  1.00  0.00    -0.360 OA
HETATM   16  H   UNL     1     -21.189 -10.031  -5.905  1.00  0.00     0.217 HD
ENDBRANCH  10  15
BRANCH  12  17
HETATM   17  N   UNL     1     -21.439  -5.318  -7.086  1.00  0.00    -0.382 N 
BRANCH  17  18
HETATM   18  C   UNL     1     -22.636  -4.485  -7.241  1.00  0.00     0.118 C 
HETATM   19  C   UNL     1     -22.877  -4.073  -8.684  1.00  0.00     0.026 C 
ENDBRANCH  17  18
BRANCH  17  20
HETATM   20  C   UNL     1     -20.390  -5.222  -8.108  1.00  0.00     0.118 C 
HETATM   21  C   UNL     1     -19.177  -4.454  -7.593  1.00  0.00     0.026 C 
ENDBRANCH  17  20
ENDBRANCH  12  17
ENDBRANCH   7   9
ENDBRANCH   6   7
BRANCH   1  22
HETATM   22  C   UNL     1     -22.276 -11.141  -2.590  1.00  0.00     0.294 C 
HETATM   23  O   UNL     1     -22.671 -11.066  -3.739  1.00  0.00    -0.259 OA
BRANCH  22  24
HETATM   24  O   UNL     1     -21.974 -12.268  -1.907  1.00  0.00    -0.317 OA
BRANCH  24  25
HETATM   25  C   UNL     1     -20.589 -12.617  -1.831  1.00  0.00     0.179 C 
BRANCH  25  26
HETATM   26  C   UNL     1     -20.031 -12.762  -0.423  1.00  0.00     0.027 C 
BRANCH  26  27
HETATM   27  C   UNL     1     -21.012 -12.318   0.659  1.00  0.00     0.002 C 
BRANCH  27  28
HETATM   28  C   UNL     1     -21.688 -13.540   1.282  1.00  0.00    -0.000 C 
BRANCH  28  29
HETATM   29  C   UNL     1     -23.187 -13.326   1.461  1.00  0.00    -0.005 C 
HETATM   30  C   UNL     1     -23.746 -14.247   2.533  1.00  0.00     0.005 C 
ENDBRANCH  28  29
ENDBRANCH  27  28
ENDBRANCH  26  27
ENDBRANCH  25  26
ENDBRANCH  24  25
ENDBRANCH  22  24
ENDBRANCH   1  22
TORSDOF 13
BEGIN_RES ARG D 557
REMARK  4 active torsions:
REMARK  status: ('A' for Active; 'I' for Inactive)
REMARK    1  A    between atoms: CA   and  CB  
REMARK    2  A    between atoms: CB   and  CG  
REMARK    3  A    between atoms: CG   and  CD  
REMARK    4  A    between atoms: CD   and  NE  
REMARK       I    between atoms: NE   and  CZ  
REMARK       I    between atoms: CZ   and  NH1 
REMARK       I    between atoms: CZ   and  NH2 
ROOT
ATOM      1  CA  ARG D 557     -26.217   2.705 -17.014  1.00 35.49     0.159 C 
ENDROOT
BRANCH   1   2
ATOM      2  CB  ARG D 557     -26.789   1.319 -17.183  1.00 35.49     0.034 C 
BRANCH   2   3
ATOM      3  CG  ARG D 557     -25.844   0.199 -17.095  1.00 35.49     0.027 C 
BRANCH   3   4
ATOM      4  CD  ARG D 557     -25.390  -0.048 -15.707  1.00 35.49     0.116 C 
BRANCH   4   5
ATOM      5  NE  ARG D 557     -25.685  -1.388 -15.271  1.00 35.49    -0.212 N 
ATOM      6  CZ  ARG D 557     -24.964  -2.098 -14.433  1.00 35.49     0.666 C 
ATOM      7  NH1 ARG D 557     -23.846  -1.644 -13.896  1.00 35.49    -0.235 N 
ATOM      8  NH2 ARG D 557     -25.393  -3.290 -14.132  1.00 35.49    -0.235 N 
ATOM      9  HH  ARG D 557     -23.546  -0.862 -14.078  1.00 35.49     0.174 HD
ATOM     10  HH  ARG D 557     -23.419  -2.152 -13.354  1.00 35.49     0.174 HD
ATOM     11  HH  ARG D 557     -26.122  -3.554 -14.488  1.00 35.49     0.174 HD
ATOM     12  HH  ARG D 557     -24.957  -3.776 -13.592  1.00 35.49     0.174 HD
ATOM     13  HE  ARG D 557     -26.349  -1.786 -15.623  1.00 35.49     0.178 HD
ENDBRANCH   4   5
ENDBRANCH   3   4
ENDBRANCH   2   3
ENDBRANCH   1   2
END_RES ARG D 557
BEGIN_RES GLU D 570
REMARK  3 active torsions:
REMARK  status: ('A' for Active; 'I' for Inactive)
REMARK    5  A    between atoms: CA   and  CB  
REMARK    6  A    between atoms: CB   and  CG  
REMARK    7  A    between atoms: CG   and  CD  
ROOT
ATOM     14  CA  GLU D 570     -18.033  -6.348 -13.375  1.00 32.92     0.160 C 
ENDROOT
BRANCH  14  15
ATOM     15  CB  GLU D 570     -19.500  -6.345 -13.794  1.00 32.92     0.043 C 
BRANCH  15  16
ATOM     16  CG  GLU D 570     -20.442  -5.533 -12.981  1.00 32.92     0.100 C 
BRANCH  16  17
ATOM     17  CD  GLU D 570     -21.691  -5.146 -13.738  1.00 32.92     0.185 C 
ATOM     18  OE1 GLU D 570     -22.508  -4.373 -13.203  1.00 32.92    -0.647 OA
ATOM     19  OE2 GLU D 570     -21.863  -5.636 -14.872  1.00 32.92    -0.647 OA
ENDBRANCH  16  17
ENDBRANCH  15  16
ENDBRANCH  14  15
END_RES GLU D 570
ENDMDL
MODEL 3
REMARK VINA RESULT:      -7.4      1.735      2.365
REMARK  13 active torsions:
REMARK  status: ('A' for Active; 'I' for Inactive)
REMARK    1  A    between atoms: C_2  and  C_3 
REMARK    2  A    between atoms: C_3  and  C_4 
REMARK    3  A    between atoms: C_4  and  C_5 
REMARK    4  A    between atoms: C_5  and  C_6 
REMARK    5  A    between atoms: C_6  and  O_7 
REMARK    6  A    between atoms: O_7  and  C_8 
REMARK    7  A    between atoms: C_8  and  C_10 
REMARK    8  A    between atoms: C_15  and  C_16 
REMARK    9  A    between atoms: C_16  and  C_18 
REMARK   10  A    between atoms: C_19  and  O_29 
REMARK   11  A    between atoms: C_21  and  N_24 
REMARK   12  A    between atoms: N_24  and  C_25 
REMARK   13  A    between atoms: N_24  and  C_27 
ROOT
HETATM    1  C   UNL     1     -21.582  -6.932  -3.470  1.00  0.00     0.053 A 
HETATM    2  C   UNL     1     -21.944  -6.315  -2.262  1.00  0.00     0.018 A 
HETATM    3  C   UNL     1     -22.135  -7.081  -1.109  1.00  0.00     0.001 A 
HETATM    4  C   UNL     1     -21.974  -8.463  -1.163  1.00  0.00     0.001 A 
HETATM    5  C   UNL     1     -21.552  -9.079  -2.347  1.00  0.00     0.016 A 
HETATM    6  C   UNL     1     -21.313  -8.307  -3.492  1.00  0.00     0.031 A 
ENDROOT
BRANCH   6   7
HETATM    7  C   UNL     1     -20.742  -8.992  -4.677  1.00  0.00     0.196 C 
HETATM    8  O   UNL     1     -21.415  -9.089  -5.699  1.00  0.00    -0.287 OA
BRANCH   7   9
HETATM    9  C   UNL     1     -19.371  -9.579  -4.632  1.00  0.00     0.048 A 
HETATM   10  C   UNL     1     -19.020 -10.611  -5.503  1.00  0.00     0.082 A 
HETATM   11  C   UNL     1     -17.749 -11.195  -5.436  1.00  0.00     0.066 A 
HETATM   12  C   UNL     1     -16.787 -10.769  -4.504  1.00  0.00     0.032 A 
HETATM   13  C   UNL     1     -17.138  -9.687  -3.687  1.00  0.00     0.030 A 
HETATM   14  C   UNL     1     -18.417  -9.120  -3.720  1.00  0.00     0.020 A 
BRANCH  10  15
HETATM   15  O   UNL     1     -19.870 -11.105  -6.458  1.00  0.00    -0.360 OA
HETATM   16  H   UNL     1     -20.632 -11.516  -5.994  1.00  0.00     0.217 HD
ENDBRANCH  10  15
BRANCH  12  17
HETATM   17  N   UNL     1     -15.573 -11.423  -4.355  1.00  0.00    -0.382 N 
BRANCH  17  18
HETATM   18  C   UNL     1     -15.094 -11.863  -3.040  1.00  0.00     0.118 C 
HETATM   19  C   UNL     1     -15.964 -12.956  -2.439  1.00  0.00     0.026 C 
ENDBRANCH  17  18
BRANCH  17  20
HETATM   20  C   UNL     1     -14.733 -11.698  -5.527  1.00  0.00     0.118 C 
HETATM   21  C   UNL     1     -13.418 -12.363  -5.128  1.00  0.00     0.026 C 
ENDBRANCH  17  20
ENDBRANCH  12  17
ENDBRANCH   7   9
ENDBRANCH   6   7
BRANCH   1  22
HETATM   22  C   UNL     1     -21.667  -6.082  -4.681  1.00  0.00     0.294 C 
HETATM   23  O   UNL     1     -22.678  -5.960  -5.346  1.00  0.00    -0.259 OA
BRANCH  22  24
HETATM   24  O   UNL     1     -20.414  -5.712  -5.033  1.00  0.00    -0.317 OA
BRANCH  24  25
HETATM   25  C   UNL     1     -20.069  -5.853  -6.413  1.00  0.00     0.179 C 
BRANCH  25  26
HETATM   26  C   UNL     1     -19.744  -4.556  -7.138  1.00  0.00     0.027 C 
BRANCH  26  27
HETATM   27  C   UNL     1     -20.987  -3.755  -7.519  1.00  0.00     0.002 C 
BRANCH  27  28
HETATM   28  C   UNL     1     -21.527  -4.242  -8.864  1.00  0.00    -0.000 C 
BRANCH  28  29
HETATM   29  C   UNL     1     -20.411  -4.436  -9.884  1.00  0.00    -0.005 C 
HETATM   30  C   UNL     1     -20.626  -3.555 -11.104  1.00  0.00     0.005 C 
ENDBRANCH  28  29
ENDBRANCH  27  28
ENDBRANCH  26  27
ENDBRANCH  25  26
ENDBRANCH  24  25
ENDBRANCH  22  24
ENDBRANCH   1  22
TORSDOF 13
BEGIN_RES ARG D 557
REMARK  4 active torsions:
REMARK  status: ('A' for Active; 'I' for Inactive)
REMARK    1  A    between atoms: CA   and  CB  
REMARK    2  A    between atoms: CB   and  CG  
REMARK    3  A    between atoms: CG   and  CD  
REMARK    4  A    between atoms: CD   and  NE  
REMARK       I    between atoms: NE   and  CZ  
REMARK       I    between atoms: CZ   and  NH1 
REMARK       I    between atoms: CZ   and  NH2 
ROOT
ATOM      1  CA  ARG D 557     -26.217   2.705 -17.014  1.00 35.49     0.159 C 
ENDROOT
BRANCH   1   2
ATOM      2  CB  ARG D 557     -26.789   1.319 -17.183  1.00 35.49     0.034 C 
BRANCH   2   3
ATOM      3  CG  ARG D 557     -28.232   1.226 -17.435  1.00 35.49     0.027 C 
BRANCH   3   4
ATOM      4  CD  ARG D 557     -28.910   0.301 -16.498  1.00 35.49     0.116 C 
BRANCH   4   5
ATOM      5  NE  ARG D 557     -29.290  -0.933 -17.133  1.00 35.49    -0.212 N 
ATOM      6  CZ  ARG D 557     -28.653  -2.078 -17.028  1.00 35.49     0.666 C 
ATOM      7  NH1 ARG D 557     -27.552  -2.215 -16.313  1.00 35.49    -0.235 N 
ATOM      8  NH2 ARG D 557     -29.153  -3.102 -17.658  1.00 35.49    -0.235 N 
ATOM      9  HH  ARG D 557     -27.207  -1.555 -15.889  1.00 35.49     0.174 HD
ATOM     10  HH  ARG D 557     -27.182  -2.987 -16.280  1.00 35.49     0.174 HD
ATOM     11  HH  ARG D 557     -29.869  -2.986 -18.105  1.00 35.49     0.174 HD
ATOM     12  HH  ARG D 557     -28.773  -3.859 -17.611  1.00 35.49     0.174 HD
ATOM     13  HE  ARG D 557     -29.948  -0.919 -17.672  1.00 35.49     0.178 HD
ENDBRANCH   4   5
ENDBRANCH   3   4
ENDBRANCH   2   3
ENDBRANCH   1   2
END_RES ARG D 557
BEGIN_RES GLU D 570
REMARK  3 active torsions:
REMARK  status: ('A' for Active; 'I' for Inactive)
REMARK    5  A    between atoms: CA   and  CB  
REMARK    6  A    between atoms: CB   and  CG  
REMARK    7  A    between atoms: CG   and  CD  
ROOT
ATOM     14  CA  GLU D 570     -18.033  -6.348 -13.375  1.00 32.92     0.160 C 
ENDROOT
BRANCH  14  15
ATOM     15  CB  GLU D 570     -19.500  -6.345 -13.794  1.00 32.92     0.043 C 
BRANCH  15  16
ATOM     16  CG  GLU D 570     -19.797  -6.257 -15.247  1.00 32.92     0.100 C 
BRANCH  16  17
ATOM     17  CD  GLU D 570     -20.812  -7.278 -15.704  1.00 32.92     0.185 C 
ATOM     18  OE1 GLU D 570     -20.585  -8.487 -15.507  1.00 32.92    -0.647 OA
ATOM     19  OE2 GLU D 570     -21.838  -6.865 -16.280  1.00 32.92    -0.647 OA
ENDBRANCH  16  17
ENDBRANCH  15  16
ENDBRANCH  14  15
END_RES GLU D 570
ENDMDL
MODEL 4
REMARK VINA RESULT:      -7.3      5.071      9.446
REMARK  13 active torsions:
REMARK  status: ('A' for Active; 'I' for Inactive)
REMARK    1  A    between atoms: C_2  and  C_3 
REMARK    2  A    between atoms: C_3  and  C_4 
REMARK    3  A    between atoms: C_4  and  C_5 
REMARK    4  A    between atoms: C_5  and  C_6 
REMARK    5  A    between atoms: C_6  and  O_7 
REMARK    6  A    between atoms: O_7  and  C_8 
REMARK    7  A    between atoms: C_8  and  C_10 
REMARK    8  A    between atoms: C_15  and  C_16 
REMARK    9  A    between atoms: C_16  and  C_18 
REMARK   10  A    between atoms: C_19  and  O_29 
REMARK   11  A    between atoms: C_21  and  N_24 
REMARK   12  A    between atoms: N_24  and  C_25 
REMARK   13  A    between atoms: N_24  and  C_27 
ROOT
HETATM    1  C   UNL     1     -23.342  -3.852 -14.224  1.00  0.00     0.053 A 
HETATM    2  C   UNL     1     -22.622  -3.483 -15.371  1.00  0.00     0.018 A 
HETATM    3  C   UNL     1     -22.481  -2.136 -15.713  1.00  0.00     0.001 A 
HETATM    4  C   UNL     1     -23.067  -1.156 -14.915  1.00  0.00     0.001 A 
HETATM    5  C   UNL     1     -23.733  -1.510 -13.737  1.00  0.00     0.016 A 
HETATM    6  C   UNL     1     -23.834  -2.858 -13.366  1.00  0.00     0.031 A 
ENDROOT
BRANCH   6   7
HETATM    7  C   UNL     1     -24.433  -3.166 -12.045  1.00  0.00     0.196 C 
HETATM    8  O   UNL     1     -25.635  -2.989 -11.872  1.00  0.00    -0.287 OA
BRANCH   7   9
HETATM    9  C   UNL     1     -23.588  -3.669 -10.922  1.00  0.00     0.048 A 
HETATM   10  C   UNL     1     -24.176  -4.045  -9.714  1.00  0.00     0.082 A 
HETATM   11  C   UNL     1     -23.383  -4.476  -8.643  1.00  0.00     0.066 A 
HETATM   12  C   UNL     1     -21.984  -4.551  -8.741  1.00  0.00     0.032 A 
HETATM   13  C   UNL     1     -21.422  -4.233  -9.984  1.00  0.00     0.030 A 
HETATM   14  C   UNL     1     -22.200  -3.767 -11.049  1.00  0.00     0.020 A 
BRANCH  10  15
HETATM   15  O   UNL     1     -25.529  -4.022  -9.503  1.00  0.00    -0.360 OA
HETATM   16  H   UNL     1     -25.685  -4.195  -8.548  1.00  0.00     0.217 HD
ENDBRANCH  10  15
BRANCH  12  17
HETATM   17  N   UNL     1     -21.189  -4.862  -7.648  1.00  0.00    -0.382 N 
BRANCH  17  18
HETATM   18  C   UNL     1     -21.338  -6.129  -6.925  1.00  0.00     0.118 C 
HETATM   19  C   UNL     1     -21.695  -5.927  -5.461  1.00  0.00     0.026 C 
ENDBRANCH  17  18
BRANCH  17  20
HETATM   20  C   UNL     1     -20.161  -3.919  -7.189  1.00  0.00     0.118 C 
HETATM   21  C   UNL     1     -18.756  -4.459  -7.439  1.00  0.00     0.026 C 
ENDBRANCH  17  20
ENDBRANCH  12  17
ENDBRANCH   7   9
ENDBRANCH   6   7
BRANCH   1  22
HETATM   22  C   UNL     1     -23.662  -5.293 -14.095  1.00  0.00     0.294 C 
HETATM   23  O   UNL     1     -22.963  -6.084 -13.488  1.00  0.00    -0.259 OA
BRANCH  22  24
HETATM   24  O   UNL     1     -24.666  -5.587 -14.952  1.00  0.00    -0.317 OA
BRANCH  24  25
HETATM   25  C   UNL     1     -24.584  -6.846 -15.625  1.00  0.00     0.179 C 
BRANCH  25  26
HETATM   26  C   UNL     1     -25.336  -6.928 -16.944  1.00  0.00     0.027 C 
BRANCH  26  27
HETATM   27  C   UNL     1     -26.648  -6.147 -16.936  1.00  0.00     0.002 C 
BRANCH  27  28
HETATM   28  C   UNL     1     -27.675  -6.863 -16.058  1.00  0.00    -0.000 C 
BRANCH  28  29
HETATM   29  C   UNL     1     -29.080  -6.766 -16.641  1.00  0.00    -0.005 C 
HETATM   30  C   UNL     1     -29.036  -6.620 -18.154  1.00  0.00     0.005 C 
ENDBRANCH  28  29
ENDBRANCH  27  28
ENDBRANCH  26  27
ENDBRANCH  25  26
ENDBRANCH  24  25
ENDBRANCH  22  24
ENDBRANCH   1  22
TORSDOF 13
BEGIN_RES ARG D 557
REMARK  4 active torsions:
REMARK  status: ('A' for Active; 'I' for Inactive)
REMARK    1  A    between atoms: CA   and  CB  
REMARK    2  A    between atoms: CB   and  CG  
REMARK    3  A    between atoms: CG   and  CD  
REMARK    4  A    between atoms: CD   and  NE  
REMARK       I    between atoms: NE   and  CZ  
REMARK       I    between atoms: CZ   and  NH1 
REMARK       I    between atoms: CZ   and  NH2 
ROOT
ATOM      1  CA  ARG D 557     -26.217   2.705 -17.014  1.00 35.49     0.159 C 
ENDROOT
BRANCH   1   2
ATOM      2  CB  ARG D 557     -26.789   1.319 -17.183  1.00 35.49     0.034 C 
BRANCH   2   3
ATOM      3  CG  ARG D 557     -28.229   1.165 -16.942  1.00 35.49     0.027 C 
BRANCH   3   4
ATOM      4  CD  ARG D 557     -28.633  -0.256 -16.832  1.00 35.49     0.116 C 
BRANCH   4   5
ATOM      5  NE  ARG D 557     -27.652  -1.047 -16.136  1.00 35.49    -0.212 N 
ATOM      6  CZ  ARG D 557     -27.535  -2.354 -16.199  1.00 35.49     0.666 C 
ATOM      7  NH1 ARG D 557     -28.346  -3.105 -16.922  1.00 35.49    -0.235 N 
ATOM      8  NH2 ARG D 557     -26.572  -2.904 -15.517  1.00 35.49    -0.235 N 
ATOM      9  HH  ARG D 557     -28.985  -2.764 -17.380  1.00 35.49     0.174 HD
ATOM     10  HH  ARG D 557     -28.219  -3.952 -16.926  1.00 35.49     0.174 HD
ATOM     11  HH  ARG D 557     -26.060  -2.394 -15.065  1.00 35.49     0.174 HD
ATOM     12  HH  ARG D 557     -26.463  -3.745 -15.536  1.00 35.49     0.174 HD
ATOM     13  HE  ARG D 557     -27.135  -0.651 -15.590  1.00 35.49     0.178 HD
ENDBRANCH   4   5
ENDBRANCH   3   4
ENDBRANCH   2   3
ENDBRANCH   1   2
END_RES ARG D 557
BEGIN_RES GLU D 570
REMARK  3 active torsions:
REMARK  status: ('A' for Active; 'I' for Inactive)
REMARK    5  A    between atoms: CA   and  CB  
REMARK    6  A    between atoms: CB   and  CG  
REMARK    7  A    between atoms: CG   and  CD  
ROOT
ATOM     14  CA  GLU D 570     -18.033  -6.348 -13.375  1.00 32.92     0.160 C 
ENDROOT
BRANCH  14  15
ATOM     15  CB  GLU D 570     -19.500  -6.345 -13.794  1.00 32.92     0.043 C 
BRANCH  15  16
ATOM     16  CG  GLU D 570     -19.807  -6.008 -15.208  1.00 32.92     0.100 C 
BRANCH  16  17
ATOM     17  CD  GLU D 570     -20.674  -7.043 -15.886  1.00 32.92     0.185 C 
ATOM     18  OE1 GLU D 570     -21.327  -6.719 -16.896  1.00 32.92    -0.647 OA
ATOM     19  OE2 GLU D 570     -20.713  -8.187 -15.392  1.00 32.92    -0.647 OA
ENDBRANCH  16  17
ENDBRANCH  15  16
ENDBRANCH  14  15
END_RES GLU D 570
ENDMDL
MODEL 5
REMARK VINA RESULT:      -7.2      2.258      6.290
REMARK  13 active torsions:
REMARK  status: ('A' for Active; 'I' for Inactive)
REMARK    1  A    between atoms: C_2  and  C_3 
REMARK    2  A    between atoms: C_3  and  C_4 
REMARK    3  A    between atoms: C_4  and  C_5 
REMARK    4  A    between atoms: C_5  and  C_6 
REMARK    5  A    between atoms: C_6  and  O_7 
REMARK    6  A    between atoms: O_7  and  C_8 
REMARK    7  A    between atoms: C_8  and  C_10 
REMARK    8  A    between atoms: C_15  and  C_16 
REMARK    9  A    between atoms: C_16  and  C_18 
REMARK   10  A    between atoms: C_19  and  O_29 
REMARK   11  A    between atoms: C_21  and  N_24 
REMARK   12  A    between atoms: N_24  and  C_25 
REMARK   13  A    between atoms: N_24  and  C_27 
ROOT
HETATM    1  C   UNL     1     -22.090 -10.130  -1.477  1.00  0.00     0.053 A 
HETATM    2  C   UNL     1     -23.224 -10.399  -0.693  1.00  0.00     0.018 A 
HETATM    3  C   UNL     1     -23.658  -9.475   0.259  1.00  0.00     0.001 A 
HETATM    4  C   UNL     1     -22.957  -8.285   0.437  1.00  0.00     0.001 A 
HETATM    5  C   UNL     1     -21.865  -7.980  -0.382  1.00  0.00     0.016 A 
HETATM    6  C   UNL     1     -21.456  -8.885  -1.372  1.00  0.00     0.031 A 
ENDROOT
BRANCH   6   7
HETATM    7  C   UNL     1     -20.379  -8.454  -2.296  1.00  0.00     0.196 C 
HETATM    8  O   UNL     1     -19.212  -8.727  -2.031  1.00  0.00    -0.287 OA
BRANCH   7   9
HETATM    9  C   UNL     1     -20.698  -7.678  -3.530  1.00  0.00     0.048 A 
HETATM   10  C   UNL     1     -20.447  -8.225  -4.789  1.00  0.00     0.082 A 
HETATM   11  C   UNL     1     -20.704  -7.485  -5.949  1.00  0.00     0.066 A 
HETATM   12  C   UNL     1     -21.221  -6.179  -5.894  1.00  0.00     0.032 A 
HETATM   13  C   UNL     1     -21.527  -5.676  -4.624  1.00  0.00     0.030 A 
HETATM   14  C   UNL     1     -21.241  -6.393  -3.456  1.00  0.00     0.020 A 
BRANCH  10  15
HETATM   15  O   UNL     1     -19.952  -9.490  -4.968  1.00  0.00    -0.360 OA
HETATM   16  H   UNL     1     -18.981  -9.453  -4.824  1.00  0.00     0.217 HD
ENDBRANCH  10  15
BRANCH  12  17
HETATM   17  N   UNL     1     -21.364  -5.400  -7.033  1.00  0.00    -0.382 N 
BRANCH  17  18
HETATM   18  C   UNL     1     -22.571  -4.603  -7.272  1.00  0.00     0.118 C 
HETATM   19  C   UNL     1     -22.658  -4.089  -8.701  1.00  0.00     0.026 C 
ENDBRANCH  17  18
BRANCH  17  20
HETATM   20  C   UNL     1     -20.290  -5.350  -8.033  1.00  0.00     0.118 C 
HETATM   21  C   UNL     1     -19.113  -4.509  -7.547  1.00  0.00     0.026 C 
ENDBRANCH  17  20
ENDBRANCH  12  17
ENDBRANCH   7   9
ENDBRANCH   6   7
BRANCH   1  22
HETATM   22  C   UNL     1     -21.557 -11.271  -2.258  1.00  0.00     0.294 C 
HETATM   23  O   UNL     1     -21.719 -11.398  -3.458  1.00  0.00    -0.259 OA
BRANCH  22  24
HETATM   24  O   UNL     1     -21.119 -12.214  -1.393  1.00  0.00    -0.317 OA
BRANCH  24  25
HETATM   25  C   UNL     1     -19.835 -11.995  -0.804  1.00  0.00     0.179 C 
BRANCH  25  26
HETATM   26  C   UNL     1     -18.663 -12.012  -1.773  1.00  0.00     0.027 C 
BRANCH  26  27
HETATM   27  C   UNL     1     -17.322 -11.738  -1.097  1.00  0.00     0.002 C 
BRANCH  27  28
HETATM   28  C   UNL     1     -16.224 -11.608  -2.152  1.00  0.00    -0.000 C 
BRANCH  28  29
HETATM   29  C   UNL     1     -15.904 -10.148  -2.456  1.00  0.00    -0.005 C 
HETATM   30  C   UNL     1     -16.364  -9.767  -3.854  1.00  0.00     0.005 C 
ENDBRANCH  28  29
ENDBRANCH  27  28
ENDBRANCH  26  27
ENDBRANCH  25  26
ENDBRANCH  24  25
ENDBRANCH  22  24
ENDBRANCH   1  22
TORSDOF 13
BEGIN_RES ARG D 557
REMARK  4 active torsions:
REMARK  status: ('A' for Active; 'I' for Inactive)
REMARK    1  A    between atoms: CA   and  CB  
REMARK    2  A    between atoms: CB   and  CG  
REMARK    3  A    between atoms: CG   and  CD  
REMARK    4  A    between atoms: CD   and  NE  
REMARK       I    between atoms: NE   and  CZ  
REMARK       I    between atoms: CZ   and  NH1 
REMARK       I    between atoms: CZ   and  NH2 
ROOT
ATOM      1  CA  ARG D 557     -26.217   2.705 -17.014  1.00 35.49     0.159 C 
ENDROOT
BRANCH   1   2
ATOM      2  CB  ARG D 557     -26.789   1.319 -17.183  1.00 35.49     0.034 C 
BRANCH   2   3
ATOM      3  CG  ARG D 557     -25.922   0.196 -16.807  1.00 35.49     0.027 C 
BRANCH   3   4
ATOM      4  CD  ARG D 557     -26.666  -0.889 -16.127  1.00 35.49     0.116 C 
BRANCH   4   5
ATOM      5  NE  ARG D 557     -25.877  -1.533 -15.111  1.00 35.49    -0.212 N 
ATOM      6  CZ  ARG D 557     -25.943  -2.803 -14.777  1.00 35.49     0.666 C 
ATOM      7  NH1 ARG D 557     -26.781  -3.645 -15.352  1.00 35.49    -0.235 N 
ATOM      8  NH2 ARG D 557     -25.136  -3.221 -13.845  1.00 35.49    -0.235 N 
ATOM      9  HH  ARG D 557     -27.320  -3.392 -15.969  1.00 35.49     0.174 HD
ATOM     10  HH  ARG D 557     -26.778  -4.462 -15.095  1.00 35.49     0.174 HD
ATOM     11  HH  ARG D 557     -24.601  -2.657 -13.497  1.00 35.49     0.174 HD
ATOM     12  HH  ARG D 557     -25.147  -4.035 -13.606  1.00 35.49     0.174 HD
ATOM     13  HE  ARG D 557     -25.361  -1.049 -14.639  1.00 35.49     0.178 HD
ENDBRANCH   4   5
ENDBRANCH   3   4
ENDBRANCH   2   3
ENDBRANCH   1   2
END_RES ARG D 557
BEGIN_RES GLU D 570
REMARK  3 active torsions:
REMARK  status: ('A' for Active; 'I' for Inactive)
REMARK    5  A    between atoms: CA   and  CB  
REMARK    6  A    between atoms: CB   and  CG  
REMARK    7  A    between atoms: CG   and  CD  
ROOT
ATOM     14  CA  GLU D 570     -18.033  -6.348 -13.375  1.00 32.92     0.160 C 
ENDROOT
BRANCH  14  15
ATOM     15  CB  GLU D 570     -19.500  -6.345 -13.794  1.00 32.92     0.043 C 
BRANCH  15  16
ATOM     16  CG  GLU D 570     -20.450  -5.568 -12.956  1.00 32.92     0.100 C 
BRANCH  16  17
ATOM     17  CD  GLU D 570     -21.694  -5.154 -13.706  1.00 32.92     0.185 C 
ATOM     18  OE1 GLU D 570     -22.757  -4.997 -13.074  1.00 32.92    -0.647 OA
ATOM     19  OE2 GLU D 570     -21.609  -5.000 -14.940  1.00 32.92    -0.647 OA
ENDBRANCH  16  17
ENDBRANCH  15  16
ENDBRANCH  14  15
END_RES GLU D 570
ENDMDL
MODEL 6
REMARK VINA RESULT:      -7.0      2.212      3.184
REMARK  13 active torsions:
REMARK  status: ('A' for Active; 'I' for Inactive)
REMARK    1  A    between atoms: C_2  and  C_3 
REMARK    2  A    between atoms: C_3  and  C_4 
REMARK    3  A    between atoms: C_4  and  C_5 
REMARK    4  A    between atoms: C_5  and  C_6 
REMARK    5  A    between atoms: C_6  and  O_7 
REMARK    6  A    between atoms: O_7  and  C_8 
REMARK    7  A    between atoms: C_8  and  C_10 
REMARK    8  A    between atoms: C_15  and  C_16 
REMARK    9  A    between atoms: C_16  and  C_18 
REMARK   10  A    between atoms: C_19  and  O_29 
REMARK   11  A    between atoms: C_21  and  N_24 
REMARK   12  A    between atoms: N_24  and  C_25 
REMARK   13  A    between atoms: N_24  and  C_27 
ROOT
HETATM    1  C   UNL     1     -21.425  -8.441  -2.054  1.00  0.00     0.053 A 
HETATM    2  C   UNL     1     -21.772  -7.179  -1.547  1.00  0.00     0.018 A 
HETATM    3  C   UNL     1     -22.532  -7.073  -0.379  1.00  0.00     0.001 A 
HETATM    4  C   UNL     1     -22.952  -8.226   0.278  1.00  0.00     0.001 A 
HETATM    5  C   UNL     1     -22.558  -9.486  -0.184  1.00  0.00     0.016 A 
HETATM    6  C   UNL     1     -21.755  -9.593  -1.329  1.00  0.00     0.031 A 
ENDROOT
BRANCH   6   7
HETATM    7  C   UNL     1     -21.259 -10.941  -1.698  1.00  0.00     0.196 C 
HETATM    8  O   UNL     1     -21.987 -11.699  -2.332  1.00  0.00    -0.287 OA
BRANCH   7   9
HETATM    9  C   UNL     1     -19.895 -11.390  -1.290  1.00  0.00     0.048 A 
HETATM   10  C   UNL     1     -18.920 -11.642  -2.256  1.00  0.00     0.082 A 
HETATM   11  C   UNL     1     -17.653 -12.105  -1.881  1.00  0.00     0.066 A 
HETATM   12  C   UNL     1     -17.314 -12.327  -0.536  1.00  0.00     0.032 A 
HETATM   13  C   UNL     1     -18.285 -12.003   0.420  1.00  0.00     0.030 A 
HETATM   14  C   UNL     1     -19.567 -11.575   0.055  1.00  0.00     0.020 A 
BRANCH  10  15
HETATM   15  O   UNL     1     -19.131 -11.454  -3.597  1.00  0.00    -0.360 OA
HETATM   16  H   UNL     1     -18.350 -11.812  -4.074  1.00  0.00     0.217 HD
ENDBRANCH  10  15
BRANCH  12  17
HETATM   17  N   UNL     1     -16.104 -12.897  -0.170  1.00  0.00    -0.382 N 
BRANCH  17  18
HETATM   18  C   UNL     1     -15.344 -12.413   0.987  1.00  0.00     0.118 C 
HETATM   19  C   UNL     1     -15.520 -13.295   2.212  1.00  0.00     0.026 C 
ENDBRANCH  17  18
BRANCH  17  20
HETATM   20  C   UNL     1     -15.554 -14.020  -0.940  1.00  0.00     0.118 C 
HETATM   21  C   UNL     1     -16.335 -15.306  -0.689  1.00  0.00     0.026 C 
ENDBRANCH  17  20
ENDBRANCH  12  17
ENDBRANCH   7   9
ENDBRANCH   6   7
BRANCH   1  22
HETATM   22  C   UNL     1     -20.859  -8.455  -3.423  1.00  0.00     0.294 C 
HETATM   23  O   UNL     1     -19.664  -8.469  -3.656  1.00  0.00    -0.259 OA
BRANCH  22  24
HETATM   24  O   UNL     1     -21.854  -8.191  -4.301  1.00  0.00    -0.317 OA
BRANCH  24  25
HETATM   25  C   UNL     1     -21.500  -7.431  -5.459  1.00  0.00     0.179 C 
BRANCH  25  26
HETATM   26  C   UNL     1     -21.584  -5.921  -5.297  1.00  0.00     0.027 C 
BRANCH  26  27
HETATM   27  C   UNL     1     -20.283  -5.206  -5.656  1.00  0.00     0.002 C 
BRANCH  27  28
HETATM   28  C   UNL     1     -20.497  -4.322  -6.884  1.00  0.00    -0.000 C 
BRANCH  28  29
HETATM   29  C   UNL     1     -20.366  -5.115  -8.180  1.00  0.00    -0.005 C 
HETATM   30  C   UNL     1     -20.329  -4.189  -9.386  1.00  0.00     0.005 C 
ENDBRANCH  28  29
ENDBRANCH  27  28
ENDBRANCH  26  27
ENDBRANCH  25  26
ENDBRANCH  24  25
ENDBRANCH  22  24
ENDBRANCH   1  22
TORSDOF 13
BEGIN_RES ARG D 557
REMARK  4 active torsions:
REMARK  status: ('A' for Active; 'I' for Inactive)
REMARK    1  A    between atoms: CA   and  CB  
REMARK    2  A    between atoms: CB   and  CG  
REMARK    3  A    between atoms: CG   and  CD  
REMARK    4  A    between atoms: CD   and  NE  
REMARK       I    between atoms: NE   and  CZ  
REMARK       I    between atoms: CZ   and  NH1 
REMARK       I    between atoms: CZ   and  NH2 
ROOT
ATOM      1  CA  ARG D 557     -26.217   2.705 -17.014  1.00 35.49     0.159 C 
ENDROOT
BRANCH   1   2
ATOM      2  CB  ARG D 557     -26.789   1.319 -17.183  1.00 35.49     0.034 C 
BRANCH   2   3
ATOM      3  CG  ARG D 557     -25.869   0.194 -16.973  1.00 35.49     0.027 C 
BRANCH   3   4
ATOM      4  CD  ARG D 557     -26.295  -0.682 -15.858  1.00 35.49     0.116 C 
BRANCH   4   5
ATOM      5  NE  ARG D 557     -25.228  -0.926 -14.923  1.00 35.49    -0.212 N 
ATOM      6  CZ  ARG D 557     -24.940  -2.084 -14.372  1.00 35.49     0.666 C 
ATOM      7  NH1 ARG D 557     -25.635  -3.179 -14.618  1.00 35.49    -0.235 N 
ATOM      8  NH2 ARG D 557     -23.923  -2.127 -13.561  1.00 35.49    -0.235 N 
ATOM      9  HH  ARG D 557     -26.307  -3.175 -15.150  1.00 35.49     0.174 HD
ATOM     10  HH  ARG D 557     -25.399  -3.907 -14.231  1.00 35.49     0.174 HD
ATOM     11  HH  ARG D 557     -23.488  -1.406 -13.426  1.00 35.49     0.174 HD
ATOM     12  HH  ARG D 557     -23.704  -2.857 -13.189  1.00 35.49     0.174 HD
ATOM     13  HE  ARG D 557     -24.774  -0.260 -14.652  1.00 35.49     0.178 HD
ENDBRANCH   4   5
ENDBRANCH   3   4
ENDBRANCH   2   3
ENDBRANCH   1   2
END_RES ARG D 557
BEGIN_RES GLU D 570
REMARK  3 active torsions:
REMARK  status: ('A' for Active; 'I' for Inactive)
REMARK    5  A    between atoms: CA   and  CB  
REMARK    6  A    between atoms: CB   and  CG  
REMARK    7  A    between atoms: CG   and  CD  
ROOT
ATOM     14  CA  GLU D 570     -18.033  -6.348 -13.375  1.00 32.92     0.160 C 
ENDROOT
BRANCH  14  15
ATOM     15  CB  GLU D 570     -19.500  -6.345 -13.794  1.00 32.92     0.043 C 
BRANCH  15  16
ATOM     16  CG  GLU D 570     -20.435  -5.499 -13.008  1.00 32.92     0.100 C 
BRANCH  16  17
ATOM     17  CD  GLU D 570     -21.691  -5.145 -13.769  1.00 32.92     0.185 C 
ATOM     18  OE1 GLU D 570     -22.778  -5.109 -13.160  1.00 32.92    -0.647 OA
ATOM     19  OE2 GLU D 570     -21.590  -4.917 -14.991  1.00 32.92    -0.647 OA
ENDBRANCH  16  17
ENDBRANCH  15  16
ENDBRANCH  14  15
END_RES GLU D 570
ENDMDL
MODEL 7
REMARK VINA RESULT:      -7.0      2.623      6.620
REMARK  13 active torsions:
REMARK  status: ('A' for Active; 'I' for Inactive)
REMARK    1  A    between atoms: C_2  and  C_3 
REMARK    2  A    between atoms: C_3  and  C_4 
REMARK    3  A    between atoms: C_4  and  C_5 
REMARK    4  A    between atoms: C_5  and  C_6 
REMARK    5  A    between atoms: C_6  and  O_7 
REMARK    6  A    between atoms: O_7  and  C_8 
REMARK    7  A    between atoms: C_8  and  C_10 
REMARK    8  A    between atoms: C_15  and  C_16 
REMARK    9  A    between atoms: C_16  and  C_18 
REMARK   10  A    between atoms: C_19  and  O_29 
REMARK   11  A    between atoms: C_21  and  N_24 
REMARK   12  A    between atoms: N_24  and  C_25 
REMARK   13  A    between atoms: N_24  and  C_27 
ROOT
HETATM    1  C   UNL     1     -17.526 -11.651  -6.108  1.00  0.00     0.053 A 
HETATM    2  C   UNL     1     -16.549 -12.647  -5.949  1.00  0.00     0.018 A 
HETATM    3  C   UNL     1     -15.281 -12.320  -5.461  1.00  0.00     0.001 A 
HETATM    4  C   UNL     1     -14.985 -10.998  -5.140  1.00  0.00     0.001 A 
HETATM    5  C   UNL     1     -15.971 -10.010  -5.235  1.00  0.00     0.016 A 
HETATM    6  C   UNL     1     -17.258 -10.344  -5.678  1.00  0.00     0.031 A 
ENDROOT
BRANCH   6   7
HETATM    7  C   UNL     1     -18.298  -9.287  -5.634  1.00  0.00     0.196 C 
HETATM    8  O   UNL     1     -18.363  -8.467  -6.545  1.00  0.00    -0.287 OA
BRANCH   7   9
HETATM    9  C   UNL     1     -19.249  -9.200  -4.487  1.00  0.00     0.048 A 
HETATM   10  C   UNL     1     -20.616  -9.390  -4.692  1.00  0.00     0.082 A 
HETATM   11  C   UNL     1     -21.517  -9.267  -3.628  1.00  0.00     0.066 A 
HETATM   12  C   UNL     1     -21.087  -8.955  -2.327  1.00  0.00     0.032 A 
HETATM   13  C   UNL     1     -19.706  -8.836  -2.132  1.00  0.00     0.030 A 
HETATM   14  C   UNL     1     -18.799  -8.921  -3.194  1.00  0.00     0.020 A 
BRANCH  10  15
HETATM   15  O   UNL     1     -21.151  -9.706  -5.913  1.00  0.00    -0.360 OA
HETATM   16  H   UNL     1     -22.014 -10.149  -5.754  1.00  0.00     0.217 HD
ENDBRANCH  10  15
BRANCH  12  17
HETATM   17  N   UNL     1     -21.985  -8.714  -1.297  1.00  0.00    -0.382 N 
BRANCH  17  18
HETATM   18  C   UNL     1     -22.187  -7.368  -0.753  1.00  0.00     0.118 C 
HETATM   19  C   UNL     1     -22.212  -6.299  -1.834  1.00  0.00     0.026 C 
ENDBRANCH  17  18
BRANCH  17  20
HETATM   20  C   UNL     1     -22.769  -9.818  -0.728  1.00  0.00     0.118 C 
HETATM   21  C   UNL     1     -21.890 -10.771   0.076  1.00  0.00     0.026 C 
ENDBRANCH  17  20
ENDBRANCH  12  17
ENDBRANCH   7   9
ENDBRANCH   6   7
BRANCH   1  22
HETATM   22  C   UNL     1     -18.731 -12.043  -6.875  1.00  0.00     0.294 C 
HETATM   23  O   UNL     1     -18.843 -11.885  -8.076  1.00  0.00    -0.259 OA
BRANCH  22  24
HETATM   24  O   UNL     1     -19.719 -12.338  -5.999  1.00  0.00    -0.317 OA
BRANCH  24  25
HETATM   25  C   UNL     1     -19.736 -13.670  -5.480  1.00  0.00     0.179 C 
BRANCH  25  26
HETATM   26  C   UNL     1     -20.041 -13.786  -3.995  1.00  0.00     0.027 C 
BRANCH  26  27
HETATM   27  C   UNL     1     -19.467 -12.633  -3.173  1.00  0.00     0.002 C 
BRANCH  27  28
HETATM   28  C   UNL     1     -18.085 -13.013  -2.640  1.00  0.00    -0.000 C 
BRANCH  28  29
HETATM   29  C   UNL     1     -17.320 -11.793  -2.138  1.00  0.00    -0.005 C 
HETATM   30  C   UNL     1     -15.900 -12.165  -1.741  1.00  0.00     0.005 C 
ENDBRANCH  28  29
ENDBRANCH  27  28
ENDBRANCH  26  27
ENDBRANCH  25  26
ENDBRANCH  24  25
ENDBRANCH  22  24
ENDBRANCH   1  22
TORSDOF 13
BEGIN_RES ARG D 557
REMARK  4 active torsions:
REMARK  status: ('A' for Active; 'I' for Inactive)
REMARK    1  A    between atoms: CA   and  CB  
REMARK    2  A    between atoms: CB   and  CG  
REMARK    3  A    between atoms: CG   and  CD  
REMARK    4  A    between atoms: CD   and  NE  
REMARK       I    between atoms: NE   and  CZ  
REMARK       I    between atoms: CZ   and  NH1 
REMARK       I    between atoms: CZ   and  NH2 
ROOT
ATOM      1  CA  ARG D 557     -26.217   2.705 -17.014  1.00 35.49     0.159 C 
ENDROOT
BRANCH   1   2
ATOM      2  CB  ARG D 557     -26.789   1.319 -17.183  1.00 35.49     0.034 C 
BRANCH   2   3
ATOM      3  CG  ARG D 557     -25.835   0.204 -17.164  1.00 35.49     0.027 C 
BRANCH   3   4
ATOM      4  CD  ARG D 557     -24.756   0.401 -16.169  1.00 35.49     0.116 C 
BRANCH   4   5
ATOM      5  NE  ARG D 557     -24.918  -0.448 -15.018  1.00 35.49    -0.212 N 
ATOM      6  CZ  ARG D 557     -24.115  -1.427 -14.666  1.00 35.49     0.666 C 
ATOM      7  NH1 ARG D 557     -23.045  -1.753 -15.368  1.00 35.49    -0.235 N 
ATOM      8  NH2 ARG D 557     -24.405  -2.080 -13.579  1.00 35.49    -0.235 N 
ATOM      9  HH  ARG D 557     -22.834  -1.335 -16.085  1.00 35.49     0.174 HD
ATOM     10  HH  ARG D 557     -22.556  -2.399 -15.088  1.00 35.49     0.174 HD
ATOM     11  HH  ARG D 557     -25.098  -1.843 -13.142  1.00 35.49     0.174 HD
ATOM     12  HH  ARG D 557     -23.908  -2.716 -13.318  1.00 35.49     0.174 HD
ATOM     13  HE  ARG D 557     -25.622  -0.356 -14.549  1.00 35.49     0.178 HD
ENDBRANCH   4   5
ENDBRANCH   3   4
ENDBRANCH   2   3
ENDBRANCH   1   2
END_RES ARG D 557
BEGIN_RES GLU D 570
REMARK  3 active torsions:
REMARK  status: ('A' for Active; 'I' for Inactive)
REMARK    5  A    between atoms: CA   and  CB  
REMARK    6  A    between atoms: CB   and  CG  
REMARK    7  A    between atoms: CG   and  CD  
ROOT
ATOM     14  CA  GLU D 570     -18.033  -6.348 -13.375  1.00 32.92     0.160 C 
ENDROOT
BRANCH  14  15
ATOM     15  CB  GLU D 570     -19.500  -6.345 -13.794  1.00 32.92     0.043 C 
BRANCH  15  16
ATOM     16  CG  GLU D 570     -20.441  -5.526 -12.986  1.00 32.92     0.100 C 
BRANCH  16  17
ATOM     17  CD  GLU D 570     -21.750  -5.264 -13.693  1.00 32.92     0.185 C 
ATOM     18  OE1 GLU D 570     -22.225  -6.146 -14.434  1.00 32.92    -0.647 OA
ATOM     19  OE2 GLU D 570     -22.299  -4.158 -13.517  1.00 32.92    -0.647 OA
ENDBRANCH  16  17
ENDBRANCH  15  16
ENDBRANCH  14  15
END_RES GLU D 570
ENDMDL
MODEL 8
REMARK VINA RESULT:      -6.9      8.562     13.434
REMARK  13 active torsions:
REMARK  status: ('A' for Active; 'I' for Inactive)
REMARK    1  A    between atoms: C_2  and  C_3 
REMARK    2  A    between atoms: C_3  and  C_4 
REMARK    3  A    between atoms: C_4  and  C_5 
REMARK    4  A    between atoms: C_5  and  C_6 
REMARK    5  A    between atoms: C_6  and  O_7 
REMARK    6  A    between atoms: O_7  and  C_8 
REMARK    7  A    between atoms: C_8  and  C_10 
REMARK    8  A    between atoms: C_15  and  C_16 
REMARK    9  A    between atoms: C_16  and  C_18 
REMARK   10  A    between atoms: C_19  and  O_29 
REMARK   11  A    between atoms: C_21  and  N_24 
REMARK   12  A    between atoms: N_24  and  C_25 
REMARK   13  A    between atoms: N_24  and  C_27 
ROOT
HETATM    1  C   UNL     1     -29.460  -4.264 -16.920  1.00  0.00     0.053 A 
HETATM    2  C   UNL     1     -29.828  -2.951 -17.251  1.00  0.00     0.018 A 
HETATM    3  C   UNL     1     -28.964  -1.887 -16.983  1.00  0.00     0.001 A 
HETATM    4  C   UNL     1     -27.734  -2.132 -16.377  1.00  0.00     0.001 A 
HETATM    5  C   UNL     1     -27.331  -3.443 -16.102  1.00  0.00     0.016 A 
HETATM    6  C   UNL     1     -28.177  -4.516 -16.414  1.00  0.00     0.031 A 
ENDROOT
BRANCH   6   7
HETATM    7  C   UNL     1     -27.648  -5.889 -16.223  1.00  0.00     0.196 C 
HETATM    8  O   UNL     1     -28.173  -6.628 -15.395  1.00  0.00    -0.287 OA
BRANCH   7   9
HETATM    9  C   UNL     1     -26.475  -6.370 -17.010  1.00  0.00     0.048 A 
HETATM   10  C   UNL     1     -25.350  -6.875 -16.357  1.00  0.00     0.082 A 
HETATM   11  C   UNL     1     -24.230  -7.287 -17.088  1.00  0.00     0.066 A 
HETATM   12  C   UNL     1     -24.195  -7.215 -18.491  1.00  0.00     0.032 A 
HETATM   13  C   UNL     1     -25.359  -6.770 -19.128  1.00  0.00     0.030 A 
HETATM   14  C   UNL     1     -26.471  -6.320 -18.406  1.00  0.00     0.020 A 
BRANCH  10  15
HETATM   15  O   UNL     1     -25.271  -7.000 -14.994  1.00  0.00    -0.360 OA
HETATM   16  H   UNL     1     -25.115  -7.949 -14.792  1.00  0.00     0.217 HD
ENDBRANCH  10  15
BRANCH  12  17
HETATM   17  N   UNL     1     -23.046  -7.510 -19.211  1.00  0.00    -0.382 N 
BRANCH  17  18
HETATM   18  C   UNL     1     -23.103  -7.907 -20.621  1.00  0.00     0.118 C 
HETATM   19  C   UNL     1     -21.843  -8.624 -21.078  1.00  0.00     0.026 C 
ENDBRANCH  17  18
BRANCH  17  20
HETATM   20  C   UNL     1     -21.729  -7.423 -18.568  1.00  0.00     0.118 C 
HETATM   21  C   UNL     1     -21.354  -5.976 -18.256  1.00  0.00     0.026 C 
ENDBRANCH  17  20
ENDBRANCH  12  17
ENDBRANCH   7   9
ENDBRANCH   6   7
BRANCH   1  22
HETATM   22  C   UNL     1     -30.538  -5.278 -16.993  1.00  0.00     0.294 C 
HETATM   23  O   UNL     1     -30.574  -6.161 -17.830  1.00  0.00    -0.259 OA
BRANCH  22  24
HETATM   24  O   UNL     1     -31.544  -4.892 -16.175  1.00  0.00    -0.317 OA
BRANCH  24  25
HETATM   25  C   UNL     1     -32.775  -4.527 -16.805  1.00  0.00     0.179 C 
BRANCH  25  26
HETATM   26  C   UNL     1     -33.824  -3.925 -15.882  1.00  0.00     0.027 C 
BRANCH  26  27
HETATM   27  C   UNL     1     -33.956  -4.672 -14.557  1.00  0.00     0.002 C 
BRANCH  27  28
HETATM   28  C   UNL     1     -34.039  -3.673 -13.403  1.00  0.00    -0.000 C 
BRANCH  28  29
HETATM   29  C   UNL     1     -33.111  -4.059 -12.256  1.00  0.00    -0.005 C 
HETATM   30  C   UNL     1     -33.303  -3.134 -11.064  1.00  0.00     0.005 C 
ENDBRANCH  28  29
ENDBRANCH  27  28
ENDBRANCH  26  27
ENDBRANCH  25  26
ENDBRANCH  24  25
ENDBRANCH  22  24
ENDBRANCH   1  22
TORSDOF 13
BEGIN_RES ARG D 557
REMARK  4 active torsions:
REMARK  status: ('A' for Active; 'I' for Inactive)
REMARK    1  A    between atoms: CA   and  CB  
REMARK    2  A    between atoms: CB   and  CG  
REMARK    3  A    between atoms: CG   and  CD  
REMARK    4  A    between atoms: CD   and  NE  
REMARK       I    between atoms: NE   and  CZ  
REMARK       I    between atoms: CZ   and  NH1 
REMARK       I    between atoms: CZ   and  NH2 
ROOT
ATOM      1  CA  ARG D 557     -26.217   2.705 -17.014  1.00 35.49     0.159 C 
ENDROOT
BRANCH   1   2
ATOM      2  CB  ARG D 557     -26.789   1.319 -17.183  1.00 35.49     0.034 C 
BRANCH   2   3
ATOM      3  CG  ARG D 557     -25.831   0.207 -17.200  1.00 35.49     0.027 C 
BRANCH   3   4
ATOM      4  CD  ARG D 557     -24.736   0.390 -16.221  1.00 35.49     0.116 C 
BRANCH   4   5
ATOM      5  NE  ARG D 557     -24.901  -0.442 -15.059  1.00 35.49    -0.212 N 
ATOM      6  CZ  ARG D 557     -24.097  -1.413 -14.688  1.00 35.49     0.666 C 
ATOM      7  NH1 ARG D 557     -23.021  -1.745 -15.378  1.00 35.49    -0.235 N 
ATOM      8  NH2 ARG D 557     -24.390  -2.051 -13.593  1.00 35.49    -0.235 N 
ATOM      9  HH  ARG D 557     -22.807  -1.337 -16.101  1.00 35.49     0.174 HD
ATOM     10  HH  ARG D 557     -22.532  -2.385 -15.086  1.00 35.49     0.174 HD
ATOM     11  HH  ARG D 557     -25.087  -1.810 -13.164  1.00 35.49     0.174 HD
ATOM     12  HH  ARG D 557     -23.893  -2.681 -13.319  1.00 35.49     0.174 HD
ATOM     13  HE  ARG D 557     -25.608  -0.345 -14.596  1.00 35.49     0.178 HD
ENDBRANCH   4   5
ENDBRANCH   3   4
ENDBRANCH   2   3
ENDBRANCH   1   2
END_RES ARG D 557
BEGIN_RES GLU D 570
REMARK  3 active torsions:
REMARK  status: ('A' for Active; 'I' for Inactive)
REMARK    5  A    between atoms: CA   and  CB  
REMARK    6  A    between atoms: CB   and  CG  
REMARK    7  A    between atoms: CG   and  CD  
ROOT
ATOM     14  CA  GLU D 570     -18.033  -6.348 -13.375  1.00 32.92     0.160 C 
ENDROOT
BRANCH  14  15
ATOM     15  CB  GLU D 570     -19.500  -6.345 -13.794  1.00 32.92     0.043 C 
BRANCH  15  16
ATOM     16  CG  GLU D 570     -20.445  -5.545 -12.973  1.00 32.92     0.100 C 
BRANCH  16  17
ATOM     17  CD  GLU D 570     -21.758  -5.283 -13.672  1.00 32.92     0.185 C 
ATOM     18  OE1 GLU D 570     -22.279  -6.196 -14.343  1.00 32.92    -0.647 OA
ATOM     19  OE2 GLU D 570     -22.264  -4.149 -13.562  1.00 32.92    -0.647 OA
ENDBRANCH  16  17
ENDBRANCH  15  16
ENDBRANCH  14  15
END_RES GLU D 570
ENDMDL
MODEL 9
REMARK VINA RESULT:      -6.8     13.852     17.238
REMARK  13 active torsions:
REMARK  status: ('A' for Active; 'I' for Inactive)
REMARK    1  A    between atoms: C_2  and  C_3 
REMARK    2  A    between atoms: C_3  and  C_4 
REMARK    3  A    between atoms: C_4  and  C_5 
REMARK    4  A    between atoms: C_5  and  C_6 
REMARK    5  A    between atoms: C_6  and  O_7 
REMARK    6  A    between atoms: O_7  and  C_8 
REMARK    7  A    between atoms: C_8  and  C_10 
REMARK    8  A    between atoms: C_15  and  C_16 
REMARK    9  A    between atoms: C_16  and  C_18 
REMARK   10  A    between atoms: C_19  and  O_29 
REMARK   11  A    between atoms: C_21  and  N_24 
REMARK   12  A    between atoms: N_24  and  C_25 
REMARK   13  A    between atoms: N_24  and  C_27 
ROOT
HETATM    1  C   UNL     1     -25.578   7.780  -1.754  1.00  0.00     0.053 A 
HETATM    2  C   UNL     1     -24.909   6.646  -2.241  1.00  0.00     0.018 A 
HETATM    3  C   UNL     1     -23.660   6.288  -1.726  1.00  0.00     0.001 A 
HETATM    4  C   UNL     1     -23.074   7.068  -0.731  1.00  0.00     0.001 A 
HETATM    5  C   UNL     1     -23.761   8.163  -0.196  1.00  0.00     0.016 A 
HETATM    6  C   UNL     1     -25.035   8.495  -0.678  1.00  0.00     0.031 A 
ENDROOT
BRANCH   6   7
HETATM    7  C   UNL     1     -25.771   9.581   0.014  1.00  0.00     0.196 C 
HETATM    8  O   UNL     1     -25.767  10.711  -0.464  1.00  0.00    -0.287 OA
BRANCH   7   9
HETATM    9  C   UNL     1     -26.497   9.318   1.291  1.00  0.00     0.048 A 
HETATM   10  C   UNL     1     -26.073   9.920   2.477  1.00  0.00     0.082 A 
HETATM   11  C   UNL     1     -26.724   9.642   3.685  1.00  0.00     0.066 A 
HETATM   12  C   UNL     1     -27.818   8.763   3.752  1.00  0.00     0.032 A 
HETATM   13  C   UNL     1     -28.267   8.224   2.540  1.00  0.00     0.030 A 
HETATM   14  C   UNL     1     -27.603   8.465   1.332  1.00  0.00     0.020 A 
BRANCH  10  15
HETATM   15  O   UNL     1     -25.025  10.800   2.534  1.00  0.00    -0.360 OA
HETATM   16  H   UNL     1     -24.627  10.731   3.430  1.00  0.00     0.217 HD
ENDBRANCH  10  15
BRANCH  12  17
HETATM   17  N   UNL     1     -28.388   8.394   4.961  1.00  0.00    -0.382 N 
BRANCH  17  18
HETATM   18  C   UNL     1     -29.816   8.083   5.075  1.00  0.00     0.118 C 
HETATM   19  C   UNL     1     -30.589   9.154   5.829  1.00  0.00     0.026 C 
ENDBRANCH  17  18
BRANCH  17  20
HETATM   20  C   UNL     1     -27.559   8.299   6.170  1.00  0.00     0.118 C 
HETATM   21  C   UNL     1     -27.588   6.891   6.757  1.00  0.00     0.026 C 
ENDBRANCH  17  20
ENDBRANCH  12  17
ENDBRANCH   7   9
ENDBRANCH   6   7
BRANCH   1  22
HETATM   22  C   UNL     1     -26.753   8.225  -2.539  1.00  0.00     0.294 C 
HETATM   23  O   UNL     1     -27.902   8.096  -2.160  1.00  0.00    -0.259 OA
BRANCH  22  24
HETATM   24  O   UNL     1     -26.340   8.533  -3.790  1.00  0.00    -0.317 OA
BRANCH  24  25
HETATM   25  C   UNL     1     -25.728   9.813  -3.964  1.00  0.00     0.179 C 
BRANCH  25  26
HETATM   26  C   UNL     1     -24.359   9.794  -4.628  1.00  0.00     0.027 C 
BRANCH  26  27
HETATM   27  C   UNL     1     -23.207   9.850  -3.627  1.00  0.00     0.002 C 
BRANCH  27  28
HETATM   28  C   UNL     1     -22.186   8.759  -3.949  1.00  0.00    -0.000 C 
BRANCH  28  29
HETATM   29  C   UNL     1     -20.785   9.333  -4.130  1.00  0.00    -0.005 C 
HETATM   30  C   UNL     1     -20.616  10.621  -3.340  1.00  0.00     0.005 C 
ENDBRANCH  28  29
ENDBRANCH  27  28
ENDBRANCH  26  27
ENDBRANCH  25  26
ENDBRANCH  24  25
ENDBRANCH  22  24
ENDBRANCH   1  22
TORSDOF 13
BEGIN_RES ARG D 557
REMARK  4 active torsions:
REMARK  status: ('A' for Active; 'I' for Inactive)
REMARK    1  A    between atoms: CA   and  CB  
REMARK    2  A    between atoms: CB   and  CG  
REMARK    3  A    between atoms: CG   and  CD  
REMARK    4  A    between atoms: CD   and  NE  
REMARK       I    between atoms: NE   and  CZ  
REMARK       I    between atoms: CZ   and  NH1 
REMARK       I    between atoms: CZ   and  NH2 
ROOT
ATOM      1  CA  ARG D 557     -26.217   2.705 -17.014  1.00 35.49     0.159 C 
ENDROOT
BRANCH   1   2
ATOM      2  CB  ARG D 557     -26.789   1.319 -17.183  1.00 35.49     0.034 C 
BRANCH   2   3
ATOM      3  CG  ARG D 557     -25.838   0.202 -17.141  1.00 35.49     0.027 C 
BRANCH   3   4
ATOM      4  CD  ARG D 557     -24.761   0.415 -16.147  1.00 35.49     0.116 C 
BRANCH   4   5
ATOM      5  NE  ARG D 557     -24.901  -0.448 -15.003  1.00 35.49    -0.212 N 
ATOM      6  CZ  ARG D 557     -24.078  -1.414 -14.665  1.00 35.49     0.666 C 
ATOM      7  NH1 ARG D 557     -23.005  -1.714 -15.374  1.00 35.49    -0.235 N 
ATOM      8  NH2 ARG D 557     -24.349  -2.083 -13.581  1.00 35.49    -0.235 N 
ATOM      9  HH  ARG D 557     -22.806  -1.286 -16.090  1.00 35.49     0.174 HD
ATOM     10  HH  ARG D 557     -22.503  -2.353 -15.104  1.00 35.49     0.174 HD
ATOM     11  HH  ARG D 557     -25.044  -1.862 -13.139  1.00 35.49     0.174 HD
ATOM     12  HH  ARG D 557     -23.839  -2.711 -13.329  1.00 35.49     0.174 HD
ATOM     13  HE  ARG D 557     -25.603  -0.372 -14.530  1.00 35.49     0.178 HD
ENDBRANCH   4   5
ENDBRANCH   3   4
ENDBRANCH   2   3
ENDBRANCH   1   2
END_RES ARG D 557
BEGIN_RES GLU D 570
REMARK  3 active torsions:
REMARK  status: ('A' for Active; 'I' for Inactive)
REMARK    5  A    between atoms: CA   and  CB  
REMARK    6  A    between atoms: CB   and  CG  
REMARK    7  A    between atoms: CG   and  CD  
ROOT
ATOM     14  CA  GLU D 570     -18.033  -6.348 -13.375  1.00 32.92     0.160 C 
ENDROOT
BRANCH  14  15
ATOM     15  CB  GLU D 570     -19.500  -6.345 -13.794  1.00 32.92     0.043 C 
BRANCH  15  16
ATOM     16  CG  GLU D 570     -20.450  -5.571 -12.954  1.00 32.92     0.100 C 
BRANCH  16  17
ATOM     17  CD  GLU D 570     -21.735  -5.236 -13.675  1.00 32.92     0.185 C 
ATOM     18  OE1 GLU D 570     -22.229  -4.100 -13.535  1.00 32.92    -0.647 OA
ATOM     19  OE2 GLU D 570     -22.263  -6.124 -14.373  1.00 32.92    -0.647 OA
ENDBRANCH  16  17
ENDBRANCH  15  16
ENDBRANCH  14  15
END_RES GLU D 570
ENDMDL
