MODEL 1
REMARK VINA RESULT:      -6.8      0.000      0.000
REMARK  13 active torsions:
REMARK  status: ('A' for Active; 'I' for Inactive)
REMARK    1  A    between atoms: C_2  and  O_4 
REMARK    2  A    between atoms: O_4  and  C_5 
REMARK    3  A    between atoms: C_5  and  C_7 
REMARK    4  A    between atoms: C_7  and  C_8 
REMARK    5  A    between atoms: C_8  and  C_9 
REMARK    6  A    between atoms: C_9  and  C_10 
REMARK    7  A    between atoms: C_10  and  C_11 
REMARK    8  A    between atoms: C_11  and  C_12 
REMARK    9  A    between atoms: C_12  and  C_13 
REMARK   10  A    between atoms: C_13  and  C_14 
REMARK   11  A    between atoms: C_14  and  C_15 
REMARK   12  A    between atoms: C_15  and  O_17 
REMARK   13  A    between atoms: O_17  and  C_18 
ROOT
HETATM    1  C   UNL     1     -20.616  -4.831  -5.774  1.00  0.00     0.000 C 
ENDROOT
BRANCH   1   2
HETATM    2  C   UNL     1     -21.116  -6.269  -5.947  1.00  0.00     0.000 C 
BRANCH   2   3
HETATM    3  C   UNL     1     -22.054  -6.641  -4.804  1.00  0.00     0.010 C 
BRANCH   3   4
HETATM    4  C   UNL     1     -21.367  -7.457  -3.706  1.00  0.00     0.111 C 
BRANCH   4   5
HETATM    5  C   UNL     1     -21.713  -6.875  -2.352  1.00  0.00     0.259 C 
HETATM    6  O   UNL     1     -22.288  -5.811  -2.189  1.00  0.00    -0.265 OA
BRANCH   5   7
HETATM    7  O   UNL     1     -21.301  -7.705  -1.344  1.00  0.00    -0.317 OA
BRANCH   7   8
HETATM    8  C   UNL     1     -22.363  -8.157  -0.478  1.00  0.00     0.123 C 
HETATM    9  C   UNL     1     -22.654  -9.625  -0.763  1.00  0.00     0.040 C 
HETATM   10  C   UNL     1     -21.940  -7.994   0.983  1.00  0.00     0.040 C 
ENDBRANCH   7   8
ENDBRANCH   5   7
ENDBRANCH   4   5
ENDBRANCH   3   4
ENDBRANCH   2   3
ENDBRANCH   1   2
BRANCH   1  11
HETATM   11  C   UNL     1     -20.906  -3.986  -7.010  1.00  0.00     0.000 C 
BRANCH  11  12
HETATM   12  C   UNL     1     -21.777  -4.744  -8.015  1.00  0.00     0.000 C 
BRANCH  12  13
HETATM   13  C   UNL     1     -22.592  -3.763  -8.849  1.00  0.00     0.010 C 
BRANCH  13  14
HETATM   14  C   UNL     1     -23.674  -4.444  -9.691  1.00  0.00     0.111 C 
BRANCH  14  15
HETATM   15  C   UNL     1     -24.596  -3.394 -10.272  1.00  0.00     0.259 C 
HETATM   16  O   UNL     1     -25.713  -3.147  -9.846  1.00  0.00    -0.265 OA
BRANCH  15  17
HETATM   17  O   UNL     1     -24.016  -2.770 -11.339  1.00  0.00    -0.317 OA
BRANCH  17  18
HETATM   18  C   UNL     1     -24.058  -3.518 -12.572  1.00  0.00     0.123 C 
HETATM   19  C   UNL     1     -25.012  -2.855 -13.564  1.00  0.00     0.040 C 
HETATM   20  C   UNL     1     -22.652  -3.552 -13.163  1.00  0.00     0.040 C 
ENDBRANCH  17  18
ENDBRANCH  15  17
ENDBRANCH  14  15
ENDBRANCH  13  14
ENDBRANCH  12  13
ENDBRANCH  11  12
ENDBRANCH   1  11
TORSDOF 13
BEGIN_RES ARG D 557
REMARK  4 active torsions:
REMARK  status: ('A' for Active; 'I' for Inactive)
REMARK    1  A    between atoms: CA   and  CB  
REMARK    2  A    between atoms: CB   and  CG  
REMARK    3  A    between atoms: CG   and  CD  
REMARK    4  A    between atoms: CD   and  NE  
REMARK       I    between atoms: NE   and  CZ  
REMARK       I    between atoms: CZ   and  NH1 
REMARK       I    between atoms: CZ   and  NH2 
ROOT
ATOM      1  CA  ARG D 557     -26.217   2.705 -17.014  1.00 35.49     0.159 C 
ENDROOT
BRANCH   1   2
ATOM      2  CB  ARG D 557     -26.789   1.319 -17.183  1.00 35.49     0.034 C 
BRANCH   2   3
ATOM      3  CG  ARG D 557     -28.234   1.226 -17.427  1.00 35.49     0.027 C 
BRANCH   3   4
ATOM      4  CD  ARG D 557     -28.905   0.298 -16.489  1.00 35.49     0.116 C 
BRANCH   4   5
ATOM      5  NE  ARG D 557     -29.305  -0.927 -17.130  1.00 35.49    -0.212 N 
ATOM      6  CZ  ARG D 557     -28.681  -2.081 -17.040  1.00 35.49     0.666 C 
ATOM      7  NH1 ARG D 557     -27.575  -2.235 -16.336  1.00 35.49    -0.235 N 
ATOM      8  NH2 ARG D 557     -29.198  -3.094 -17.673  1.00 35.49    -0.235 N 
ATOM      9  HH  ARG D 557     -27.219  -1.583 -15.910  1.00 35.49     0.174 HD
ATOM     10  HH  ARG D 557     -27.214  -3.012 -16.311  1.00 35.49     0.174 HD
ATOM     11  HH  ARG D 557     -29.917  -2.966 -18.113  1.00 35.49     0.174 HD
ATOM     12  HH  ARG D 557     -28.826  -3.855 -17.635  1.00 35.49     0.174 HD
ATOM     13  HE  ARG D 557     -29.967  -0.901 -17.663  1.00 35.49     0.178 HD
ENDBRANCH   4   5
ENDBRANCH   3   4
ENDBRANCH   2   3
ENDBRANCH   1   2
END_RES ARG D 557
BEGIN_RES GLU D 570
REMARK  3 active torsions:
REMARK  status: ('A' for Active; 'I' for Inactive)
REMARK    5  A    between atoms: CA   and  CB  
REMARK    6  A    between atoms: CB   and  CG  
REMARK    7  A    between atoms: CG   and  CD  
ROOT
ATOM     14  CA  GLU D 570     -18.033  -6.348 -13.375  1.00 32.92     0.160 C 
ENDROOT
BRANCH  14  15
ATOM     15  CB  GLU D 570     -19.500  -6.345 -13.794  1.00 32.92     0.043 C 
BRANCH  15  16
ATOM     16  CG  GLU D 570     -20.103  -7.645 -14.186  1.00 32.92     0.100 C 
BRANCH  16  17
ATOM     17  CD  GLU D 570     -20.739  -7.610 -15.556  1.00 32.92     0.185 C 
ATOM     18  OE1 GLU D 570     -21.236  -6.543 -15.966  1.00 32.92    -0.647 OA
ATOM     19  OE2 GLU D 570     -20.757  -8.666 -16.220  1.00 32.92    -0.647 OA
ENDBRANCH  16  17
ENDBRANCH  15  16
ENDBRANCH  14  15
END_RES GLU D 570
ENDMDL
MODEL 2
REMARK VINA RESULT:      -6.7      0.830      7.950
REMARK  13 active torsions:
REMARK  status: ('A' for Active; 'I' for Inactive)
REMARK    1  A    between atoms: C_2  and  O_4 
REMARK    2  A    between atoms: O_4  and  C_5 
REMARK    3  A    between atoms: C_5  and  C_7 
REMARK    4  A    between atoms: C_7  and  C_8 
REMARK    5  A    between atoms: C_8  and  C_9 
REMARK    6  A    between atoms: C_9  and  C_10 
REMARK    7  A    between atoms: C_10  and  C_11 
REMARK    8  A    between atoms: C_11  and  C_12 
REMARK    9  A    between atoms: C_12  and  C_13 
REMARK   10  A    between atoms: C_13  and  C_14 
REMARK   11  A    between atoms: C_14  and  C_15 
REMARK   12  A    between atoms: C_15  and  O_17 
REMARK   13  A    between atoms: O_17  and  C_18 
ROOT
HETATM    1  C   UNL     1     -20.897  -4.176  -6.835  1.00  0.00     0.000 C 
ENDROOT
BRANCH   1   2
HETATM    2  C   UNL     1     -21.203  -5.150  -7.977  1.00  0.00     0.000 C 
BRANCH   2   3
HETATM    3  C   UNL     1     -21.884  -4.415  -9.127  1.00  0.00     0.010 C 
BRANCH   3   4
HETATM    4  C   UNL     1     -23.322  -4.000  -8.806  1.00  0.00     0.111 C 
BRANCH   4   5
HETATM    5  C   UNL     1     -24.135  -3.968 -10.083  1.00  0.00     0.259 C 
HETATM    6  O   UNL     1     -25.157  -3.317 -10.229  1.00  0.00    -0.265 OA
BRANCH   5   7
HETATM    7  O   UNL     1     -23.566  -4.758 -11.045  1.00  0.00    -0.317 OA
BRANCH   7   8
HETATM    8  C   UNL     1     -23.603  -4.193 -12.372  1.00  0.00     0.123 C 
HETATM    9  C   UNL     1     -22.507  -3.143 -12.504  1.00  0.00     0.040 C 
HETATM   10  C   UNL     1     -23.379  -5.297 -13.408  1.00  0.00     0.040 C 
ENDBRANCH   7   8
ENDBRANCH   5   7
ENDBRANCH   4   5
ENDBRANCH   3   4
ENDBRANCH   2   3
ENDBRANCH   1   2
BRANCH   1  11
HETATM   11  C   UNL     1     -20.481  -4.914  -5.568  1.00  0.00     0.000 C 
BRANCH  11  12
HETATM   12  C   UNL     1     -20.712  -6.422  -5.697  1.00  0.00     0.000 C 
BRANCH  12  13
HETATM   13  C   UNL     1     -21.822  -6.867  -4.752  1.00  0.00     0.010 C 
BRANCH  13  14
HETATM   14  C   UNL     1     -21.301  -7.613  -3.522  1.00  0.00     0.111 C 
BRANCH  14  15
HETATM   15  C   UNL     1     -21.739  -6.888  -2.268  1.00  0.00     0.259 C 
HETATM   16  O   UNL     1     -22.376  -5.846  -2.261  1.00  0.00    -0.265 OA
BRANCH  15  17
HETATM   17  O   UNL     1     -21.320  -7.549  -1.149  1.00  0.00    -0.317 OA
BRANCH  17  18
HETATM   18  C   UNL     1     -22.208  -8.594  -0.697  1.00  0.00     0.123 C 
HETATM   19  C   UNL     1     -21.406  -9.801  -0.216  1.00  0.00     0.040 C 
HETATM   20  C   UNL     1     -23.047  -8.047   0.453  1.00  0.00     0.040 C 
ENDBRANCH  17  18
ENDBRANCH  15  17
ENDBRANCH  14  15
ENDBRANCH  13  14
ENDBRANCH  12  13
ENDBRANCH  11  12
ENDBRANCH   1  11
TORSDOF 13
BEGIN_RES ARG D 557
REMARK  4 active torsions:
REMARK  status: ('A' for Active; 'I' for Inactive)
REMARK    1  A    between atoms: CA   and  CB  
REMARK    2  A    between atoms: CB   and  CG  
REMARK    3  A    between atoms: CG   and  CD  
REMARK    4  A    between atoms: CD   and  NE  
REMARK       I    between atoms: NE   and  CZ  
REMARK       I    between atoms: CZ   and  NH1 
REMARK       I    between atoms: CZ   and  NH2 
ROOT
ATOM      1  CA  ARG D 557     -26.217   2.705 -17.014  1.00 35.49     0.159 C 
ENDROOT
BRANCH   1   2
ATOM      2  CB  ARG D 557     -26.789   1.319 -17.183  1.00 35.49     0.034 C 
BRANCH   2   3
ATOM      3  CG  ARG D 557     -28.233   1.226 -17.428  1.00 35.49     0.027 C 
BRANCH   3   4
ATOM      4  CD  ARG D 557     -28.905   0.295 -16.493  1.00 35.49     0.116 C 
BRANCH   4   5
ATOM      5  NE  ARG D 557     -29.309  -0.926 -17.140  1.00 35.49    -0.212 N 
ATOM      6  CZ  ARG D 557     -28.695  -2.084 -17.047  1.00 35.49     0.666 C 
ATOM      7  NH1 ARG D 557     -27.595  -2.248 -16.335  1.00 35.49    -0.235 N 
ATOM      8  NH2 ARG D 557     -29.215  -3.092 -17.685  1.00 35.49    -0.235 N 
ATOM      9  HH  ARG D 557     -27.237  -1.599 -15.905  1.00 35.49     0.174 HD
ATOM     10  HH  ARG D 557     -27.240  -3.028 -16.309  1.00 35.49     0.174 HD
ATOM     11  HH  ARG D 557     -29.930  -2.958 -18.131  1.00 35.49     0.174 HD
ATOM     12  HH  ARG D 557     -28.849  -3.856 -17.646  1.00 35.49     0.174 HD
ATOM     13  HE  ARG D 557     -29.968  -0.894 -17.677  1.00 35.49     0.178 HD
ENDBRANCH   4   5
ENDBRANCH   3   4
ENDBRANCH   2   3
ENDBRANCH   1   2
END_RES ARG D 557
BEGIN_RES GLU D 570
REMARK  3 active torsions:
REMARK  status: ('A' for Active; 'I' for Inactive)
REMARK    5  A    between atoms: CA   and  CB  
REMARK    6  A    between atoms: CB   and  CG  
REMARK    7  A    between atoms: CG   and  CD  
ROOT
ATOM     14  CA  GLU D 570     -18.033  -6.348 -13.375  1.00 32.92     0.160 C 
ENDROOT
BRANCH  14  15
ATOM     15  CB  GLU D 570     -19.500  -6.345 -13.794  1.00 32.92     0.043 C 
BRANCH  15  16
ATOM     16  CG  GLU D 570     -19.797  -6.266 -15.248  1.00 32.92     0.100 C 
BRANCH  16  17
ATOM     17  CD  GLU D 570     -20.824  -7.279 -15.695  1.00 32.92     0.185 C 
ATOM     18  OE1 GLU D 570     -21.843  -6.884 -16.295  1.00 32.92    -0.647 OA
ATOM     19  OE2 GLU D 570     -20.617  -8.480 -15.429  1.00 32.92    -0.647 OA
ENDBRANCH  16  17
ENDBRANCH  15  16
ENDBRANCH  14  15
END_RES GLU D 570
ENDMDL
MODEL 3
REMARK VINA RESULT:      -6.6      1.410      8.102
REMARK  13 active torsions:
REMARK  status: ('A' for Active; 'I' for Inactive)
REMARK    1  A    between atoms: C_2  and  O_4 
REMARK    2  A    between atoms: O_4  and  C_5 
REMARK    3  A    between atoms: C_5  and  C_7 
REMARK    4  A    between atoms: C_7  and  C_8 
REMARK    5  A    between atoms: C_8  and  C_9 
REMARK    6  A    between atoms: C_9  and  C_10 
REMARK    7  A    between atoms: C_10  and  C_11 
REMARK    8  A    between atoms: C_11  and  C_12 
REMARK    9  A    between atoms: C_12  and  C_13 
REMARK   10  A    between atoms: C_13  and  C_14 
REMARK   11  A    between atoms: C_14  and  C_15 
REMARK   12  A    between atoms: C_15  and  O_17 
REMARK   13  A    between atoms: O_17  and  C_18 
ROOT
HETATM    1  C   UNL     1     -22.241  -4.681  -9.262  1.00  0.00     0.000 C 
ENDROOT
BRANCH   1   2
HETATM    2  C   UNL     1     -21.110  -4.233 -10.192  1.00  0.00     0.000 C 
BRANCH   2   3
HETATM    3  C   UNL     1     -21.663  -3.917 -11.578  1.00  0.00     0.010 C 
BRANCH   3   4
HETATM    4  C   UNL     1     -23.093  -4.423 -11.783  1.00  0.00     0.111 C 
BRANCH   4   5
HETATM    5  C   UNL     1     -24.047  -3.248 -11.806  1.00  0.00     0.259 C 
HETATM    6  O   UNL     1     -25.031  -3.149 -11.092  1.00  0.00    -0.265 OA
BRANCH   5   7
HETATM    7  O   UNL     1     -23.651  -2.316 -12.728  1.00  0.00    -0.317 OA
BRANCH   7   8
HETATM    8  C   UNL     1     -23.931  -2.681 -14.096  1.00  0.00     0.123 C 
HETATM    9  C   UNL     1     -25.428  -2.558 -14.354  1.00  0.00     0.040 C 
HETATM   10  C   UNL     1     -23.172  -1.749 -15.043  1.00  0.00     0.040 C 
ENDBRANCH   7   8
ENDBRANCH   5   7
ENDBRANCH   4   5
ENDBRANCH   3   4
ENDBRANCH   2   3
ENDBRANCH   1   2
BRANCH   1  11
HETATM   11  C   UNL     1     -22.139  -4.011  -7.896  1.00  0.00     0.000 C 
BRANCH  11  12
HETATM   12  C   UNL     1     -20.827  -4.368  -7.193  1.00  0.00     0.000 C 
BRANCH  12  13
HETATM   13  C   UNL     1     -20.828  -5.839  -6.794  1.00  0.00     0.010 C 
BRANCH  13  14
HETATM   14  C   UNL     1     -20.673  -6.054  -5.287  1.00  0.00     0.111 C 
BRANCH  14  15
HETATM   15  C   UNL     1     -21.987  -6.530  -4.706  1.00  0.00     0.259 C 
HETATM   16  O   UNL     1     -23.084  -6.144  -5.076  1.00  0.00    -0.265 OA
BRANCH  15  17
HETATM   17  O   UNL     1     -21.779  -7.442  -3.711  1.00  0.00    -0.317 OA
BRANCH  17  18
HETATM   18  C   UNL     1     -21.172  -6.903  -2.517  1.00  0.00     0.123 C 
HETATM   19  C   UNL     1     -22.229  -6.239  -1.637  1.00  0.00     0.040 C 
HETATM   20  C   UNL     1     -20.518  -8.049  -1.751  1.00  0.00     0.040 C 
ENDBRANCH  17  18
ENDBRANCH  15  17
ENDBRANCH  14  15
ENDBRANCH  13  14
ENDBRANCH  12  13
ENDBRANCH  11  12
ENDBRANCH   1  11
TORSDOF 13
BEGIN_RES ARG D 557
REMARK  4 active torsions:
REMARK  status: ('A' for Active; 'I' for Inactive)
REMARK    1  A    between atoms: CA   and  CB  
REMARK    2  A    between atoms: CB   and  CG  
REMARK    3  A    between atoms: CG   and  CD  
REMARK    4  A    between atoms: CD   and  NE  
REMARK       I    between atoms: NE   and  CZ  
REMARK       I    between atoms: CZ   and  NH1 
REMARK       I    between atoms: CZ   and  NH2 
ROOT
ATOM      1  CA  ARG D 557     -26.217   2.705 -17.014  1.00 35.49     0.159 C 
ENDROOT
BRANCH   1   2
ATOM      2  CB  ARG D 557     -26.789   1.319 -17.183  1.00 35.49     0.034 C 
BRANCH   2   3
ATOM      3  CG  ARG D 557     -28.138   1.092 -16.651  1.00 35.49     0.027 C 
BRANCH   3   4
ATOM      4  CD  ARG D 557     -28.811  -0.061 -17.293  1.00 35.49     0.116 C 
BRANCH   4   5
ATOM      5  NE  ARG D 557     -28.226  -1.316 -16.903  1.00 35.49    -0.212 N 
ATOM      6  CZ  ARG D 557     -28.751  -2.504 -17.105  1.00 35.49     0.666 C 
ATOM      7  NH1 ARG D 557     -29.920  -2.672 -17.696  1.00 35.49    -0.235 N 
ATOM      8  NH2 ARG D 557     -28.070  -3.538 -16.704  1.00 35.49    -0.235 N 
ATOM      9  HH  ARG D 557     -30.384  -2.006 -17.970  1.00 35.49     0.174 HD
ATOM     10  HH  ARG D 557     -30.211  -3.470 -17.803  1.00 35.49     0.174 HD
ATOM     11  HH  ARG D 557     -27.315  -3.400 -16.332  1.00 35.49     0.174 HD
ATOM     12  HH  ARG D 557     -28.375  -4.321 -16.820  1.00 35.49     0.174 HD
ATOM     13  HE  ARG D 557     -27.506  -1.298 -16.451  1.00 35.49     0.178 HD
ENDBRANCH   4   5
ENDBRANCH   3   4
ENDBRANCH   2   3
ENDBRANCH   1   2
END_RES ARG D 557
BEGIN_RES GLU D 570
REMARK  3 active torsions:
REMARK  status: ('A' for Active; 'I' for Inactive)
REMARK    5  A    between atoms: CA   and  CB  
REMARK    6  A    between atoms: CB   and  CG  
REMARK    7  A    between atoms: CG   and  CD  
ROOT
ATOM     14  CA  GLU D 570     -18.033  -6.348 -13.375  1.00 32.92     0.160 C 
ENDROOT
BRANCH  14  15
ATOM     15  CB  GLU D 570     -19.500  -6.345 -13.794  1.00 32.92     0.043 C 
BRANCH  15  16
ATOM     16  CG  GLU D 570     -20.099  -7.643 -14.198  1.00 32.92     0.100 C 
BRANCH  16  17
ATOM     17  CD  GLU D 570     -21.059  -7.513 -15.358  1.00 32.92     0.185 C 
ATOM     18  OE1 GLU D 570     -20.869  -8.198 -16.381  1.00 32.92    -0.647 OA
ATOM     19  OE2 GLU D 570     -22.003  -6.706 -15.248  1.00 32.92    -0.647 OA
ENDBRANCH  16  17
ENDBRANCH  15  16
ENDBRANCH  14  15
END_RES GLU D 570
ENDMDL
MODEL 4
REMARK VINA RESULT:      -6.5      1.564      2.072
REMARK  13 active torsions:
REMARK  status: ('A' for Active; 'I' for Inactive)
REMARK    1  A    between atoms: C_2  and  O_4 
REMARK    2  A    between atoms: O_4  and  C_5 
REMARK    3  A    between atoms: C_5  and  C_7 
REMARK    4  A    between atoms: C_7  and  C_8 
REMARK    5  A    between atoms: C_8  and  C_9 
REMARK    6  A    between atoms: C_9  and  C_10 
REMARK    7  A    between atoms: C_10  and  C_11 
REMARK    8  A    between atoms: C_11  and  C_12 
REMARK    9  A    between atoms: C_12  and  C_13 
REMARK   10  A    between atoms: C_13  and  C_14 
REMARK   11  A    between atoms: C_14  and  C_15 
REMARK   12  A    between atoms: C_15  and  O_17 
REMARK   13  A    between atoms: O_17  and  C_18 
ROOT
HETATM    1  C   UNL     1     -20.107  -3.995  -8.062  1.00  0.00     0.000 C 
ENDROOT
BRANCH   1   2
HETATM    2  C   UNL     1     -19.231  -4.726  -7.040  1.00  0.00     0.000 C 
BRANCH   2   3
HETATM    3  C   UNL     1     -20.038  -5.812  -6.338  1.00  0.00     0.010 C 
BRANCH   3   4
HETATM    4  C   UNL     1     -21.535  -5.501  -6.273  1.00  0.00     0.111 C 
BRANCH   4   5
HETATM    5  C   UNL     1     -22.172  -6.309  -5.164  1.00  0.00     0.259 C 
HETATM    6  O   UNL     1     -23.366  -6.306  -4.911  1.00  0.00    -0.265 OA
BRANCH   5   7
HETATM    7  O   UNL     1     -21.232  -7.044  -4.492  1.00  0.00    -0.317 OA
BRANCH   7   8
HETATM    8  C   UNL     1     -21.582  -7.343  -3.124  1.00  0.00     0.123 C 
HETATM    9  C   UNL     1     -20.510  -8.238  -2.515  1.00  0.00     0.040 C 
HETATM   10  C   UNL     1     -21.680  -6.043  -2.322  1.00  0.00     0.040 C 
ENDBRANCH   7   8
ENDBRANCH   5   7
ENDBRANCH   4   5
ENDBRANCH   3   4
ENDBRANCH   2   3
ENDBRANCH   1   2
BRANCH   1  11
HETATM   11  C   UNL     1     -19.881  -4.526  -9.474  1.00  0.00     0.000 C 
BRANCH  11  12
HETATM   12  C   UNL     1     -21.126  -4.345 -10.346  1.00  0.00     0.000 C 
BRANCH  12  13
HETATM   13  C   UNL     1     -22.302  -3.881  -9.495  1.00  0.00     0.010 C 
BRANCH  13  14
HETATM   14  C   UNL     1     -23.635  -4.495  -9.926  1.00  0.00     0.111 C 
BRANCH  14  15
HETATM   15  C   UNL     1     -24.561  -3.401 -10.412  1.00  0.00     0.259 C 
HETATM   16  O   UNL     1     -25.639  -3.135  -9.905  1.00  0.00    -0.265 OA
BRANCH  15  17
HETATM   17  O   UNL     1     -24.033  -2.761 -11.496  1.00  0.00    -0.317 OA
BRANCH  17  18
HETATM   18  C   UNL     1     -24.179  -3.469 -12.746  1.00  0.00     0.123 C 
HETATM   19  C   UNL     1     -25.163  -2.740 -13.658  1.00  0.00     0.040 C 
HETATM   20  C   UNL     1     -22.813  -3.537 -13.421  1.00  0.00     0.040 C 
ENDBRANCH  17  18
ENDBRANCH  15  17
ENDBRANCH  14  15
ENDBRANCH  13  14
ENDBRANCH  12  13
ENDBRANCH  11  12
ENDBRANCH   1  11
TORSDOF 13
BEGIN_RES ARG D 557
REMARK  4 active torsions:
REMARK  status: ('A' for Active; 'I' for Inactive)
REMARK    1  A    between atoms: CA   and  CB  
REMARK    2  A    between atoms: CB   and  CG  
REMARK    3  A    between atoms: CG   and  CD  
REMARK    4  A    between atoms: CD   and  NE  
REMARK       I    between atoms: NE   and  CZ  
REMARK       I    between atoms: CZ   and  NH1 
REMARK       I    between atoms: CZ   and  NH2 
ROOT
ATOM      1  CA  ARG D 557     -26.217   2.705 -17.014  1.00 35.49     0.159 C 
ENDROOT
BRANCH   1   2
ATOM      2  CB  ARG D 557     -26.789   1.319 -17.183  1.00 35.49     0.034 C 
BRANCH   2   3
ATOM      3  CG  ARG D 557     -28.177   1.119 -16.748  1.00 35.49     0.027 C 
BRANCH   3   4
ATOM      4  CD  ARG D 557     -28.733  -0.172 -17.212  1.00 35.49     0.116 C 
BRANCH   4   5
ATOM      5  NE  ARG D 557     -28.025  -1.297 -16.660  1.00 35.49    -0.212 N 
ATOM      6  CZ  ARG D 557     -28.335  -2.562 -16.839  1.00 35.49     0.666 C 
ATOM      7  NH1 ARG D 557     -29.374  -2.943 -17.558  1.00 35.49    -0.235 N 
ATOM      8  NH2 ARG D 557     -27.567  -3.452 -16.280  1.00 35.49    -0.235 N 
ATOM      9  HH  ARG D 557     -29.892  -2.374 -17.936  1.00 35.49     0.174 HD
ATOM     10  HH  ARG D 557     -29.526  -3.782 -17.641  1.00 35.49     0.174 HD
ATOM     11  HH  ARG D 557     -26.899  -3.177 -15.828  1.00 35.49     0.174 HD
ATOM     12  HH  ARG D 557     -27.733  -4.278 -16.376  1.00 35.49     0.174 HD
ATOM     13  HE  ARG D 557     -27.384  -1.141 -16.124  1.00 35.49     0.178 HD
ENDBRANCH   4   5
ENDBRANCH   3   4
ENDBRANCH   2   3
ENDBRANCH   1   2
END_RES ARG D 557
BEGIN_RES GLU D 570
REMARK  3 active torsions:
REMARK  status: ('A' for Active; 'I' for Inactive)
REMARK    5  A    between atoms: CA   and  CB  
REMARK    6  A    between atoms: CB   and  CG  
REMARK    7  A    between atoms: CG   and  CD  
ROOT
ATOM     14  CA  GLU D 570     -18.033  -6.348 -13.375  1.00 32.92     0.160 C 
ENDROOT
BRANCH  14  15
ATOM     15  CB  GLU D 570     -19.500  -6.345 -13.794  1.00 32.92     0.043 C 
BRANCH  15  16
ATOM     16  CG  GLU D 570     -19.858  -7.075 -15.038  1.00 32.92     0.100 C 
BRANCH  16  17
ATOM     17  CD  GLU D 570     -21.010  -6.441 -15.782  1.00 32.92     0.185 C 
ATOM     18  OE1 GLU D 570     -20.779  -5.507 -16.573  1.00 32.92    -0.647 OA
ATOM     19  OE2 GLU D 570     -22.159  -6.873 -15.559  1.00 32.92    -0.647 OA
ENDBRANCH  16  17
ENDBRANCH  15  16
ENDBRANCH  14  15
END_RES GLU D 570
ENDMDL
MODEL 5
REMARK VINA RESULT:      -6.5      1.516      2.219
REMARK  13 active torsions:
REMARK  status: ('A' for Active; 'I' for Inactive)
REMARK    1  A    between atoms: C_2  and  O_4 
REMARK    2  A    between atoms: O_4  and  C_5 
REMARK    3  A    between atoms: C_5  and  C_7 
REMARK    4  A    between atoms: C_7  and  C_8 
REMARK    5  A    between atoms: C_8  and  C_9 
REMARK    6  A    between atoms: C_9  and  C_10 
REMARK    7  A    between atoms: C_10  and  C_11 
REMARK    8  A    between atoms: C_11  and  C_12 
REMARK    9  A    between atoms: C_12  and  C_13 
REMARK   10  A    between atoms: C_13  and  C_14 
REMARK   11  A    between atoms: C_14  and  C_15 
REMARK   12  A    between atoms: C_15  and  O_17 
REMARK   13  A    between atoms: O_17  and  C_18 
ROOT
HETATM    1  C   UNL     1     -20.588  -6.724  -5.409  1.00  0.00     0.000 C 
ENDROOT
BRANCH   1   2
HETATM    2  C   UNL     1     -21.710  -6.452  -4.402  1.00  0.00     0.000 C 
BRANCH   2   3
HETATM    3  C   UNL     1     -21.279  -6.883  -3.005  1.00  0.00     0.010 C 
BRANCH   3   4
HETATM    4  C   UNL     1     -22.137  -6.271  -1.896  1.00  0.00     0.111 C 
BRANCH   4   5
HETATM    5  C   UNL     1     -22.363  -7.296  -0.806  1.00  0.00     0.259 C 
HETATM    6  O   UNL     1     -23.263  -7.238   0.016  1.00  0.00    -0.265 OA
BRANCH   5   7
HETATM    7  O   UNL     1     -21.430  -8.296  -0.874  1.00  0.00    -0.317 OA
BRANCH   7   8
HETATM    8  C   UNL     1     -21.913  -9.586  -0.444  1.00  0.00     0.123 C 
HETATM    9  C   UNL     1     -22.383 -10.378  -1.658  1.00  0.00     0.040 C 
HETATM   10  C   UNL     1     -20.787 -10.349   0.257  1.00  0.00     0.040 C 
ENDBRANCH   7   8
ENDBRANCH   5   7
ENDBRANCH   4   5
ENDBRANCH   3   4
ENDBRANCH   2   3
ENDBRANCH   1   2
BRANCH   1  11
HETATM   11  C   UNL     1     -20.858  -6.040  -6.744  1.00  0.00     0.000 C 
BRANCH  11  12
HETATM   12  C   UNL     1     -20.355  -4.594  -6.745  1.00  0.00     0.000 C 
BRANCH  12  13
HETATM   13  C   UNL     1     -21.448  -3.656  -7.242  1.00  0.00     0.010 C 
BRANCH  13  14
HETATM   14  C   UNL     1     -22.783  -4.365  -7.486  1.00  0.00     0.111 C 
BRANCH  14  15
HETATM   15  C   UNL     1     -23.248  -4.093  -8.900  1.00  0.00     0.259 C 
HETATM   16  O   UNL     1     -24.159  -3.335  -9.192  1.00  0.00    -0.265 OA
BRANCH  15  17
HETATM   17  O   UNL     1     -22.520  -4.817  -9.801  1.00  0.00    -0.317 OA
BRANCH  17  18
HETATM   18  C   UNL     1     -21.921  -4.037 -10.857  1.00  0.00     0.123 C 
HETATM   19  C   UNL     1     -20.403  -4.207 -10.847  1.00  0.00     0.040 C 
HETATM   20  C   UNL     1     -22.480  -4.523 -12.190  1.00  0.00     0.040 C 
ENDBRANCH  17  18
ENDBRANCH  15  17
ENDBRANCH  14  15
ENDBRANCH  13  14
ENDBRANCH  12  13
ENDBRANCH  11  12
ENDBRANCH   1  11
TORSDOF 13
BEGIN_RES ARG D 557
REMARK  4 active torsions:
REMARK  status: ('A' for Active; 'I' for Inactive)
REMARK    1  A    between atoms: CA   and  CB  
REMARK    2  A    between atoms: CB   and  CG  
REMARK    3  A    between atoms: CG   and  CD  
REMARK    4  A    between atoms: CD   and  NE  
REMARK       I    between atoms: NE   and  CZ  
REMARK       I    between atoms: CZ   and  NH1 
REMARK       I    between atoms: CZ   and  NH2 
ROOT
ATOM      1  CA  ARG D 557     -26.217   2.705 -17.014  1.00 35.49     0.159 C 
ENDROOT
BRANCH   1   2
ATOM      2  CB  ARG D 557     -26.789   1.319 -17.183  1.00 35.49     0.034 C 
BRANCH   2   3
ATOM      3  CG  ARG D 557     -28.231   1.226 -17.440  1.00 35.49     0.027 C 
BRANCH   3   4
ATOM      4  CD  ARG D 557     -28.913   0.303 -16.504  1.00 35.49     0.116 C 
BRANCH   4   5
ATOM      5  NE  ARG D 557     -28.132  -0.878 -16.243  1.00 35.49    -0.212 N 
ATOM      6  CZ  ARG D 557     -28.372  -2.079 -16.720  1.00 35.49     0.666 C 
ATOM      7  NH1 ARG D 557     -29.400  -2.337 -17.506  1.00 35.49    -0.235 N 
ATOM      8  NH2 ARG D 557     -27.545  -3.030 -16.395  1.00 35.49    -0.235 N 
ATOM      9  HH  ARG D 557     -29.956  -1.726 -17.734  1.00 35.49     0.174 HD
ATOM     10  HH  ARG D 557     -29.505  -3.139 -17.789  1.00 35.49     0.174 HD
ATOM     11  HH  ARG D 557     -26.885  -2.832 -15.891  1.00 35.49     0.174 HD
ATOM     12  HH  ARG D 557     -27.665  -3.817 -16.686  1.00 35.49     0.174 HD
ATOM     13  HE  ARG D 557     -27.491  -0.818 -15.687  1.00 35.49     0.178 HD
ENDBRANCH   4   5
ENDBRANCH   3   4
ENDBRANCH   2   3
ENDBRANCH   1   2
END_RES ARG D 557
BEGIN_RES GLU D 570
REMARK  3 active torsions:
REMARK  status: ('A' for Active; 'I' for Inactive)
REMARK    5  A    between atoms: CA   and  CB  
REMARK    6  A    between atoms: CB   and  CG  
REMARK    7  A    between atoms: CG   and  CD  
ROOT
ATOM     14  CA  GLU D 570     -18.033  -6.348 -13.375  1.00 32.92     0.160 C 
ENDROOT
BRANCH  14  15
ATOM     15  CB  GLU D 570     -19.500  -6.345 -13.794  1.00 32.92     0.043 C 
BRANCH  15  16
ATOM     16  CG  GLU D 570     -19.805  -6.037 -15.215  1.00 32.92     0.100 C 
BRANCH  16  17
ATOM     17  CD  GLU D 570     -21.279  -5.819 -15.467  1.00 32.92     0.185 C 
ATOM     18  OE1 GLU D 570     -22.095  -6.668 -15.061  1.00 32.92    -0.647 OA
ATOM     19  OE2 GLU D 570     -21.620  -4.795 -16.092  1.00 32.92    -0.647 OA
ENDBRANCH  16  17
ENDBRANCH  15  16
ENDBRANCH  14  15
END_RES GLU D 570
ENDMDL
MODEL 6
REMARK VINA RESULT:      -6.4      3.275      5.357
REMARK  13 active torsions:
REMARK  status: ('A' for Active; 'I' for Inactive)
REMARK    1  A    between atoms: C_2  and  O_4 
REMARK    2  A    between atoms: O_4  and  C_5 
REMARK    3  A    between atoms: C_5  and  C_7 
REMARK    4  A    between atoms: C_7  and  C_8 
REMARK    5  A    between atoms: C_8  and  C_9 
REMARK    6  A    between atoms: C_9  and  C_10 
REMARK    7  A    between atoms: C_10  and  C_11 
REMARK    8  A    between atoms: C_11  and  C_12 
REMARK    9  A    between atoms: C_12  and  C_13 
REMARK   10  A    between atoms: C_13  and  C_14 
REMARK   11  A    between atoms: C_14  and  C_15 
REMARK   12  A    between atoms: C_15  and  O_17 
REMARK   13  A    between atoms: O_17  and  C_18 
ROOT
HETATM    1  C   UNL     1     -22.022  -4.412 -12.027  1.00  0.00     0.000 C 
ENDROOT
BRANCH   1   2
HETATM    2  C   UNL     1     -22.428  -3.665 -10.753  1.00  0.00     0.000 C 
BRANCH   2   3
HETATM    3  C   UNL     1     -22.985  -4.642  -9.724  1.00  0.00     0.010 C 
BRANCH   3   4
HETATM    4  C   UNL     1     -23.617  -3.947  -8.516  1.00  0.00     0.111 C 
BRANCH   4   5
HETATM    5  C   UNL     1     -22.880  -4.350  -7.257  1.00  0.00     0.259 C 
HETATM    6  O   UNL     1     -23.326  -5.111  -6.414  1.00  0.00    -0.265 OA
BRANCH   5   7
HETATM    7  O   UNL     1     -21.649  -3.754  -7.200  1.00  0.00    -0.317 OA
BRANCH   7   8
HETATM    8  C   UNL     1     -20.548  -4.679  -7.085  1.00  0.00     0.123 C 
HETATM    9  C   UNL     1     -19.431  -4.252  -8.029  1.00  0.00     0.040 C 
HETATM   10  C   UNL     1     -20.027  -4.683  -5.646  1.00  0.00     0.040 C 
ENDBRANCH   7   8
ENDBRANCH   5   7
ENDBRANCH   4   5
ENDBRANCH   3   4
ENDBRANCH   2   3
ENDBRANCH   1   2
BRANCH   1  11
HETATM   11  C   UNL     1     -22.556  -3.719 -13.275  1.00  0.00     0.000 C 
BRANCH  11  12
HETATM   12  C   UNL     1     -22.696  -4.699 -14.443  1.00  0.00     0.000 C 
BRANCH  12  13
HETATM   13  C   UNL     1     -23.604  -5.859 -14.051  1.00  0.00     0.010 C 
BRANCH  13  14
HETATM   14  C   UNL     1     -24.277  -6.528 -15.251  1.00  0.00     0.111 C 
BRANCH  14  15
HETATM   15  C   UNL     1     -25.566  -5.804 -15.575  1.00  0.00     0.259 C 
HETATM   16  O   UNL     1     -25.765  -4.619 -15.359  1.00  0.00    -0.265 OA
BRANCH  15  17
HETATM   17  O   UNL     1     -26.477  -6.655 -16.133  1.00  0.00    -0.317 OA
BRANCH  17  18
HETATM   18  C   UNL     1     -27.549  -6.006 -16.850  1.00  0.00     0.123 C 
HETATM   19  C   UNL     1     -27.340  -6.145 -18.356  1.00  0.00     0.040 C 
HETATM   20  C   UNL     1     -28.864  -6.671 -16.454  1.00  0.00     0.040 C 
ENDBRANCH  17  18
ENDBRANCH  15  17
ENDBRANCH  14  15
ENDBRANCH  13  14
ENDBRANCH  12  13
ENDBRANCH  11  12
ENDBRANCH   1  11
TORSDOF 13
BEGIN_RES ARG D 557
REMARK  4 active torsions:
REMARK  status: ('A' for Active; 'I' for Inactive)
REMARK    1  A    between atoms: CA   and  CB  
REMARK    2  A    between atoms: CB   and  CG  
REMARK    3  A    between atoms: CG   and  CD  
REMARK    4  A    between atoms: CD   and  NE  
REMARK       I    between atoms: NE   and  CZ  
REMARK       I    between atoms: CZ   and  NH1 
REMARK       I    between atoms: CZ   and  NH2 
ROOT
ATOM      1  CA  ARG D 557     -26.217   2.705 -17.014  1.00 35.49     0.159 C 
ENDROOT
BRANCH   1   2
ATOM      2  CB  ARG D 557     -26.789   1.319 -17.183  1.00 35.49     0.034 C 
BRANCH   2   3
ATOM      3  CG  ARG D 557     -28.241   1.222 -17.375  1.00 35.49     0.027 C 
BRANCH   3   4
ATOM      4  CD  ARG D 557     -28.870   0.257 -16.445  1.00 35.49     0.116 C 
BRANCH   4   5
ATOM      5  NE  ARG D 557     -29.317  -0.933 -17.119  1.00 35.49    -0.212 N 
ATOM      6  CZ  ARG D 557     -28.742  -2.113 -17.057  1.00 35.49     0.666 C 
ATOM      7  NH1 ARG D 557     -27.645  -2.331 -16.355  1.00 35.49    -0.235 N 
ATOM      8  NH2 ARG D 557     -29.297  -3.087 -17.717  1.00 35.49    -0.235 N 
ATOM      9  HH  ARG D 557     -27.263  -1.705 -15.912  1.00 35.49     0.174 HD
ATOM     10  HH  ARG D 557     -27.316  -3.122 -16.350  1.00 35.49     0.174 HD
ATOM     11  HH  ARG D 557     -30.009  -2.919 -18.155  1.00 35.49     0.174 HD
ATOM     12  HH  ARG D 557     -28.957  -3.864 -17.698  1.00 35.49     0.174 HD
ATOM     13  HE  ARG D 557     -29.977  -0.866 -17.652  1.00 35.49     0.178 HD
ENDBRANCH   4   5
ENDBRANCH   3   4
ENDBRANCH   2   3
ENDBRANCH   1   2
END_RES ARG D 557
BEGIN_RES GLU D 570
REMARK  3 active torsions:
REMARK  status: ('A' for Active; 'I' for Inactive)
REMARK    5  A    between atoms: CA   and  CB  
REMARK    6  A    between atoms: CB   and  CG  
REMARK    7  A    between atoms: CG   and  CD  
ROOT
ATOM     14  CA  GLU D 570     -18.033  -6.348 -13.375  1.00 32.92     0.160 C 
ENDROOT
BRANCH  14  15
ATOM     15  CB  GLU D 570     -19.500  -6.345 -13.794  1.00 32.92     0.043 C 
BRANCH  15  16
ATOM     16  CG  GLU D 570     -20.101  -7.644 -14.192  1.00 32.92     0.100 C 
BRANCH  16  17
ATOM     17  CD  GLU D 570     -20.670  -7.626 -15.592  1.00 32.92     0.185 C 
ATOM     18  OE1 GLU D 570     -21.280  -8.629 -16.010  1.00 32.92    -0.647 OA
ATOM     19  OE2 GLU D 570     -20.489  -6.605 -16.283  1.00 32.92    -0.647 OA
ENDBRANCH  16  17
ENDBRANCH  15  16
ENDBRANCH  14  15
END_RES GLU D 570
ENDMDL
MODEL 7
REMARK VINA RESULT:      -6.4      2.602      8.158
REMARK  13 active torsions:
REMARK  status: ('A' for Active; 'I' for Inactive)
REMARK    1  A    between atoms: C_2  and  O_4 
REMARK    2  A    between atoms: O_4  and  C_5 
REMARK    3  A    between atoms: C_5  and  C_7 
REMARK    4  A    between atoms: C_7  and  C_8 
REMARK    5  A    between atoms: C_8  and  C_9 
REMARK    6  A    between atoms: C_9  and  C_10 
REMARK    7  A    between atoms: C_10  and  C_11 
REMARK    8  A    between atoms: C_11  and  C_12 
REMARK    9  A    between atoms: C_12  and  C_13 
REMARK   10  A    between atoms: C_13  and  C_14 
REMARK   11  A    between atoms: C_14  and  C_15 
REMARK   12  A    between atoms: C_15  and  O_17 
REMARK   13  A    between atoms: O_17  and  C_18 
ROOT
HETATM    1  C   UNL     1     -20.357  -7.328  -4.876  1.00  0.00     0.000 C 
ENDROOT
BRANCH   1   2
HETATM    2  C   UNL     1     -20.170  -6.413  -6.091  1.00  0.00     0.000 C 
BRANCH   2   3
HETATM    3  C   UNL     1     -20.465  -4.967  -5.709  1.00  0.00     0.010 C 
BRANCH   3   4
HETATM    4  C   UNL     1     -20.873  -4.102  -6.904  1.00  0.00     0.111 C 
BRANCH   4   5
HETATM    5  C   UNL     1     -22.347  -4.294  -7.188  1.00  0.00     0.259 C 
HETATM    6  O   UNL     1     -23.121  -4.871  -6.442  1.00  0.00    -0.265 OA
BRANCH   5   7
HETATM    7  O   UNL     1     -22.691  -3.729  -8.387  1.00  0.00    -0.317 OA
BRANCH   7   8
HETATM    8  C   UNL     1     -22.266  -4.486  -9.541  1.00  0.00     0.123 C 
HETATM    9  C   UNL     1     -23.486  -4.867 -10.370  1.00  0.00     0.040 C 
HETATM   10  C   UNL     1     -21.317  -3.638 -10.390  1.00  0.00     0.040 C 
ENDBRANCH   7   8
ENDBRANCH   5   7
ENDBRANCH   4   5
ENDBRANCH   3   4
ENDBRANCH   2   3
ENDBRANCH   1   2
BRANCH   1  11
HETATM   11  C   UNL     1     -21.817  -7.385  -4.439  1.00  0.00     0.000 C 
BRANCH  11  12
HETATM   12  C   UNL     1     -22.042  -6.609  -3.138  1.00  0.00     0.000 C 
BRANCH  12  13
HETATM   13  C   UNL     1     -21.400  -7.347  -1.969  1.00  0.00     0.010 C 
BRANCH  13  14
HETATM   14  C   UNL     1     -22.135  -7.129  -0.644  1.00  0.00     0.111 C 
BRANCH  14  15
HETATM   15  C   UNL     1     -22.170  -8.426   0.134  1.00  0.00     0.259 C 
HETATM   16  O   UNL     1     -21.400  -8.710   1.037  1.00  0.00    -0.265 OA
BRANCH  15  17
HETATM   17  O   UNL     1     -23.171  -9.239  -0.317  1.00  0.00    -0.317 OA
BRANCH  17  18
HETATM   18  C   UNL     1     -22.769 -10.597  -0.592  1.00  0.00     0.123 C 
HETATM   19  C   UNL     1     -23.767 -11.580   0.015  1.00  0.00     0.040 C 
HETATM   20  C   UNL     1     -22.722 -10.787  -2.105  1.00  0.00     0.040 C 
ENDBRANCH  17  18
ENDBRANCH  15  17
ENDBRANCH  14  15
ENDBRANCH  13  14
ENDBRANCH  12  13
ENDBRANCH  11  12
ENDBRANCH   1  11
TORSDOF 13
BEGIN_RES ARG D 557
REMARK  4 active torsions:
REMARK  status: ('A' for Active; 'I' for Inactive)
REMARK    1  A    between atoms: CA   and  CB  
REMARK    2  A    between atoms: CB   and  CG  
REMARK    3  A    between atoms: CG   and  CD  
REMARK    4  A    between atoms: CD   and  NE  
REMARK       I    between atoms: NE   and  CZ  
REMARK       I    between atoms: CZ   and  NH1 
REMARK       I    between atoms: CZ   and  NH2 
ROOT
ATOM      1  CA  ARG D 557     -26.217   2.705 -17.014  1.00 35.49     0.159 C 
ENDROOT
BRANCH   1   2
ATOM      2  CB  ARG D 557     -26.789   1.319 -17.183  1.00 35.49     0.034 C 
BRANCH   2   3
ATOM      3  CG  ARG D 557     -25.838   0.202 -17.135  1.00 35.49     0.027 C 
BRANCH   3   4
ATOM      4  CD  ARG D 557     -24.750   0.428 -16.156  1.00 35.49     0.116 C 
BRANCH   4   5
ATOM      5  NE  ARG D 557     -24.874  -0.421 -15.001  1.00 35.49    -0.212 N 
ATOM      6  CZ  ARG D 557     -24.052  -1.391 -14.669  1.00 35.49     0.666 C 
ATOM      7  NH1 ARG D 557     -22.996  -1.706 -15.397  1.00 35.49    -0.235 N 
ATOM      8  NH2 ARG D 557     -24.307  -2.046 -13.574  1.00 35.49    -0.235 N 
ATOM      9  HH  ARG D 557     -22.808  -1.287 -16.121  1.00 35.49     0.174 HD
ATOM     10  HH  ARG D 557     -22.494  -2.347 -15.130  1.00 35.49     0.174 HD
ATOM     11  HH  ARG D 557     -24.991  -1.816 -13.120  1.00 35.49     0.174 HD
ATOM     12  HH  ARG D 557     -23.796  -2.676 -13.325  1.00 35.49     0.174 HD
ATOM     13  HE  ARG D 557     -25.566  -0.336 -14.515  1.00 35.49     0.178 HD
ENDBRANCH   4   5
ENDBRANCH   3   4
ENDBRANCH   2   3
ENDBRANCH   1   2
END_RES ARG D 557
BEGIN_RES GLU D 570
REMARK  3 active torsions:
REMARK  status: ('A' for Active; 'I' for Inactive)
REMARK    5  A    between atoms: CA   and  CB  
REMARK    6  A    between atoms: CB   and  CG  
REMARK    7  A    between atoms: CG   and  CD  
ROOT
ATOM     14  CA  GLU D 570     -18.033  -6.348 -13.375  1.00 32.92     0.160 C 
ENDROOT
BRANCH  14  15
ATOM     15  CB  GLU D 570     -19.500  -6.345 -13.794  1.00 32.92     0.043 C 
BRANCH  15  16
ATOM     16  CG  GLU D 570     -20.432  -5.486 -13.018  1.00 32.92     0.100 C 
BRANCH  16  17
ATOM     17  CD  GLU D 570     -21.738  -5.236 -13.735  1.00 32.92     0.185 C 
ATOM     18  OE1 GLU D 570     -22.263  -4.109 -13.660  1.00 32.92    -0.647 OA
ATOM     19  OE2 GLU D 570     -22.250  -6.183 -14.365  1.00 32.92    -0.647 OA
ENDBRANCH  16  17
ENDBRANCH  15  16
ENDBRANCH  14  15
END_RES GLU D 570
ENDMDL
MODEL 8
REMARK VINA RESULT:      -6.3      2.379      3.015
REMARK  13 active torsions:
REMARK  status: ('A' for Active; 'I' for Inactive)
REMARK    1  A    between atoms: C_2  and  O_4 
REMARK    2  A    between atoms: O_4  and  C_5 
REMARK    3  A    between atoms: C_5  and  C_7 
REMARK    4  A    between atoms: C_7  and  C_8 
REMARK    5  A    between atoms: C_8  and  C_9 
REMARK    6  A    between atoms: C_9  and  C_10 
REMARK    7  A    between atoms: C_10  and  C_11 
REMARK    8  A    between atoms: C_11  and  C_12 
REMARK    9  A    between atoms: C_12  and  C_13 
REMARK   10  A    between atoms: C_13  and  C_14 
REMARK   11  A    between atoms: C_14  and  C_15 
REMARK   12  A    between atoms: C_15  and  O_17 
REMARK   13  A    between atoms: O_17  and  C_18 
ROOT
HETATM    1  C   UNL     1     -20.752  -7.143  -5.528  1.00  0.00     0.000 C 
ENDROOT
BRANCH   1   2
HETATM    2  C   UNL     1     -21.978  -6.573  -4.808  1.00  0.00     0.000 C 
BRANCH   2   3
HETATM    3  C   UNL     1     -21.781  -6.647  -3.298  1.00  0.00     0.010 C 
BRANCH   3   4
HETATM    4  C   UNL     1     -20.732  -7.680  -2.879  1.00  0.00     0.111 C 
BRANCH   4   5
HETATM    5  C   UNL     1     -21.419  -8.976  -2.507  1.00  0.00     0.259 C 
HETATM    6  O   UNL     1     -21.946  -9.729  -3.309  1.00  0.00    -0.265 OA
BRANCH   5   7
HETATM    7  O   UNL     1     -21.360  -9.190  -1.155  1.00  0.00    -0.317 OA
BRANCH   7   8
HETATM    8  C   UNL     1     -22.545  -8.780  -0.440  1.00  0.00     0.123 C 
HETATM    9  C   UNL     1     -23.384 -10.008  -0.112  1.00  0.00     0.040 C 
HETATM   10  C   UNL     1     -22.144  -8.074   0.857  1.00  0.00     0.040 C 
ENDBRANCH   7   8
ENDBRANCH   5   7
ENDBRANCH   4   5
ENDBRANCH   3   4
ENDBRANCH   2   3
ENDBRANCH   1   2
BRANCH   1  11
HETATM   11  C   UNL     1     -20.247  -6.192  -6.609  1.00  0.00     0.000 C 
BRANCH  11  12
HETATM   12  C   UNL     1     -20.087  -4.768  -6.071  1.00  0.00     0.000 C 
BRANCH  12  13
HETATM   13  C   UNL     1     -20.823  -3.781  -6.970  1.00  0.00     0.010 C 
BRANCH  13  14
HETATM   14  C   UNL     1     -21.198  -4.371  -8.331  1.00  0.00     0.111 C 
BRANCH  14  15
HETATM   15  C   UNL     1     -22.649  -4.064  -8.632  1.00  0.00     0.259 C 
HETATM   16  O   UNL     1     -23.573  -4.281  -7.865  1.00  0.00    -0.265 OA
BRANCH  15  17
HETATM   17  O   UNL     1     -22.785  -3.522  -9.878  1.00  0.00    -0.317 OA
BRANCH  17  18
HETATM   18  C   UNL     1     -22.274  -4.340 -10.952  1.00  0.00     0.123 C 
HETATM   19  C   UNL     1     -23.425  -4.970 -11.733  1.00  0.00     0.040 C 
HETATM   20  C   UNL     1     -21.450  -3.455 -11.881  1.00  0.00     0.040 C 
ENDBRANCH  17  18
ENDBRANCH  15  17
ENDBRANCH  14  15
ENDBRANCH  13  14
ENDBRANCH  12  13
ENDBRANCH  11  12
ENDBRANCH   1  11
TORSDOF 13
BEGIN_RES ARG D 557
REMARK  4 active torsions:
REMARK  status: ('A' for Active; 'I' for Inactive)
REMARK    1  A    between atoms: CA   and  CB  
REMARK    2  A    between atoms: CB   and  CG  
REMARK    3  A    between atoms: CG   and  CD  
REMARK    4  A    between atoms: CD   and  NE  
REMARK       I    between atoms: NE   and  CZ  
REMARK       I    between atoms: CZ   and  NH1 
REMARK       I    between atoms: CZ   and  NH2 
ROOT
ATOM      1  CA  ARG D 557     -26.217   2.705 -17.014  1.00 35.49     0.159 C 
ENDROOT
BRANCH   1   2
ATOM      2  CB  ARG D 557     -26.789   1.319 -17.183  1.00 35.49     0.034 C 
BRANCH   2   3
ATOM      3  CG  ARG D 557     -25.837   0.202 -17.147  1.00 35.49     0.027 C 
BRANCH   3   4
ATOM      4  CD  ARG D 557     -24.749   0.420 -16.165  1.00 35.49     0.116 C 
BRANCH   4   5
ATOM      5  NE  ARG D 557     -24.878  -0.435 -15.015  1.00 35.49    -0.212 N 
ATOM      6  CZ  ARG D 557     -24.054  -1.403 -14.680  1.00 35.49     0.666 C 
ATOM      7  NH1 ARG D 557     -22.991  -1.709 -15.401  1.00 35.49    -0.235 N 
ATOM      8  NH2 ARG D 557     -24.314  -2.063 -13.590  1.00 35.49    -0.235 N 
ATOM      9  HH  ARG D 557     -22.799  -1.286 -16.121  1.00 35.49     0.174 HD
ATOM     10  HH  ARG D 557     -22.488  -2.348 -15.132  1.00 35.49     0.174 HD
ATOM     11  HH  ARG D 557     -25.004  -1.838 -13.141  1.00 35.49     0.174 HD
ATOM     12  HH  ARG D 557     -23.803  -2.692 -13.340  1.00 35.49     0.174 HD
ATOM     13  HE  ARG D 557     -25.575  -0.355 -14.534  1.00 35.49     0.178 HD
ENDBRANCH   4   5
ENDBRANCH   3   4
ENDBRANCH   2   3
ENDBRANCH   1   2
END_RES ARG D 557
BEGIN_RES GLU D 570
REMARK  3 active torsions:
REMARK  status: ('A' for Active; 'I' for Inactive)
REMARK    5  A    between atoms: CA   and  CB  
REMARK    6  A    between atoms: CB   and  CG  
REMARK    7  A    between atoms: CG   and  CD  
ROOT
ATOM     14  CA  GLU D 570     -18.033  -6.348 -13.375  1.00 32.92     0.160 C 
ENDROOT
BRANCH  14  15
ATOM     15  CB  GLU D 570     -19.500  -6.345 -13.794  1.00 32.92     0.043 C 
BRANCH  15  16
ATOM     16  CG  GLU D 570     -19.829  -5.783 -15.129  1.00 32.92     0.100 C 
BRANCH  16  17
ATOM     17  CD  GLU D 570     -21.312  -5.578 -15.333  1.00 32.92     0.185 C 
ATOM     18  OE1 GLU D 570     -22.086  -6.540 -15.162  1.00 32.92    -0.647 OA
ATOM     19  OE2 GLU D 570     -21.703  -4.447 -15.683  1.00 32.92    -0.647 OA
ENDBRANCH  16  17
ENDBRANCH  15  16
ENDBRANCH  14  15
END_RES GLU D 570
ENDMDL
MODEL 9
REMARK VINA RESULT:      -6.3      1.247      1.624
REMARK  13 active torsions:
REMARK  status: ('A' for Active; 'I' for Inactive)
REMARK    1  A    between atoms: C_2  and  O_4 
REMARK    2  A    between atoms: O_4  and  C_5 
REMARK    3  A    between atoms: C_5  and  C_7 
REMARK    4  A    between atoms: C_7  and  C_8 
REMARK    5  A    between atoms: C_8  and  C_9 
REMARK    6  A    between atoms: C_9  and  C_10 
REMARK    7  A    between atoms: C_10  and  C_11 
REMARK    8  A    between atoms: C_11  and  C_12 
REMARK    9  A    between atoms: C_12  and  C_13 
REMARK   10  A    between atoms: C_13  and  C_14 
REMARK   11  A    between atoms: C_14  and  C_15 
REMARK   12  A    between atoms: C_15  and  O_17 
REMARK   13  A    between atoms: O_17  and  C_18 
ROOT
HETATM    1  C   UNL     1     -20.759  -5.123  -6.009  1.00  0.00     0.000 C 
ENDROOT
BRANCH   1   2
HETATM    2  C   UNL     1     -21.980  -5.968  -5.629  1.00  0.00     0.000 C 
BRANCH   2   3
HETATM    3  C   UNL     1     -21.772  -6.606  -4.261  1.00  0.00     0.010 C 
BRANCH   3   4
HETATM    4  C   UNL     1     -21.161  -8.008  -4.339  1.00  0.00     0.111 C 
BRANCH   4   5
HETATM    5  C   UNL     1     -20.803  -8.482  -2.947  1.00  0.00     0.259 C 
HETATM    6  O   UNL     1     -19.667  -8.510  -2.502  1.00  0.00    -0.265 OA
BRANCH   5   7
HETATM    7  O   UNL     1     -21.922  -8.865  -2.258  1.00  0.00    -0.317 OA
BRANCH   7   8
HETATM    8  C   UNL     1     -21.925  -8.474  -0.869  1.00  0.00     0.123 C 
HETATM    9  C   UNL     1     -22.386  -7.027  -0.754  1.00  0.00     0.040 C 
HETATM   10  C   UNL     1     -22.877  -9.377  -0.082  1.00  0.00     0.040 C 
ENDBRANCH   7   8
ENDBRANCH   5   7
ENDBRANCH   4   5
ENDBRANCH   3   4
ENDBRANCH   2   3
ENDBRANCH   1   2
BRANCH   1  11
HETATM   11  C   UNL     1     -20.422  -5.262  -7.489  1.00  0.00     0.000 C 
BRANCH  11  12
HETATM   12  C   UNL     1     -20.925  -4.059  -8.293  1.00  0.00     0.000 C 
BRANCH  12  13
HETATM   13  C   UNL     1     -22.034  -4.490  -9.245  1.00  0.00     0.010 C 
BRANCH  13  14
HETATM   14  C   UNL     1     -23.426  -4.050  -8.785  1.00  0.00     0.111 C 
BRANCH  14  15
HETATM   15  C   UNL     1     -24.188  -3.477  -9.961  1.00  0.00     0.259 C 
HETATM   16  O   UNL     1     -25.390  -3.264  -9.964  1.00  0.00    -0.265 OA
BRANCH  15  17
HETATM   17  O   UNL     1     -23.354  -3.242 -11.016  1.00  0.00    -0.317 OA
BRANCH  17  18
HETATM   18  C   UNL     1     -23.918  -3.545 -12.310  1.00  0.00     0.123 C 
HETATM   19  C   UNL     1     -23.566  -2.447 -13.312  1.00  0.00     0.040 C 
HETATM   20  C   UNL     1     -23.341  -4.874 -12.786  1.00  0.00     0.040 C 
ENDBRANCH  17  18
ENDBRANCH  15  17
ENDBRANCH  14  15
ENDBRANCH  13  14
ENDBRANCH  12  13
ENDBRANCH  11  12
ENDBRANCH   1  11
TORSDOF 13
BEGIN_RES ARG D 557
REMARK  4 active torsions:
REMARK  status: ('A' for Active; 'I' for Inactive)
REMARK    1  A    between atoms: CA   and  CB  
REMARK    2  A    between atoms: CB   and  CG  
REMARK    3  A    between atoms: CG   and  CD  
REMARK    4  A    between atoms: CD   and  NE  
REMARK       I    between atoms: NE   and  CZ  
REMARK       I    between atoms: CZ   and  NH1 
REMARK       I    between atoms: CZ   and  NH2 
ROOT
ATOM      1  CA  ARG D 557     -26.217   2.705 -17.014  1.00 35.49     0.159 C 
ENDROOT
BRANCH   1   2
ATOM      2  CB  ARG D 557     -26.789   1.319 -17.183  1.00 35.49     0.034 C 
BRANCH   2   3
ATOM      3  CG  ARG D 557     -28.239   1.176 -17.002  1.00 35.49     0.027 C 
BRANCH   3   4
ATOM      4  CD  ARG D 557     -28.637  -0.222 -16.718  1.00 35.49     0.116 C 
BRANCH   4   5
ATOM      5  NE  ARG D 557     -27.603  -0.951 -16.031  1.00 35.49    -0.212 N 
ATOM      6  CZ  ARG D 557     -27.409  -2.250 -16.092  1.00 35.49     0.666 C 
ATOM      7  NH1 ARG D 557     -28.181  -3.049 -16.805  1.00 35.49    -0.235 N 
ATOM      8  NH2 ARG D 557     -26.408  -2.739 -15.420  1.00 35.49    -0.235 N 
ATOM      9  HH  ARG D 557     -28.844  -2.748 -17.257  1.00 35.49     0.174 HD
ATOM     10  HH  ARG D 557     -28.005  -3.888 -16.809  1.00 35.49     0.174 HD
ATOM     11  HH  ARG D 557     -25.923  -2.198 -14.974  1.00 35.49     0.174 HD
ATOM     12  HH  ARG D 557     -26.249  -3.572 -15.437  1.00 35.49     0.174 HD
ATOM     13  HE  ARG D 557     -27.104  -0.524 -15.491  1.00 35.49     0.178 HD
ENDBRANCH   4   5
ENDBRANCH   3   4
ENDBRANCH   2   3
ENDBRANCH   1   2
END_RES ARG D 557
BEGIN_RES GLU D 570
REMARK  3 active torsions:
REMARK  status: ('A' for Active; 'I' for Inactive)
REMARK    5  A    between atoms: CA   and  CB  
REMARK    6  A    between atoms: CB   and  CG  
REMARK    7  A    between atoms: CG   and  CD  
ROOT
ATOM     14  CA  GLU D 570     -18.033  -6.348 -13.375  1.00 32.92     0.160 C 
ENDROOT
BRANCH  14  15
ATOM     15  CB  GLU D 570     -19.500  -6.345 -13.794  1.00 32.92     0.043 C 
BRANCH  15  16
ATOM     16  CG  GLU D 570     -19.796  -6.319 -15.250  1.00 32.92     0.100 C 
BRANCH  16  17
ATOM     17  CD  GLU D 570     -20.864  -7.309 -15.652  1.00 32.92     0.185 C 
ATOM     18  OE1 GLU D 570     -20.609  -8.528 -15.601  1.00 32.92    -0.647 OA
ATOM     19  OE2 GLU D 570     -21.961  -6.861 -16.039  1.00 32.92    -0.647 OA
ENDBRANCH  16  17
ENDBRANCH  15  16
ENDBRANCH  14  15
END_RES GLU D 570
ENDMDL
