MODEL 1
REMARK VINA RESULT:      -7.8      0.000      0.000
REMARK  29 active torsions:
REMARK  status: ('A' for Active; 'I' for Inactive)
REMARK    1  A    between atoms: C_2  and  C_3 
REMARK    2  A    between atoms: C_3  and  C_4 
REMARK    3  A    between atoms: C_4  and  C_5 
REMARK    4  A    between atoms: C_5  and  C_6 
REMARK    5  A    between atoms: C_6  and  C_7 
REMARK    6  A    between atoms: C_7  and  C_8 
REMARK    7  A    between atoms: C_8  and  C_9 
REMARK    8  A    between atoms: C_9  and  C_10 
REMARK    9  A    between atoms: C_10  and  C_11 
REMARK   10  A    between atoms: C_11  and  C_12 
REMARK   11  A    between atoms: C_12  and  O_14 
REMARK   12  A    between atoms: O_14  and  C_15 
REMARK   13  A    between atoms: C_15  and  C_16 
REMARK   14  A    between atoms: C_16  and  O_17 
REMARK   15  A    between atoms: O_17  and  C_18 
REMARK   16  A    between atoms: C_18  and  C_19 
REMARK   17  A    between atoms: C_19  and  C_20 
REMARK   18  A    between atoms: C_19  and  O_33 
REMARK   19  A    between atoms: C_21  and  O_29 
REMARK   20  A    between atoms: C_22  and  O_25 
REMARK   21  A    between atoms: O_25  and  C_26 
REMARK   22  A    between atoms: C_26  and  C_27 
REMARK   23  A    between atoms: C_27  and  O_28 
REMARK   24  A    between atoms: O_29  and  C_30 
REMARK   25  A    between atoms: C_30  and  C_31 
REMARK   26  A    between atoms: C_31  and  O_32 
REMARK   27  A    between atoms: O_33  and  C_34 
REMARK   28  A    between atoms: C_34  and  C_35 
REMARK   29  A    between atoms: C_35  and  O_36 
ROOT
HETATM    1  C   UNL     1     -25.674  -6.655 -16.498  1.00  0.00     0.176 C 
ENDROOT
BRANCH   1   2
HETATM    2  C   UNL     1     -24.862  -6.373 -15.213  1.00  0.00     0.202 C 
BRANCH   2   3
HETATM    3  O   UNL     1     -23.514  -6.039 -15.525  1.00  0.00    -0.386 OA
BRANCH   3   4
HETATM    4  C   UNL     1     -23.011  -5.062 -14.619  1.00  0.00     0.194 C 
BRANCH   4   5
HETATM    5  C   UNL     1     -23.452  -5.424 -13.205  1.00  0.00     0.205 C 
BRANCH   5   6
HETATM    6  O   UNL     1     -22.817  -4.576 -12.229  1.00  0.00    -0.319 OA
BRANCH   6   7
HETATM    7  C   UNL     1     -23.623  -4.253 -11.186  1.00  0.00     0.258 C 
HETATM    8  O   UNL     1     -24.685  -3.637 -11.268  1.00  0.00    -0.265 OA
BRANCH   7   9
HETATM    9  C   UNL     1     -23.063  -4.762  -9.886  1.00  0.00     0.111 C 
BRANCH   9  10
HETATM   10  C   UNL     1     -21.744  -4.073  -9.558  1.00  0.00     0.010 C 
BRANCH  10  11
HETATM   11  C   UNL     1     -21.401  -4.181  -8.073  1.00  0.00     0.000 C 
BRANCH  11  12
HETATM   12  C   UNL     1     -19.975  -4.680  -7.885  1.00  0.00     0.000 C 
BRANCH  12  13
HETATM   13  C   UNL     1     -19.928  -5.743  -6.797  1.00  0.00     0.000 C 
BRANCH  13  14
HETATM   14  C   UNL     1     -21.324  -6.002  -6.257  1.00  0.00     0.000 C 
BRANCH  14  15
HETATM   15  C   UNL     1     -21.315  -5.964  -4.737  1.00  0.00     0.000 C 
BRANCH  15  16
HETATM   16  C   UNL     1     -21.126  -7.367  -4.179  1.00  0.00     0.000 C 
BRANCH  16  17
HETATM   17  C   UNL     1     -20.917  -7.309  -2.673  1.00  0.00    -0.000 C 
BRANCH  17  18
HETATM   18  C   UNL     1     -21.966  -6.420  -2.020  1.00  0.00    -0.005 C 
HETATM   19  C   UNL     1     -22.457  -7.040  -0.726  1.00  0.00     0.005 C 
ENDBRANCH  17  18
ENDBRANCH  16  17
ENDBRANCH  15  16
ENDBRANCH  14  15
ENDBRANCH  13  14
ENDBRANCH  12  13
ENDBRANCH  11  12
ENDBRANCH  10  11
ENDBRANCH   9  10
ENDBRANCH   7   9
ENDBRANCH   6   7
ENDBRANCH   5   6
ENDBRANCH   4   5
ENDBRANCH   3   4
ENDBRANCH   2   3
ENDBRANCH   1   2
BRANCH   1  20
HETATM   20  C   UNL     1     -27.053  -5.943 -16.417  1.00  0.00     0.184 C 
HETATM   21  C   UNL     1     -27.583  -5.407 -17.753  1.00  0.00     0.184 C 
HETATM   22  C   UNL     1     -28.414  -4.197 -17.307  1.00  0.00     0.176 C 
HETATM   23  C   UNL     1     -27.621  -3.704 -16.096  1.00  0.00     0.203 C 
HETATM   24  O   UNL     1     -26.955  -4.824 -15.511  1.00  0.00    -0.378 OA
BRANCH  21  25
HETATM   25  O   UNL     1     -28.285  -6.429 -18.476  1.00  0.00    -0.378 OA
BRANCH  25  26
HETATM   26  C   UNL     1     -29.184  -7.197 -17.664  1.00  0.00     0.194 C 
BRANCH  26  27
HETATM   27  C   UNL     1     -30.258  -7.828 -18.551  1.00  0.00     0.190 C 
BRANCH  27  28
HETATM   28  O   UNL     1     -29.711  -8.899 -19.315  1.00  0.00    -0.399 OA
HETATM   29  H   UNL     1     -29.632  -9.647 -18.691  1.00  0.00     0.209 HD
ENDBRANCH  27  28
ENDBRANCH  26  27
ENDBRANCH  25  26
ENDBRANCH  21  25
BRANCH  22  30
HETATM   30  O   UNL     1     -29.760  -4.558 -16.958  1.00  0.00    -0.379 OA
BRANCH  30  31
HETATM   31  C   UNL     1     -30.723  -3.706 -17.599  1.00  0.00     0.194 C 
BRANCH  31  32
HETATM   32  C   UNL     1     -32.127  -4.113 -17.186  1.00  0.00     0.190 C 
BRANCH  32  33
HETATM   33  O   UNL     1     -33.079  -3.150 -17.625  1.00  0.00    -0.399 OA
HETATM   34  H   UNL     1     -32.980  -3.107 -18.596  1.00  0.00     0.209 HD
ENDBRANCH  32  33
ENDBRANCH  31  32
ENDBRANCH  30  31
ENDBRANCH  22  30
ENDBRANCH   1  20
BRANCH   1  35
HETATM   35  O   UNL     1     -24.933  -6.232 -17.674  1.00  0.00    -0.379 OA
BRANCH  35  36
HETATM   36  C   UNL     1     -24.586  -7.339 -18.527  1.00  0.00     0.194 C 
BRANCH  36  37
HETATM   37  C   UNL     1     -24.933  -7.034 -19.978  1.00  0.00     0.190 C 
BRANCH  37  38
HETATM   38  O   UNL     1     -26.218  -7.555 -20.302  1.00  0.00    -0.399 OA
HETATM   39  H   UNL     1     -26.073  -8.190 -21.029  1.00  0.00     0.209 HD
ENDBRANCH  37  38
ENDBRANCH  36  37
ENDBRANCH  35  36
ENDBRANCH   1  35
TORSDOF 29
BEGIN_RES ARG D 557
REMARK  4 active torsions:
REMARK  status: ('A' for Active; 'I' for Inactive)
REMARK    1  A    between atoms: CA   and  CB  
REMARK    2  A    between atoms: CB   and  CG  
REMARK    3  A    between atoms: CG   and  CD  
REMARK    4  A    between atoms: CD   and  NE  
REMARK       I    between atoms: NE   and  CZ  
REMARK       I    between atoms: CZ   and  NH1 
REMARK       I    between atoms: CZ   and  NH2 
ROOT
ATOM      1  CA  ARG D 557     -26.217   2.705 -17.014  1.00 35.49     0.159 C 
ENDROOT
BRANCH   1   2
ATOM      2  CB  ARG D 557     -26.789   1.319 -17.183  1.00 35.49     0.034 C 
BRANCH   2   3
ATOM      3  CG  ARG D 557     -25.861   0.195 -17.008  1.00 35.49     0.027 C 
BRANCH   3   4
ATOM      4  CD  ARG D 557     -26.106  -0.550 -15.753  1.00 35.49     0.116 C 
BRANCH   4   5
ATOM      5  NE  ARG D 557     -24.899  -0.748 -14.994  1.00 35.49    -0.212 N 
ATOM      6  CZ  ARG D 557     -24.678  -1.724 -14.143  1.00 35.49     0.666 C 
ATOM      7  NH1 ARG D 557     -25.580  -2.651 -13.877  1.00 35.49    -0.235 N 
ATOM      8  NH2 ARG D 557     -23.515  -1.760 -13.560  1.00 35.49    -0.235 N 
ATOM      9  HH  ARG D 557     -26.351  -2.648 -14.251  1.00 35.49     0.174 HD
ATOM     10  HH  ARG D 557     -25.379  -3.266 -13.315  1.00 35.49     0.174 HD
ATOM     11  HH  ARG D 557     -22.950  -1.153 -13.757  1.00 35.49     0.174 HD
ATOM     12  HH  ARG D 557     -23.335  -2.378 -13.007  1.00 35.49     0.174 HD
ATOM     13  HE  ARG D 557     -24.291  -0.155 -15.050  1.00 35.49     0.178 HD
ENDBRANCH   4   5
ENDBRANCH   3   4
ENDBRANCH   2   3
ENDBRANCH   1   2
END_RES ARG D 557
BEGIN_RES GLU D 570
REMARK  3 active torsions:
REMARK  status: ('A' for Active; 'I' for Inactive)
REMARK    5  A    between atoms: CA   and  CB  
REMARK    6  A    between atoms: CB   and  CG  
REMARK    7  A    between atoms: CG   and  CD  
ROOT
ATOM     14  CA  GLU D 570     -18.033  -6.348 -13.375  1.00 32.92     0.160 C 
ENDROOT
BRANCH  14  15
ATOM     15  CB  GLU D 570     -19.500  -6.345 -13.794  1.00 32.92     0.043 C 
BRANCH  15  16
ATOM     16  CG  GLU D 570     -20.080  -7.629 -14.264  1.00 32.92     0.100 C 
BRANCH  16  17
ATOM     17  CD  GLU D 570     -20.450  -7.608 -15.729  1.00 32.92     0.185 C 
ATOM     18  OE1 GLU D 570     -20.357  -6.538 -16.361  1.00 32.92    -0.647 OA
ATOM     19  OE2 GLU D 570     -20.854  -8.668 -16.246  1.00 32.92    -0.647 OA
ENDBRANCH  16  17
ENDBRANCH  15  16
ENDBRANCH  14  15
END_RES GLU D 570
ENDMDL
MODEL 2
REMARK VINA RESULT:      -7.7      1.448      2.445
REMARK  29 active torsions:
REMARK  status: ('A' for Active; 'I' for Inactive)
REMARK    1  A    between atoms: C_2  and  C_3 
REMARK    2  A    between atoms: C_3  and  C_4 
REMARK    3  A    between atoms: C_4  and  C_5 
REMARK    4  A    between atoms: C_5  and  C_6 
REMARK    5  A    between atoms: C_6  and  C_7 
REMARK    6  A    between atoms: C_7  and  C_8 
REMARK    7  A    between atoms: C_8  and  C_9 
REMARK    8  A    between atoms: C_9  and  C_10 
REMARK    9  A    between atoms: C_10  and  C_11 
REMARK   10  A    between atoms: C_11  and  C_12 
REMARK   11  A    between atoms: C_12  and  O_14 
REMARK   12  A    between atoms: O_14  and  C_15 
REMARK   13  A    between atoms: C_15  and  C_16 
REMARK   14  A    between atoms: C_16  and  O_17 
REMARK   15  A    between atoms: O_17  and  C_18 
REMARK   16  A    between atoms: C_18  and  C_19 
REMARK   17  A    between atoms: C_19  and  C_20 
REMARK   18  A    between atoms: C_19  and  O_33 
REMARK   19  A    between atoms: C_21  and  O_29 
REMARK   20  A    between atoms: C_22  and  O_25 
REMARK   21  A    between atoms: O_25  and  C_26 
REMARK   22  A    between atoms: C_26  and  C_27 
REMARK   23  A    between atoms: C_27  and  O_28 
REMARK   24  A    between atoms: O_29  and  C_30 
REMARK   25  A    between atoms: C_30  and  C_31 
REMARK   26  A    between atoms: C_31  and  O_32 
REMARK   27  A    between atoms: O_33  and  C_34 
REMARK   28  A    between atoms: C_34  and  C_35 
REMARK   29  A    between atoms: C_35  and  O_36 
ROOT
HETATM    1  C   UNL     1     -24.882  -6.372 -15.600  1.00  0.00     0.176 C 
ENDROOT
BRANCH   1   2
HETATM    2  C   UNL     1     -24.674  -5.168 -14.653  1.00  0.00     0.202 C 
BRANCH   2   3
HETATM    3  O   UNL     1     -23.311  -4.758 -14.641  1.00  0.00    -0.386 OA
BRANCH   3   4
HETATM    4  C   UNL     1     -22.817  -4.682 -13.307  1.00  0.00     0.194 C 
BRANCH   4   5
HETATM    5  C   UNL     1     -23.885  -5.201 -12.352  1.00  0.00     0.205 C 
BRANCH   5   6
HETATM    6  O   UNL     1     -23.441  -5.127 -10.984  1.00  0.00    -0.319 OA
BRANCH   6   7
HETATM    7  C   UNL     1     -23.612  -3.903 -10.424  1.00  0.00     0.258 C 
HETATM    8  O   UNL     1     -24.455  -3.074 -10.763  1.00  0.00    -0.265 OA
BRANCH   7   9
HETATM    9  C   UNL     1     -22.637  -3.676  -9.301  1.00  0.00     0.111 C 
BRANCH   9  10
HETATM   10  C   UNL     1     -21.312  -4.373  -9.584  1.00  0.00     0.010 C 
BRANCH  10  11
HETATM   11  C   UNL     1     -20.256  -4.034  -8.535  1.00  0.00     0.000 C 
BRANCH  11  12
HETATM   12  C   UNL     1     -20.906  -3.735  -7.191  1.00  0.00     0.000 C 
BRANCH  12  13
HETATM   13  C   UNL     1     -20.380  -4.689  -6.127  1.00  0.00     0.000 C 
BRANCH  13  14
HETATM   14  C   UNL     1     -20.848  -6.105  -6.416  1.00  0.00     0.000 C 
BRANCH  14  15
HETATM   15  C   UNL     1     -20.559  -7.006  -5.227  1.00  0.00     0.000 C 
BRANCH  15  16
HETATM   16  C   UNL     1     -21.744  -7.013  -4.273  1.00  0.00     0.000 C 
BRANCH  16  17
HETATM   17  C   UNL     1     -21.260  -7.081  -2.833  1.00  0.00    -0.000 C 
BRANCH  17  18
HETATM   18  C   UNL     1     -22.194  -6.303  -1.916  1.00  0.00    -0.005 C 
HETATM   19  C   UNL     1     -22.383  -7.037  -0.603  1.00  0.00     0.005 C 
ENDBRANCH  17  18
ENDBRANCH  16  17
ENDBRANCH  15  16
ENDBRANCH  14  15
ENDBRANCH  13  14
ENDBRANCH  12  13
ENDBRANCH  11  12
ENDBRANCH  10  11
ENDBRANCH   9  10
ENDBRANCH   7   9
ENDBRANCH   6   7
ENDBRANCH   5   6
ENDBRANCH   4   5
ENDBRANCH   3   4
ENDBRANCH   2   3
ENDBRANCH   1   2
BRANCH   1  20
HETATM   20  C   UNL     1     -26.354  -6.401 -16.098  1.00  0.00     0.184 C 
HETATM   21  C   UNL     1     -27.201  -5.192 -15.682  1.00  0.00     0.184 C 
HETATM   22  C   UNL     1     -28.607  -5.799 -15.595  1.00  0.00     0.176 C 
HETATM   23  C   UNL     1     -28.303  -7.220 -15.116  1.00  0.00     0.203 C 
HETATM   24  O   UNL     1     -27.004  -7.581 -15.584  1.00  0.00    -0.378 OA
BRANCH  21  25
HETATM   25  O   UNL     1     -27.034  -4.105 -16.604  1.00  0.00    -0.378 OA
BRANCH  25  26
HETATM   26  C   UNL     1     -27.416  -2.830 -16.070  1.00  0.00     0.194 C 
BRANCH  26  27
HETATM   27  C   UNL     1     -28.449  -2.180 -16.993  1.00  0.00     0.190 C 
BRANCH  27  28
HETATM   28  O   UNL     1     -29.154  -3.173 -17.733  1.00  0.00    -0.399 OA
HETATM   29  H   UNL     1     -28.894  -4.026 -17.333  1.00  0.00     0.209 HD
ENDBRANCH  27  28
ENDBRANCH  26  27
ENDBRANCH  25  26
ENDBRANCH  21  25
BRANCH  22  30
HETATM   30  O   UNL     1     -29.284  -5.793 -16.863  1.00  0.00    -0.379 OA
BRANCH  30  31
HETATM   31  C   UNL     1     -30.109  -6.957 -17.031  1.00  0.00     0.194 C 
BRANCH  31  32
HETATM   32  C   UNL     1     -29.781  -7.636 -18.350  1.00  0.00     0.190 C 
BRANCH  32  33
HETATM   33  O   UNL     1     -28.482  -7.263 -18.797  1.00  0.00    -0.399 OA
HETATM   34  H   UNL     1     -28.450  -7.505 -19.743  1.00  0.00     0.209 HD
ENDBRANCH  32  33
ENDBRANCH  31  32
ENDBRANCH  30  31
ENDBRANCH  22  30
ENDBRANCH   1  20
BRANCH   1  35
HETATM   35  O   UNL     1     -23.951  -6.313 -16.714  1.00  0.00    -0.379 OA
BRANCH  35  36
HETATM   36  C   UNL     1     -24.093  -7.437 -17.602  1.00  0.00     0.194 C 
BRANCH  36  37
HETATM   37  C   UNL     1     -24.140  -6.979 -19.054  1.00  0.00     0.190 C 
BRANCH  37  38
HETATM   38  O   UNL     1     -23.860  -8.068 -19.928  1.00  0.00    -0.399 OA
HETATM   39  H   UNL     1     -23.004  -7.859 -20.348  1.00  0.00     0.209 HD
ENDBRANCH  37  38
ENDBRANCH  36  37
ENDBRANCH  35  36
ENDBRANCH   1  35
TORSDOF 29
BEGIN_RES ARG D 557
REMARK  4 active torsions:
REMARK  status: ('A' for Active; 'I' for Inactive)
REMARK    1  A    between atoms: CA   and  CB  
REMARK    2  A    between atoms: CB   and  CG  
REMARK    3  A    between atoms: CG   and  CD  
REMARK    4  A    between atoms: CD   and  NE  
REMARK       I    between atoms: NE   and  CZ  
REMARK       I    between atoms: CZ   and  NH1 
REMARK       I    between atoms: CZ   and  NH2 
ROOT
ATOM      1  CA  ARG D 557     -26.217   2.705 -17.014  1.00 35.49     0.159 C 
ENDROOT
BRANCH   1   2
ATOM      2  CB  ARG D 557     -26.789   1.319 -17.183  1.00 35.49     0.034 C 
BRANCH   2   3
ATOM      3  CG  ARG D 557     -25.832   0.206 -17.188  1.00 35.49     0.027 C 
BRANCH   3   4
ATOM      4  CD  ARG D 557     -24.678   0.449 -16.294  1.00 35.49     0.116 C 
BRANCH   4   5
ATOM      5  NE  ARG D 557     -24.777  -0.293 -15.065  1.00 35.49    -0.212 N 
ATOM      6  CZ  ARG D 557     -23.991  -1.280 -14.698  1.00 35.49     0.666 C 
ATOM      7  NH1 ARG D 557     -23.001  -1.717 -15.454  1.00 35.49    -0.235 N 
ATOM      8  NH2 ARG D 557     -24.214  -1.825 -13.538  1.00 35.49    -0.235 N 
ATOM      9  HH  ARG D 557     -22.835  -1.371 -16.221  1.00 35.49     0.174 HD
ATOM     10  HH  ARG D 557     -22.520  -2.363 -15.162  1.00 35.49     0.174 HD
ATOM     11  HH  ARG D 557     -24.856  -1.517 -13.067  1.00 35.49     0.174 HD
ATOM     12  HH  ARG D 557     -23.726  -2.462 -13.265  1.00 35.49     0.174 HD
ATOM     13  HE  ARG D 557     -25.433  -0.125 -14.550  1.00 35.49     0.178 HD
ENDBRANCH   4   5
ENDBRANCH   3   4
ENDBRANCH   2   3
ENDBRANCH   1   2
END_RES ARG D 557
BEGIN_RES GLU D 570
REMARK  3 active torsions:
REMARK  status: ('A' for Active; 'I' for Inactive)
REMARK    5  A    between atoms: CA   and  CB  
REMARK    6  A    between atoms: CB   and  CG  
REMARK    7  A    between atoms: CG   and  CD  
ROOT
ATOM     14  CA  GLU D 570     -18.033  -6.348 -13.375  1.00 32.92     0.160 C 
ENDROOT
BRANCH  14  15
ATOM     15  CB  GLU D 570     -19.500  -6.345 -13.794  1.00 32.92     0.043 C 
BRANCH  15  16
ATOM     16  CG  GLU D 570     -19.837  -5.725 -15.101  1.00 32.92     0.100 C 
BRANCH  16  17
ATOM     17  CD  GLU D 570     -20.531  -6.680 -16.045  1.00 32.92     0.185 C 
ATOM     18  OE1 GLU D 570     -20.759  -7.845 -15.668  1.00 32.92    -0.647 OA
ATOM     19  OE2 GLU D 570     -20.835  -6.262 -17.180  1.00 32.92    -0.647 OA
ENDBRANCH  16  17
ENDBRANCH  15  16
ENDBRANCH  14  15
END_RES GLU D 570
ENDMDL
MODEL 3
REMARK VINA RESULT:      -7.6      3.170      6.345
REMARK  29 active torsions:
REMARK  status: ('A' for Active; 'I' for Inactive)
REMARK    1  A    between atoms: C_2  and  C_3 
REMARK    2  A    between atoms: C_3  and  C_4 
REMARK    3  A    between atoms: C_4  and  C_5 
REMARK    4  A    between atoms: C_5  and  C_6 
REMARK    5  A    between atoms: C_6  and  C_7 
REMARK    6  A    between atoms: C_7  and  C_8 
REMARK    7  A    between atoms: C_8  and  C_9 
REMARK    8  A    between atoms: C_9  and  C_10 
REMARK    9  A    between atoms: C_10  and  C_11 
REMARK   10  A    between atoms: C_11  and  C_12 
REMARK   11  A    between atoms: C_12  and  O_14 
REMARK   12  A    between atoms: O_14  and  C_15 
REMARK   13  A    between atoms: C_15  and  C_16 
REMARK   14  A    between atoms: C_16  and  O_17 
REMARK   15  A    between atoms: O_17  and  C_18 
REMARK   16  A    between atoms: C_18  and  C_19 
REMARK   17  A    between atoms: C_19  and  C_20 
REMARK   18  A    between atoms: C_19  and  O_33 
REMARK   19  A    between atoms: C_21  and  O_29 
REMARK   20  A    between atoms: C_22  and  O_25 
REMARK   21  A    between atoms: O_25  and  C_26 
REMARK   22  A    between atoms: C_26  and  C_27 
REMARK   23  A    between atoms: C_27  and  O_28 
REMARK   24  A    between atoms: O_29  and  C_30 
REMARK   25  A    between atoms: C_30  and  C_31 
REMARK   26  A    between atoms: C_31  and  O_32 
REMARK   27  A    between atoms: O_33  and  C_34 
REMARK   28  A    between atoms: C_34  and  C_35 
REMARK   29  A    between atoms: C_35  and  O_36 
ROOT
HETATM    1  C   UNL     1     -21.992  -3.523 -12.108  1.00  0.00     0.176 C 
ENDROOT
BRANCH   1   2
HETATM    2  C   UNL     1     -21.163  -4.318 -11.074  1.00  0.00     0.202 C 
BRANCH   2   3
HETATM    3  O   UNL     1     -20.449  -3.440 -10.210  1.00  0.00    -0.386 OA
BRANCH   3   4
HETATM    4  C   UNL     1     -19.884  -4.154  -9.115  1.00  0.00     0.194 C 
BRANCH   4   5
HETATM    5  C   UNL     1     -20.980  -4.963  -8.432  1.00  0.00     0.205 C 
BRANCH   5   6
HETATM    6  O   UNL     1     -21.400  -4.339  -7.204  1.00  0.00    -0.319 OA
BRANCH   6   7
HETATM    7  C   UNL     1     -21.725  -5.225  -6.229  1.00  0.00     0.258 C 
HETATM    8  O   UNL     1     -22.868  -5.516  -5.881  1.00  0.00    -0.265 OA
BRANCH   7   9
HETATM    9  C   UNL     1     -20.495  -5.838  -5.617  1.00  0.00     0.111 C 
BRANCH   9  10
HETATM   10  C   UNL     1     -20.659  -7.346  -5.469  1.00  0.00     0.010 C 
BRANCH  10  11
HETATM   11  C   UNL     1     -20.449  -7.800  -4.026  1.00  0.00     0.000 C 
BRANCH  11  12
HETATM   12  C   UNL     1     -21.758  -7.754  -3.250  1.00  0.00     0.000 C 
BRANCH  12  13
HETATM   13  C   UNL     1     -21.912  -6.408  -2.555  1.00  0.00     0.000 C 
BRANCH  13  14
HETATM   14  C   UNL     1     -22.342  -6.611  -1.112  1.00  0.00     0.000 C 
BRANCH  14  15
HETATM   15  C   UNL     1     -21.603  -7.793  -0.505  1.00  0.00     0.000 C 
BRANCH  15  16
HETATM   16  C   UNL     1     -22.442  -8.429   0.593  1.00  0.00     0.000 C 
BRANCH  16  17
HETATM   17  C   UNL     1     -23.332  -9.517   0.011  1.00  0.00    -0.000 C 
BRANCH  17  18
HETATM   18  C   UNL     1     -22.496 -10.561  -0.716  1.00  0.00    -0.005 C 
HETATM   19  C   UNL     1     -23.222 -11.056  -1.953  1.00  0.00     0.005 C 
ENDBRANCH  17  18
ENDBRANCH  16  17
ENDBRANCH  15  16
ENDBRANCH  14  15
ENDBRANCH  13  14
ENDBRANCH  12  13
ENDBRANCH  11  12
ENDBRANCH  10  11
ENDBRANCH   9  10
ENDBRANCH   7   9
ENDBRANCH   6   7
ENDBRANCH   5   6
ENDBRANCH   4   5
ENDBRANCH   3   4
ENDBRANCH   2   3
ENDBRANCH   1   2
BRANCH   1  20
HETATM   20  C   UNL     1     -22.355  -4.441 -13.308  1.00  0.00     0.184 C 
HETATM   21  C   UNL     1     -23.374  -3.847 -14.290  1.00  0.00     0.184 C 
HETATM   22  C   UNL     1     -24.080  -5.103 -14.819  1.00  0.00     0.176 C 
HETATM   23  C   UNL     1     -24.052  -6.016 -13.592  1.00  0.00     0.203 C 
HETATM   24  O   UNL     1     -22.907  -5.677 -12.809  1.00  0.00    -0.378 OA
BRANCH  21  25
HETATM   25  O   UNL     1     -22.726  -3.022 -15.269  1.00  0.00    -0.378 OA
BRANCH  25  26
HETATM   26  C   UNL     1     -23.081  -1.636 -15.183  1.00  0.00     0.194 C 
BRANCH  26  27
HETATM   27  C   UNL     1     -24.473  -1.504 -14.563  1.00  0.00     0.190 C 
BRANCH  27  28
HETATM   28  O   UNL     1     -25.023  -0.217 -14.833  1.00  0.00    -0.399 OA
HETATM   29  H   UNL     1     -25.118   0.211 -13.960  1.00  0.00     0.209 HD
ENDBRANCH  27  28
ENDBRANCH  26  27
ENDBRANCH  25  26
ENDBRANCH  21  25
BRANCH  22  30
HETATM   30  O   UNL     1     -23.393  -5.685 -15.939  1.00  0.00    -0.379 OA
BRANCH  30  31
HETATM   31  C   UNL     1     -23.899  -6.992 -16.253  1.00  0.00     0.194 C 
BRANCH  31  32
HETATM   32  C   UNL     1     -23.958  -7.173 -17.760  1.00  0.00     0.190 C 
BRANCH  32  33
HETATM   33  O   UNL     1     -22.647  -7.214 -18.313  1.00  0.00    -0.399 OA
HETATM   34  H   UNL     1     -22.358  -6.282 -18.372  1.00  0.00     0.209 HD
ENDBRANCH  32  33
ENDBRANCH  31  32
ENDBRANCH  30  31
ENDBRANCH  22  30
ENDBRANCH   1  20
BRANCH   1  35
HETATM   35  O   UNL     1     -23.184  -2.968 -11.491  1.00  0.00    -0.379 OA
BRANCH  35  36
HETATM   36  C   UNL     1     -23.835  -3.910 -10.618  1.00  0.00     0.194 C 
BRANCH  36  37
HETATM   37  C   UNL     1     -24.494  -3.197  -9.446  1.00  0.00     0.190 C 
BRANCH  37  38
HETATM   38  O   UNL     1     -24.237  -3.895  -8.231  1.00  0.00    -0.399 OA
HETATM   39  H   UNL     1     -24.045  -3.208  -7.565  1.00  0.00     0.209 HD
ENDBRANCH  37  38
ENDBRANCH  36  37
ENDBRANCH  35  36
ENDBRANCH   1  35
TORSDOF 29
BEGIN_RES ARG D 557
REMARK  4 active torsions:
REMARK  status: ('A' for Active; 'I' for Inactive)
REMARK    1  A    between atoms: CA   and  CB  
REMARK    2  A    between atoms: CB   and  CG  
REMARK    3  A    between atoms: CG   and  CD  
REMARK    4  A    between atoms: CD   and  NE  
REMARK       I    between atoms: NE   and  CZ  
REMARK       I    between atoms: CZ   and  NH1 
REMARK       I    between atoms: CZ   and  NH2 
ROOT
ATOM      1  CA  ARG D 557     -26.217   2.705 -17.014  1.00 35.49     0.159 C 
ENDROOT
BRANCH   1   2
ATOM      2  CB  ARG D 557     -26.789   1.319 -17.183  1.00 35.49     0.034 C 
BRANCH   2   3
ATOM      3  CG  ARG D 557     -28.233   1.226 -17.429  1.00 35.49     0.027 C 
BRANCH   3   4
ATOM      4  CD  ARG D 557     -28.894   0.242 -16.542  1.00 35.49     0.116 C 
BRANCH   4   5
ATOM      5  NE  ARG D 557     -28.015  -0.838 -16.179  1.00 35.49    -0.212 N 
ATOM      6  CZ  ARG D 557     -28.114  -2.082 -16.592  1.00 35.49     0.666 C 
ATOM      7  NH1 ARG D 557     -29.075  -2.485 -17.402  1.00 35.49    -0.235 N 
ATOM      8  NH2 ARG D 557     -27.214  -2.925 -16.178  1.00 35.49    -0.235 N 
ATOM      9  HH  ARG D 557     -29.677  -1.947 -17.689  1.00 35.49     0.174 HD
ATOM     10  HH  ARG D 557     -29.088  -3.308 -17.641  1.00 35.49     0.174 HD
ATOM     11  HH  ARG D 557     -26.601  -2.635 -15.661  1.00 35.49     0.174 HD
ATOM     12  HH  ARG D 557     -27.243  -3.736 -16.426  1.00 35.49     0.174 HD
ATOM     13  HE  ARG D 557     -27.409  -0.683 -15.602  1.00 35.49     0.178 HD
ENDBRANCH   4   5
ENDBRANCH   3   4
ENDBRANCH   2   3
ENDBRANCH   1   2
END_RES ARG D 557
BEGIN_RES GLU D 570
REMARK  3 active torsions:
REMARK  status: ('A' for Active; 'I' for Inactive)
REMARK    5  A    between atoms: CA   and  CB  
REMARK    6  A    between atoms: CB   and  CG  
REMARK    7  A    between atoms: CG   and  CD  
ROOT
ATOM     14  CA  GLU D 570     -18.033  -6.348 -13.375  1.00 32.92     0.160 C 
ENDROOT
BRANCH  14  15
ATOM     15  CB  GLU D 570     -19.500  -6.345 -13.794  1.00 32.92     0.043 C 
BRANCH  15  16
ATOM     16  CG  GLU D 570     -20.090  -7.637 -14.231  1.00 32.92     0.100 C 
BRANCH  16  17
ATOM     17  CD  GLU D 570     -20.467  -7.647 -15.694  1.00 32.92     0.185 C 
ATOM     18  OE1 GLU D 570     -20.838  -8.716 -16.216  1.00 32.92    -0.647 OA
ATOM     19  OE2 GLU D 570     -20.376  -6.578 -16.329  1.00 32.92    -0.647 OA
ENDBRANCH  16  17
ENDBRANCH  15  16
ENDBRANCH  14  15
END_RES GLU D 570
ENDMDL
MODEL 4
REMARK VINA RESULT:      -7.6      4.176      9.362
REMARK  29 active torsions:
REMARK  status: ('A' for Active; 'I' for Inactive)
REMARK    1  A    between atoms: C_2  and  C_3 
REMARK    2  A    between atoms: C_3  and  C_4 
REMARK    3  A    between atoms: C_4  and  C_5 
REMARK    4  A    between atoms: C_5  and  C_6 
REMARK    5  A    between atoms: C_6  and  C_7 
REMARK    6  A    between atoms: C_7  and  C_8 
REMARK    7  A    between atoms: C_8  and  C_9 
REMARK    8  A    between atoms: C_9  and  C_10 
REMARK    9  A    between atoms: C_10  and  C_11 
REMARK   10  A    between atoms: C_11  and  C_12 
REMARK   11  A    between atoms: C_12  and  O_14 
REMARK   12  A    between atoms: O_14  and  C_15 
REMARK   13  A    between atoms: C_15  and  C_16 
REMARK   14  A    between atoms: C_16  and  O_17 
REMARK   15  A    between atoms: O_17  and  C_18 
REMARK   16  A    between atoms: C_18  and  C_19 
REMARK   17  A    between atoms: C_19  and  C_20 
REMARK   18  A    between atoms: C_19  and  O_33 
REMARK   19  A    between atoms: C_21  and  O_29 
REMARK   20  A    between atoms: C_22  and  O_25 
REMARK   21  A    between atoms: O_25  and  C_26 
REMARK   22  A    between atoms: C_26  and  C_27 
REMARK   23  A    between atoms: C_27  and  O_28 
REMARK   24  A    between atoms: O_29  and  C_30 
REMARK   25  A    between atoms: C_30  and  C_31 
REMARK   26  A    between atoms: C_31  and  O_32 
REMARK   27  A    between atoms: O_33  and  C_34 
REMARK   28  A    between atoms: C_34  and  C_35 
REMARK   29  A    between atoms: C_35  and  O_36 
ROOT
HETATM    1  C   UNL     1     -28.082  -5.711 -17.417  1.00  0.00     0.176 C 
ENDROOT
BRANCH   1   2
HETATM    2  C   UNL     1     -28.591  -4.254 -17.327  1.00  0.00     0.202 C 
BRANCH   2   3
HETATM    3  O   UNL     1     -29.897  -4.204 -16.762  1.00  0.00    -0.386 OA
BRANCH   3   4
HETATM    4  C   UNL     1     -30.808  -3.560 -17.647  1.00  0.00     0.194 C 
BRANCH   4   5
HETATM    5  C   UNL     1     -32.232  -3.913 -17.234  1.00  0.00     0.205 C 
BRANCH   5   6
HETATM    6  O   UNL     1     -33.129  -2.809 -17.463  1.00  0.00    -0.319 OA
BRANCH   6   7
HETATM    7  C   UNL     1     -34.181  -2.780 -16.606  1.00  0.00     0.258 C 
HETATM    8  O   UNL     1     -34.426  -3.625 -15.747  1.00  0.00    -0.265 OA
BRANCH   7   9
HETATM    9  C   UNL     1     -35.026  -1.554 -16.822  1.00  0.00     0.111 C 
BRANCH   9  10
HETATM   10  C   UNL     1     -35.687  -1.116 -15.520  1.00  0.00     0.010 C 
BRANCH  10  11
HETATM   11  C   UNL     1     -35.323   0.322 -15.155  1.00  0.00     0.000 C 
BRANCH  11  12
HETATM   12  C   UNL     1     -35.065   0.449 -13.660  1.00  0.00     0.000 C 
BRANCH  12  13
HETATM   13  C   UNL     1     -34.884  -0.928 -13.037  1.00  0.00     0.000 C 
BRANCH  13  14
HETATM   14  C   UNL     1     -35.722  -1.045 -11.774  1.00  0.00     0.000 C 
BRANCH  14  15
HETATM   15  C   UNL     1     -35.169  -2.141 -10.878  1.00  0.00     0.000 C 
BRANCH  15  16
HETATM   16  C   UNL     1     -33.650  -2.170 -10.958  1.00  0.00     0.000 C 
BRANCH  16  17
HETATM   17  C   UNL     1     -33.166  -3.581 -11.256  1.00  0.00    -0.000 C 
BRANCH  17  18
HETATM   18  C   UNL     1     -33.990  -4.604 -10.487  1.00  0.00    -0.005 C 
HETATM   19  C   UNL     1     -34.083  -5.904 -11.262  1.00  0.00     0.005 C 
ENDBRANCH  17  18
ENDBRANCH  16  17
ENDBRANCH  15  16
ENDBRANCH  14  15
ENDBRANCH  13  14
ENDBRANCH  12  13
ENDBRANCH  11  12
ENDBRANCH  10  11
ENDBRANCH   9  10
ENDBRANCH   7   9
ENDBRANCH   6   7
ENDBRANCH   5   6
ENDBRANCH   4   5
ENDBRANCH   3   4
ENDBRANCH   2   3
ENDBRANCH   1   2
BRANCH   1  20
HETATM   20  C   UNL     1     -26.561  -5.757 -17.105  1.00  0.00     0.184 C 
HETATM   21  C   UNL     1     -25.775  -6.825 -17.878  1.00  0.00     0.184 C 
HETATM   22  C   UNL     1     -24.642  -7.162 -16.899  1.00  0.00     0.176 C 
HETATM   23  C   UNL     1     -25.338  -6.989 -15.548  1.00  0.00     0.203 C 
HETATM   24  O   UNL     1     -26.373  -6.018 -15.699  1.00  0.00    -0.378 OA
BRANCH  21  25
HETATM   25  O   UNL     1     -25.377  -6.337 -19.168  1.00  0.00    -0.378 OA
BRANCH  25  26
HETATM   26  C   UNL     1     -26.109  -6.916 -20.256  1.00  0.00     0.194 C 
BRANCH  26  27
HETATM   27  C   UNL     1     -25.192  -7.853 -21.045  1.00  0.00     0.190 C 
BRANCH  27  28
HETATM   28  O   UNL     1     -23.973  -8.071 -20.341  1.00  0.00    -0.399 OA
HETATM   29  H   UNL     1     -23.316  -8.300 -21.027  1.00  0.00     0.209 HD
ENDBRANCH  27  28
ENDBRANCH  26  27
ENDBRANCH  25  26
ENDBRANCH  21  25
BRANCH  22  30
HETATM   30  O   UNL     1     -23.517  -6.280 -17.042  1.00  0.00    -0.379 OA
BRANCH  30  31
HETATM   31  C   UNL     1     -22.355  -6.974 -17.523  1.00  0.00     0.194 C 
BRANCH  31  32
HETATM   32  C   UNL     1     -21.124  -6.101 -17.350  1.00  0.00     0.190 C 
BRANCH  32  33
HETATM   33  O   UNL     1     -21.469  -4.864 -16.734  1.00  0.00    -0.399 OA
HETATM   34  H   UNL     1     -22.422  -4.742 -16.906  1.00  0.00     0.209 HD
ENDBRANCH  32  33
ENDBRANCH  31  32
ENDBRANCH  30  31
ENDBRANCH  22  30
ENDBRANCH   1  20
BRANCH   1  35
HETATM   35  O   UNL     1     -28.830  -6.570 -16.515  1.00  0.00    -0.379 OA
BRANCH  35  36
HETATM   36  C   UNL     1     -29.311  -7.759 -17.169  1.00  0.00     0.194 C 
BRANCH  36  37
HETATM   37  C   UNL     1     -30.247  -7.405 -18.317  1.00  0.00     0.190 C 
BRANCH  37  38
HETATM   38  O   UNL     1     -30.466  -8.541 -19.148  1.00  0.00    -0.399 OA
HETATM   39  H   UNL     1     -29.587  -8.939 -19.292  1.00  0.00     0.209 HD
ENDBRANCH  37  38
ENDBRANCH  36  37
ENDBRANCH  35  36
ENDBRANCH   1  35
TORSDOF 29
BEGIN_RES ARG D 557
REMARK  4 active torsions:
REMARK  status: ('A' for Active; 'I' for Inactive)
REMARK    1  A    between atoms: CA   and  CB  
REMARK    2  A    between atoms: CB   and  CG  
REMARK    3  A    between atoms: CG   and  CD  
REMARK    4  A    between atoms: CD   and  NE  
REMARK       I    between atoms: NE   and  CZ  
REMARK       I    between atoms: CZ   and  NH1 
REMARK       I    between atoms: CZ   and  NH2 
ROOT
ATOM      1  CA  ARG D 557     -26.217   2.705 -17.014  1.00 35.49     0.159 C 
ENDROOT
BRANCH   1   2
ATOM      2  CB  ARG D 557     -26.789   1.319 -17.183  1.00 35.49     0.034 C 
BRANCH   2   3
ATOM      3  CG  ARG D 557     -25.865   0.195 -16.990  1.00 35.49     0.027 C 
BRANCH   3   4
ATOM      4  CD  ARG D 557     -26.322  -0.736 -15.932  1.00 35.49     0.116 C 
BRANCH   4   5
ATOM      5  NE  ARG D 557     -25.343  -0.896 -14.890  1.00 35.49    -0.212 N 
ATOM      6  CZ  ARG D 557     -24.963  -2.037 -14.361  1.00 35.49     0.666 C 
ATOM      7  NH1 ARG D 557     -25.472  -3.197 -14.737  1.00 35.49    -0.235 N 
ATOM      8  NH2 ARG D 557     -24.046  -1.996 -13.439  1.00 35.49    -0.235 N 
ATOM      9  HH  ARG D 557     -26.075  -3.247 -15.343  1.00 35.49     0.174 HD
ATOM     10  HH  ARG D 557     -25.184  -3.909 -14.358  1.00 35.49     0.174 HD
ATOM     11  HH  ARG D 557     -23.731  -1.234 -13.222  1.00 35.49     0.174 HD
ATOM     12  HH  ARG D 557     -23.773  -2.713 -13.077  1.00 35.49     0.174 HD
ATOM     13  HE  ARG D 557     -25.016  -0.194 -14.538  1.00 35.49     0.178 HD
ENDBRANCH   4   5
ENDBRANCH   3   4
ENDBRANCH   2   3
ENDBRANCH   1   2
END_RES ARG D 557
BEGIN_RES GLU D 570
REMARK  3 active torsions:
REMARK  status: ('A' for Active; 'I' for Inactive)
REMARK    5  A    between atoms: CA   and  CB  
REMARK    6  A    between atoms: CB   and  CG  
REMARK    7  A    between atoms: CG   and  CD  
ROOT
ATOM     14  CA  GLU D 570     -18.033  -6.348 -13.375  1.00 32.92     0.160 C 
ENDROOT
BRANCH  14  15
ATOM     15  CB  GLU D 570     -19.500  -6.345 -13.794  1.00 32.92     0.043 C 
BRANCH  15  16
ATOM     16  CG  GLU D 570     -20.438  -5.513 -12.997  1.00 32.92     0.100 C 
BRANCH  16  17
ATOM     17  CD  GLU D 570     -21.762  -5.289 -13.690  1.00 32.92     0.185 C 
ATOM     18  OE1 GLU D 570     -22.414  -6.276 -14.082  1.00 32.92    -0.647 OA
ATOM     19  OE2 GLU D 570     -22.144  -4.114 -13.857  1.00 32.92    -0.647 OA
ENDBRANCH  16  17
ENDBRANCH  15  16
ENDBRANCH  14  15
END_RES GLU D 570
ENDMDL
MODEL 5
REMARK VINA RESULT:      -7.3      4.190      9.390
REMARK  29 active torsions:
REMARK  status: ('A' for Active; 'I' for Inactive)
REMARK    1  A    between atoms: C_2  and  C_3 
REMARK    2  A    between atoms: C_3  and  C_4 
REMARK    3  A    between atoms: C_4  and  C_5 
REMARK    4  A    between atoms: C_5  and  C_6 
REMARK    5  A    between atoms: C_6  and  C_7 
REMARK    6  A    between atoms: C_7  and  C_8 
REMARK    7  A    between atoms: C_8  and  C_9 
REMARK    8  A    between atoms: C_9  and  C_10 
REMARK    9  A    between atoms: C_10  and  C_11 
REMARK   10  A    between atoms: C_11  and  C_12 
REMARK   11  A    between atoms: C_12  and  O_14 
REMARK   12  A    between atoms: O_14  and  C_15 
REMARK   13  A    between atoms: C_15  and  C_16 
REMARK   14  A    between atoms: C_16  and  O_17 
REMARK   15  A    between atoms: O_17  and  C_18 
REMARK   16  A    between atoms: C_18  and  C_19 
REMARK   17  A    between atoms: C_19  and  C_20 
REMARK   18  A    between atoms: C_19  and  O_33 
REMARK   19  A    between atoms: C_21  and  O_29 
REMARK   20  A    between atoms: C_22  and  O_25 
REMARK   21  A    between atoms: O_25  and  C_26 
REMARK   22  A    between atoms: C_26  and  C_27 
REMARK   23  A    between atoms: C_27  and  O_28 
REMARK   24  A    between atoms: O_29  and  C_30 
REMARK   25  A    between atoms: C_30  and  C_31 
REMARK   26  A    between atoms: C_31  and  O_32 
REMARK   27  A    between atoms: O_33  and  C_34 
REMARK   28  A    between atoms: C_34  and  C_35 
REMARK   29  A    between atoms: C_35  and  O_36 
ROOT
HETATM    1  C   UNL     1     -30.254  -5.071 -17.479  1.00  0.00     0.176 C 
ENDROOT
BRANCH   1   2
HETATM    2  C   UNL     1     -30.735  -3.603 -17.427  1.00  0.00     0.202 C 
BRANCH   2   3
HETATM    3  O   UNL     1     -32.054  -3.480 -17.948  1.00  0.00    -0.386 OA
BRANCH   3   4
HETATM    4  C   UNL     1     -33.018  -3.508 -16.900  1.00  0.00     0.194 C 
BRANCH   4   5
HETATM    5  C   UNL     1     -34.176  -2.587 -17.266  1.00  0.00     0.205 C 
BRANCH   5   6
HETATM    6  O   UNL     1     -34.801  -2.042 -16.089  1.00  0.00    -0.319 OA
BRANCH   6   7
HETATM    7  C   UNL     1     -35.762  -1.124 -16.362  1.00  0.00     0.258 C 
HETATM    8  O   UNL     1     -36.346  -0.998 -17.437  1.00  0.00    -0.265 OA
BRANCH   7   9
HETATM    9  C   UNL     1     -36.052  -0.265 -15.161  1.00  0.00     0.111 C 
BRANCH   9  10
HETATM   10  C   UNL     1     -34.813   0.519 -14.744  1.00  0.00     0.010 C 
BRANCH  10  11
HETATM   11  C   UNL     1     -34.706   0.647 -13.226  1.00  0.00     0.000 C 
BRANCH  11  12
HETATM   12  C   UNL     1     -35.720  -0.255 -12.536  1.00  0.00     0.000 C 
BRANCH  12  13
HETATM   13  C   UNL     1     -35.015  -1.198 -11.571  1.00  0.00     0.000 C 
BRANCH  13  14
HETATM   14  C   UNL     1     -34.483  -2.409 -12.317  1.00  0.00     0.000 C 
BRANCH  14  15
HETATM   15  C   UNL     1     -33.341  -3.046 -11.541  1.00  0.00     0.000 C 
BRANCH  15  16
HETATM   16  C   UNL     1     -33.890  -3.966 -10.461  1.00  0.00     0.000 C 
BRANCH  16  17
HETATM   17  C   UNL     1     -34.697  -5.092 -11.090  1.00  0.00    -0.000 C 
BRANCH  17  18
HETATM   18  C   UNL     1     -34.060  -6.441 -10.789  1.00  0.00    -0.005 C 
HETATM   19  C   UNL     1     -34.854  -7.179  -9.727  1.00  0.00     0.005 C 
ENDBRANCH  17  18
ENDBRANCH  16  17
ENDBRANCH  15  16
ENDBRANCH  14  15
ENDBRANCH  13  14
ENDBRANCH  12  13
ENDBRANCH  11  12
ENDBRANCH  10  11
ENDBRANCH   9  10
ENDBRANCH   7   9
ENDBRANCH   6   7
ENDBRANCH   5   6
ENDBRANCH   4   5
ENDBRANCH   3   4
ENDBRANCH   2   3
ENDBRANCH   1   2
BRANCH   1  20
HETATM   20  C   UNL     1     -28.840  -5.185 -16.847  1.00  0.00     0.184 C 
HETATM   21  C   UNL     1     -27.894  -6.166 -17.553  1.00  0.00     0.184 C 
HETATM   22  C   UNL     1     -27.004  -6.642 -16.397  1.00  0.00     0.176 C 
HETATM   23  C   UNL     1     -27.983  -6.621 -15.222  1.00  0.00     0.203 C 
HETATM   24  O   UNL     1     -28.966  -5.618 -15.477  1.00  0.00    -0.378 OA
BRANCH  21  25
HETATM   25  O   UNL     1     -27.223  -5.534 -18.653  1.00  0.00    -0.378 OA
BRANCH  25  26
HETATM   26  C   UNL     1     -27.198  -6.327 -19.847  1.00  0.00     0.194 C 
BRANCH  26  27
HETATM   27  C   UNL     1     -25.848  -7.040 -19.955  1.00  0.00     0.190 C 
BRANCH  27  28
HETATM   28  O   UNL     1     -24.807  -6.225 -19.425  1.00  0.00    -0.399 OA
HETATM   29  H   UNL     1     -24.069  -6.304 -20.060  1.00  0.00     0.209 HD
ENDBRANCH  27  28
ENDBRANCH  26  27
ENDBRANCH  25  26
ENDBRANCH  21  25
BRANCH  22  30
HETATM   30  O   UNL     1     -25.881  -5.772 -16.178  1.00  0.00    -0.379 OA
BRANCH  30  31
HETATM   31  C   UNL     1     -24.857  -6.411 -15.400  1.00  0.00     0.194 C 
BRANCH  31  32
HETATM   32  C   UNL     1     -24.081  -7.385 -16.271  1.00  0.00     0.190 C 
BRANCH  32  33
HETATM   33  O   UNL     1     -23.102  -6.698 -17.043  1.00  0.00    -0.399 OA
HETATM   34  H   UNL     1     -22.615  -7.393 -17.527  1.00  0.00     0.209 HD
ENDBRANCH  32  33
ENDBRANCH  31  32
ENDBRANCH  30  31
ENDBRANCH  22  30
ENDBRANCH   1  20
BRANCH   1  35
HETATM   35  O   UNL     1     -31.202  -5.944 -16.807  1.00  0.00    -0.379 OA
BRANCH  35  36
HETATM   36  C   UNL     1     -31.539  -7.097 -17.602  1.00  0.00     0.194 C 
BRANCH  36  37
HETATM   37  C   UNL     1     -30.554  -7.271 -18.750  1.00  0.00     0.190 C 
BRANCH  37  38
HETATM   38  O   UNL     1     -30.198  -8.643 -18.895  1.00  0.00    -0.399 OA
HETATM   39  H   UNL     1     -30.779  -8.996 -19.594  1.00  0.00     0.209 HD
ENDBRANCH  37  38
ENDBRANCH  36  37
ENDBRANCH  35  36
ENDBRANCH   1  35
TORSDOF 29
BEGIN_RES ARG D 557
REMARK  4 active torsions:
REMARK  status: ('A' for Active; 'I' for Inactive)
REMARK    1  A    between atoms: CA   and  CB  
REMARK    2  A    between atoms: CB   and  CG  
REMARK    3  A    between atoms: CG   and  CD  
REMARK    4  A    between atoms: CD   and  NE  
REMARK       I    between atoms: NE   and  CZ  
REMARK       I    between atoms: CZ   and  NH1 
REMARK       I    between atoms: CZ   and  NH2 
ROOT
ATOM      1  CA  ARG D 557     -26.217   2.705 -17.014  1.00 35.49     0.159 C 
ENDROOT
BRANCH   1   2
ATOM      2  CB  ARG D 557     -26.789   1.319 -17.183  1.00 35.49     0.034 C 
BRANCH   2   3
ATOM      3  CG  ARG D 557     -25.867   0.195 -16.980  1.00 35.49     0.027 C 
BRANCH   3   4
ATOM      4  CD  ARG D 557     -26.312  -0.711 -15.896  1.00 35.49     0.116 C 
BRANCH   4   5
ATOM      5  NE  ARG D 557     -25.266  -0.972 -14.944  1.00 35.49    -0.212 N 
ATOM      6  CZ  ARG D 557     -25.075  -2.104 -14.303  1.00 35.49     0.666 C 
ATOM      7  NH1 ARG D 557     -25.862  -3.152 -14.464  1.00 35.49    -0.235 N 
ATOM      8  NH2 ARG D 557     -24.061  -2.170 -13.491  1.00 35.49    -0.235 N 
ATOM      9  HH  ARG D 557     -26.534  -3.131 -14.996  1.00 35.49     0.174 HD
ATOM     10  HH  ARG D 557     -25.687  -3.864 -14.022  1.00 35.49     0.174 HD
ATOM     11  HH  ARG D 557     -23.565  -1.481 -13.412  1.00 35.49     0.174 HD
ATOM     12  HH  ARG D 557     -23.903  -2.885 -13.063  1.00 35.49     0.174 HD
ATOM     13  HE  ARG D 557     -24.755  -0.329 -14.725  1.00 35.49     0.178 HD
ENDBRANCH   4   5
ENDBRANCH   3   4
ENDBRANCH   2   3
ENDBRANCH   1   2
END_RES ARG D 557
BEGIN_RES GLU D 570
REMARK  3 active torsions:
REMARK  status: ('A' for Active; 'I' for Inactive)
REMARK    5  A    between atoms: CA   and  CB  
REMARK    6  A    between atoms: CB   and  CG  
REMARK    7  A    between atoms: CG   and  CD  
ROOT
ATOM     14  CA  GLU D 570     -18.033  -6.348 -13.375  1.00 32.92     0.160 C 
ENDROOT
BRANCH  14  15
ATOM     15  CB  GLU D 570     -19.500  -6.345 -13.794  1.00 32.92     0.043 C 
BRANCH  15  16
ATOM     16  CG  GLU D 570     -20.447  -5.556 -12.965  1.00 32.92     0.100 C 
BRANCH  16  17
ATOM     17  CD  GLU D 570     -21.678  -5.122 -13.726  1.00 32.92     0.185 C 
ATOM     18  OE1 GLU D 570     -21.629  -5.062 -14.970  1.00 32.92    -0.647 OA
ATOM     19  OE2 GLU D 570     -22.696  -4.824 -13.072  1.00 32.92    -0.647 OA
ENDBRANCH  16  17
ENDBRANCH  15  16
ENDBRANCH  14  15
END_RES GLU D 570
ENDMDL
MODEL 6
REMARK VINA RESULT:      -7.3      3.461      9.069
REMARK  29 active torsions:
REMARK  status: ('A' for Active; 'I' for Inactive)
REMARK    1  A    between atoms: C_2  and  C_3 
REMARK    2  A    between atoms: C_3  and  C_4 
REMARK    3  A    between atoms: C_4  and  C_5 
REMARK    4  A    between atoms: C_5  and  C_6 
REMARK    5  A    between atoms: C_6  and  C_7 
REMARK    6  A    between atoms: C_7  and  C_8 
REMARK    7  A    between atoms: C_8  and  C_9 
REMARK    8  A    between atoms: C_9  and  C_10 
REMARK    9  A    between atoms: C_10  and  C_11 
REMARK   10  A    between atoms: C_11  and  C_12 
REMARK   11  A    between atoms: C_12  and  O_14 
REMARK   12  A    between atoms: O_14  and  C_15 
REMARK   13  A    between atoms: C_15  and  C_16 
REMARK   14  A    between atoms: C_16  and  O_17 
REMARK   15  A    between atoms: O_17  and  C_18 
REMARK   16  A    between atoms: C_18  and  C_19 
REMARK   17  A    between atoms: C_19  and  C_20 
REMARK   18  A    between atoms: C_19  and  O_33 
REMARK   19  A    between atoms: C_21  and  O_29 
REMARK   20  A    between atoms: C_22  and  O_25 
REMARK   21  A    between atoms: O_25  and  C_26 
REMARK   22  A    between atoms: C_26  and  C_27 
REMARK   23  A    between atoms: C_27  and  O_28 
REMARK   24  A    between atoms: O_29  and  C_30 
REMARK   25  A    between atoms: C_30  and  C_31 
REMARK   26  A    between atoms: C_31  and  O_32 
REMARK   27  A    between atoms: O_33  and  C_34 
REMARK   28  A    between atoms: C_34  and  C_35 
REMARK   29  A    between atoms: C_35  and  O_36 
ROOT
HETATM    1  C   UNL     1     -24.598  -5.462 -15.468  1.00  0.00     0.176 C 
ENDROOT
BRANCH   1   2
HETATM    2  C   UNL     1     -26.021  -6.062 -15.414  1.00  0.00     0.202 C 
BRANCH   2   3
HETATM    3  O   UNL     1     -26.868  -5.457 -16.385  1.00  0.00    -0.386 OA
BRANCH   3   4
HETATM    4  C   UNL     1     -27.933  -6.330 -16.744  1.00  0.00     0.194 C 
BRANCH   4   5
HETATM    5  C   UNL     1     -28.268  -6.124 -18.217  1.00  0.00     0.205 C 
BRANCH   5   6
HETATM    6  O   UNL     1     -29.675  -5.876 -18.401  1.00  0.00    -0.319 OA
BRANCH   6   7
HETATM    7  C   UNL     1     -30.456  -6.950 -18.121  1.00  0.00     0.258 C 
HETATM    8  O   UNL     1     -30.228  -8.108 -18.468  1.00  0.00    -0.265 OA
BRANCH   7   9
HETATM    9  C   UNL     1     -31.654  -6.555 -17.302  1.00  0.00     0.111 C 
BRANCH   9  10
HETATM   10  C   UNL     1     -31.452  -5.180 -16.676  1.00  0.00     0.010 C 
BRANCH  10  11
HETATM   11  C   UNL     1     -32.673  -4.284 -16.867  1.00  0.00     0.000 C 
BRANCH  11  12
HETATM   12  C   UNL     1     -33.788  -4.680 -15.909  1.00  0.00     0.000 C 
BRANCH  12  13
HETATM   13  C   UNL     1     -33.847  -3.710 -14.738  1.00  0.00     0.000 C 
BRANCH  13  14
HETATM   14  C   UNL     1     -34.192  -4.454 -13.459  1.00  0.00     0.000 C 
BRANCH  14  15
HETATM   15  C   UNL     1     -33.551  -3.768 -12.263  1.00  0.00     0.000 C 
BRANCH  15  16
HETATM   16  C   UNL     1     -34.295  -4.133 -10.987  1.00  0.00     0.000 C 
BRANCH  16  17
HETATM   17  C   UNL     1     -33.816  -5.480 -10.467  1.00  0.00    -0.000 C 
BRANCH  17  18
HETATM   18  C   UNL     1     -35.000  -6.377 -10.132  1.00  0.00    -0.005 C 
HETATM   19  C   UNL     1     -34.587  -7.836 -10.164  1.00  0.00     0.005 C 
ENDBRANCH  17  18
ENDBRANCH  16  17
ENDBRANCH  15  16
ENDBRANCH  14  15
ENDBRANCH  13  14
ENDBRANCH  12  13
ENDBRANCH  11  12
ENDBRANCH  10  11
ENDBRANCH   9  10
ENDBRANCH   7   9
ENDBRANCH   6   7
ENDBRANCH   5   6
ENDBRANCH   4   5
ENDBRANCH   3   4
ENDBRANCH   2   3
ENDBRANCH   1   2
BRANCH   1  20
HETATM   20  C   UNL     1     -24.270  -4.764 -14.120  1.00  0.00     0.184 C 
HETATM   21  C   UNL     1     -23.245  -3.625 -14.215  1.00  0.00     0.184 C 
HETATM   22  C   UNL     1     -22.577  -3.678 -12.835  1.00  0.00     0.176 C 
HETATM   23  C   UNL     1     -22.617  -5.175 -12.527  1.00  0.00     0.203 C 
HETATM   24  O   UNL     1     -23.745  -5.740 -13.196  1.00  0.00    -0.378 OA
BRANCH  21  25
HETATM   25  O   UNL     1     -23.883  -2.387 -14.566  1.00  0.00    -0.378 OA
BRANCH  25  26
HETATM   26  C   UNL     1     -23.034  -1.485 -15.287  1.00  0.00     0.194 C 
BRANCH  26  27
HETATM   27  C   UNL     1     -23.801  -0.195 -15.587  1.00  0.00     0.190 C 
BRANCH  27  28
HETATM   28  O   UNL     1     -24.982  -0.118 -14.793  1.00  0.00    -0.399 OA
HETATM   29  H   UNL     1     -25.235   0.825 -14.799  1.00  0.00     0.209 HD
ENDBRANCH  27  28
ENDBRANCH  26  27
ENDBRANCH  25  26
ENDBRANCH  21  25
BRANCH  22  30
HETATM   30  O   UNL     1     -23.290  -2.908 -11.853  1.00  0.00    -0.379 OA
BRANCH  30  31
HETATM   31  C   UNL     1     -22.978  -3.331 -10.516  1.00  0.00     0.194 C 
BRANCH  31  32
HETATM   32  C   UNL     1     -24.262  -3.608  -9.751  1.00  0.00     0.190 C 
BRANCH  32  33
HETATM   33  O   UNL     1     -25.397  -3.225 -10.520  1.00  0.00    -0.399 OA
HETATM   34  H   UNL     1     -26.157  -3.273  -9.907  1.00  0.00     0.209 HD
ENDBRANCH  32  33
ENDBRANCH  31  32
ENDBRANCH  30  31
ENDBRANCH  22  30
ENDBRANCH   1  20
BRANCH   1  35
HETATM   35  O   UNL     1     -23.620  -6.490 -15.779  1.00  0.00    -0.379 OA
BRANCH  35  36
HETATM   36  C   UNL     1     -24.165  -7.523 -16.621  1.00  0.00     0.194 C 
BRANCH  36  37
HETATM   37  C   UNL     1     -23.931  -7.204 -18.091  1.00  0.00     0.190 C 
BRANCH  37  38
HETATM   38  O   UNL     1     -22.537  -7.214 -18.387  1.00  0.00    -0.399 OA
HETATM   39  H   UNL     1     -22.172  -7.988 -17.918  1.00  0.00     0.209 HD
ENDBRANCH  37  38
ENDBRANCH  36  37
ENDBRANCH  35  36
ENDBRANCH   1  35
TORSDOF 29
BEGIN_RES ARG D 557
REMARK  4 active torsions:
REMARK  status: ('A' for Active; 'I' for Inactive)
REMARK    1  A    between atoms: CA   and  CB  
REMARK    2  A    between atoms: CB   and  CG  
REMARK    3  A    between atoms: CG   and  CD  
REMARK    4  A    between atoms: CD   and  NE  
REMARK       I    between atoms: NE   and  CZ  
REMARK       I    between atoms: CZ   and  NH1 
REMARK       I    between atoms: CZ   and  NH2 
ROOT
ATOM      1  CA  ARG D 557     -26.217   2.705 -17.014  1.00 35.49     0.159 C 
ENDROOT
BRANCH   1   2
ATOM      2  CB  ARG D 557     -26.789   1.319 -17.183  1.00 35.49     0.034 C 
BRANCH   2   3
ATOM      3  CG  ARG D 557     -28.246   1.219 -17.332  1.00 35.49     0.027 C 
BRANCH   3   4
ATOM      4  CD  ARG D 557     -28.813   0.078 -16.578  1.00 35.49     0.116 C 
BRANCH   4   5
ATOM      5  NE  ARG D 557     -27.792  -0.724 -15.958  1.00 35.49    -0.212 N 
ATOM      6  CZ  ARG D 557     -27.585  -2.004 -16.173  1.00 35.49     0.666 C 
ATOM      7  NH1 ARG D 557     -28.330  -2.715 -16.999  1.00 35.49    -0.235 N 
ATOM      8  NH2 ARG D 557     -26.597  -2.567 -15.539  1.00 35.49    -0.235 N 
ATOM      9  HH  ARG D 557     -28.984  -2.364 -17.428  1.00 35.49     0.174 HD
ATOM     10  HH  ARG D 557     -28.146  -3.545 -17.101  1.00 35.49     0.174 HD
ATOM     11  HH  ARG D 557     -26.128  -2.082 -15.018  1.00 35.49     0.174 HD
ATOM     12  HH  ARG D 557     -26.430  -3.391 -15.655  1.00 35.49     0.174 HD
ATOM     13  HE  ARG D 557     -27.311  -0.364 -15.357  1.00 35.49     0.178 HD
ENDBRANCH   4   5
ENDBRANCH   3   4
ENDBRANCH   2   3
ENDBRANCH   1   2
END_RES ARG D 557
BEGIN_RES GLU D 570
REMARK  3 active torsions:
REMARK  status: ('A' for Active; 'I' for Inactive)
REMARK    5  A    between atoms: CA   and  CB  
REMARK    6  A    between atoms: CB   and  CG  
REMARK    7  A    between atoms: CG   and  CD  
ROOT
ATOM     14  CA  GLU D 570     -18.033  -6.348 -13.375  1.00 32.92     0.160 C 
ENDROOT
BRANCH  14  15
ATOM     15  CB  GLU D 570     -19.500  -6.345 -13.794  1.00 32.92     0.043 C 
BRANCH  15  16
ATOM     16  CG  GLU D 570     -20.088  -7.635 -14.238  1.00 32.92     0.100 C 
BRANCH  16  17
ATOM     17  CD  GLU D 570     -20.493  -7.629 -15.693  1.00 32.92     0.185 C 
ATOM     18  OE1 GLU D 570     -20.850  -8.697 -16.227  1.00 32.92    -0.647 OA
ATOM     19  OE2 GLU D 570     -20.437  -6.547 -16.311  1.00 32.92    -0.647 OA
ENDBRANCH  16  17
ENDBRANCH  15  16
ENDBRANCH  14  15
END_RES GLU D 570
ENDMDL
MODEL 7
REMARK VINA RESULT:      -7.0      3.872      9.662
REMARK  29 active torsions:
REMARK  status: ('A' for Active; 'I' for Inactive)
REMARK    1  A    between atoms: C_2  and  C_3 
REMARK    2  A    between atoms: C_3  and  C_4 
REMARK    3  A    between atoms: C_4  and  C_5 
REMARK    4  A    between atoms: C_5  and  C_6 
REMARK    5  A    between atoms: C_6  and  C_7 
REMARK    6  A    between atoms: C_7  and  C_8 
REMARK    7  A    between atoms: C_8  and  C_9 
REMARK    8  A    between atoms: C_9  and  C_10 
REMARK    9  A    between atoms: C_10  and  C_11 
REMARK   10  A    between atoms: C_11  and  C_12 
REMARK   11  A    between atoms: C_12  and  O_14 
REMARK   12  A    between atoms: O_14  and  C_15 
REMARK   13  A    between atoms: C_15  and  C_16 
REMARK   14  A    between atoms: C_16  and  O_17 
REMARK   15  A    between atoms: O_17  and  C_18 
REMARK   16  A    between atoms: C_18  and  C_19 
REMARK   17  A    between atoms: C_19  and  C_20 
REMARK   18  A    between atoms: C_19  and  O_33 
REMARK   19  A    between atoms: C_21  and  O_29 
REMARK   20  A    between atoms: C_22  and  O_25 
REMARK   21  A    between atoms: O_25  and  C_26 
REMARK   22  A    between atoms: C_26  and  C_27 
REMARK   23  A    between atoms: C_27  and  O_28 
REMARK   24  A    between atoms: O_29  and  C_30 
REMARK   25  A    between atoms: C_30  and  C_31 
REMARK   26  A    between atoms: C_31  and  O_32 
REMARK   27  A    between atoms: O_33  and  C_34 
REMARK   28  A    between atoms: C_34  and  C_35 
REMARK   29  A    between atoms: C_35  and  O_36 
ROOT
HETATM    1  C   UNL     1     -26.377  -5.751 -16.293  1.00  0.00     0.176 C 
ENDROOT
BRANCH   1   2
HETATM    2  C   UNL     1     -27.664  -6.596 -16.159  1.00  0.00     0.202 C 
BRANCH   2   3
HETATM    3  O   UNL     1     -28.802  -5.866 -16.606  1.00  0.00    -0.386 OA
BRANCH   3   4
HETATM    4  C   UNL     1     -29.713  -6.717 -17.294  1.00  0.00     0.194 C 
BRANCH   4   5
HETATM    5  C   UNL     1     -31.104  -6.096 -17.247  1.00  0.00     0.205 C 
BRANCH   5   6
HETATM    6  O   UNL     1     -31.079  -4.810 -16.599  1.00  0.00    -0.319 OA
BRANCH   6   7
HETATM    7  C   UNL     1     -32.048  -3.965 -17.034  1.00  0.00     0.258 C 
HETATM    8  O   UNL     1     -31.864  -2.949 -17.702  1.00  0.00    -0.265 OA
BRANCH   7   9
HETATM    9  C   UNL     1     -33.412  -4.435 -16.607  1.00  0.00     0.111 C 
BRANCH   9  10
HETATM   10  C   UNL     1     -34.091  -3.395 -15.724  1.00  0.00     0.010 C 
BRANCH  10  11
HETATM   11  C   UNL     1     -35.137  -2.591 -16.495  1.00  0.00     0.000 C 
BRANCH  11  12
HETATM   12  C   UNL     1     -34.987  -1.103 -16.215  1.00  0.00     0.000 C 
BRANCH  12  13
HETATM   13  C   UNL     1     -35.853  -0.700 -15.029  1.00  0.00     0.000 C 
BRANCH  13  14
HETATM   14  C   UNL     1     -34.986  -0.131 -13.918  1.00  0.00     0.000 C 
BRANCH  14  15
HETATM   15  C   UNL     1     -35.456  -0.649 -12.568  1.00  0.00     0.000 C 
BRANCH  15  16
HETATM   16  C   UNL     1     -35.001  -2.088 -12.371  1.00  0.00     0.000 C 
BRANCH  16  17
HETATM   17  C   UNL     1     -33.981  -2.167 -11.246  1.00  0.00    -0.000 C 
BRANCH  17  18
HETATM   18  C   UNL     1     -33.032  -3.337 -11.465  1.00  0.00    -0.005 C 
HETATM   19  C   UNL     1     -33.658  -4.629 -10.975  1.00  0.00     0.005 C 
ENDBRANCH  17  18
ENDBRANCH  16  17
ENDBRANCH  15  16
ENDBRANCH  14  15
ENDBRANCH  13  14
ENDBRANCH  12  13
ENDBRANCH  11  12
ENDBRANCH  10  11
ENDBRANCH   9  10
ENDBRANCH   7   9
ENDBRANCH   6   7
ENDBRANCH   5   6
ENDBRANCH   4   5
ENDBRANCH   3   4
ENDBRANCH   2   3
ENDBRANCH   1   2
BRANCH   1  20
HETATM   20  C   UNL     1     -25.636  -5.701 -14.928  1.00  0.00     0.184 C 
HETATM   21  C   UNL     1     -24.789  -4.442 -14.699  1.00  0.00     0.184 C 
HETATM   22  C   UNL     1     -23.671  -4.968 -13.789  1.00  0.00     0.176 C 
HETATM   23  C   UNL     1     -23.502  -6.400 -14.300  1.00  0.00     0.203 C 
HETATM   24  O   UNL     1     -24.755  -6.838 -14.825  1.00  0.00    -0.378 OA
BRANCH  21  25
HETATM   25  O   UNL     1     -25.588  -3.373 -14.171  1.00  0.00    -0.378 OA
BRANCH  25  26
HETATM   26  C   UNL     1     -24.820  -2.268 -13.676  1.00  0.00     0.194 C 
BRANCH  26  27
HETATM   27  C   UNL     1     -24.324  -1.425 -14.852  1.00  0.00     0.190 C 
BRANCH  27  28
HETATM   28  O   UNL     1     -25.028  -0.187 -14.912  1.00  0.00    -0.399 OA
HETATM   29  H   UNL     1     -25.875  -0.349 -14.453  1.00  0.00     0.209 HD
ENDBRANCH  27  28
ENDBRANCH  26  27
ENDBRANCH  25  26
ENDBRANCH  21  25
BRANCH  22  30
HETATM   30  O   UNL     1     -24.036  -4.933 -12.399  1.00  0.00    -0.379 OA
BRANCH  30  31
HETATM   31  C   UNL     1     -23.120  -4.140 -11.628  1.00  0.00     0.194 C 
BRANCH  31  32
HETATM   32  C   UNL     1     -21.706  -4.334 -12.149  1.00  0.00     0.190 C 
BRANCH  32  33
HETATM   33  O   UNL     1     -20.953  -3.133 -12.017  1.00  0.00    -0.399 OA
HETATM   34  H   UNL     1     -20.296  -3.154 -12.739  1.00  0.00     0.209 HD
ENDBRANCH  32  33
ENDBRANCH  31  32
ENDBRANCH  30  31
ENDBRANCH  22  30
ENDBRANCH   1  20
BRANCH   1  35
HETATM   35  O   UNL     1     -25.520  -6.287 -17.337  1.00  0.00    -0.379 OA
BRANCH  35  36
HETATM   36  C   UNL     1     -26.198  -6.382 -18.603  1.00  0.00     0.194 C 
BRANCH  36  37
HETATM   37  C   UNL     1     -25.261  -6.906 -19.682  1.00  0.00     0.190 C 
BRANCH  37  38
HETATM   38  O   UNL     1     -24.217  -7.682 -19.100  1.00  0.00    -0.399 OA
HETATM   39  H   UNL     1     -24.645  -8.488 -18.755  1.00  0.00     0.209 HD
ENDBRANCH  37  38
ENDBRANCH  36  37
ENDBRANCH  35  36
ENDBRANCH   1  35
TORSDOF 29
BEGIN_RES ARG D 557
REMARK  4 active torsions:
REMARK  status: ('A' for Active; 'I' for Inactive)
REMARK    1  A    between atoms: CA   and  CB  
REMARK    2  A    between atoms: CB   and  CG  
REMARK    3  A    between atoms: CG   and  CD  
REMARK    4  A    between atoms: CD   and  NE  
REMARK       I    between atoms: NE   and  CZ  
REMARK       I    between atoms: CZ   and  NH1 
REMARK       I    between atoms: CZ   and  NH2 
ROOT
ATOM      1  CA  ARG D 557     -26.217   2.705 -17.014  1.00 35.49     0.159 C 
ENDROOT
BRANCH   1   2
ATOM      2  CB  ARG D 557     -26.789   1.319 -17.183  1.00 35.49     0.034 C 
BRANCH   2   3
ATOM      3  CG  ARG D 557     -28.232   1.226 -17.436  1.00 35.49     0.027 C 
BRANCH   3   4
ATOM      4  CD  ARG D 557     -28.908   0.288 -16.511  1.00 35.49     0.116 C 
BRANCH   4   5
ATOM      5  NE  ARG D 557     -29.180  -0.982 -17.129  1.00 35.49    -0.212 N 
ATOM      6  CZ  ARG D 557     -28.477  -2.081 -16.969  1.00 35.49     0.666 C 
ATOM      7  NH1 ARG D 557     -27.400  -2.129 -16.206  1.00 35.49    -0.235 N 
ATOM      8  NH2 ARG D 557     -28.882  -3.149 -17.591  1.00 35.49    -0.235 N 
ATOM      9  HH  ARG D 557     -27.117  -1.438 -15.786  1.00 35.49     0.174 HD
ATOM     10  HH  ARG D 557     -26.983  -2.874 -16.137  1.00 35.49     0.174 HD
ATOM     11  HH  ARG D 557     -29.585  -3.091 -18.071  1.00 35.49     0.174 HD
ATOM     12  HH  ARG D 557     -28.457  -3.878 -17.509  1.00 35.49     0.174 HD
ATOM     13  HE  ARG D 557     -29.814  -1.024 -17.694  1.00 35.49     0.178 HD
ENDBRANCH   4   5
ENDBRANCH   3   4
ENDBRANCH   2   3
ENDBRANCH   1   2
END_RES ARG D 557
BEGIN_RES GLU D 570
REMARK  3 active torsions:
REMARK  status: ('A' for Active; 'I' for Inactive)
REMARK    5  A    between atoms: CA   and  CB  
REMARK    6  A    between atoms: CB   and  CG  
REMARK    7  A    between atoms: CG   and  CD  
ROOT
ATOM     14  CA  GLU D 570     -18.033  -6.348 -13.375  1.00 32.92     0.160 C 
ENDROOT
BRANCH  14  15
ATOM     15  CB  GLU D 570     -19.500  -6.345 -13.794  1.00 32.92     0.043 C 
BRANCH  15  16
ATOM     16  CG  GLU D 570     -19.800  -6.151 -15.236  1.00 32.92     0.100 C 
BRANCH  16  17
ATOM     17  CD  GLU D 570     -20.585  -7.295 -15.834  1.00 32.92     0.185 C 
ATOM     18  OE1 GLU D 570     -20.547  -8.410 -15.279  1.00 32.92    -0.647 OA
ATOM     19  OE2 GLU D 570     -21.233  -7.078 -16.877  1.00 32.92    -0.647 OA
ENDBRANCH  16  17
ENDBRANCH  15  16
ENDBRANCH  14  15
END_RES GLU D 570
ENDMDL
MODEL 8
REMARK VINA RESULT:      -6.9      3.618      9.340
REMARK  29 active torsions:
REMARK  status: ('A' for Active; 'I' for Inactive)
REMARK    1  A    between atoms: C_2  and  C_3 
REMARK    2  A    between atoms: C_3  and  C_4 
REMARK    3  A    between atoms: C_4  and  C_5 
REMARK    4  A    between atoms: C_5  and  C_6 
REMARK    5  A    between atoms: C_6  and  C_7 
REMARK    6  A    between atoms: C_7  and  C_8 
REMARK    7  A    between atoms: C_8  and  C_9 
REMARK    8  A    between atoms: C_9  and  C_10 
REMARK    9  A    between atoms: C_10  and  C_11 
REMARK   10  A    between atoms: C_11  and  C_12 
REMARK   11  A    between atoms: C_12  and  O_14 
REMARK   12  A    between atoms: O_14  and  C_15 
REMARK   13  A    between atoms: C_15  and  C_16 
REMARK   14  A    between atoms: C_16  and  O_17 
REMARK   15  A    between atoms: O_17  and  C_18 
REMARK   16  A    between atoms: C_18  and  C_19 
REMARK   17  A    between atoms: C_19  and  C_20 
REMARK   18  A    between atoms: C_19  and  O_33 
REMARK   19  A    between atoms: C_21  and  O_29 
REMARK   20  A    between atoms: C_22  and  O_25 
REMARK   21  A    between atoms: O_25  and  C_26 
REMARK   22  A    between atoms: C_26  and  C_27 
REMARK   23  A    between atoms: C_27  and  O_28 
REMARK   24  A    between atoms: O_29  and  C_30 
REMARK   25  A    between atoms: C_30  and  C_31 
REMARK   26  A    between atoms: C_31  and  O_32 
REMARK   27  A    between atoms: O_33  and  C_34 
REMARK   28  A    between atoms: C_34  and  C_35 
REMARK   29  A    between atoms: C_35  and  O_36 
ROOT
HETATM    1  C   UNL     1     -25.776  -5.704 -16.094  1.00  0.00     0.176 C 
ENDROOT
BRANCH   1   2
HETATM    2  C   UNL     1     -27.037  -6.598 -16.083  1.00  0.00     0.202 C 
BRANCH   2   3
HETATM    3  O   UNL     1     -28.205  -5.836 -16.369  1.00  0.00    -0.386 OA
BRANCH   3   4
HETATM    4  C   UNL     1     -29.306  -6.688 -16.671  1.00  0.00     0.194 C 
BRANCH   4   5
HETATM    5  C   UNL     1     -30.397  -5.867 -17.348  1.00  0.00     0.205 C 
BRANCH   5   6
HETATM    6  O   UNL     1     -30.799  -4.756 -16.526  1.00  0.00    -0.319 OA
BRANCH   6   7
HETATM    7  C   UNL     1     -32.040  -4.289 -16.814  1.00  0.00     0.258 C 
HETATM    8  O   UNL     1     -32.290  -3.281 -17.472  1.00  0.00    -0.265 OA
BRANCH   7   9
HETATM    9  C   UNL     1     -33.106  -5.180 -16.233  1.00  0.00     0.111 C 
BRANCH   9  10
HETATM   10  C   UNL     1     -34.274  -4.354 -15.708  1.00  0.00     0.010 C 
BRANCH  10  11
HETATM   11  C   UNL     1     -33.901  -3.584 -14.442  1.00  0.00     0.000 C 
BRANCH  11  12
HETATM   12  C   UNL     1     -34.068  -4.461 -13.209  1.00  0.00     0.000 C 
BRANCH  12  13
HETATM   13  C   UNL     1     -32.986  -4.144 -12.187  1.00  0.00     0.000 C 
BRANCH  13  14
HETATM   14  C   UNL     1     -33.612  -3.868 -10.830  1.00  0.00     0.000 C 
BRANCH  14  15
HETATM   15  C   UNL     1     -33.995  -2.401 -10.718  1.00  0.00     0.000 C 
BRANCH  15  16
HETATM   16  C   UNL     1     -35.499  -2.237 -10.877  1.00  0.00     0.000 C 
BRANCH  16  17
HETATM   17  C   UNL     1     -35.824  -0.844 -11.395  1.00  0.00    -0.000 C 
BRANCH  17  18
HETATM   18  C   UNL     1     -34.927  -0.487 -12.573  1.00  0.00    -0.005 C 
HETATM   19  C   UNL     1     -35.739  -0.401 -13.851  1.00  0.00     0.005 C 
ENDBRANCH  17  18
ENDBRANCH  16  17
ENDBRANCH  15  16
ENDBRANCH  14  15
ENDBRANCH  13  14
ENDBRANCH  12  13
ENDBRANCH  11  12
ENDBRANCH  10  11
ENDBRANCH   9  10
ENDBRANCH   7   9
ENDBRANCH   6   7
ENDBRANCH   5   6
ENDBRANCH   4   5
ENDBRANCH   3   4
ENDBRANCH   2   3
ENDBRANCH   1   2
BRANCH   1  20
HETATM   20  C   UNL     1     -25.388  -5.324 -14.639  1.00  0.00     0.184 C 
HETATM   21  C   UNL     1     -24.714  -3.953 -14.488  1.00  0.00     0.184 C 
HETATM   22  C   UNL     1     -23.810  -4.172 -13.268  1.00  0.00     0.176 C 
HETATM   23  C   UNL     1     -23.419  -5.642 -13.430  1.00  0.00     0.203 C 
HETATM   24  O   UNL     1     -24.475  -6.312 -14.119  1.00  0.00    -0.378 OA
BRANCH  21  25
HETATM   25  O   UNL     1     -25.692  -2.909 -14.375  1.00  0.00    -0.378 OA
BRANCH  25  26
HETATM   26  C   UNL     1     -25.268  -1.658 -14.934  1.00  0.00     0.194 C 
BRANCH  26  27
HETATM   27  C   UNL     1     -23.787  -1.437 -14.622  1.00  0.00     0.190 C 
BRANCH  27  28
HETATM   28  O   UNL     1     -23.017  -1.434 -15.821  1.00  0.00    -0.399 OA
HETATM   29  H   UNL     1     -22.122  -1.149 -15.553  1.00  0.00     0.209 HD
ENDBRANCH  27  28
ENDBRANCH  26  27
ENDBRANCH  25  26
ENDBRANCH  21  25
BRANCH  22  30
HETATM   30  O   UNL     1     -24.497  -3.932 -12.029  1.00  0.00    -0.379 OA
BRANCH  30  31
HETATM   31  C   UNL     1     -23.619  -3.388 -11.031  1.00  0.00     0.194 C 
BRANCH  31  32
HETATM   32  C   UNL     1     -24.313  -3.388  -9.679  1.00  0.00     0.190 C 
BRANCH  32  33
HETATM   33  O   UNL     1     -25.726  -3.321  -9.839  1.00  0.00    -0.399 OA
HETATM   34  H   UNL     1     -25.949  -4.014 -10.490  1.00  0.00     0.209 HD
ENDBRANCH  32  33
ENDBRANCH  31  32
ENDBRANCH  30  31
ENDBRANCH  22  30
ENDBRANCH   1  20
BRANCH   1  35
HETATM   35  O   UNL     1     -24.680  -6.375 -16.773  1.00  0.00    -0.379 OA
BRANCH  35  36
HETATM   36  C   UNL     1     -25.095  -6.979 -18.012  1.00  0.00     0.194 C 
BRANCH  36  37
HETATM   37  C   UNL     1     -23.970  -6.939 -19.038  1.00  0.00     0.190 C 
BRANCH  37  38
HETATM   38  O   UNL     1     -22.734  -7.308 -18.435  1.00  0.00    -0.399 OA
HETATM   39  H   UNL     1     -22.258  -7.835 -19.105  1.00  0.00     0.209 HD
ENDBRANCH  37  38
ENDBRANCH  36  37
ENDBRANCH  35  36
ENDBRANCH   1  35
TORSDOF 29
BEGIN_RES ARG D 557
REMARK  4 active torsions:
REMARK  status: ('A' for Active; 'I' for Inactive)
REMARK    1  A    between atoms: CA   and  CB  
REMARK    2  A    between atoms: CB   and  CG  
REMARK    3  A    between atoms: CG   and  CD  
REMARK    4  A    between atoms: CD   and  NE  
REMARK       I    between atoms: NE   and  CZ  
REMARK       I    between atoms: CZ   and  NH1 
REMARK       I    between atoms: CZ   and  NH2 
ROOT
ATOM      1  CA  ARG D 557     -26.217   2.705 -17.014  1.00 35.49     0.159 C 
ENDROOT
BRANCH   1   2
ATOM      2  CB  ARG D 557     -26.789   1.319 -17.183  1.00 35.49     0.034 C 
BRANCH   2   3
ATOM      3  CG  ARG D 557     -28.226   1.228 -17.467  1.00 35.49     0.027 C 
BRANCH   3   4
ATOM      4  CD  ARG D 557     -28.937   0.355 -16.504  1.00 35.49     0.116 C 
BRANCH   4   5
ATOM      5  NE  ARG D 557     -28.261  -0.900 -16.308  1.00 35.49    -0.212 N 
ATOM      6  CZ  ARG D 557     -28.610  -2.051 -16.836  1.00 35.49     0.666 C 
ATOM      7  NH1 ARG D 557     -29.665  -2.182 -17.619  1.00 35.49    -0.235 N 
ATOM      8  NH2 ARG D 557     -27.867  -3.085 -16.566  1.00 35.49    -0.235 N 
ATOM      9  HH  ARG D 557     -30.167  -1.514 -17.811  1.00 35.49     0.174 HD
ATOM     10  HH  ARG D 557     -29.843  -2.957 -17.937  1.00 35.49     0.174 HD
ATOM     11  HH  ARG D 557     -27.188  -2.970 -16.064  1.00 35.49     0.174 HD
ATOM     12  HH  ARG D 557     -28.059  -3.845 -16.892  1.00 35.49     0.174 HD
ATOM     13  HE  ARG D 557     -27.612  -0.922 -15.759  1.00 35.49     0.178 HD
ENDBRANCH   4   5
ENDBRANCH   3   4
ENDBRANCH   2   3
ENDBRANCH   1   2
END_RES ARG D 557
BEGIN_RES GLU D 570
REMARK  3 active torsions:
REMARK  status: ('A' for Active; 'I' for Inactive)
REMARK    5  A    between atoms: CA   and  CB  
REMARK    6  A    between atoms: CB   and  CG  
REMARK    7  A    between atoms: CG   and  CD  
ROOT
ATOM     14  CA  GLU D 570     -18.033  -6.348 -13.375  1.00 32.92     0.160 C 
ENDROOT
BRANCH  14  15
ATOM     15  CB  GLU D 570     -19.500  -6.345 -13.794  1.00 32.92     0.043 C 
BRANCH  15  16
ATOM     16  CG  GLU D 570     -20.152  -7.662 -14.014  1.00 32.92     0.100 C 
BRANCH  16  17
ATOM     17  CD  GLU D 570     -20.711  -7.817 -15.410  1.00 32.92     0.185 C 
ATOM     18  OE1 GLU D 570     -21.534  -6.981 -15.828  1.00 32.92    -0.647 OA
ATOM     19  OE2 GLU D 570     -20.333  -8.794 -16.085  1.00 32.92    -0.647 OA
ENDBRANCH  16  17
ENDBRANCH  15  16
ENDBRANCH  14  15
END_RES GLU D 570
ENDMDL
MODEL 9
REMARK VINA RESULT:      -6.4      6.871     13.873
REMARK  29 active torsions:
REMARK  status: ('A' for Active; 'I' for Inactive)
REMARK    1  A    between atoms: C_2  and  C_3 
REMARK    2  A    between atoms: C_3  and  C_4 
REMARK    3  A    between atoms: C_4  and  C_5 
REMARK    4  A    between atoms: C_5  and  C_6 
REMARK    5  A    between atoms: C_6  and  C_7 
REMARK    6  A    between atoms: C_7  and  C_8 
REMARK    7  A    between atoms: C_8  and  C_9 
REMARK    8  A    between atoms: C_9  and  C_10 
REMARK    9  A    between atoms: C_10  and  C_11 
REMARK   10  A    between atoms: C_11  and  C_12 
REMARK   11  A    between atoms: C_12  and  O_14 
REMARK   12  A    between atoms: O_14  and  C_15 
REMARK   13  A    between atoms: C_15  and  C_16 
REMARK   14  A    between atoms: C_16  and  O_17 
REMARK   15  A    between atoms: O_17  and  C_18 
REMARK   16  A    between atoms: C_18  and  C_19 
REMARK   17  A    between atoms: C_19  and  C_20 
REMARK   18  A    between atoms: C_19  and  O_33 
REMARK   19  A    between atoms: C_21  and  O_29 
REMARK   20  A    between atoms: C_22  and  O_25 
REMARK   21  A    between atoms: O_25  and  C_26 
REMARK   22  A    between atoms: C_26  and  C_27 
REMARK   23  A    between atoms: C_27  and  O_28 
REMARK   24  A    between atoms: O_29  and  C_30 
REMARK   25  A    between atoms: C_30  and  C_31 
REMARK   26  A    between atoms: C_31  and  O_32 
REMARK   27  A    between atoms: O_33  and  C_34 
REMARK   28  A    between atoms: C_34  and  C_35 
REMARK   29  A    between atoms: C_35  and  O_36 
ROOT
HETATM    1  C   UNL     1     -19.190 -10.354  -3.129  1.00  0.00     0.176 C 
ENDROOT
BRANCH   1   2
HETATM    2  C   UNL     1     -19.714 -11.328  -2.050  1.00  0.00     0.202 C 
BRANCH   2   3
HETATM    3  O   UNL     1     -19.783 -10.692  -0.778  1.00  0.00    -0.386 OA
BRANCH   3   4
HETATM    4  C   UNL     1     -21.137 -10.482  -0.389  1.00  0.00     0.194 C 
BRANCH   4   5
HETATM    5  C   UNL     1     -21.272  -9.084   0.204  1.00  0.00     0.205 C 
BRANCH   5   6
HETATM    6  O   UNL     1     -21.207  -8.076  -0.822  1.00  0.00    -0.319 OA
BRANCH   6   7
HETATM    7  C   UNL     1     -22.287  -7.254  -0.843  1.00  0.00     0.258 C 
HETATM    8  O   UNL     1     -23.249  -7.319  -0.079  1.00  0.00    -0.265 OA
BRANCH   7   9
HETATM    9  C   UNL     1     -22.163  -6.217  -1.926  1.00  0.00     0.111 C 
BRANCH   9  10
HETATM   10  C   UNL     1     -21.149  -6.651  -2.977  1.00  0.00     0.010 C 
BRANCH  10  11
HETATM   11  C   UNL     1     -21.648  -6.379  -4.395  1.00  0.00     0.000 C 
BRANCH  11  12
HETATM   12  C   UNL     1     -20.710  -5.427  -5.123  1.00  0.00     0.000 C 
BRANCH  12  13
HETATM   13  C   UNL     1     -20.279  -6.027  -6.454  1.00  0.00     0.000 C 
BRANCH  13  14
HETATM   14  C   UNL     1     -20.142  -4.934  -7.501  1.00  0.00     0.000 C 
BRANCH  14  15
HETATM   15  C   UNL     1     -21.102  -3.795  -7.199  1.00  0.00     0.000 C 
BRANCH  15  16
HETATM   16  C   UNL     1     -22.363  -3.935  -8.038  1.00  0.00     0.000 C 
BRANCH  16  17
HETATM   17  C   UNL     1     -22.018  -4.467  -9.420  1.00  0.00    -0.000 C 
BRANCH  17  18
HETATM   18  C   UNL     1     -23.285  -4.786 -10.203  1.00  0.00    -0.005 C 
HETATM   19  C   UNL     1     -24.110  -3.531 -10.412  1.00  0.00     0.005 C 
ENDBRANCH  17  18
ENDBRANCH  16  17
ENDBRANCH  15  16
ENDBRANCH  14  15
ENDBRANCH  13  14
ENDBRANCH  12  13
ENDBRANCH  11  12
ENDBRANCH  10  11
ENDBRANCH   9  10
ENDBRANCH   7   9
ENDBRANCH   6   7
ENDBRANCH   5   6
ENDBRANCH   4   5
ENDBRANCH   3   4
ENDBRANCH   2   3
ENDBRANCH   1   2
BRANCH   1  20
HETATM   20  C   UNL     1     -18.006 -11.006  -3.896  1.00  0.00     0.184 C 
HETATM   21  C   UNL     1     -16.637 -10.855  -3.220  1.00  0.00     0.184 C 
HETATM   22  C   UNL     1     -15.684 -10.845  -4.423  1.00  0.00     0.176 C 
HETATM   23  C   UNL     1     -16.534 -10.147  -5.487  1.00  0.00     0.203 C 
HETATM   24  O   UNL     1     -17.908 -10.413  -5.207  1.00  0.00    -0.378 OA
BRANCH  21  25
HETATM   25  O   UNL     1     -16.425 -11.890  -2.250  1.00  0.00    -0.378 OA
BRANCH  25  26
HETATM   26  C   UNL     1     -15.918 -11.412  -0.996  1.00  0.00     0.194 C 
BRANCH  26  27
HETATM   27  C   UNL     1     -16.508 -12.247   0.143  1.00  0.00     0.190 C 
BRANCH  27  28
HETATM   28  O   UNL     1     -16.184 -11.671   1.405  1.00  0.00    -0.399 OA
HETATM   29  H   UNL     1     -15.979 -10.735   1.216  1.00  0.00     0.209 HD
ENDBRANCH  27  28
ENDBRANCH  26  27
ENDBRANCH  25  26
ENDBRANCH  21  25
BRANCH  22  30
HETATM   30  O   UNL     1     -15.300 -12.170  -4.827  1.00  0.00    -0.379 OA
BRANCH  30  31
HETATM   31  C   UNL     1     -13.873 -12.305  -4.919  1.00  0.00     0.194 C 
BRANCH  31  32
HETATM   32  C   UNL     1     -13.335 -12.958  -3.658  1.00  0.00     0.190 C 
BRANCH  32  33
HETATM   33  O   UNL     1     -12.952 -14.305  -3.914  1.00  0.00    -0.399 OA
HETATM   34  H   UNL     1     -12.425 -14.276  -4.736  1.00  0.00     0.209 HD
ENDBRANCH  32  33
ENDBRANCH  31  32
ENDBRANCH  30  31
ENDBRANCH  22  30
ENDBRANCH   1  20
BRANCH   1  35
HETATM   35  O   UNL     1     -20.258  -9.972  -4.036  1.00  0.00    -0.379 OA
BRANCH  35  36
HETATM   36  C   UNL     1     -21.262 -10.997  -4.157  1.00  0.00     0.194 C 
BRANCH  36  37
HETATM   37  C   UNL     1     -21.484 -11.370  -5.617  1.00  0.00     0.190 C 
BRANCH  37  38
HETATM   38  O   UNL     1     -20.475 -10.788  -6.437  1.00  0.00    -0.399 OA
HETATM   39  H   UNL     1     -20.784  -9.884  -6.639  1.00  0.00     0.209 HD
ENDBRANCH  37  38
ENDBRANCH  36  37
ENDBRANCH  35  36
ENDBRANCH   1  35
TORSDOF 29
BEGIN_RES ARG D 557
REMARK  4 active torsions:
REMARK  status: ('A' for Active; 'I' for Inactive)
REMARK    1  A    between atoms: CA   and  CB  
REMARK    2  A    between atoms: CB   and  CG  
REMARK    3  A    between atoms: CG   and  CD  
REMARK    4  A    between atoms: CD   and  NE  
REMARK       I    between atoms: NE   and  CZ  
REMARK       I    between atoms: CZ   and  NH1 
REMARK       I    between atoms: CZ   and  NH2 
ROOT
ATOM      1  CA  ARG D 557     -26.217   2.705 -17.014  1.00 35.49     0.159 C 
ENDROOT
BRANCH   1   2
ATOM      2  CB  ARG D 557     -26.789   1.319 -17.183  1.00 35.49     0.034 C 
BRANCH   2   3
ATOM      3  CG  ARG D 557     -28.230   1.166 -16.949  1.00 35.49     0.027 C 
BRANCH   3   4
ATOM      4  CD  ARG D 557     -28.614  -0.241 -16.694  1.00 35.49     0.116 C 
BRANCH   4   5
ATOM      5  NE  ARG D 557     -27.584  -0.967 -15.999  1.00 35.49    -0.212 N 
ATOM      6  CZ  ARG D 557     -27.395  -2.267 -16.046  1.00 35.49     0.666 C 
ATOM      7  NH1 ARG D 557     -28.168  -3.071 -16.751  1.00 35.49    -0.235 N 
ATOM      8  NH2 ARG D 557     -26.396  -2.753 -15.367  1.00 35.49    -0.235 N 
ATOM      9  HH  ARG D 557     -28.830  -2.773 -17.207  1.00 35.49     0.174 HD
ATOM     10  HH  ARG D 557     -27.995  -3.910 -16.746  1.00 35.49     0.174 HD
ATOM     11  HH  ARG D 557     -25.909  -2.209 -14.927  1.00 35.49     0.174 HD
ATOM     12  HH  ARG D 557     -26.240  -3.587 -15.376  1.00 35.49     0.174 HD
ATOM     13  HE  ARG D 557     -27.084  -0.536 -15.463  1.00 35.49     0.178 HD
ENDBRANCH   4   5
ENDBRANCH   3   4
ENDBRANCH   2   3
ENDBRANCH   1   2
END_RES ARG D 557
BEGIN_RES GLU D 570
REMARK  3 active torsions:
REMARK  status: ('A' for Active; 'I' for Inactive)
REMARK    5  A    between atoms: CA   and  CB  
REMARK    6  A    between atoms: CB   and  CG  
REMARK    7  A    between atoms: CG   and  CD  
ROOT
ATOM     14  CA  GLU D 570     -18.033  -6.348 -13.375  1.00 32.92     0.160 C 
ENDROOT
BRANCH  14  15
ATOM     15  CB  GLU D 570     -19.500  -6.345 -13.794  1.00 32.92     0.043 C 
BRANCH  15  16
ATOM     16  CG  GLU D 570     -20.439  -5.519 -12.992  1.00 32.92     0.100 C 
BRANCH  16  17
ATOM     17  CD  GLU D 570     -21.729  -5.219 -13.720  1.00 32.92     0.185 C 
ATOM     18  OE1 GLU D 570     -22.191  -6.067 -14.507  1.00 32.92    -0.647 OA
ATOM     19  OE2 GLU D 570     -22.274  -4.116 -13.514  1.00 32.92    -0.647 OA
ENDBRANCH  16  17
ENDBRANCH  15  16
ENDBRANCH  14  15
END_RES GLU D 570
ENDMDL
