MODEL 1
REMARK VINA RESULT:      -9.3      0.000      0.000
REMARK  16 active torsions:
REMARK  status: ('A' for Active; 'I' for Inactive)
REMARK    1  A    between atoms: CB_2  and  CA_4 
REMARK    2  A    between atoms: CA_4  and  C_5 
REMARK    3  A    between atoms: CA_4  and  N_7 
REMARK       I    between atoms: C_5  and  N_9 
REMARK       I    between atoms: N_7  and  C_43 
REMARK    4  A    between atoms: N_9  and  CA_10 
REMARK    5  A    between atoms: CA_10  and  C_12 
REMARK       I    between atoms: C_12  and  N_15 
REMARK    6  A    between atoms: CA_19  and  C_20 
REMARK       I    between atoms: C_20  and  N_22 
REMARK    7  A    between atoms: N_22  and  CA_23 
REMARK    8  A    between atoms: CA_23  and  CB_24 
REMARK    9  A    between atoms: CA_23  and  C_31 
REMARK   10  A    between atoms: CB_24  and  CG_25 
REMARK       I    between atoms: C_31  and  N_34 
REMARK   11  A    between atoms: CA_38  and  C_39 
REMARK   12  A    between atoms: C_39  and  OXT_41 
REMARK   13  A    between atoms: C_43  and  CA_45 
REMARK   14  A    between atoms: CA_45  and  CB_46 
REMARK   15  A    between atoms: CA_45  and  N_53 
REMARK   16  A    between atoms: CB_46  and  CG_47 
ROOT
ATOM      1  C   ALA A   3     -19.245 -11.629  -6.310  1.00  0.00     0.238 C 
ATOM      2  O   ALA A   3     -18.941 -11.214  -7.435  1.00  0.00    -0.272 OA
ATOM      3  N   PRO A   4     -18.353 -12.429  -5.585  1.00  0.00    -0.337 N 
ATOM      4  CD  PRO A   4     -17.047 -12.738  -6.143  1.00  0.00     0.127 C 
ATOM      5  CG  PRO A   4     -16.874 -14.221  -5.878  1.00  0.00     0.022 C 
ATOM      6  CB  PRO A   4     -17.526 -14.417  -4.520  1.00  0.00     0.037 C 
ATOM      7  CA  PRO A   4     -18.577 -13.283  -4.397  1.00  0.00     0.179 C 
ENDROOT
BRANCH   1   8
ATOM      8  CA  ALA A   3     -20.611 -11.213  -5.685  1.00  0.00     0.151 C 
ATOM      9  CB  ALA A   3     -21.830 -11.844  -6.359  1.00  0.00     0.036 C 
BRANCH   8  10
ATOM     10  N   ALA A   3     -20.806  -9.722  -5.596  1.00  0.00    -0.248 NA
ATOM     11  C   VAL A   2     -19.970  -8.932  -4.824  1.00  0.00     0.221 C 
ATOM     12  O   VAL A   2     -18.930  -9.412  -4.357  1.00  0.00    -0.278 OA
ATOM     13  H   ALA A   3     -21.779  -9.477  -5.409  1.00  0.00     0.131 HD
BRANCH  11  14
ATOM     14  CA  VAL A   2     -20.431  -7.438  -4.461  1.00  0.00     0.174 C 
BRANCH  14  15
ATOM     15  CB  VAL A   2     -21.123  -7.544  -2.980  1.00  0.00     0.009 C 
ATOM     16  CG1 VAL A   2     -20.282  -7.989  -1.760  1.00  0.00     0.012 C 
ATOM     17  CG2 VAL A   2     -21.974  -6.331  -2.606  1.00  0.00     0.012 C 
ENDBRANCH  14  15
BRANCH  14  18
ATOM     18  N   VAL A   2     -21.406  -6.668  -5.501  1.00  0.00    -0.346 N 
ATOM     19  C   PHE A   1     -21.285  -5.370  -5.988  1.00  0.00     0.251 C 
ATOM     20  O   PHE A   1     -20.360  -4.722  -5.515  1.00  0.00    -0.271 OA
ATOM     21  H   VAL A   2     -22.369  -6.976  -5.472  1.00  0.00     0.163 HD
BRANCH  19  22
ATOM     22  CA  PHE A   1     -22.189  -4.582  -7.105  1.00  0.00     0.313 C 
BRANCH  22  23
ATOM     23  CB  PHE A   1     -21.867  -5.126  -8.579  1.00  0.00     0.083 C 
BRANCH  23  24
ATOM     24  CG  PHE A   1     -22.246  -4.289  -9.777  1.00  0.00    -0.056 A 
ATOM     25  CD1 PHE A   1     -21.211  -3.655 -10.453  1.00  0.00     0.007 A 
ATOM     26  CE1 PHE A   1     -21.457  -2.915 -11.605  1.00  0.00     0.001 A 
ATOM     27  CZ  PHE A   1     -22.754  -2.779 -12.091  1.00  0.00     0.000 A 
ATOM     28  CE2 PHE A   1     -23.803  -3.423 -11.438  1.00  0.00     0.001 A 
ATOM     29  CD2 PHE A   1     -23.548  -4.181 -10.284  1.00  0.00     0.007 A 
ENDBRANCH  23  24
ENDBRANCH  22  23
BRANCH  22  30
ATOM     30  N   PHE A   1     -23.650  -4.517  -6.866  1.00  0.00     0.092 N 
ATOM     31  H1  PHE A   1     -24.059  -3.706  -7.340  1.00  0.00     0.313 HD
ATOM     32  H2  PHE A   1     -23.765  -4.194  -5.891  1.00  0.00     0.313 HD
ENDBRANCH  22  30
ENDBRANCH  19  22
ENDBRANCH  14  18
ENDBRANCH  11  14
ENDBRANCH   8  10
ENDBRANCH   1   8
BRANCH   7  33
ATOM     33  C   PRO A   4     -18.339 -12.681  -2.992  1.00  0.00     0.241 C 
ATOM     34  O   PRO A   4     -17.494 -11.796  -2.826  1.00  0.00    -0.271 OA
ATOM     35  N   PHE A   5     -19.168 -13.076  -1.963  1.00  0.00    -0.346 N 
ATOM     36  H   PHE A   5     -19.734 -13.915  -2.114  1.00  0.00     0.163 HD
BRANCH  35  37
ATOM     37  CA  PHE A   5     -18.829 -12.669  -0.594  1.00  0.00     0.181 C 
BRANCH  37  38
ATOM     38  CB  PHE A   5     -19.686 -11.612   0.068  1.00  0.00     0.073 C 
BRANCH  38  39
ATOM     39  CG  PHE A   5     -21.144 -11.766  -0.210  1.00  0.00    -0.056 A 
ATOM     40  CD1 PHE A   5     -21.973 -12.465   0.675  1.00  0.00     0.007 A 
ATOM     41  CE1 PHE A   5     -23.339 -12.530   0.438  1.00  0.00     0.001 A 
ATOM     42  CZ  PHE A   5     -23.870 -11.900  -0.685  1.00  0.00     0.000 A 
ATOM     43  CE2 PHE A   5     -23.032 -11.306  -1.630  1.00  0.00     0.001 A 
ATOM     44  CD2 PHE A   5     -21.667 -11.237  -1.389  1.00  0.00     0.007 A 
ENDBRANCH  38  39
ENDBRANCH  37  38
BRANCH  37  45
ATOM     45  C   PHE A   5     -18.615 -13.860   0.367  1.00  0.00     0.243 C 
ATOM     46  O   PHE A   5     -19.351 -14.849   0.410  1.00  0.00    -0.271 OA
ATOM     47  N   PRO A   6     -17.459 -13.810   1.108  1.00  0.00    -0.336 N 
ATOM     48  CD  PRO A   6     -17.046 -14.936   1.882  1.00  0.00     0.127 C 
ATOM     49  CA  PRO A   6     -16.427 -12.773   1.069  1.00  0.00     0.185 C 
ATOM     50  CG  PRO A   6     -16.029 -14.459   2.835  1.00  0.00     0.022 C 
ATOM     51  CB  PRO A   6     -15.447 -13.266   2.106  1.00  0.00     0.038 C 
BRANCH  49  52
ATOM     52  C   PRO A   6     -15.690 -12.664  -0.276  1.00  0.00     0.163 C 
ATOM     53  O   PRO A   6     -15.242 -13.557  -0.948  1.00  0.00    -0.648 OA
BRANCH  52  54
ATOM     54  OXT PRO A   6     -15.618 -11.398  -0.695  1.00  0.00    -0.775 OA
ATOM     55  HXT PRO A   6     -15.330 -10.707  -0.065  1.00  0.00     0.167 HD
ENDBRANCH  52  54
ENDBRANCH  49  52
ENDBRANCH  37  45
ENDBRANCH  35  37
ENDBRANCH   7  33
TORSDOF 16
BEGIN_RES ARG D 557
REMARK  4 active torsions:
REMARK  status: ('A' for Active; 'I' for Inactive)
REMARK    1  A    between atoms: CA   and  CB  
REMARK    2  A    between atoms: CB   and  CG  
REMARK    3  A    between atoms: CG   and  CD  
REMARK    4  A    between atoms: CD   and  NE  
REMARK       I    between atoms: NE   and  CZ  
REMARK       I    between atoms: CZ   and  NH1 
REMARK       I    between atoms: CZ   and  NH2 
ROOT
ATOM      1  CA  ARG D 557     -26.217   2.705 -17.014  1.00 35.49     0.159 C 
ENDROOT
BRANCH   1   2
ATOM      2  CB  ARG D 557     -26.789   1.319 -17.183  1.00 35.49     0.034 C 
BRANCH   2   3
ATOM      3  CG  ARG D 557     -28.238   1.224 -17.397  1.00 35.49     0.027 C 
BRANCH   3   4
ATOM      4  CD  ARG D 557     -28.886   0.279 -16.459  1.00 35.49     0.116 C 
BRANCH   4   5
ATOM      5  NE  ARG D 557     -29.276  -0.946 -17.106  1.00 35.49    -0.212 N 
ATOM      6  CZ  ARG D 557     -28.641  -2.094 -17.023  1.00 35.49     0.666 C 
ATOM      7  NH1 ARG D 557     -27.532  -2.242 -16.322  1.00 35.49    -0.235 N 
ATOM      8  NH2 ARG D 557     -29.150  -3.109 -17.659  1.00 35.49    -0.235 N 
ATOM      9  HH  ARG D 557     -27.181  -1.589 -15.893  1.00 35.49     0.174 HD
ATOM     10  HH  ARG D 557     -27.164  -3.016 -16.302  1.00 35.49     0.174 HD
ATOM     11  HH  ARG D 557     -29.871  -2.985 -18.098  1.00 35.49     0.174 HD
ATOM     12  HH  ARG D 557     -28.771  -3.867 -17.626  1.00 35.49     0.174 HD
ATOM     13  HE  ARG D 557     -29.939  -0.924 -17.637  1.00 35.49     0.178 HD
ENDBRANCH   4   5
ENDBRANCH   3   4
ENDBRANCH   2   3
ENDBRANCH   1   2
END_RES ARG D 557
BEGIN_RES GLU D 570
REMARK  3 active torsions:
REMARK  status: ('A' for Active; 'I' for Inactive)
REMARK    5  A    between atoms: CA   and  CB  
REMARK    6  A    between atoms: CB   and  CG  
REMARK    7  A    between atoms: CG   and  CD  
ROOT
ATOM     14  CA  GLU D 570     -18.033  -6.348 -13.375  1.00 32.92     0.160 C 
ENDROOT
BRANCH  14  15
ATOM     15  CB  GLU D 570     -19.500  -6.345 -13.794  1.00 32.92     0.043 C 
BRANCH  15  16
ATOM     16  CG  GLU D 570     -20.085  -7.633 -14.247  1.00 32.92     0.100 C 
BRANCH  16  17
ATOM     17  CD  GLU D 570     -21.049  -7.470 -15.400  1.00 32.92     0.185 C 
ATOM     18  OE1 GLU D 570     -20.916  -8.193 -16.406  1.00 32.92    -0.647 OA
ATOM     19  OE2 GLU D 570     -21.935  -6.599 -15.302  1.00 32.92    -0.647 OA
ENDBRANCH  16  17
ENDBRANCH  15  16
ENDBRANCH  14  15
END_RES GLU D 570
ENDMDL
MODEL 2
REMARK VINA RESULT:      -9.3      1.877      3.748
REMARK  16 active torsions:
REMARK  status: ('A' for Active; 'I' for Inactive)
REMARK    1  A    between atoms: CB_2  and  CA_4 
REMARK    2  A    between atoms: CA_4  and  C_5 
REMARK    3  A    between atoms: CA_4  and  N_7 
REMARK       I    between atoms: C_5  and  N_9 
REMARK       I    between atoms: N_7  and  C_43 
REMARK    4  A    between atoms: N_9  and  CA_10 
REMARK    5  A    between atoms: CA_10  and  C_12 
REMARK       I    between atoms: C_12  and  N_15 
REMARK    6  A    between atoms: CA_19  and  C_20 
REMARK       I    between atoms: C_20  and  N_22 
REMARK    7  A    between atoms: N_22  and  CA_23 
REMARK    8  A    between atoms: CA_23  and  CB_24 
REMARK    9  A    between atoms: CA_23  and  C_31 
REMARK   10  A    between atoms: CB_24  and  CG_25 
REMARK       I    between atoms: C_31  and  N_34 
REMARK   11  A    between atoms: CA_38  and  C_39 
REMARK   12  A    between atoms: C_39  and  OXT_41 
REMARK   13  A    between atoms: C_43  and  CA_45 
REMARK   14  A    between atoms: CA_45  and  CB_46 
REMARK   15  A    between atoms: CA_45  and  N_53 
REMARK   16  A    between atoms: CB_46  and  CG_47 
ROOT
ATOM      1  C   ALA A   3     -21.161 -11.961  -6.048  1.00  0.00     0.238 C 
ATOM      2  O   ALA A   3     -21.742 -11.530  -7.051  1.00  0.00    -0.272 OA
ATOM      3  N   PRO A   4     -20.239 -13.011  -6.159  1.00  0.00    -0.337 N 
ATOM      4  CD  PRO A   4     -19.936 -13.567  -7.467  1.00  0.00     0.127 C 
ATOM      5  CG  PRO A   4     -19.953 -15.067  -7.243  1.00  0.00     0.022 C 
ATOM      6  CB  PRO A   4     -19.360 -15.226  -5.854  1.00  0.00     0.037 C 
ATOM      7  CA  PRO A   4     -19.658 -13.891  -5.120  1.00  0.00     0.179 C 
ENDROOT
BRANCH   1   8
ATOM      8  CA  ALA A   3     -21.426 -11.294  -4.665  1.00  0.00     0.151 C 
ATOM      9  CB  ALA A   3     -22.620 -11.874  -3.905  1.00  0.00     0.036 C 
BRANCH   8  10
ATOM     10  N   ALA A   3     -21.559  -9.795  -4.732  1.00  0.00    -0.248 NA
ATOM     11  C   VAL A   2     -20.504  -8.964  -4.391  1.00  0.00     0.221 C 
ATOM     12  O   VAL A   2     -19.376  -9.443  -4.219  1.00  0.00    -0.278 OA
ATOM     13  H   ALA A   3     -22.413  -9.468  -4.280  1.00  0.00     0.131 HD
BRANCH  11  14
ATOM     14  CA  VAL A   2     -20.797  -7.410  -4.118  1.00  0.00     0.174 C 
BRANCH  14  15
ATOM     15  CB  VAL A   2     -21.549  -7.359  -2.663  1.00  0.00     0.009 C 
ATOM     16  CG1 VAL A   2     -20.966  -8.138  -1.460  1.00  0.00     0.012 C 
ATOM     17  CG2 VAL A   2     -21.950  -5.951  -2.222  1.00  0.00     0.012 C 
ENDBRANCH  14  15
BRANCH  14  18
ATOM     18  N   VAL A   2     -21.637  -6.586  -5.231  1.00  0.00    -0.346 N 
ATOM     19  C   PHE A   1     -21.283  -5.399  -5.867  1.00  0.00     0.251 C 
ATOM     20  O   PHE A   1     -20.235  -4.896  -5.481  1.00  0.00    -0.271 OA
ATOM     21  H   VAL A   2     -22.640  -6.695  -5.159  1.00  0.00     0.163 HD
BRANCH  19  22
ATOM     22  CA  PHE A   1     -22.051  -4.581  -7.061  1.00  0.00     0.313 C 
BRANCH  22  23
ATOM     23  CB  PHE A   1     -21.646  -5.165  -8.499  1.00  0.00     0.083 C 
BRANCH  23  24
ATOM     24  CG  PHE A   1     -22.029  -4.400  -9.743  1.00  0.00    -0.056 A 
ATOM     25  CD1 PHE A   1     -23.380  -4.351 -10.061  1.00  0.00     0.007 A 
ATOM     26  CE1 PHE A   1     -23.832  -3.617 -11.153  1.00  0.00     0.001 A 
ATOM     27  CZ  PHE A   1     -22.930  -2.932 -11.963  1.00  0.00     0.000 A 
ATOM     28  CE2 PHE A   1     -21.573  -2.953 -11.649  1.00  0.00     0.001 A 
ATOM     29  CD2 PHE A   1     -21.123  -3.683 -10.538  1.00  0.00     0.007 A 
ENDBRANCH  23  24
ENDBRANCH  22  23
BRANCH  22  30
ATOM     30  N   PHE A   1     -23.521  -4.433  -6.938  1.00  0.00     0.092 N 
ATOM     31  H1  PHE A   1     -23.779  -4.162  -5.984  1.00  0.00     0.313 HD
ATOM     32  H2  PHE A   1     -23.904  -5.392  -6.929  1.00  0.00     0.313 HD
ENDBRANCH  22  30
ENDBRANCH  19  22
ENDBRANCH  14  18
ENDBRANCH  11  14
ENDBRANCH   8  10
ENDBRANCH   1   8
BRANCH   7  33
ATOM     33  C   PRO A   4     -18.311 -13.491  -4.475  1.00  0.00     0.241 C 
ATOM     34  O   PRO A   4     -17.310 -14.197  -4.628  1.00  0.00    -0.271 OA
ATOM     35  N   PHE A   5     -18.234 -12.277  -3.824  1.00  0.00    -0.346 N 
ATOM     36  H   PHE A   5     -19.116 -11.815  -3.588  1.00  0.00     0.163 HD
BRANCH  35  37
ATOM     37  CA  PHE A   5     -17.029 -11.977  -3.040  1.00  0.00     0.181 C 
BRANCH  37  38
ATOM     38  CB  PHE A   5     -16.041 -10.980  -3.606  1.00  0.00     0.073 C 
BRANCH  38  39
ATOM     39  CG  PHE A   5     -15.191 -11.536  -4.699  1.00  0.00    -0.056 A 
ATOM     40  CD1 PHE A   5     -14.017 -12.238  -4.406  1.00  0.00     0.007 A 
ATOM     41  CE1 PHE A   5     -13.283 -12.815  -5.434  1.00  0.00     0.001 A 
ATOM     42  CZ  PHE A   5     -13.723 -12.683  -6.748  1.00  0.00     0.000 A 
ATOM     43  CE2 PHE A   5     -14.825 -11.883  -7.052  1.00  0.00     0.001 A 
ATOM     44  CD2 PHE A   5     -15.562 -11.312  -6.024  1.00  0.00     0.007 A 
ENDBRANCH  38  39
ENDBRANCH  37  38
BRANCH  37  45
ATOM     45  C   PHE A   5     -17.324 -11.654  -1.559  1.00  0.00     0.243 C 
ATOM     46  O   PHE A   5     -18.271 -10.959  -1.182  1.00  0.00    -0.271 OA
ATOM     47  N   PRO A   6     -16.520 -12.300  -0.650  1.00  0.00    -0.336 N 
ATOM     48  CD  PRO A   6     -16.814 -12.244   0.745  1.00  0.00     0.127 C 
ATOM     49  CA  PRO A   6     -15.447 -13.254  -0.939  1.00  0.00     0.185 C 
ATOM     50  CG  PRO A   6     -15.603 -12.680   1.462  1.00  0.00     0.022 C 
ATOM     51  CB  PRO A   6     -14.941 -13.584   0.444  1.00  0.00     0.038 C 
BRANCH  49  52
ATOM     52  C   PRO A   6     -15.921 -14.558  -1.602  1.00  0.00     0.163 C 
ATOM     53  O   PRO A   6     -16.893 -15.215  -1.329  1.00  0.00    -0.648 OA
BRANCH  52  54
ATOM     54  OXT PRO A   6     -15.126 -14.910  -2.615  1.00  0.00    -0.775 OA
ATOM     55  HXT PRO A   6     -14.831 -15.840  -2.685  1.00  0.00     0.167 HD
ENDBRANCH  52  54
ENDBRANCH  49  52
ENDBRANCH  37  45
ENDBRANCH  35  37
ENDBRANCH   7  33
TORSDOF 16
BEGIN_RES ARG D 557
REMARK  4 active torsions:
REMARK  status: ('A' for Active; 'I' for Inactive)
REMARK    1  A    between atoms: CA   and  CB  
REMARK    2  A    between atoms: CB   and  CG  
REMARK    3  A    between atoms: CG   and  CD  
REMARK    4  A    between atoms: CD   and  NE  
REMARK       I    between atoms: NE   and  CZ  
REMARK       I    between atoms: CZ   and  NH1 
REMARK       I    between atoms: CZ   and  NH2 
ROOT
ATOM      1  CA  ARG D 557     -26.217   2.705 -17.014  1.00 35.49     0.159 C 
ENDROOT
BRANCH   1   2
ATOM      2  CB  ARG D 557     -26.789   1.319 -17.183  1.00 35.49     0.034 C 
BRANCH   2   3
ATOM      3  CG  ARG D 557     -28.231   1.227 -17.444  1.00 35.49     0.027 C 
BRANCH   3   4
ATOM      4  CD  ARG D 557     -28.912   0.287 -16.525  1.00 35.49     0.116 C 
BRANCH   4   5
ATOM      5  NE  ARG D 557     -28.144  -0.911 -16.306  1.00 35.49    -0.212 N 
ATOM      6  CZ  ARG D 557     -28.407  -2.095 -16.812  1.00 35.49     0.666 C 
ATOM      7  NH1 ARG D 557     -29.450  -2.318 -17.589  1.00 35.49    -0.235 N 
ATOM      8  NH2 ARG D 557     -27.589  -3.065 -16.524  1.00 35.49    -0.235 N 
ATOM      9  HH  ARG D 557     -30.000  -1.693 -17.793  1.00 35.49     0.174 HD
ATOM     10  HH  ARG D 557     -29.570  -3.110 -17.892  1.00 35.49     0.174 HD
ATOM     11  HH  ARG D 557     -26.920  -2.890 -16.026  1.00 35.49     0.174 HD
ATOM     12  HH  ARG D 557     -27.724  -3.843 -16.835  1.00 35.49     0.174 HD
ATOM     13  HE  ARG D 557     -27.494  -0.874 -15.758  1.00 35.49     0.178 HD
ENDBRANCH   4   5
ENDBRANCH   3   4
ENDBRANCH   2   3
ENDBRANCH   1   2
END_RES ARG D 557
BEGIN_RES GLU D 570
REMARK  3 active torsions:
REMARK  status: ('A' for Active; 'I' for Inactive)
REMARK    5  A    between atoms: CA   and  CB  
REMARK    6  A    between atoms: CB   and  CG  
REMARK    7  A    between atoms: CG   and  CD  
ROOT
ATOM     14  CA  GLU D 570     -18.033  -6.348 -13.375  1.00 32.92     0.160 C 
ENDROOT
BRANCH  14  15
ATOM     15  CB  GLU D 570     -19.500  -6.345 -13.794  1.00 32.92     0.043 C 
BRANCH  15  16
ATOM     16  CG  GLU D 570     -19.807  -6.017 -15.210  1.00 32.92     0.100 C 
BRANCH  16  17
ATOM     17  CD  GLU D 570     -21.196  -5.453 -15.397  1.00 32.92     0.185 C 
ATOM     18  OE1 GLU D 570     -21.543  -5.061 -16.527  1.00 32.92    -0.647 OA
ATOM     19  OE2 GLU D 570     -21.940  -5.387 -14.398  1.00 32.92    -0.647 OA
ENDBRANCH  16  17
ENDBRANCH  15  16
ENDBRANCH  14  15
END_RES GLU D 570
ENDMDL
MODEL 3
REMARK VINA RESULT:      -9.2      2.075      3.478
REMARK  16 active torsions:
REMARK  status: ('A' for Active; 'I' for Inactive)
REMARK    1  A    between atoms: CB_2  and  CA_4 
REMARK    2  A    between atoms: CA_4  and  C_5 
REMARK    3  A    between atoms: CA_4  and  N_7 
REMARK       I    between atoms: C_5  and  N_9 
REMARK       I    between atoms: N_7  and  C_43 
REMARK    4  A    between atoms: N_9  and  CA_10 
REMARK    5  A    between atoms: CA_10  and  C_12 
REMARK       I    between atoms: C_12  and  N_15 
REMARK    6  A    between atoms: CA_19  and  C_20 
REMARK       I    between atoms: C_20  and  N_22 
REMARK    7  A    between atoms: N_22  and  CA_23 
REMARK    8  A    between atoms: CA_23  and  CB_24 
REMARK    9  A    between atoms: CA_23  and  C_31 
REMARK   10  A    between atoms: CB_24  and  CG_25 
REMARK       I    between atoms: C_31  and  N_34 
REMARK   11  A    between atoms: CA_38  and  C_39 
REMARK   12  A    between atoms: C_39  and  OXT_41 
REMARK   13  A    between atoms: C_43  and  CA_45 
REMARK   14  A    between atoms: CA_45  and  CB_46 
REMARK   15  A    between atoms: CA_45  and  N_53 
REMARK   16  A    between atoms: CB_46  and  CG_47 
ROOT
ATOM      1  C   ALA A   3     -16.751 -11.670  -4.154  1.00  0.00     0.238 C 
ATOM      2  O   ALA A   3     -15.758 -12.120  -4.740  1.00  0.00    -0.272 OA
ATOM      3  N   PRO A   4     -17.740 -12.537  -3.671  1.00  0.00    -0.337 N 
ATOM      4  CD  PRO A   4     -17.578 -13.972  -3.825  1.00  0.00     0.127 C 
ATOM      5  CG  PRO A   4     -18.938 -14.450  -4.294  1.00  0.00     0.022 C 
ATOM      6  CB  PRO A   4     -19.908 -13.563  -3.532  1.00  0.00     0.037 C 
ATOM      7  CA  PRO A   4     -19.125 -12.259  -3.226  1.00  0.00     0.179 C 
ENDROOT
BRANCH   1   8
ATOM      8  CA  ALA A   3     -16.868 -10.135  -3.914  1.00  0.00     0.151 C 
ATOM      9  CB  ALA A   3     -16.270  -9.657  -2.590  1.00  0.00     0.036 C 
BRANCH   8  10
ATOM     10  N   ALA A   3     -18.273  -9.608  -4.046  1.00  0.00    -0.248 NA
ATOM     11  C   VAL A   2     -18.739  -9.096  -5.245  1.00  0.00     0.221 C 
ATOM     12  O   VAL A   2     -18.075  -9.248  -6.278  1.00  0.00    -0.278 OA
ATOM     13  H   ALA A   3     -18.513  -8.972  -3.285  1.00  0.00     0.131 HD
BRANCH  11  14
ATOM     14  CA  VAL A   2     -20.082  -8.217  -5.244  1.00  0.00     0.174 C 
BRANCH  14  15
ATOM     15  CB  VAL A   2     -21.310  -9.300  -5.312  1.00  0.00     0.009 C 
ATOM     16  CG1 VAL A   2     -21.112 -10.654  -6.033  1.00  0.00     0.012 C 
ATOM     17  CG2 VAL A   2     -22.011  -9.525  -3.973  1.00  0.00     0.012 C 
ENDBRANCH  14  15
BRANCH  14  18
ATOM     18  N   VAL A   2     -20.250  -7.081  -6.388  1.00  0.00    -0.346 N 
ATOM     19  C   PHE A   1     -20.683  -5.767  -6.233  1.00  0.00     0.251 C 
ATOM     20  O   PHE A   1     -21.037  -5.467  -5.099  1.00  0.00    -0.271 OA
ATOM     21  H   VAL A   2     -20.461  -7.446  -7.307  1.00  0.00     0.163 HD
BRANCH  19  22
ATOM     22  CA  PHE A   1     -20.782  -4.560  -7.337  1.00  0.00     0.313 C 
BRANCH  22  23
ATOM     23  CB  PHE A   1     -21.082  -5.152  -8.797  1.00  0.00     0.083 C 
BRANCH  23  24
ATOM     24  CG  PHE A   1     -21.875  -4.327  -9.782  1.00  0.00    -0.056 A 
ATOM     25  CD1 PHE A   1     -21.152  -3.602 -10.721  1.00  0.00     0.007 A 
ATOM     26  CE1 PHE A   1     -21.798  -2.865 -11.707  1.00  0.00     0.001 A 
ATOM     27  CZ  PHE A   1     -23.189  -2.822 -11.758  1.00  0.00     0.000 A 
ATOM     28  CE2 PHE A   1     -23.932  -3.557 -10.836  1.00  0.00     0.001 A 
ATOM     29  CD2 PHE A   1     -23.276  -4.312  -9.851  1.00  0.00     0.007 A 
ENDBRANCH  23  24
ENDBRANCH  22  23
BRANCH  22  30
ATOM     30  N   PHE A   1     -21.688  -3.431  -7.020  1.00  0.00     0.092 N 
ATOM     31  H1  PHE A   1     -22.373  -3.704  -6.309  1.00  0.00     0.313 HD
ATOM     32  H2  PHE A   1     -22.332  -3.348  -7.824  1.00  0.00     0.313 HD
ENDBRANCH  22  30
ENDBRANCH  19  22
ENDBRANCH  14  18
ENDBRANCH  11  14
ENDBRANCH   8  10
ENDBRANCH   1   8
BRANCH   7  33
ATOM     33  C   PRO A   4     -19.384 -11.991  -1.725  1.00  0.00     0.241 C 
ATOM     34  O   PRO A   4     -18.453 -12.020  -0.914  1.00  0.00    -0.271 OA
ATOM     35  N   PHE A   5     -20.653 -11.610  -1.340  1.00  0.00    -0.346 N 
ATOM     36  H   PHE A   5     -21.410 -11.758  -2.012  1.00  0.00     0.163 HD
BRANCH  35  37
ATOM     37  CA  PHE A   5     -20.961 -11.548   0.094  1.00  0.00     0.181 C 
BRANCH  37  38
ATOM     38  CB  PHE A   5     -20.672 -10.257   0.830  1.00  0.00     0.073 C 
BRANCH  38  39
ATOM     39  CG  PHE A   5     -21.135  -9.040   0.101  1.00  0.00    -0.056 A 
ATOM     40  CD1 PHE A   5     -20.385  -8.509  -0.955  1.00  0.00     0.007 A 
ATOM     41  CE1 PHE A   5     -20.872  -7.423  -1.670  1.00  0.00     0.001 A 
ATOM     42  CZ  PHE A   5     -22.102  -6.870  -1.324  1.00  0.00     0.000 A 
ATOM     43  CE2 PHE A   5     -22.792  -7.321  -0.198  1.00  0.00     0.001 A 
ATOM     44  CD2 PHE A   5     -22.308  -8.411   0.514  1.00  0.00     0.007 A 
ENDBRANCH  38  39
ENDBRANCH  37  38
BRANCH  37  45
ATOM     45  C   PHE A   5     -22.379 -12.053   0.441  1.00  0.00     0.243 C 
ATOM     46  O   PHE A   5     -23.415 -11.564  -0.018  1.00  0.00    -0.271 OA
ATOM     47  N   PRO A   6     -22.420 -13.187   1.218  1.00  0.00    -0.336 N 
ATOM     48  CD  PRO A   6     -23.655 -13.866   1.442  1.00  0.00     0.127 C 
ATOM     49  CA  PRO A   6     -21.281 -13.954   1.724  1.00  0.00     0.185 C 
ATOM     50  CG  PRO A   6     -23.451 -14.772   2.586  1.00  0.00     0.022 C 
ATOM     51  CB  PRO A   6     -21.964 -15.048   2.509  1.00  0.00     0.038 C 
BRANCH  49  52
ATOM     52  C   PRO A   6     -20.423 -14.611   0.630  1.00  0.00     0.163 C 
ATOM     53  O   PRO A   6     -20.798 -15.253  -0.317  1.00  0.00    -0.648 OA
BRANCH  52  54
ATOM     54  OXT PRO A   6     -19.125 -14.355   0.806  1.00  0.00    -0.775 OA
ATOM     55  HXT PRO A   6     -18.503 -15.104   0.901  1.00  0.00     0.167 HD
ENDBRANCH  52  54
ENDBRANCH  49  52
ENDBRANCH  37  45
ENDBRANCH  35  37
ENDBRANCH   7  33
TORSDOF 16
BEGIN_RES ARG D 557
REMARK  4 active torsions:
REMARK  status: ('A' for Active; 'I' for Inactive)
REMARK    1  A    between atoms: CA   and  CB  
REMARK    2  A    between atoms: CB   and  CG  
REMARK    3  A    between atoms: CG   and  CD  
REMARK    4  A    between atoms: CD   and  NE  
REMARK       I    between atoms: NE   and  CZ  
REMARK       I    between atoms: CZ   and  NH1 
REMARK       I    between atoms: CZ   and  NH2 
ROOT
ATOM      1  CA  ARG D 557     -26.217   2.705 -17.014  1.00 35.49     0.159 C 
ENDROOT
BRANCH   1   2
ATOM      2  CB  ARG D 557     -26.789   1.319 -17.183  1.00 35.49     0.034 C 
BRANCH   2   3
ATOM      3  CG  ARG D 557     -28.218   1.153 -16.889  1.00 35.49     0.027 C 
BRANCH   3   4
ATOM      4  CD  ARG D 557     -28.613  -0.270 -16.793  1.00 35.49     0.116 C 
BRANCH   4   5
ATOM      5  NE  ARG D 557     -27.635  -1.059 -16.091  1.00 35.49    -0.212 N 
ATOM      6  CZ  ARG D 557     -27.507  -2.365 -16.161  1.00 35.49     0.666 C 
ATOM      7  NH1 ARG D 557     -28.303  -3.117 -16.898  1.00 35.49    -0.235 N 
ATOM      8  NH2 ARG D 557     -26.549  -2.912 -15.471  1.00 35.49    -0.235 N 
ATOM      9  HH  ARG D 557     -28.939  -2.778 -17.362  1.00 35.49     0.174 HD
ATOM     10  HH  ARG D 557     -28.171  -3.963 -16.907  1.00 35.49     0.174 HD
ATOM     11  HH  ARG D 557     -26.046  -2.401 -15.010  1.00 35.49     0.174 HD
ATOM     12  HH  ARG D 557     -26.433  -3.752 -15.494  1.00 35.49     0.174 HD
ATOM     13  HE  ARG D 557     -27.126  -0.663 -15.536  1.00 35.49     0.178 HD
ENDBRANCH   4   5
ENDBRANCH   3   4
ENDBRANCH   2   3
ENDBRANCH   1   2
END_RES ARG D 557
BEGIN_RES GLU D 570
REMARK  3 active torsions:
REMARK  status: ('A' for Active; 'I' for Inactive)
REMARK    5  A    between atoms: CA   and  CB  
REMARK    6  A    between atoms: CB   and  CG  
REMARK    7  A    between atoms: CG   and  CD  
ROOT
ATOM     14  CA  GLU D 570     -18.033  -6.348 -13.375  1.00 32.92     0.160 C 
ENDROOT
BRANCH  14  15
ATOM     15  CB  GLU D 570     -19.500  -6.345 -13.794  1.00 32.92     0.043 C 
BRANCH  15  16
ATOM     16  CG  GLU D 570     -19.812  -6.721 -15.197  1.00 32.92     0.100 C 
BRANCH  16  17
ATOM     17  CD  GLU D 570     -20.900  -5.868 -15.808  1.00 32.92     0.185 C 
ATOM     18  OE1 GLU D 570     -21.348  -4.904 -15.159  1.00 32.92    -0.647 OA
ATOM     19  OE2 GLU D 570     -21.319  -6.178 -16.940  1.00 32.92    -0.647 OA
ENDBRANCH  16  17
ENDBRANCH  15  16
ENDBRANCH  14  15
END_RES GLU D 570
ENDMDL
MODEL 4
REMARK VINA RESULT:      -9.2      2.516      4.017
REMARK  16 active torsions:
REMARK  status: ('A' for Active; 'I' for Inactive)
REMARK    1  A    between atoms: CB_2  and  CA_4 
REMARK    2  A    between atoms: CA_4  and  C_5 
REMARK    3  A    between atoms: CA_4  and  N_7 
REMARK       I    between atoms: C_5  and  N_9 
REMARK       I    between atoms: N_7  and  C_43 
REMARK    4  A    between atoms: N_9  and  CA_10 
REMARK    5  A    between atoms: CA_10  and  C_12 
REMARK       I    between atoms: C_12  and  N_15 
REMARK    6  A    between atoms: CA_19  and  C_20 
REMARK       I    between atoms: C_20  and  N_22 
REMARK    7  A    between atoms: N_22  and  CA_23 
REMARK    8  A    between atoms: CA_23  and  CB_24 
REMARK    9  A    between atoms: CA_23  and  C_31 
REMARK   10  A    between atoms: CB_24  and  CG_25 
REMARK       I    between atoms: C_31  and  N_34 
REMARK   11  A    between atoms: CA_38  and  C_39 
REMARK   12  A    between atoms: C_39  and  OXT_41 
REMARK   13  A    between atoms: C_43  and  CA_45 
REMARK   14  A    between atoms: CA_45  and  CB_46 
REMARK   15  A    between atoms: CA_45  and  N_53 
REMARK   16  A    between atoms: CB_46  and  CG_47 
ROOT
ATOM      1  C   ALA A   3     -22.090 -12.724  -3.629  1.00  0.00     0.238 C 
ATOM      2  O   ALA A   3     -23.005 -12.606  -4.454  1.00  0.00    -0.272 OA
ATOM      3  N   PRO A   4     -21.064 -13.656  -3.837  1.00  0.00    -0.337 N 
ATOM      4  CD  PRO A   4     -21.055 -14.457  -5.049  1.00  0.00     0.127 C 
ATOM      5  CG  PRO A   4     -20.733 -15.857  -4.564  1.00  0.00     0.022 C 
ATOM      6  CB  PRO A   4     -19.745 -15.622  -3.434  1.00  0.00     0.037 C 
ATOM      7  CA  PRO A   4     -20.057 -14.200  -2.899  1.00  0.00     0.179 C 
ENDROOT
BRANCH   1   8
ATOM      8  CA  ALA A   3     -22.062 -11.794  -2.379  1.00  0.00     0.151 C 
ATOM      9  CB  ALA A   3     -23.371 -11.761  -1.589  1.00  0.00     0.036 C 
BRANCH   8  10
ATOM     10  N   ALA A   3     -21.629 -10.384  -2.685  1.00  0.00    -0.248 NA
ATOM     11  C   VAL A   2     -20.717  -9.721  -1.879  1.00  0.00     0.221 C 
ATOM     12  O   VAL A   2     -20.095 -10.347  -1.012  1.00  0.00    -0.278 OA
ATOM     13  H   ALA A   3     -22.425  -9.774  -2.875  1.00  0.00     0.131 HD
BRANCH  11  14
ATOM     14  CA  VAL A   2     -20.573  -8.129  -2.017  1.00  0.00     0.174 C 
BRANCH  14  15
ATOM     15  CB  VAL A   2     -21.982  -7.514  -1.450  1.00  0.00     0.009 C 
ATOM     16  CG1 VAL A   2     -22.462  -7.862  -0.021  1.00  0.00     0.012 C 
ATOM     17  CG2 VAL A   2     -22.150  -6.016  -1.701  1.00  0.00     0.012 C 
ENDBRANCH  14  15
BRANCH  14  18
ATOM     18  N   VAL A   2     -20.223  -7.519  -3.477  1.00  0.00    -0.346 N 
ATOM     19  C   PHE A   1     -21.001  -7.558  -4.631  1.00  0.00     0.251 C 
ATOM     20  O   PHE A   1     -22.046  -8.189  -4.531  1.00  0.00    -0.271 OA
ATOM     21  H   VAL A   2     -19.233  -7.483  -3.685  1.00  0.00     0.163 HD
BRANCH  19  22
ATOM     22  CA  PHE A   1     -20.732  -6.880  -6.098  1.00  0.00     0.313 C 
BRANCH  22  23
ATOM     23  CB  PHE A   1     -21.172  -5.338  -6.098  1.00  0.00     0.083 C 
BRANCH  23  24
ATOM     24  CG  PHE A   1     -21.732  -4.727  -7.360  1.00  0.00    -0.056 A 
ATOM     25  CD1 PHE A   1     -20.843  -4.520  -8.407  1.00  0.00     0.007 A 
ATOM     26  CE1 PHE A   1     -21.281  -4.022  -9.629  1.00  0.00     0.001 A 
ATOM     27  CZ  PHE A   1     -22.622  -3.699  -9.818  1.00  0.00     0.000 A 
ATOM     28  CE2 PHE A   1     -23.533  -3.917  -8.787  1.00  0.00     0.001 A 
ATOM     29  CD2 PHE A   1     -23.089  -4.434  -7.560  1.00  0.00     0.007 A 
ENDBRANCH  23  24
ENDBRANCH  22  23
BRANCH  22  30
ATOM     30  N   PHE A   1     -19.381  -7.051  -6.682  1.00  0.00     0.092 N 
ATOM     31  H1  PHE A   1     -19.335  -6.634  -7.617  1.00  0.00     0.313 HD
ATOM     32  H2  PHE A   1     -19.313  -8.045  -6.958  1.00  0.00     0.313 HD
ENDBRANCH  22  30
ENDBRANCH  19  22
ENDBRANCH  14  18
ENDBRANCH  11  14
ENDBRANCH   8  10
ENDBRANCH   1   8
BRANCH   7  33
ATOM     33  C   PRO A   4     -18.678 -13.507  -2.803  1.00  0.00     0.241 C 
ATOM     34  O   PRO A   4     -17.857 -13.619  -3.719  1.00  0.00    -0.271 OA
ATOM     35  N   PHE A   5     -18.437 -12.677  -1.728  1.00  0.00    -0.346 N 
ATOM     36  H   PHE A   5     -19.075 -12.747  -0.931  1.00  0.00     0.163 HD
BRANCH  35  37
ATOM     37  CA  PHE A   5     -17.073 -12.176  -1.522  1.00  0.00     0.181 C 
BRANCH  37  38
ATOM     38  CB  PHE A   5     -16.766 -10.753  -1.937  1.00  0.00     0.073 C 
BRANCH  38  39
ATOM     39  CG  PHE A   5     -16.551 -10.593  -3.405  1.00  0.00    -0.056 A 
ATOM     40  CD1 PHE A   5     -17.515  -9.970  -4.207  1.00  0.00     0.007 A 
ATOM     41  CE1 PHE A   5     -17.261  -9.762  -5.555  1.00  0.00     0.001 A 
ATOM     42  CZ  PHE A   5     -16.049 -10.181  -6.098  1.00  0.00     0.000 A 
ATOM     43  CE2 PHE A   5     -15.140 -10.908  -5.329  1.00  0.00     0.001 A 
ATOM     44  CD2 PHE A   5     -15.392 -11.112  -3.979  1.00  0.00     0.007 A 
ENDBRANCH  38  39
ENDBRANCH  37  38
BRANCH  37  45
ATOM     45  C   PHE A   5     -16.528 -12.445  -0.102  1.00  0.00     0.243 C 
ATOM     46  O   PHE A   5     -17.137 -12.165   0.934  1.00  0.00    -0.271 OA
ATOM     47  N   PRO A   6     -15.344 -13.143  -0.055  1.00  0.00    -0.336 N 
ATOM     48  CD  PRO A   6     -14.838 -13.627   1.188  1.00  0.00     0.127 C 
ATOM     49  CA  PRO A   6     -14.575 -13.657  -1.189  1.00  0.00     0.185 C 
ATOM     50  CG  PRO A   6     -13.421 -13.971   0.976  1.00  0.00     0.022 C 
ATOM     51  CB  PRO A   6     -13.393 -14.297  -0.502  1.00  0.00     0.038 C 
BRANCH  49  52
ATOM     52  C   PRO A   6     -15.299 -14.740  -2.007  1.00  0.00     0.163 C 
ATOM     53  O   PRO A   6     -15.998 -15.631  -1.598  1.00  0.00    -0.648 OA
BRANCH  52  54
ATOM     54  OXT PRO A   6     -15.109 -14.572  -3.318  1.00  0.00    -0.775 OA
ATOM     55  HXT PRO A   6     -14.352 -15.019  -3.747  1.00  0.00     0.167 HD
ENDBRANCH  52  54
ENDBRANCH  49  52
ENDBRANCH  37  45
ENDBRANCH  35  37
ENDBRANCH   7  33
TORSDOF 16
BEGIN_RES ARG D 557
REMARK  4 active torsions:
REMARK  status: ('A' for Active; 'I' for Inactive)
REMARK    1  A    between atoms: CA   and  CB  
REMARK    2  A    between atoms: CB   and  CG  
REMARK    3  A    between atoms: CG   and  CD  
REMARK    4  A    between atoms: CD   and  NE  
REMARK       I    between atoms: NE   and  CZ  
REMARK       I    between atoms: CZ   and  NH1 
REMARK       I    between atoms: CZ   and  NH2 
ROOT
ATOM      1  CA  ARG D 557     -26.217   2.705 -17.014  1.00 35.49     0.159 C 
ENDROOT
BRANCH   1   2
ATOM      2  CB  ARG D 557     -26.789   1.319 -17.183  1.00 35.49     0.034 C 
BRANCH   2   3
ATOM      3  CG  ARG D 557     -25.861   0.195 -17.007  1.00 35.49     0.027 C 
BRANCH   3   4
ATOM      4  CD  ARG D 557     -26.278  -0.716 -15.917  1.00 35.49     0.116 C 
BRANCH   4   5
ATOM      5  NE  ARG D 557     -25.226  -0.932 -14.959  1.00 35.49    -0.212 N 
ATOM      6  CZ  ARG D 557     -24.976  -2.062 -14.336  1.00 35.49     0.666 C 
ATOM      7  NH1 ARG D 557     -25.699  -3.150 -14.522  1.00 35.49    -0.235 N 
ATOM      8  NH2 ARG D 557     -23.966  -2.083 -13.514  1.00 35.49    -0.235 N 
ATOM      9  HH  ARG D 557     -26.366  -3.160 -15.059  1.00 35.49     0.174 HD
ATOM     10  HH  ARG D 557     -25.487  -3.859 -14.090  1.00 35.49     0.174 HD
ATOM     11  HH  ARG D 557     -23.513  -1.367 -13.419  1.00 35.49     0.174 HD
ATOM     12  HH  ARG D 557     -23.771  -2.794 -13.096  1.00 35.49     0.174 HD
ATOM     13  HE  ARG D 557     -24.756  -0.264 -14.724  1.00 35.49     0.178 HD
ENDBRANCH   4   5
ENDBRANCH   3   4
ENDBRANCH   2   3
ENDBRANCH   1   2
END_RES ARG D 557
BEGIN_RES GLU D 570
REMARK  3 active torsions:
REMARK  status: ('A' for Active; 'I' for Inactive)
REMARK    5  A    between atoms: CA   and  CB  
REMARK    6  A    between atoms: CB   and  CG  
REMARK    7  A    between atoms: CG   and  CD  
ROOT
ATOM     14  CA  GLU D 570     -18.033  -6.348 -13.375  1.00 32.92     0.160 C 
ENDROOT
BRANCH  14  15
ATOM     15  CB  GLU D 570     -19.500  -6.345 -13.794  1.00 32.92     0.043 C 
BRANCH  15  16
ATOM     16  CG  GLU D 570     -20.446  -5.548 -12.970  1.00 32.92     0.100 C 
BRANCH  16  17
ATOM     17  CD  GLU D 570     -21.675  -5.117 -13.735  1.00 32.92     0.185 C 
ATOM     18  OE1 GLU D 570     -22.726  -4.881 -13.109  1.00 32.92    -0.647 OA
ATOM     19  OE2 GLU D 570     -21.591  -5.031 -14.976  1.00 32.92    -0.647 OA
ENDBRANCH  16  17
ENDBRANCH  15  16
ENDBRANCH  14  15
END_RES GLU D 570
ENDMDL
MODEL 5
REMARK VINA RESULT:      -9.0      1.543      1.998
REMARK  16 active torsions:
REMARK  status: ('A' for Active; 'I' for Inactive)
REMARK    1  A    between atoms: CB_2  and  CA_4 
REMARK    2  A    between atoms: CA_4  and  C_5 
REMARK    3  A    between atoms: CA_4  and  N_7 
REMARK       I    between atoms: C_5  and  N_9 
REMARK       I    between atoms: N_7  and  C_43 
REMARK    4  A    between atoms: N_9  and  CA_10 
REMARK    5  A    between atoms: CA_10  and  C_12 
REMARK       I    between atoms: C_12  and  N_15 
REMARK    6  A    between atoms: CA_19  and  C_20 
REMARK       I    between atoms: C_20  and  N_22 
REMARK    7  A    between atoms: N_22  and  CA_23 
REMARK    8  A    between atoms: CA_23  and  CB_24 
REMARK    9  A    between atoms: CA_23  and  C_31 
REMARK   10  A    between atoms: CB_24  and  CG_25 
REMARK       I    between atoms: C_31  and  N_34 
REMARK   11  A    between atoms: CA_38  and  C_39 
REMARK   12  A    between atoms: C_39  and  OXT_41 
REMARK   13  A    between atoms: C_43  and  CA_45 
REMARK   14  A    between atoms: CA_45  and  CB_46 
REMARK   15  A    between atoms: CA_45  and  N_53 
REMARK   16  A    between atoms: CB_46  and  CG_47 
ROOT
ATOM      1  C   ALA A   3     -19.572 -12.394  -6.003  1.00  0.00     0.238 C 
ATOM      2  O   ALA A   3     -18.753 -12.054  -6.865  1.00  0.00    -0.272 OA
ATOM      3  N   PRO A   4     -19.334 -13.521  -5.204  1.00  0.00    -0.337 N 
ATOM      4  CD  PRO A   4     -18.098 -14.267  -5.364  1.00  0.00     0.127 C 
ATOM      5  CG  PRO A   4     -18.539 -15.718  -5.357  1.00  0.00     0.022 C 
ATOM      6  CB  PRO A   4     -19.674 -15.739  -4.348  1.00  0.00     0.037 C 
ATOM      7  CA  PRO A   4     -20.253 -14.300  -4.345  1.00  0.00     0.179 C 
ENDROOT
BRANCH   1   8
ATOM      8  CA  ALA A   3     -20.850 -11.531  -5.779  1.00  0.00     0.151 C 
ATOM      9  CB  ALA A   3     -22.026 -11.901  -6.684  1.00  0.00     0.036 C 
BRANCH   8  10
ATOM     10  N   ALA A   3     -20.600 -10.048  -5.866  1.00  0.00    -0.248 NA
ATOM     11  C   VAL A   2     -20.169  -9.326  -4.765  1.00  0.00     0.221 C 
ATOM     12  O   VAL A   2     -19.791  -9.921  -3.749  1.00  0.00    -0.278 OA
ATOM     13  H   ALA A   3     -21.374  -9.558  -6.316  1.00  0.00     0.131 HD
BRANCH  11  14
ATOM     14  CA  VAL A   2     -20.277  -7.724  -4.797  1.00  0.00     0.174 C 
BRANCH  14  15
ATOM     15  CB  VAL A   2     -21.528  -7.354  -3.805  1.00  0.00     0.009 C 
ATOM     16  CG1 VAL A   2     -21.285  -6.508  -2.532  1.00  0.00     0.012 C 
ATOM     17  CG2 VAL A   2     -22.768  -6.841  -4.537  1.00  0.00     0.012 C 
ENDBRANCH  14  15
BRANCH  14  18
ATOM     18  N   VAL A   2     -20.448  -7.001  -6.237  1.00  0.00    -0.346 N 
ATOM     19  C   PHE A   1     -20.238  -5.661  -6.553  1.00  0.00     0.251 C 
ATOM     20  O   PHE A   1     -19.952  -4.943  -5.603  1.00  0.00    -0.271 OA
ATOM     21  H   VAL A   2     -21.138  -7.431  -6.838  1.00  0.00     0.163 HD
BRANCH  19  22
ATOM     22  CA  PHE A   1     -20.307  -4.904  -8.004  1.00  0.00     0.313 C 
BRANCH  22  23
ATOM     23  CB  PHE A   1     -21.781  -4.335  -8.276  1.00  0.00     0.083 C 
BRANCH  23  24
ATOM     24  CG  PHE A   1     -22.272  -4.196  -9.698  1.00  0.00    -0.056 A 
ATOM     25  CD1 PHE A   1     -23.571  -3.737  -9.872  1.00  0.00     0.007 A 
ATOM     26  CE1 PHE A   1     -24.087  -3.517 -11.145  1.00  0.00     0.001 A 
ATOM     27  CZ  PHE A   1     -23.312  -3.774 -12.273  1.00  0.00     0.000 A 
ATOM     28  CE2 PHE A   1     -22.000  -4.216 -12.118  1.00  0.00     0.001 A 
ATOM     29  CD2 PHE A   1     -21.479  -4.423 -10.832  1.00  0.00     0.007 A 
ENDBRANCH  23  24
ENDBRANCH  22  23
BRANCH  22  30
ATOM     30  N   PHE A   1     -19.277  -3.874  -8.276  1.00  0.00     0.092 N 
ATOM     31  H1  PHE A   1     -19.110  -3.785  -9.283  1.00  0.00     0.313 HD
ATOM     32  H2  PHE A   1     -18.373  -4.298  -8.011  1.00  0.00     0.313 HD
ENDBRANCH  22  30
ENDBRANCH  19  22
ENDBRANCH  14  18
ENDBRANCH  11  14
ENDBRANCH   8  10
ENDBRANCH   1   8
BRANCH   7  33
ATOM     33  C   PRO A   4     -20.368 -13.928  -2.849  1.00  0.00     0.241 C 
ATOM     34  O   PRO A   4     -21.001 -14.650  -2.071  1.00  0.00    -0.271 OA
ATOM     35  N   PHE A   5     -19.656 -12.840  -2.389  1.00  0.00    -0.346 N 
ATOM     36  H   PHE A   5     -19.285 -12.193  -3.091  1.00  0.00     0.163 HD
BRANCH  35  37
ATOM     37  CA  PHE A   5     -19.911 -12.360  -1.026  1.00  0.00     0.181 C 
BRANCH  37  38
ATOM     38  CB  PHE A   5     -21.345 -12.103  -0.617  1.00  0.00     0.073 C 
BRANCH  38  39
ATOM     39  CG  PHE A   5     -21.567 -10.745  -0.039  1.00  0.00    -0.056 A 
ATOM     40  CD1 PHE A   5     -20.731 -10.251   0.969  1.00  0.00     0.007 A 
ATOM     41  CE1 PHE A   5     -20.906  -8.956   1.438  1.00  0.00     0.001 A 
ATOM     42  CZ  PHE A   5     -21.917  -8.164   0.902  1.00  0.00     0.000 A 
ATOM     43  CE2 PHE A   5     -22.825  -8.694  -0.015  1.00  0.00     0.001 A 
ATOM     44  CD2 PHE A   5     -22.647  -9.987  -0.488  1.00  0.00     0.007 A 
ENDBRANCH  38  39
ENDBRANCH  37  38
BRANCH  37  45
ATOM     45  C   PHE A   5     -19.187 -13.184   0.062  1.00  0.00     0.243 C 
ATOM     46  O   PHE A   5     -19.678 -14.170   0.618  1.00  0.00    -0.271 OA
ATOM     47  N   PRO A   6     -17.882 -12.821   0.297  1.00  0.00    -0.336 N 
ATOM     48  CD  PRO A   6     -17.045 -13.624   1.128  1.00  0.00     0.127 C 
ATOM     49  CA  PRO A   6     -17.123 -11.765  -0.376  1.00  0.00     0.185 C 
ATOM     50  CG  PRO A   6     -15.879 -12.801   1.494  1.00  0.00     0.022 C 
ATOM     51  CB  PRO A   6     -15.789 -11.842   0.325  1.00  0.00     0.038 C 
BRANCH  49  52
ATOM     52  C   PRO A   6     -16.893 -12.008  -1.877  1.00  0.00     0.163 C 
ATOM     53  O   PRO A   6     -16.546 -13.028  -2.415  1.00  0.00    -0.648 OA
BRANCH  52  54
ATOM     54  OXT PRO A   6     -17.172 -10.920  -2.598  1.00  0.00    -0.775 OA
ATOM     55  HXT PRO A   6     -16.869 -10.878  -3.527  1.00  0.00     0.167 HD
ENDBRANCH  52  54
ENDBRANCH  49  52
ENDBRANCH  37  45
ENDBRANCH  35  37
ENDBRANCH   7  33
TORSDOF 16
BEGIN_RES ARG D 557
REMARK  4 active torsions:
REMARK  status: ('A' for Active; 'I' for Inactive)
REMARK    1  A    between atoms: CA   and  CB  
REMARK    2  A    between atoms: CB   and  CG  
REMARK    3  A    between atoms: CG   and  CD  
REMARK    4  A    between atoms: CD   and  NE  
REMARK       I    between atoms: NE   and  CZ  
REMARK       I    between atoms: CZ   and  NH1 
REMARK       I    between atoms: CZ   and  NH2 
ROOT
ATOM      1  CA  ARG D 557     -26.217   2.705 -17.014  1.00 35.49     0.159 C 
ENDROOT
BRANCH   1   2
ATOM      2  CB  ARG D 557     -26.789   1.319 -17.183  1.00 35.49     0.034 C 
BRANCH   2   3
ATOM      3  CG  ARG D 557     -28.216   1.229 -17.514  1.00 35.49     0.027 C 
BRANCH   3   4
ATOM      4  CD  ARG D 557     -28.960   0.362 -16.571  1.00 35.49     0.116 C 
BRANCH   4   5
ATOM      5  NE  ARG D 557     -29.295  -0.910 -17.154  1.00 35.49    -0.212 N 
ATOM      6  CZ  ARG D 557     -28.615  -2.025 -17.007  1.00 35.49     0.666 C 
ATOM      7  NH1 ARG D 557     -27.505  -2.090 -16.295  1.00 35.49    -0.235 N 
ATOM      8  NH2 ARG D 557     -29.077  -3.092 -17.591  1.00 35.49    -0.235 N 
ATOM      9  HH  ARG D 557     -27.184  -1.401 -15.900  1.00 35.49     0.174 HD
ATOM     10  HH  ARG D 557     -27.105  -2.845 -16.232  1.00 35.49     0.174 HD
ATOM     11  HH  ARG D 557     -29.800  -3.022 -18.039  1.00 35.49     0.174 HD
ATOM     12  HH  ARG D 557     -28.668  -3.831 -17.516  1.00 35.49     0.174 HD
ATOM     13  HE  ARG D 557     -29.956  -0.944 -17.688  1.00 35.49     0.178 HD
ENDBRANCH   4   5
ENDBRANCH   3   4
ENDBRANCH   2   3
ENDBRANCH   1   2
END_RES ARG D 557
BEGIN_RES GLU D 570
REMARK  3 active torsions:
REMARK  status: ('A' for Active; 'I' for Inactive)
REMARK    5  A    between atoms: CA   and  CB  
REMARK    6  A    between atoms: CB   and  CG  
REMARK    7  A    between atoms: CG   and  CD  
ROOT
ATOM     14  CA  GLU D 570     -18.033  -6.348 -13.375  1.00 32.92     0.160 C 
ENDROOT
BRANCH  14  15
ATOM     15  CB  GLU D 570     -19.500  -6.345 -13.794  1.00 32.92     0.043 C 
BRANCH  15  16
ATOM     16  CG  GLU D 570     -19.810  -5.968 -15.197  1.00 32.92     0.100 C 
BRANCH  16  17
ATOM     17  CD  GLU D 570     -21.288  -5.772 -15.442  1.00 32.92     0.185 C 
ATOM     18  OE1 GLU D 570     -21.687  -4.684 -15.899  1.00 32.92    -0.647 OA
ATOM     19  OE2 GLU D 570     -22.058  -6.711 -15.157  1.00 32.92    -0.647 OA
ENDBRANCH  16  17
ENDBRANCH  15  16
ENDBRANCH  14  15
END_RES GLU D 570
ENDMDL
MODEL 6
REMARK VINA RESULT:      -8.9      2.330      3.998
REMARK  16 active torsions:
REMARK  status: ('A' for Active; 'I' for Inactive)
REMARK    1  A    between atoms: CB_2  and  CA_4 
REMARK    2  A    between atoms: CA_4  and  C_5 
REMARK    3  A    between atoms: CA_4  and  N_7 
REMARK       I    between atoms: C_5  and  N_9 
REMARK       I    between atoms: N_7  and  C_43 
REMARK    4  A    between atoms: N_9  and  CA_10 
REMARK    5  A    between atoms: CA_10  and  C_12 
REMARK       I    between atoms: C_12  and  N_15 
REMARK    6  A    between atoms: CA_19  and  C_20 
REMARK       I    between atoms: C_20  and  N_22 
REMARK    7  A    between atoms: N_22  and  CA_23 
REMARK    8  A    between atoms: CA_23  and  CB_24 
REMARK    9  A    between atoms: CA_23  and  C_31 
REMARK   10  A    between atoms: CB_24  and  CG_25 
REMARK       I    between atoms: C_31  and  N_34 
REMARK   11  A    between atoms: CA_38  and  C_39 
REMARK   12  A    between atoms: C_39  and  OXT_41 
REMARK   13  A    between atoms: C_43  and  CA_45 
REMARK   14  A    between atoms: CA_45  and  CB_46 
REMARK   15  A    between atoms: CA_45  and  N_53 
REMARK   16  A    between atoms: CB_46  and  CG_47 
ROOT
ATOM      1  C   ALA A   3     -16.767 -10.323  -3.408  1.00  0.00     0.238 C 
ATOM      2  O   ALA A   3     -15.822  -9.535  -3.276  1.00  0.00    -0.272 OA
ATOM      3  N   PRO A   4     -16.917 -11.403  -2.527  1.00  0.00    -0.337 N 
ATOM      4  CD  PRO A   4     -15.980 -11.572  -1.430  1.00  0.00     0.127 C 
ATOM      5  CG  PRO A   4     -15.654 -13.053  -1.449  1.00  0.00     0.022 C 
ATOM      6  CB  PRO A   4     -16.972 -13.702  -1.834  1.00  0.00     0.037 C 
ATOM      7  CA  PRO A   4     -17.744 -12.625  -2.641  1.00  0.00     0.179 C 
ENDROOT
BRANCH   1   8
ATOM      8  CA  ALA A   3     -17.817 -10.077  -4.532  1.00  0.00     0.151 C 
ATOM      9  CB  ALA A   3     -17.282 -10.281  -5.950  1.00  0.00     0.036 C 
BRANCH   8  10
ATOM     10  N   ALA A   3     -18.495  -8.734  -4.443  1.00  0.00    -0.248 NA
ATOM     11  C   VAL A   2     -19.849  -8.593  -4.699  1.00  0.00     0.221 C 
ATOM     12  O   VAL A   2     -20.561  -9.599  -4.808  1.00  0.00    -0.278 OA
ATOM     13  H   ALA A   3     -17.975  -8.012  -4.944  1.00  0.00     0.131 HD
BRANCH  11  14
ATOM     14  CA  VAL A   2     -20.441  -7.124  -4.959  1.00  0.00     0.174 C 
BRANCH  14  15
ATOM     15  CB  VAL A   2     -21.832  -7.058  -4.097  1.00  0.00     0.009 C 
ATOM     16  CG1 VAL A   2     -21.847  -6.401  -2.696  1.00  0.00     0.012 C 
ATOM     17  CG2 VAL A   2     -23.039  -6.581  -4.904  1.00  0.00     0.012 C 
ENDBRANCH  14  15
BRANCH  14  18
ATOM     18  N   VAL A   2     -20.690  -6.664  -6.493  1.00  0.00    -0.346 N 
ATOM     19  C   PHE A   1     -20.550  -5.391  -7.039  1.00  0.00     0.251 C 
ATOM     20  O   PHE A   1     -20.266  -4.511  -6.236  1.00  0.00    -0.271 OA
ATOM     21  H   VAL A   2     -21.380  -7.216  -6.986  1.00  0.00     0.163 HD
BRANCH  19  22
ATOM     22  CA  PHE A   1     -20.699  -4.896  -8.594  1.00  0.00     0.313 C 
BRANCH  22  23
ATOM     23  CB  PHE A   1     -22.245  -4.762  -8.999  1.00  0.00     0.083 C 
BRANCH  23  24
ATOM     24  CG  PHE A   1     -22.609  -4.272 -10.380  1.00  0.00    -0.056 A 
ATOM     25  CD1 PHE A   1     -23.776  -3.527 -10.496  1.00  0.00     0.007 A 
ATOM     26  CE1 PHE A   1     -24.158  -2.981 -11.717  1.00  0.00     0.001 A 
ATOM     27  CZ  PHE A   1     -23.383  -3.191 -12.855  1.00  0.00     0.000 A 
ATOM     28  CE2 PHE A   1     -22.200  -3.920 -12.756  1.00  0.00     0.001 A 
ATOM     29  CD2 PHE A   1     -21.811  -4.457 -11.518  1.00  0.00     0.007 A 
ENDBRANCH  23  24
ENDBRANCH  22  23
BRANCH  22  30
ATOM     30  N   PHE A   1     -19.935  -3.690  -8.993  1.00  0.00     0.092 N 
ATOM     31  H1  PHE A   1     -19.350  -3.886  -9.811  1.00  0.00     0.313 HD
ATOM     32  H2  PHE A   1     -19.182  -3.586  -8.293  1.00  0.00     0.313 HD
ENDBRANCH  22  30
ENDBRANCH  19  22
ENDBRANCH  14  18
ENDBRANCH  11  14
ENDBRANCH   8  10
ENDBRANCH   1   8
BRANCH   7  33
ATOM     33  C   PRO A   4     -19.164 -12.622  -2.028  1.00  0.00     0.241 C 
ATOM     34  O   PRO A   4     -19.364 -13.107  -0.910  1.00  0.00    -0.271 OA
ATOM     35  N   PHE A   5     -20.169 -11.968  -2.710  1.00  0.00    -0.346 N 
ATOM     36  H   PHE A   5     -19.991 -11.730  -3.689  1.00  0.00     0.163 HD
BRANCH  35  37
ATOM     37  CA  PHE A   5     -21.552 -12.128  -2.244  1.00  0.00     0.181 C 
BRANCH  37  38
ATOM     38  CB  PHE A   5     -22.471 -10.927  -2.314  1.00  0.00     0.073 C 
BRANCH  38  39
ATOM     39  CG  PHE A   5     -22.302  -9.980  -1.174  1.00  0.00    -0.056 A 
ATOM     40  CD1 PHE A   5     -21.046  -9.440  -0.870  1.00  0.00     0.007 A 
ATOM     41  CE1 PHE A   5     -20.926  -8.501   0.145  1.00  0.00     0.001 A 
ATOM     42  CZ  PHE A   5     -22.058  -8.108   0.854  1.00  0.00     0.000 A 
ATOM     43  CE2 PHE A   5     -23.286  -8.732   0.633  1.00  0.00     0.001 A 
ATOM     44  CD2 PHE A   5     -23.408  -9.667  -0.385  1.00  0.00     0.007 A 
ENDBRANCH  38  39
ENDBRANCH  37  38
BRANCH  37  45
ATOM     45  C   PHE A   5     -22.257 -13.373  -2.826  1.00  0.00     0.243 C 
ATOM     46  O   PHE A   5     -22.000 -13.854  -3.933  1.00  0.00    -0.271 OA
ATOM     47  N   PRO A   6     -23.127 -14.004  -1.969  1.00  0.00    -0.336 N 
ATOM     48  CD  PRO A   6     -23.688 -15.270  -2.311  1.00  0.00     0.127 C 
ATOM     49  CA  PRO A   6     -23.434 -13.631  -0.587  1.00  0.00     0.185 C 
ATOM     50  CG  PRO A   6     -24.838 -15.492  -1.415  1.00  0.00     0.022 C 
ATOM     51  CB  PRO A   6     -24.453 -14.675  -0.199  1.00  0.00     0.038 C 
BRANCH  49  52
ATOM     52  C   PRO A   6     -22.241 -13.742   0.378  1.00  0.00     0.163 C 
ATOM     53  O   PRO A   6     -21.927 -12.978   1.254  1.00  0.00    -0.648 OA
BRANCH  52  54
ATOM     54  OXT PRO A   6     -21.552 -14.867   0.179  1.00  0.00    -0.775 OA
ATOM     55  HXT PRO A   6     -20.605 -14.806  -0.060  1.00  0.00     0.167 HD
ENDBRANCH  52  54
ENDBRANCH  49  52
ENDBRANCH  37  45
ENDBRANCH  35  37
ENDBRANCH   7  33
TORSDOF 16
BEGIN_RES ARG D 557
REMARK  4 active torsions:
REMARK  status: ('A' for Active; 'I' for Inactive)
REMARK    1  A    between atoms: CA   and  CB  
REMARK    2  A    between atoms: CB   and  CG  
REMARK    3  A    between atoms: CG   and  CD  
REMARK    4  A    between atoms: CD   and  NE  
REMARK       I    between atoms: NE   and  CZ  
REMARK       I    between atoms: CZ   and  NH1 
REMARK       I    between atoms: CZ   and  NH2 
ROOT
ATOM      1  CA  ARG D 557     -26.217   2.705 -17.014  1.00 35.49     0.159 C 
ENDROOT
BRANCH   1   2
ATOM      2  CB  ARG D 557     -26.789   1.319 -17.183  1.00 35.49     0.034 C 
BRANCH   2   3
ATOM      3  CG  ARG D 557     -26.189   0.253 -16.372  1.00 35.49     0.027 C 
BRANCH   3   4
ATOM      4  CD  ARG D 557     -27.113  -0.884 -16.161  1.00 35.49     0.116 C 
BRANCH   4   5
ATOM      5  NE  ARG D 557     -26.461  -2.005 -15.537  1.00 35.49    -0.212 N 
ATOM      6  CZ  ARG D 557     -26.797  -3.267 -15.682  1.00 35.49     0.666 C 
ATOM      7  NH1 ARG D 557     -27.814  -3.649 -16.432  1.00 35.49    -0.235 N 
ATOM      8  NH2 ARG D 557     -26.079  -4.155 -15.057  1.00 35.49    -0.235 N 
ATOM      9  HH  ARG D 557     -28.299  -3.082 -16.853  1.00 35.49     0.174 HD
ATOM     10  HH  ARG D 557     -27.985  -4.487 -16.491  1.00 35.49     0.174 HD
ATOM     11  HH  ARG D 557     -25.423  -3.880 -14.586  1.00 35.49     0.174 HD
ATOM     12  HH  ARG D 557     -26.263  -4.980 -15.130  1.00 35.49     0.174 HD
ATOM     13  HE  ARG D 557     -25.839  -1.846 -14.979  1.00 35.49     0.178 HD
ENDBRANCH   4   5
ENDBRANCH   3   4
ENDBRANCH   2   3
ENDBRANCH   1   2
END_RES ARG D 557
BEGIN_RES GLU D 570
REMARK  3 active torsions:
REMARK  status: ('A' for Active; 'I' for Inactive)
REMARK    5  A    between atoms: CA   and  CB  
REMARK    6  A    between atoms: CB   and  CG  
REMARK    7  A    between atoms: CG   and  CD  
ROOT
ATOM     14  CA  GLU D 570     -18.033  -6.348 -13.375  1.00 32.92     0.160 C 
ENDROOT
BRANCH  14  15
ATOM     15  CB  GLU D 570     -19.500  -6.345 -13.794  1.00 32.92     0.043 C 
BRANCH  15  16
ATOM     16  CG  GLU D 570     -19.801  -6.123 -15.232  1.00 32.92     0.100 C 
BRANCH  16  17
ATOM     17  CD  GLU D 570     -21.267  -5.872 -15.496  1.00 32.92     0.185 C 
ATOM     18  OE1 GLU D 570     -22.107  -6.687 -15.068  1.00 32.92    -0.647 OA
ATOM     19  OE2 GLU D 570     -21.578  -4.858 -16.151  1.00 32.92    -0.647 OA
ENDBRANCH  16  17
ENDBRANCH  15  16
ENDBRANCH  14  15
END_RES GLU D 570
ENDMDL
MODEL 7
REMARK VINA RESULT:      -8.9      2.417      5.310
REMARK  16 active torsions:
REMARK  status: ('A' for Active; 'I' for Inactive)
REMARK    1  A    between atoms: CB_2  and  CA_4 
REMARK    2  A    between atoms: CA_4  and  C_5 
REMARK    3  A    between atoms: CA_4  and  N_7 
REMARK       I    between atoms: C_5  and  N_9 
REMARK       I    between atoms: N_7  and  C_43 
REMARK    4  A    between atoms: N_9  and  CA_10 
REMARK    5  A    between atoms: CA_10  and  C_12 
REMARK       I    between atoms: C_12  and  N_15 
REMARK    6  A    between atoms: CA_19  and  C_20 
REMARK       I    between atoms: C_20  and  N_22 
REMARK    7  A    between atoms: N_22  and  CA_23 
REMARK    8  A    between atoms: CA_23  and  CB_24 
REMARK    9  A    between atoms: CA_23  and  C_31 
REMARK   10  A    between atoms: CB_24  and  CG_25 
REMARK       I    between atoms: C_31  and  N_34 
REMARK   11  A    between atoms: CA_38  and  C_39 
REMARK   12  A    between atoms: C_39  and  OXT_41 
REMARK   13  A    between atoms: C_43  and  CA_45 
REMARK   14  A    between atoms: CA_45  and  CB_46 
REMARK   15  A    between atoms: CA_45  and  N_53 
REMARK   16  A    between atoms: CB_46  and  CG_47 
ROOT
ATOM      1  C   ALA A   3     -16.005 -12.137  -0.956  1.00  0.00     0.238 C 
ATOM      2  O   ALA A   3     -15.203 -11.231  -0.697  1.00  0.00    -0.272 OA
ATOM      3  N   PRO A   4     -16.672 -12.809   0.076  1.00  0.00    -0.337 N 
ATOM      4  CD  PRO A   4     -16.449 -12.411   1.456  1.00  0.00     0.127 C 
ATOM      5  CG  PRO A   4     -16.279 -13.723   2.196  1.00  0.00     0.022 C 
ATOM      6  CB  PRO A   4     -17.258 -14.653   1.500  1.00  0.00     0.037 C 
ATOM      7  CA  PRO A   4     -17.417 -14.088   0.064  1.00  0.00     0.179 C 
ENDROOT
BRANCH   1   8
ATOM      8  CA  ALA A   3     -16.304 -12.491  -2.444  1.00  0.00     0.151 C 
ATOM      9  CB  ALA A   3     -15.078 -12.931  -3.245  1.00  0.00     0.036 C 
BRANCH   8  10
ATOM     10  N   ALA A   3     -17.024 -11.400  -3.193  1.00  0.00    -0.248 NA
ATOM     11  C   VAL A   2     -17.966 -11.696  -4.164  1.00  0.00     0.221 C 
ATOM     12  O   VAL A   2     -18.375 -12.857  -4.290  1.00  0.00    -0.278 OA
ATOM     13  H   ALA A   3     -16.380 -10.692  -3.545  1.00  0.00     0.131 HD
BRANCH  11  14
ATOM     14  CA  VAL A   2     -18.423 -10.541  -5.180  1.00  0.00     0.174 C 
BRANCH  14  15
ATOM     15  CB  VAL A   2     -17.122 -10.265  -6.137  1.00  0.00     0.009 C 
ATOM     16  CG1 VAL A   2     -15.975  -9.350  -5.645  1.00  0.00     0.012 C 
ATOM     17  CG2 VAL A   2     -16.540 -11.528  -6.771  1.00  0.00     0.012 C 
ENDBRANCH  14  15
BRANCH  14  18
ATOM     18  N   VAL A   2     -18.985  -9.156  -4.555  1.00  0.00    -0.346 N 
ATOM     19  C   PHE A   1     -20.195  -8.523  -4.824  1.00  0.00     0.251 C 
ATOM     20  O   PHE A   1     -20.879  -9.057  -5.688  1.00  0.00    -0.271 OA
ATOM     21  H   VAL A   2     -18.264  -8.499  -4.285  1.00  0.00     0.163 HD
BRANCH  19  22
ATOM     22  CA  PHE A   1     -20.845  -7.177  -4.153  1.00  0.00     0.313 C 
BRANCH  22  23
ATOM     23  CB  PHE A   1     -21.845  -6.459  -5.181  1.00  0.00     0.083 C 
BRANCH  23  24
ATOM     24  CG  PHE A   1     -21.286  -5.525  -6.228  1.00  0.00    -0.056 A 
ATOM     25  CD1 PHE A   1     -19.903  -5.412  -6.296  1.00  0.00     0.007 A 
ATOM     26  CE1 PHE A   1     -19.297  -4.626  -7.270  1.00  0.00     0.001 A 
ATOM     27  CZ  PHE A   1     -20.071  -3.919  -8.186  1.00  0.00     0.000 A 
ATOM     28  CE2 PHE A   1     -21.458  -4.034  -8.147  1.00  0.00     0.001 A 
ATOM     29  CD2 PHE A   1     -22.066  -4.840  -7.171  1.00  0.00     0.007 A 
ENDBRANCH  23  24
ENDBRANCH  22  23
BRANCH  22  30
ATOM     30  N   PHE A   1     -21.467  -7.324  -2.816  1.00  0.00     0.092 N 
ATOM     31  H1  PHE A   1     -21.231  -6.528  -2.216  1.00  0.00     0.313 HD
ATOM     32  H2  PHE A   1     -20.919  -8.049  -2.324  1.00  0.00     0.313 HD
ENDBRANCH  22  30
ENDBRANCH  19  22
ENDBRANCH  14  18
ENDBRANCH  11  14
ENDBRANCH   8  10
ENDBRANCH   1   8
BRANCH   7  33
ATOM     33  C   PRO A   4     -18.944 -14.057  -0.176  1.00  0.00     0.241 C 
ATOM     34  O   PRO A   4     -19.638 -15.047   0.076  1.00  0.00    -0.271 OA
ATOM     35  N   PHE A   5     -19.520 -12.866  -0.569  1.00  0.00    -0.346 N 
ATOM     36  H   PHE A   5     -18.893 -12.135  -0.915  1.00  0.00     0.163 HD
BRANCH  35  37
ATOM     37  CA  PHE A   5     -20.926 -12.872  -0.991  1.00  0.00     0.181 C 
BRANCH  37  38
ATOM     38  CB  PHE A   5     -21.977 -12.479   0.026  1.00  0.00     0.073 C 
BRANCH  38  39
ATOM     39  CG  PHE A   5     -22.006 -11.016   0.318  1.00  0.00    -0.056 A 
ATOM     40  CD1 PHE A   5     -20.950 -10.401   1.000  1.00  0.00     0.007 A 
ATOM     41  CE1 PHE A   5     -20.960  -9.026   1.192  1.00  0.00     0.001 A 
ATOM     42  CZ  PHE A   5     -22.026  -8.274   0.707  1.00  0.00     0.000 A 
ATOM     43  CE2 PHE A   5     -23.134  -8.899   0.134  1.00  0.00     0.001 A 
ATOM     44  CD2 PHE A   5     -23.122 -10.273  -0.064  1.00  0.00     0.007 A 
ENDBRANCH  38  39
ENDBRANCH  37  38
BRANCH  37  45
ATOM     45  C   PHE A   5     -21.171 -12.132  -2.324  1.00  0.00     0.243 C 
ATOM     46  O   PHE A   5     -20.739 -11.003  -2.573  1.00  0.00    -0.271 OA
ATOM     47  N   PRO A   6     -21.814 -12.868  -3.290  1.00  0.00    -0.336 N 
ATOM     48  CD  PRO A   6     -21.923 -12.373  -4.624  1.00  0.00     0.127 C 
ATOM     49  CA  PRO A   6     -22.265 -14.257  -3.189  1.00  0.00     0.185 C 
ATOM     50  CG  PRO A   6     -22.964 -13.169  -5.299  1.00  0.00     0.022 C 
ATOM     51  CB  PRO A   6     -22.902 -14.479  -4.540  1.00  0.00     0.038 C 
BRANCH  49  52
ATOM     52  C   PRO A   6     -21.131 -15.281  -3.018  1.00  0.00     0.163 C 
ATOM     53  O   PRO A   6     -20.095 -15.345  -3.629  1.00  0.00    -0.648 OA
BRANCH  52  54
ATOM     54  OXT PRO A   6     -21.389 -16.138  -2.028  1.00  0.00    -0.775 OA
ATOM     55  HXT PRO A   6     -21.626 -15.785  -1.147  1.00  0.00     0.167 HD
ENDBRANCH  52  54
ENDBRANCH  49  52
ENDBRANCH  37  45
ENDBRANCH  35  37
ENDBRANCH   7  33
TORSDOF 16
BEGIN_RES ARG D 557
REMARK  4 active torsions:
REMARK  status: ('A' for Active; 'I' for Inactive)
REMARK    1  A    between atoms: CA   and  CB  
REMARK    2  A    between atoms: CB   and  CG  
REMARK    3  A    between atoms: CG   and  CD  
REMARK    4  A    between atoms: CD   and  NE  
REMARK       I    between atoms: NE   and  CZ  
REMARK       I    between atoms: CZ   and  NH1 
REMARK       I    between atoms: CZ   and  NH2 
ROOT
ATOM      1  CA  ARG D 557     -26.217   2.705 -17.014  1.00 35.49     0.159 C 
ENDROOT
BRANCH   1   2
ATOM      2  CB  ARG D 557     -26.789   1.319 -17.183  1.00 35.49     0.034 C 
BRANCH   2   3
ATOM      3  CG  ARG D 557     -25.837   0.203 -17.149  1.00 35.49     0.027 C 
BRANCH   3   4
ATOM      4  CD  ARG D 557     -24.763   0.407 -16.150  1.00 35.49     0.116 C 
BRANCH   4   5
ATOM      5  NE  ARG D 557     -24.918  -0.449 -15.004  1.00 35.49    -0.212 N 
ATOM      6  CZ  ARG D 557     -24.109  -1.426 -14.659  1.00 35.49     0.666 C 
ATOM      7  NH1 ARG D 557     -23.039  -1.742 -15.364  1.00 35.49    -0.235 N 
ATOM      8  NH2 ARG D 557     -24.394  -2.086 -13.574  1.00 35.49    -0.235 N 
ATOM      9  HH  ARG D 557     -22.831  -1.319 -16.080  1.00 35.49     0.174 HD
ATOM     10  HH  ARG D 557     -22.546  -2.387 -15.089  1.00 35.49     0.174 HD
ATOM     11  HH  ARG D 557     -25.088  -1.855 -13.135  1.00 35.49     0.174 HD
ATOM     12  HH  ARG D 557     -23.893  -2.721 -13.318  1.00 35.49     0.174 HD
ATOM     13  HE  ARG D 557     -25.622  -0.363 -14.533  1.00 35.49     0.178 HD
ENDBRANCH   4   5
ENDBRANCH   3   4
ENDBRANCH   2   3
ENDBRANCH   1   2
END_RES ARG D 557
BEGIN_RES GLU D 570
REMARK  3 active torsions:
REMARK  status: ('A' for Active; 'I' for Inactive)
REMARK    5  A    between atoms: CA   and  CB  
REMARK    6  A    between atoms: CB   and  CG  
REMARK    7  A    between atoms: CG   and  CD  
ROOT
ATOM     14  CA  GLU D 570     -18.033  -6.348 -13.375  1.00 32.92     0.160 C 
ENDROOT
BRANCH  14  15
ATOM     15  CB  GLU D 570     -19.500  -6.345 -13.794  1.00 32.92     0.043 C 
BRANCH  15  16
ATOM     16  CG  GLU D 570     -20.445  -5.544 -12.973  1.00 32.92     0.100 C 
BRANCH  16  17
ATOM     17  CD  GLU D 570     -21.706  -5.174 -13.719  1.00 32.92     0.185 C 
ATOM     18  OE1 GLU D 570     -22.090  -5.901 -14.655  1.00 32.92    -0.647 OA
ATOM     19  OE2 GLU D 570     -22.306  -4.138 -13.373  1.00 32.92    -0.647 OA
ENDBRANCH  16  17
ENDBRANCH  15  16
ENDBRANCH  14  15
END_RES GLU D 570
ENDMDL
MODEL 8
REMARK VINA RESULT:      -8.8      1.972      3.901
REMARK  16 active torsions:
REMARK  status: ('A' for Active; 'I' for Inactive)
REMARK    1  A    between atoms: CB_2  and  CA_4 
REMARK    2  A    between atoms: CA_4  and  C_5 
REMARK    3  A    between atoms: CA_4  and  N_7 
REMARK       I    between atoms: C_5  and  N_9 
REMARK       I    between atoms: N_7  and  C_43 
REMARK    4  A    between atoms: N_9  and  CA_10 
REMARK    5  A    between atoms: CA_10  and  C_12 
REMARK       I    between atoms: C_12  and  N_15 
REMARK    6  A    between atoms: CA_19  and  C_20 
REMARK       I    between atoms: C_20  and  N_22 
REMARK    7  A    between atoms: N_22  and  CA_23 
REMARK    8  A    between atoms: CA_23  and  CB_24 
REMARK    9  A    between atoms: CA_23  and  C_31 
REMARK   10  A    between atoms: CB_24  and  CG_25 
REMARK       I    between atoms: C_31  and  N_34 
REMARK   11  A    between atoms: CA_38  and  C_39 
REMARK   12  A    between atoms: C_39  and  OXT_41 
REMARK   13  A    between atoms: C_43  and  CA_45 
REMARK   14  A    between atoms: CA_45  and  CB_46 
REMARK   15  A    between atoms: CA_45  and  N_53 
REMARK   16  A    between atoms: CB_46  and  CG_47 
ROOT
ATOM      1  C   ALA A   3     -22.018 -12.592  -3.061  1.00  0.00     0.238 C 
ATOM      2  O   ALA A   3     -23.036 -13.281  -3.201  1.00  0.00    -0.272 OA
ATOM      3  N   PRO A   4     -21.260 -12.678  -1.885  1.00  0.00    -0.337 N 
ATOM      4  CD  PRO A   4     -21.654 -13.611  -0.843  1.00  0.00     0.127 C 
ATOM      5  CG  PRO A   4     -21.527 -12.809   0.438  1.00  0.00     0.022 C 
ATOM      6  CB  PRO A   4     -20.307 -11.937   0.192  1.00  0.00     0.037 C 
ATOM      7  CA  PRO A   4     -20.216 -11.776  -1.348  1.00  0.00     0.179 C 
ENDROOT
BRANCH   1   8
ATOM      8  CA  ALA A   3     -21.556 -11.664  -4.224  1.00  0.00     0.151 C 
ATOM      9  CB  ALA A   3     -20.225 -12.066  -4.861  1.00  0.00     0.036 C 
BRANCH   8  10
ATOM     10  N   ALA A   3     -21.509 -10.205  -3.851  1.00  0.00    -0.248 NA
ATOM     11  C   VAL A   2     -21.273  -9.227  -4.804  1.00  0.00     0.221 C 
ATOM     12  O   VAL A   2     -21.296  -9.521  -6.005  1.00  0.00    -0.278 OA
ATOM     13  H   ALA A   3     -20.918 -10.040  -3.036  1.00  0.00     0.131 HD
BRANCH  11  14
ATOM     14  CA  VAL A   2     -20.863  -7.753  -4.317  1.00  0.00     0.174 C 
BRANCH  14  15
ATOM     15  CB  VAL A   2     -21.287  -7.684  -2.736  1.00  0.00     0.009 C 
ATOM     16  CG1 VAL A   2     -20.276  -8.100  -1.642  1.00  0.00     0.012 C 
ATOM     17  CG2 VAL A   2     -21.974  -6.378  -2.336  1.00  0.00     0.012 C 
ENDBRANCH  14  15
BRANCH  14  18
ATOM     18  N   VAL A   2     -21.462  -6.488  -5.132  1.00  0.00    -0.346 N 
ATOM     19  C   PHE A   1     -21.074  -6.011  -6.382  1.00  0.00     0.251 C 
ATOM     20  O   PHE A   1     -20.120  -6.591  -6.884  1.00  0.00    -0.271 OA
ATOM     21  H   VAL A   2     -21.836  -5.754  -4.544  1.00  0.00     0.163 HD
BRANCH  19  22
ATOM     22  CA  PHE A   1     -21.708  -4.799  -7.284  1.00  0.00     0.313 C 
BRANCH  22  23
ATOM     23  CB  PHE A   1     -21.530  -5.105  -8.847  1.00  0.00     0.083 C 
BRANCH  23  24
ATOM     24  CG  PHE A   1     -22.298  -4.283  -9.855  1.00  0.00    -0.056 A 
ATOM     25  CD1 PHE A   1     -21.583  -3.321 -10.557  1.00  0.00     0.007 A 
ATOM     26  CE1 PHE A   1     -22.191  -2.560 -11.550  1.00  0.00     0.001 A 
ATOM     27  CZ  PHE A   1     -23.541  -2.737 -11.845  1.00  0.00     0.000 A 
ATOM     28  CE2 PHE A   1     -24.270  -3.709 -11.165  1.00  0.00     0.001 A 
ATOM     29  CD2 PHE A   1     -23.649  -4.485 -10.174  1.00  0.00     0.007 A 
ENDBRANCH  23  24
ENDBRANCH  22  23
BRANCH  22  30
ATOM     30  N   PHE A   1     -23.097  -4.385  -6.974  1.00  0.00     0.092 N 
ATOM     31  H1  PHE A   1     -23.724  -4.606  -7.754  1.00  0.00     0.313 HD
ATOM     32  H2  PHE A   1     -23.113  -3.355  -7.057  1.00  0.00     0.313 HD
ENDBRANCH  22  30
ENDBRANCH  19  22
ENDBRANCH  14  18
ENDBRANCH  11  14
ENDBRANCH   8  10
ENDBRANCH   1   8
BRANCH   7  33
ATOM     33  C   PRO A   4     -18.736 -12.070  -1.685  1.00  0.00     0.241 C 
ATOM     34  O   PRO A   4     -18.443 -12.925  -2.527  1.00  0.00    -0.271 OA
ATOM     35  N   PHE A   5     -17.765 -11.279  -1.106  1.00  0.00    -0.346 N 
ATOM     36  H   PHE A   5     -18.045 -10.705  -0.307  1.00  0.00     0.163 HD
BRANCH  35  37
ATOM     37  CA  PHE A   5     -16.358 -11.671  -1.258  1.00  0.00     0.181 C 
BRANCH  37  38
ATOM     38  CB  PHE A   5     -15.436 -10.740  -2.015  1.00  0.00     0.073 C 
BRANCH  38  39
ATOM     39  CG  PHE A   5     -15.608 -10.804  -3.496  1.00  0.00    -0.056 A 
ATOM     40  CD1 PHE A   5     -14.820 -11.662  -4.272  1.00  0.00     0.007 A 
ATOM     41  CE1 PHE A   5     -15.049 -11.765  -5.637  1.00  0.00     0.001 A 
ATOM     42  CZ  PHE A   5     -16.061 -11.007  -6.221  1.00  0.00     0.000 A 
ATOM     43  CE2 PHE A   5     -16.765 -10.065  -5.472  1.00  0.00     0.001 A 
ATOM     44  CD2 PHE A   5     -16.540  -9.966  -4.106  1.00  0.00     0.007 A 
ENDBRANCH  38  39
ENDBRANCH  37  38
BRANCH  37  45
ATOM     45  C   PHE A   5     -15.697 -12.115   0.066  1.00  0.00     0.243 C 
ATOM     46  O   PHE A   5     -15.953 -11.614   1.164  1.00  0.00    -0.271 OA
ATOM     47  N   PRO A   6     -14.873 -13.210  -0.033  1.00  0.00    -0.336 N 
ATOM     48  CD  PRO A   6     -14.361 -13.839   1.141  1.00  0.00     0.127 C 
ATOM     49  CA  PRO A   6     -14.577 -13.989  -1.236  1.00  0.00     0.185 C 
ATOM     50  CG  PRO A   6     -13.240 -14.699   0.720  1.00  0.00     0.022 C 
ATOM     51  CB  PRO A   6     -13.612 -15.025  -0.711  1.00  0.00     0.038 C 
BRANCH  49  52
ATOM     52  C   PRO A   6     -15.792 -14.722  -1.831  1.00  0.00     0.163 C 
ATOM     53  O   PRO A   6     -16.630 -15.358  -1.245  1.00  0.00    -0.648 OA
BRANCH  52  54
ATOM     54  OXT PRO A   6     -15.872 -14.547  -3.152  1.00  0.00    -0.775 OA
ATOM     55  HXT PRO A   6     -15.716 -15.312  -3.741  1.00  0.00     0.167 HD
ENDBRANCH  52  54
ENDBRANCH  49  52
ENDBRANCH  37  45
ENDBRANCH  35  37
ENDBRANCH   7  33
TORSDOF 16
BEGIN_RES ARG D 557
REMARK  4 active torsions:
REMARK  status: ('A' for Active; 'I' for Inactive)
REMARK    1  A    between atoms: CA   and  CB  
REMARK    2  A    between atoms: CB   and  CG  
REMARK    3  A    between atoms: CG   and  CD  
REMARK    4  A    between atoms: CD   and  NE  
REMARK       I    between atoms: NE   and  CZ  
REMARK       I    between atoms: CZ   and  NH1 
REMARK       I    between atoms: CZ   and  NH2 
ROOT
ATOM      1  CA  ARG D 557     -26.217   2.705 -17.014  1.00 35.49     0.159 C 
ENDROOT
BRANCH   1   2
ATOM      2  CB  ARG D 557     -26.789   1.319 -17.183  1.00 35.49     0.034 C 
BRANCH   2   3
ATOM      3  CG  ARG D 557     -28.243   1.181 -17.033  1.00 35.49     0.027 C 
BRANCH   3   4
ATOM      4  CD  ARG D 557     -28.661  -0.228 -16.851  1.00 35.49     0.116 C 
BRANCH   4   5
ATOM      5  NE  ARG D 557     -27.674  -0.998 -16.142  1.00 35.49    -0.212 N 
ATOM      6  CZ  ARG D 557     -27.529  -2.303 -16.202  1.00 35.49     0.666 C 
ATOM      7  NH1 ARG D 557     -28.313  -3.070 -16.938  1.00 35.49    -0.235 N 
ATOM      8  NH2 ARG D 557     -26.566  -2.833 -15.507  1.00 35.49    -0.235 N 
ATOM      9  HH  ARG D 557     -28.952  -2.742 -17.405  1.00 35.49     0.174 HD
ATOM     10  HH  ARG D 557     -28.169  -3.915 -16.941  1.00 35.49     0.174 HD
ATOM     11  HH  ARG D 557     -26.071  -2.313 -15.047  1.00 35.49     0.174 HD
ATOM     12  HH  ARG D 557     -26.439  -3.672 -15.524  1.00 35.49     0.174 HD
ATOM     13  HE  ARG D 557     -27.173  -0.592 -15.587  1.00 35.49     0.178 HD
ENDBRANCH   4   5
ENDBRANCH   3   4
ENDBRANCH   2   3
ENDBRANCH   1   2
END_RES ARG D 557
BEGIN_RES GLU D 570
REMARK  3 active torsions:
REMARK  status: ('A' for Active; 'I' for Inactive)
REMARK    5  A    between atoms: CA   and  CB  
REMARK    6  A    between atoms: CB   and  CG  
REMARK    7  A    between atoms: CG   and  CD  
ROOT
ATOM     14  CA  GLU D 570     -18.033  -6.348 -13.375  1.00 32.92     0.160 C 
ENDROOT
BRANCH  14  15
ATOM     15  CB  GLU D 570     -19.500  -6.345 -13.794  1.00 32.92     0.043 C 
BRANCH  15  16
ATOM     16  CG  GLU D 570     -20.414  -5.416 -13.081  1.00 32.92     0.100 C 
BRANCH  16  17
ATOM     17  CD  GLU D 570     -21.727  -5.212 -13.800  1.00 32.92     0.185 C 
ATOM     18  OE1 GLU D 570     -21.785  -4.389 -14.733  1.00 32.92    -0.647 OA
ATOM     19  OE2 GLU D 570     -22.713  -5.872 -13.415  1.00 32.92    -0.647 OA
ENDBRANCH  16  17
ENDBRANCH  15  16
ENDBRANCH  14  15
END_RES GLU D 570
ENDMDL
MODEL 9
REMARK VINA RESULT:      -8.7      2.678      4.553
REMARK  16 active torsions:
REMARK  status: ('A' for Active; 'I' for Inactive)
REMARK    1  A    between atoms: CB_2  and  CA_4 
REMARK    2  A    between atoms: CA_4  and  C_5 
REMARK    3  A    between atoms: CA_4  and  N_7 
REMARK       I    between atoms: C_5  and  N_9 
REMARK       I    between atoms: N_7  and  C_43 
REMARK    4  A    between atoms: N_9  and  CA_10 
REMARK    5  A    between atoms: CA_10  and  C_12 
REMARK       I    between atoms: C_12  and  N_15 
REMARK    6  A    between atoms: CA_19  and  C_20 
REMARK       I    between atoms: C_20  and  N_22 
REMARK    7  A    between atoms: N_22  and  CA_23 
REMARK    8  A    between atoms: CA_23  and  CB_24 
REMARK    9  A    between atoms: CA_23  and  C_31 
REMARK   10  A    between atoms: CB_24  and  CG_25 
REMARK       I    between atoms: C_31  and  N_34 
REMARK   11  A    between atoms: CA_38  and  C_39 
REMARK   12  A    between atoms: C_39  and  OXT_41 
REMARK   13  A    between atoms: C_43  and  CA_45 
REMARK   14  A    between atoms: CA_45  and  CB_46 
REMARK   15  A    between atoms: CA_45  and  N_53 
REMARK   16  A    between atoms: CB_46  and  CG_47 
ROOT
ATOM      1  C   ALA A   3     -21.034 -13.453  -5.107  1.00  0.00     0.238 C 
ATOM      2  O   ALA A   3     -22.025 -13.043  -5.723  1.00  0.00    -0.272 OA
ATOM      3  N   PRO A   4     -19.881 -13.845  -5.801  1.00  0.00    -0.337 N 
ATOM      4  CD  PRO A   4     -19.839 -13.731  -7.249  1.00  0.00     0.127 C 
ATOM      5  CG  PRO A   4     -19.229 -15.042  -7.705  1.00  0.00     0.022 C 
ATOM      6  CB  PRO A   4     -18.201 -15.349  -6.630  1.00  0.00     0.037 C 
ATOM      7  CA  PRO A   4     -18.713 -14.635  -5.351  1.00  0.00     0.179 C 
ENDROOT
BRANCH   1   8
ATOM      8  CA  ALA A   3     -21.060 -13.483  -3.550  1.00  0.00     0.151 C 
ATOM      9  CB  ALA A   3     -22.056 -14.480  -2.956  1.00  0.00     0.036 C 
BRANCH   8  10
ATOM     10  N   ALA A   3     -21.273 -12.130  -2.922  1.00  0.00    -0.248 NA
ATOM     11  C   VAL A   2     -20.528 -11.720  -1.828  1.00  0.00     0.221 C 
ATOM     12  O   VAL A   2     -19.540 -12.377  -1.477  1.00  0.00    -0.278 OA
ATOM     13  H   ALA A   3     -22.261 -11.941  -2.754  1.00  0.00     0.131 HD
BRANCH  11  14
ATOM     14  CA  VAL A   2     -21.033 -10.458  -0.974  1.00  0.00     0.174 C 
BRANCH  14  15
ATOM     15  CB  VAL A   2     -22.586 -10.797  -0.577  1.00  0.00     0.009 C 
ATOM     16  CG1 VAL A   2     -22.916 -12.053   0.265  1.00  0.00     0.012 C 
ATOM     17  CG2 VAL A   2     -23.364  -9.596  -0.039  1.00  0.00     0.012 C 
ENDBRANCH  14  15
BRANCH  14  18
ATOM     18  N   VAL A   2     -20.916  -8.988  -1.645  1.00  0.00    -0.346 N 
ATOM     19  C   PHE A   1     -21.394  -8.572  -2.885  1.00  0.00     0.251 C 
ATOM     20  O   PHE A   1     -21.906  -9.451  -3.566  1.00  0.00    -0.271 OA
ATOM     21  H   VAL A   2     -20.102  -8.463  -1.354  1.00  0.00     0.163 HD
BRANCH  19  22
ATOM     22  CA  PHE A   1     -21.381  -7.081  -3.565  1.00  0.00     0.313 C 
BRANCH  22  23
ATOM     23  CB  PHE A   1     -21.714  -7.170  -5.131  1.00  0.00     0.083 C 
BRANCH  23  24
ATOM     24  CG  PHE A   1     -21.181  -6.109  -6.063  1.00  0.00    -0.056 A 
ATOM     25  CD1 PHE A   1     -22.087  -5.158  -6.517  1.00  0.00     0.007 A 
ATOM     26  CE1 PHE A   1     -21.674  -4.106  -7.328  1.00  0.00     0.001 A 
ATOM     27  CZ  PHE A   1     -20.341  -3.999  -7.718  1.00  0.00     0.000 A 
ATOM     28  CE2 PHE A   1     -19.414  -4.931  -7.258  1.00  0.00     0.001 A 
ATOM     29  CD2 PHE A   1     -19.833  -5.983  -6.428  1.00  0.00     0.007 A 
ENDBRANCH  23  24
ENDBRANCH  22  23
BRANCH  22  30
ATOM     30  N   PHE A   1     -22.195  -6.033  -2.904  1.00  0.00     0.092 N 
ATOM     31  H1  PHE A   1     -22.079  -5.131  -3.378  1.00  0.00     0.313 HD
ATOM     32  H2  PHE A   1     -21.705  -5.803  -2.024  1.00  0.00     0.313 HD
ENDBRANCH  22  30
ENDBRANCH  19  22
ENDBRANCH  14  18
ENDBRANCH  11  14
ENDBRANCH   8  10
ENDBRANCH   1   8
BRANCH   7  33
ATOM     33  C   PRO A   4     -17.477 -13.887  -4.801  1.00  0.00     0.241 C 
ATOM     34  O   PRO A   4     -16.511 -13.650  -5.533  1.00  0.00    -0.271 OA
ATOM     35  N   PHE A   5     -17.530 -13.396  -3.512  1.00  0.00    -0.346 N 
ATOM     36  H   PHE A   5     -18.272 -13.754  -2.906  1.00  0.00     0.163 HD
BRANCH  35  37
ATOM     37  CA  PHE A   5     -16.299 -12.865  -2.913  1.00  0.00     0.181 C 
BRANCH  37  38
ATOM     38  CB  PHE A   5     -16.164 -11.363  -2.778  1.00  0.00     0.073 C 
BRANCH  38  39
ATOM     39  CG  PHE A   5     -16.687 -10.609  -3.955  1.00  0.00    -0.056 A 
ATOM     40  CD1 PHE A   5     -18.013 -10.161  -3.987  1.00  0.00     0.007 A 
ATOM     41  CE1 PHE A   5     -18.456  -9.394  -5.055  1.00  0.00     0.001 A 
ATOM     42  CZ  PHE A   5     -17.576  -9.082  -6.088  1.00  0.00     0.000 A 
ATOM     43  CE2 PHE A   5     -16.292  -9.627  -6.116  1.00  0.00     0.001 A 
ATOM     44  CD2 PHE A   5     -15.846 -10.390  -5.045  1.00  0.00     0.007 A 
ENDBRANCH  38  39
ENDBRANCH  37  38
BRANCH  37  45
ATOM     45  C   PHE A   5     -15.913 -13.555  -1.587  1.00  0.00     0.243 C 
ATOM     46  O   PHE A   5     -16.714 -13.802  -0.681  1.00  0.00    -0.271 OA
ATOM     47  N   PRO A   6     -14.614 -14.001  -1.518  1.00  0.00    -0.336 N 
ATOM     48  CD  PRO A   6     -14.189 -14.826  -0.435  1.00  0.00     0.127 C 
ATOM     49  CA  PRO A   6     -13.589 -13.901  -2.558  1.00  0.00     0.185 C 
ATOM     50  CG  PRO A   6     -12.715 -14.811  -0.430  1.00  0.00     0.022 C 
ATOM     51  CB  PRO A   6     -12.397 -14.537  -1.885  1.00  0.00     0.038 C 
BRANCH  49  52
ATOM     52  C   PRO A   6     -13.903 -14.698  -3.836  1.00  0.00     0.163 C 
ATOM     53  O   PRO A   6     -14.391 -15.796  -3.920  1.00  0.00    -0.648 OA
BRANCH  52  54
ATOM     54  OXT PRO A   6     -13.605 -14.001  -4.934  1.00  0.00    -0.775 OA
ATOM     55  HXT PRO A   6     -12.711 -14.089  -5.322  1.00  0.00     0.167 HD
ENDBRANCH  52  54
ENDBRANCH  49  52
ENDBRANCH  37  45
ENDBRANCH  35  37
ENDBRANCH   7  33
TORSDOF 16
BEGIN_RES ARG D 557
REMARK  4 active torsions:
REMARK  status: ('A' for Active; 'I' for Inactive)
REMARK    1  A    between atoms: CA   and  CB  
REMARK    2  A    between atoms: CB   and  CG  
REMARK    3  A    between atoms: CG   and  CD  
REMARK    4  A    between atoms: CD   and  NE  
REMARK       I    between atoms: NE   and  CZ  
REMARK       I    between atoms: CZ   and  NH1 
REMARK       I    between atoms: CZ   and  NH2 
ROOT
ATOM      1  CA  ARG D 557     -26.217   2.705 -17.014  1.00 35.49     0.159 C 
ENDROOT
BRANCH   1   2
ATOM      2  CB  ARG D 557     -26.789   1.319 -17.183  1.00 35.49     0.034 C 
BRANCH   2   3
ATOM      3  CG  ARG D 557     -25.868   0.195 -16.979  1.00 35.49     0.027 C 
BRANCH   3   4
ATOM      4  CD  ARG D 557     -26.292  -0.688 -15.868  1.00 35.49     0.116 C 
BRANCH   4   5
ATOM      5  NE  ARG D 557     -25.234  -0.912 -14.918  1.00 35.49    -0.212 N 
ATOM      6  CZ  ARG D 557     -24.934  -2.063 -14.360  1.00 35.49     0.666 C 
ATOM      7  NH1 ARG D 557     -25.607  -3.171 -14.612  1.00 35.49    -0.235 N 
ATOM      8  NH2 ARG D 557     -23.927  -2.086 -13.536  1.00 35.49    -0.235 N 
ATOM      9  HH  ARG D 557     -26.272  -3.179 -15.153  1.00 35.49     0.174 HD
ATOM     10  HH  ARG D 557     -25.364  -3.893 -14.221  1.00 35.49     0.174 HD
ATOM     11  HH  ARG D 557     -23.506  -1.357 -13.398  1.00 35.49     0.174 HD
ATOM     12  HH  ARG D 557     -23.701  -2.811 -13.159  1.00 35.49     0.174 HD
ATOM     13  HE  ARG D 557     -24.795  -0.237 -14.643  1.00 35.49     0.178 HD
ENDBRANCH   4   5
ENDBRANCH   3   4
ENDBRANCH   2   3
ENDBRANCH   1   2
END_RES ARG D 557
BEGIN_RES GLU D 570
REMARK  3 active torsions:
REMARK  status: ('A' for Active; 'I' for Inactive)
REMARK    5  A    between atoms: CA   and  CB  
REMARK    6  A    between atoms: CB   and  CG  
REMARK    7  A    between atoms: CG   and  CD  
ROOT
ATOM     14  CA  GLU D 570     -18.033  -6.348 -13.375  1.00 32.92     0.160 C 
ENDROOT
BRANCH  14  15
ATOM     15  CB  GLU D 570     -19.500  -6.345 -13.794  1.00 32.92     0.043 C 
BRANCH  15  16
ATOM     16  CG  GLU D 570     -20.448  -5.559 -12.962  1.00 32.92     0.100 C 
BRANCH  16  17
ATOM     17  CD  GLU D 570     -21.695  -5.155 -13.713  1.00 32.92     0.185 C 
ATOM     18  OE1 GLU D 570     -22.720  -4.859 -13.069  1.00 32.92    -0.647 OA
ATOM     19  OE2 GLU D 570     -21.653  -5.152 -14.959  1.00 32.92    -0.647 OA
ENDBRANCH  16  17
ENDBRANCH  15  16
ENDBRANCH  14  15
END_RES GLU D 570
ENDMDL
