MODEL 1
REMARK VINA RESULT:      -7.4      0.000      0.000
REMARK  30 active torsions:
REMARK  status: ('A' for Active; 'I' for Inactive)
REMARK    1  A    between atoms: C_2  and  C_3 
REMARK    2  A    between atoms: C_3  and  C_4 
REMARK    3  A    between atoms: C_4  and  C_5 
REMARK    4  A    between atoms: C_5  and  C_6 
REMARK    5  A    between atoms: C_6  and  C_7 
REMARK    6  A    between atoms: C_7  and  C_8 
REMARK    7  A    between atoms: C_8  and  C_9 
REMARK    8  A    between atoms: C_9  and  C_10 
REMARK    9  A    between atoms: C_10  and  C_11 
REMARK   10  A    between atoms: C_11  and  C_12 
REMARK   11  A    between atoms: C_12  and  C_13 
REMARK   12  A    between atoms: C_13  and  C_14 
REMARK   13  A    between atoms: C_14  and  C_15 
REMARK   14  A    between atoms: C_15  and  C_16 
REMARK   15  A    between atoms: C_16  and  C_17 
REMARK   16  A    between atoms: C_17  and  C_18 
REMARK   17  A    between atoms: C_18  and  O_20 
REMARK   18  A    between atoms: O_20  and  C_21 
REMARK   19  A    between atoms: C_21  and  C_22 
REMARK   20  A    between atoms: C_22  and  O_31 
REMARK   21  A    between atoms: C_23  and  O_30 
REMARK   22  A    between atoms: C_24  and  O_29 
REMARK   23  A    between atoms: C_25  and  C_27 
REMARK   24  A    between atoms: C_27  and  O_28 
REMARK   25  A    between atoms: O_31  and  C_32 
REMARK   26  A    between atoms: C_33  and  O_42 
REMARK   27  A    between atoms: C_34  and  O_41 
REMARK   28  A    between atoms: C_35  and  O_40 
REMARK   29  A    between atoms: C_36  and  C_38 
REMARK   30  A    between atoms: C_38  and  O_39 
ROOT
HETATM    1  C   UNL     1     -26.288  -5.297 -15.324  1.00  0.00     0.218 C 
HETATM    2  C   UNL     1     -26.094  -6.436 -16.432  1.00  0.00     0.214 C 
HETATM    3  C   UNL     1     -24.848  -7.256 -15.966  1.00  0.00     0.183 C 
HETATM    4  C   UNL     1     -24.251  -6.390 -14.852  1.00  0.00     0.180 C 
HETATM    5  O   UNL     1     -25.440  -5.747 -14.274  1.00  0.00    -0.341 OA
ENDROOT
BRANCH   1   6
HETATM    6  C   UNL     1     -27.799  -5.136 -14.934  1.00  0.00     0.250 C 
BRANCH   6   7
HETATM    7  O   UNL     1     -28.705  -6.129 -15.536  1.00  0.00    -0.316 OA
BRANCH   7   8
HETATM    8  C   UNL     1     -29.641  -5.720 -16.401  1.00  0.00     0.258 C 
HETATM    9  O   UNL     1     -29.704  -5.996 -17.589  1.00  0.00    -0.265 OA
BRANCH   8  10
HETATM   10  C   UNL     1     -30.912  -5.135 -15.769  1.00  0.00     0.111 C 
BRANCH  10  11
HETATM   11  C   UNL     1     -31.834  -5.277 -16.961  1.00  0.00     0.010 C 
BRANCH  11  12
HETATM   12  C   UNL     1     -32.794  -4.101 -16.956  1.00  0.00     0.000 C 
BRANCH  12  13
HETATM   13  C   UNL     1     -33.889  -4.380 -15.894  1.00  0.00     0.000 C 
BRANCH  13  14
HETATM   14  C   UNL     1     -34.724  -3.136 -15.662  1.00  0.00     0.000 C 
BRANCH  14  15
HETATM   15  C   UNL     1     -34.672  -2.246 -16.878  1.00  0.00     0.000 C 
BRANCH  15  16
HETATM   16  C   UNL     1     -35.654  -1.103 -16.703  1.00  0.00     0.000 C 
BRANCH  16  17
HETATM   17  C   UNL     1     -35.787  -0.775 -15.231  1.00  0.00     0.000 C 
BRANCH  17  18
HETATM   18  C   UNL     1     -35.093   0.540 -14.931  1.00  0.00     0.000 C 
BRANCH  18  19
HETATM   19  C   UNL     1     -34.729   0.604 -13.460  1.00  0.00     0.000 C 
BRANCH  19  20
HETATM   20  C   UNL     1     -35.569  -0.388 -12.678  1.00  0.00     0.000 C 
BRANCH  20  21
HETATM   21  C   UNL     1     -34.707  -1.092 -11.646  1.00  0.00     0.000 C 
BRANCH  21  22
HETATM   22  C   UNL     1     -34.381  -2.498 -12.115  1.00  0.00     0.000 C 
BRANCH  22  23
HETATM   23  C   UNL     1     -33.175  -3.033 -11.360  1.00  0.00     0.000 C 
BRANCH  23  24
HETATM   24  C   UNL     1     -32.979  -4.509 -11.664  1.00  0.00    -0.000 C 
BRANCH  24  25
HETATM   25  C   UNL     1     -34.315  -5.239 -11.641  1.00  0.00    -0.005 C 
HETATM   26  C   UNL     1     -34.392  -6.161 -10.439  1.00  0.00     0.005 C 
ENDBRANCH  24  25
ENDBRANCH  23  24
ENDBRANCH  22  23
ENDBRANCH  21  22
ENDBRANCH  20  21
ENDBRANCH  19  20
ENDBRANCH  18  19
ENDBRANCH  17  18
ENDBRANCH  16  17
ENDBRANCH  15  16
ENDBRANCH  14  15
ENDBRANCH  13  14
ENDBRANCH  12  13
ENDBRANCH  11  12
ENDBRANCH  10  11
ENDBRANCH   8  10
ENDBRANCH   7   8
ENDBRANCH   6   7
ENDBRANCH   1   6
BRANCH   1  27
HETATM   27  O   UNL     1     -25.691  -4.011 -15.634  1.00  0.00    -0.318 OA
BRANCH  27  28
HETATM   28  C   UNL     1     -25.859  -2.881 -14.647  1.00  0.00     0.295 C 
HETATM   29  C   UNL     1     -24.931  -1.710 -15.155  1.00  0.00     0.204 C 
HETATM   30  C   UNL     1     -23.472  -2.101 -14.860  1.00  0.00     0.183 C 
HETATM   31  C   UNL     1     -23.157  -2.562 -13.300  1.00  0.00     0.180 C 
HETATM   32  C   UNL     1     -24.428  -3.401 -12.591  1.00  0.00     0.179 C 
HETATM   33  O   UNL     1     -25.727  -3.038 -13.158  1.00  0.00    -0.348 OA
BRANCH  29  34
HETATM   34  O   UNL     1     -25.304  -0.397 -14.721  1.00  0.00    -0.388 OA
HETATM   35  H   UNL     1     -25.995  -0.456 -14.042  1.00  0.00     0.210 HD
ENDBRANCH  29  34
BRANCH  30  36
HETATM   36  O   UNL     1     -22.583  -1.180 -15.540  1.00  0.00    -0.390 OA
HETATM   37  H   UNL     1     -22.218  -1.553 -16.367  1.00  0.00     0.210 HD
ENDBRANCH  30  36
BRANCH  31  38
HETATM   38  O   UNL     1     -22.626  -1.505 -12.471  1.00  0.00    -0.390 OA
HETATM   39  H   UNL     1     -22.056  -0.924 -13.002  1.00  0.00     0.210 HD
ENDBRANCH  31  38
BRANCH  32  40
HETATM   40  C   UNL     1     -24.225  -3.900 -11.032  1.00  0.00     0.198 C 
BRANCH  40  41
HETATM   41  O   UNL     1     -25.166  -3.333 -10.095  1.00  0.00    -0.398 OA
HETATM   42  H   UNL     1     -25.199  -2.377 -10.259  1.00  0.00     0.209 HD
ENDBRANCH  40  41
ENDBRANCH  32  40
ENDBRANCH  27  28
ENDBRANCH   1  27
BRANCH   2  43
HETATM   43  O   UNL     1     -26.005  -5.913 -17.752  1.00  0.00    -0.387 OA
HETATM   44  H   UNL     1     -26.789  -6.259 -18.216  1.00  0.00     0.210 HD
ENDBRANCH   2  43
BRANCH   3  45
HETATM   45  O   UNL     1     -23.954  -7.875 -16.884  1.00  0.00    -0.390 OA
HETATM   46  H   UNL     1     -23.704  -8.764 -16.577  1.00  0.00     0.210 HD
ENDBRANCH   3  45
BRANCH   4  47
HETATM   47  C   UNL     1     -22.772  -5.603 -15.036  1.00  0.00     0.198 C 
BRANCH  47  48
HETATM   48  O   UNL     1     -22.219  -5.304 -16.310  1.00  0.00    -0.398 OA
HETATM   49  H   UNL     1     -22.444  -5.947 -16.995  1.00  0.00     0.209 HD
ENDBRANCH  47  48
ENDBRANCH   4  47
TORSDOF 30
BEGIN_RES ARG D 557
REMARK  4 active torsions:
REMARK  status: ('A' for Active; 'I' for Inactive)
REMARK    1  A    between atoms: CA   and  CB  
REMARK    2  A    between atoms: CB   and  CG  
REMARK    3  A    between atoms: CG   and  CD  
REMARK    4  A    between atoms: CD   and  NE  
REMARK       I    between atoms: NE   and  CZ  
REMARK       I    between atoms: CZ   and  NH1 
REMARK       I    between atoms: CZ   and  NH2 
ROOT
ATOM      1  CA  ARG D 557     -26.217   2.705 -17.014  1.00 35.49     0.159 C 
ENDROOT
BRANCH   1   2
ATOM      2  CB  ARG D 557     -26.789   1.319 -17.183  1.00 35.49     0.034 C 
BRANCH   2   3
ATOM      3  CG  ARG D 557     -28.247   1.218 -17.319  1.00 35.49     0.027 C 
BRANCH   3   4
ATOM      4  CD  ARG D 557     -28.825   0.177 -16.439  1.00 35.49     0.116 C 
BRANCH   4   5
ATOM      5  NE  ARG D 557     -28.223  -1.112 -16.656  1.00 35.49    -0.212 N 
ATOM      6  CZ  ARG D 557     -28.828  -2.168 -17.153  1.00 35.49     0.666 C 
ATOM      7  NH1 ARG D 557     -30.101  -2.158 -17.503  1.00 35.49    -0.235 N 
ATOM      8  NH2 ARG D 557     -28.120  -3.251 -17.301  1.00 35.49    -0.235 N 
ATOM      9  HH  ARG D 557     -30.585  -1.456 -17.416  1.00 35.49     0.174 HD
ATOM     10  HH  ARG D 557     -30.441  -2.876 -17.824  1.00 35.49     0.174 HD
ATOM     11  HH  ARG D 557     -27.299  -3.226 -17.073  1.00 35.49     0.174 HD
ATOM     12  HH  ARG D 557     -28.475  -3.951 -17.621  1.00 35.49     0.174 HD
ATOM     13  HE  ARG D 557     -27.424  -1.230 -16.391  1.00 35.49     0.178 HD
ENDBRANCH   4   5
ENDBRANCH   3   4
ENDBRANCH   2   3
ENDBRANCH   1   2
END_RES ARG D 557
BEGIN_RES GLU D 570
REMARK  3 active torsions:
REMARK  status: ('A' for Active; 'I' for Inactive)
REMARK    5  A    between atoms: CA   and  CB  
REMARK    6  A    between atoms: CB   and  CG  
REMARK    7  A    between atoms: CG   and  CD  
ROOT
ATOM     14  CA  GLU D 570     -18.033  -6.348 -13.375  1.00 32.92     0.160 C 
ENDROOT
BRANCH  14  15
ATOM     15  CB  GLU D 570     -19.500  -6.345 -13.794  1.00 32.92     0.043 C 
BRANCH  15  16
ATOM     16  CG  GLU D 570     -20.126  -7.656 -14.105  1.00 32.92     0.100 C 
BRANCH  16  17
ATOM     17  CD  GLU D 570     -20.463  -7.816 -15.569  1.00 32.92     0.185 C 
ATOM     18  OE1 GLU D 570     -20.017  -6.989 -16.386  1.00 32.92    -0.647 OA
ATOM     19  OE2 GLU D 570     -21.196  -8.770 -15.899  1.00 32.92    -0.647 OA
ENDBRANCH  16  17
ENDBRANCH  15  16
ENDBRANCH  14  15
END_RES GLU D 570
ENDMDL
MODEL 2
REMARK VINA RESULT:      -7.3      9.131     14.197
REMARK  30 active torsions:
REMARK  status: ('A' for Active; 'I' for Inactive)
REMARK    1  A    between atoms: C_2  and  C_3 
REMARK    2  A    between atoms: C_3  and  C_4 
REMARK    3  A    between atoms: C_4  and  C_5 
REMARK    4  A    between atoms: C_5  and  C_6 
REMARK    5  A    between atoms: C_6  and  C_7 
REMARK    6  A    between atoms: C_7  and  C_8 
REMARK    7  A    between atoms: C_8  and  C_9 
REMARK    8  A    between atoms: C_9  and  C_10 
REMARK    9  A    between atoms: C_10  and  C_11 
REMARK   10  A    between atoms: C_11  and  C_12 
REMARK   11  A    between atoms: C_12  and  C_13 
REMARK   12  A    between atoms: C_13  and  C_14 
REMARK   13  A    between atoms: C_14  and  C_15 
REMARK   14  A    between atoms: C_15  and  C_16 
REMARK   15  A    between atoms: C_16  and  C_17 
REMARK   16  A    between atoms: C_17  and  C_18 
REMARK   17  A    between atoms: C_18  and  O_20 
REMARK   18  A    between atoms: O_20  and  C_21 
REMARK   19  A    between atoms: C_21  and  C_22 
REMARK   20  A    between atoms: C_22  and  O_31 
REMARK   21  A    between atoms: C_23  and  O_30 
REMARK   22  A    between atoms: C_24  and  O_29 
REMARK   23  A    between atoms: C_25  and  C_27 
REMARK   24  A    between atoms: C_27  and  O_28 
REMARK   25  A    between atoms: O_31  and  C_32 
REMARK   26  A    between atoms: C_33  and  O_42 
REMARK   27  A    between atoms: C_34  and  O_41 
REMARK   28  A    between atoms: C_35  and  O_40 
REMARK   29  A    between atoms: C_36  and  C_38 
REMARK   30  A    between atoms: C_38  and  O_39 
ROOT
HETATM    1  C   UNL     1     -20.187 -11.606  -1.992  1.00  0.00     0.218 C 
HETATM    2  C   UNL     1     -20.127 -12.694  -0.818  1.00  0.00     0.214 C 
HETATM    3  C   UNL     1     -18.730 -12.498  -0.144  1.00  0.00     0.183 C 
HETATM    4  C   UNL     1     -17.994 -11.573  -1.120  1.00  0.00     0.180 C 
HETATM    5  O   UNL     1     -19.085 -10.762  -1.678  1.00  0.00    -0.341 OA
ENDROOT
BRANCH   1   6
HETATM    6  C   UNL     1     -21.582 -10.890  -2.030  1.00  0.00     0.250 C 
BRANCH   6   7
HETATM    7  O   UNL     1     -22.160 -10.582  -0.711  1.00  0.00    -0.316 OA
BRANCH   7   8
HETATM    8  C   UNL     1     -22.526  -9.324  -0.435  1.00  0.00     0.258 C 
HETATM    9  O   UNL     1     -23.453  -8.976   0.280  1.00  0.00    -0.265 OA
BRANCH   8  10
HETATM   10  C   UNL     1     -21.488  -8.247  -0.781  1.00  0.00     0.111 C 
BRANCH  10  11
HETATM   11  C   UNL     1     -22.377  -7.030  -0.628  1.00  0.00     0.010 C 
BRANCH  11  12
HETATM   12  C   UNL     1     -22.253  -6.196  -1.889  1.00  0.00     0.000 C 
BRANCH  12  13
HETATM   13  C   UNL     1     -21.211  -6.876  -2.815  1.00  0.00     0.000 C 
BRANCH  13  14
HETATM   14  C   UNL     1     -21.479  -6.514  -4.262  1.00  0.00     0.000 C 
BRANCH  14  15
HETATM   15  C   UNL     1     -20.440  -7.148  -5.153  1.00  0.00     0.000 C 
BRANCH  15  16
HETATM   16  C   UNL     1     -20.319  -6.341  -6.431  1.00  0.00     0.000 C 
BRANCH  16  17
HETATM   17  C   UNL     1     -19.949  -4.912  -6.093  1.00  0.00     0.000 C 
BRANCH  17  18
HETATM   18  C   UNL     1     -20.365  -3.991  -7.223  1.00  0.00     0.000 C 
BRANCH  18  19
HETATM   19  C   UNL     1     -21.838  -4.187  -7.529  1.00  0.00     0.000 C 
BRANCH  19  20
HETATM   20  C   UNL     1     -22.041  -4.312  -9.026  1.00  0.00     0.000 C 
BRANCH  20  21
HETATM   21  C   UNL     1     -20.697  -4.430  -9.721  1.00  0.00     0.000 C 
BRANCH  21  22
HETATM   22  C   UNL     1     -20.824  -3.999 -11.171  1.00  0.00     0.000 C 
BRANCH  22  23
HETATM   23  C   UNL     1     -22.243  -4.233 -11.662  1.00  0.00     0.000 C 
BRANCH  23  24
HETATM   24  C   UNL     1     -22.515  -3.390 -12.897  1.00  0.00    -0.000 C 
BRANCH  24  25
HETATM   25  C   UNL     1     -23.499  -4.096 -13.819  1.00  0.00    -0.005 C 
HETATM   26  C   UNL     1     -23.331  -5.601 -13.718  1.00  0.00     0.005 C 
ENDBRANCH  24  25
ENDBRANCH  23  24
ENDBRANCH  22  23
ENDBRANCH  21  22
ENDBRANCH  20  21
ENDBRANCH  19  20
ENDBRANCH  18  19
ENDBRANCH  17  18
ENDBRANCH  16  17
ENDBRANCH  15  16
ENDBRANCH  14  15
ENDBRANCH  13  14
ENDBRANCH  12  13
ENDBRANCH  11  12
ENDBRANCH  10  11
ENDBRANCH   8  10
ENDBRANCH   7   8
ENDBRANCH   6   7
ENDBRANCH   1   6
BRANCH   1  27
HETATM   27  O   UNL     1     -19.809 -12.081  -3.310  1.00  0.00    -0.318 OA
BRANCH  27  28
HETATM   28  C   UNL     1     -19.661 -11.074  -4.424  1.00  0.00     0.295 C 
HETATM   29  C   UNL     1     -20.707 -11.485  -5.532  1.00  0.00     0.204 C 
HETATM   30  C   UNL     1     -20.175 -12.742  -6.241  1.00  0.00     0.183 C 
HETATM   31  C   UNL     1     -18.622 -12.641  -6.809  1.00  0.00     0.180 C 
HETATM   32  C   UNL     1     -17.617 -11.727  -5.819  1.00  0.00     0.179 C 
HETATM   33  O   UNL     1     -18.348 -10.712  -5.060  1.00  0.00    -0.348 OA
BRANCH  29  34
HETATM   34  O   UNL     1     -21.124 -10.429  -6.405  1.00  0.00    -0.388 OA
HETATM   35  H   UNL     1     -20.508 -10.351  -7.150  1.00  0.00     0.210 HD
ENDBRANCH  29  34
BRANCH  30  36
HETATM   36  O   UNL     1     -21.220 -13.297  -7.079  1.00  0.00    -0.390 OA
HETATM   37  H   UNL     1     -20.869 -13.715  -7.891  1.00  0.00     0.210 HD
ENDBRANCH  30  36
BRANCH  31  38
HETATM   38  O   UNL     1     -18.529 -12.294  -8.207  1.00  0.00    -0.390 OA
HETATM   39  H   UNL     1     -17.787 -11.682  -8.346  1.00  0.00     0.210 HD
ENDBRANCH  31  38
BRANCH  32  40
HETATM   40  C   UNL     1     -16.048 -11.552  -6.295  1.00  0.00     0.198 C 
BRANCH  40  41
HETATM   41  O   UNL     1     -15.219 -10.823  -5.364  1.00  0.00    -0.398 OA
HETATM   42  H   UNL     1     -14.448 -10.496  -5.856  1.00  0.00     0.209 HD
ENDBRANCH  40  41
ENDBRANCH  32  40
ENDBRANCH  27  28
ENDBRANCH   1  27
BRANCH   2  43
HETATM   43  O   UNL     1     -20.387 -14.015  -1.278  1.00  0.00    -0.387 OA
HETATM   44  H   UNL     1     -21.243 -13.960  -1.741  1.00  0.00     0.210 HD
ENDBRANCH   2  43
BRANCH   3  45
HETATM   45  O   UNL     1     -18.004 -13.575   0.435  1.00  0.00    -0.390 OA
HETATM   46  H   UNL     1     -18.608 -14.212   0.854  1.00  0.00     0.210 HD
ENDBRANCH   3  45
BRANCH   4  47
HETATM   47  C   UNL     1     -16.682 -12.110  -2.032  1.00  0.00     0.198 C 
BRANCH  47  48
HETATM   48  O   UNL     1     -16.779 -13.194  -2.945  1.00  0.00    -0.398 OA
HETATM   49  H   UNL     1     -16.081 -13.854  -2.844  1.00  0.00     0.209 HD
ENDBRANCH  47  48
ENDBRANCH   4  47
TORSDOF 30
BEGIN_RES ARG D 557
REMARK  4 active torsions:
REMARK  status: ('A' for Active; 'I' for Inactive)
REMARK    1  A    between atoms: CA   and  CB  
REMARK    2  A    between atoms: CB   and  CG  
REMARK    3  A    between atoms: CG   and  CD  
REMARK    4  A    between atoms: CD   and  NE  
REMARK       I    between atoms: NE   and  CZ  
REMARK       I    between atoms: CZ   and  NH1 
REMARK       I    between atoms: CZ   and  NH2 
ROOT
ATOM      1  CA  ARG D 557     -26.217   2.705 -17.014  1.00 35.49     0.159 C 
ENDROOT
BRANCH   1   2
ATOM      2  CB  ARG D 557     -26.789   1.319 -17.183  1.00 35.49     0.034 C 
BRANCH   2   3
ATOM      3  CG  ARG D 557     -28.237   1.224 -17.406  1.00 35.49     0.027 C 
BRANCH   3   4
ATOM      4  CD  ARG D 557     -28.891   0.281 -16.471  1.00 35.49     0.116 C 
BRANCH   4   5
ATOM      5  NE  ARG D 557     -29.265  -0.950 -17.116  1.00 35.49    -0.212 N 
ATOM      6  CZ  ARG D 557     -28.629  -2.096 -17.012  1.00 35.49     0.666 C 
ATOM      7  NH1 ARG D 557     -27.534  -2.235 -16.289  1.00 35.49    -0.235 N 
ATOM      8  NH2 ARG D 557     -29.123  -3.117 -17.651  1.00 35.49    -0.235 N 
ATOM      9  HH  ARG D 557     -27.192  -1.578 -15.858  1.00 35.49     0.174 HD
ATOM     10  HH  ARG D 557     -27.163  -3.007 -16.256  1.00 35.49     0.174 HD
ATOM     11  HH  ARG D 557     -29.835  -2.999 -18.104  1.00 35.49     0.174 HD
ATOM     12  HH  ARG D 557     -28.742  -3.873 -17.605  1.00 35.49     0.174 HD
ATOM     13  HE  ARG D 557     -29.918  -0.934 -17.660  1.00 35.49     0.178 HD
ENDBRANCH   4   5
ENDBRANCH   3   4
ENDBRANCH   2   3
ENDBRANCH   1   2
END_RES ARG D 557
BEGIN_RES GLU D 570
REMARK  3 active torsions:
REMARK  status: ('A' for Active; 'I' for Inactive)
REMARK    5  A    between atoms: CA   and  CB  
REMARK    6  A    between atoms: CB   and  CG  
REMARK    7  A    between atoms: CG   and  CD  
ROOT
ATOM     14  CA  GLU D 570     -18.033  -6.348 -13.375  1.00 32.92     0.160 C 
ENDROOT
BRANCH  14  15
ATOM     15  CB  GLU D 570     -19.500  -6.345 -13.794  1.00 32.92     0.043 C 
BRANCH  15  16
ATOM     16  CG  GLU D 570     -20.044  -7.592 -14.390  1.00 32.92     0.100 C 
BRANCH  16  17
ATOM     17  CD  GLU D 570     -20.776  -7.354 -15.690  1.00 32.92     0.185 C 
ATOM     18  OE1 GLU D 570     -20.501  -6.341 -16.363  1.00 32.92    -0.647 OA
ATOM     19  OE2 GLU D 570     -21.646  -8.179 -16.032  1.00 32.92    -0.647 OA
ENDBRANCH  16  17
ENDBRANCH  15  16
ENDBRANCH  14  15
END_RES GLU D 570
ENDMDL
MODEL 3
REMARK VINA RESULT:      -7.2      9.878     14.559
REMARK  30 active torsions:
REMARK  status: ('A' for Active; 'I' for Inactive)
REMARK    1  A    between atoms: C_2  and  C_3 
REMARK    2  A    between atoms: C_3  and  C_4 
REMARK    3  A    between atoms: C_4  and  C_5 
REMARK    4  A    between atoms: C_5  and  C_6 
REMARK    5  A    between atoms: C_6  and  C_7 
REMARK    6  A    between atoms: C_7  and  C_8 
REMARK    7  A    between atoms: C_8  and  C_9 
REMARK    8  A    between atoms: C_9  and  C_10 
REMARK    9  A    between atoms: C_10  and  C_11 
REMARK   10  A    between atoms: C_11  and  C_12 
REMARK   11  A    between atoms: C_12  and  C_13 
REMARK   12  A    between atoms: C_13  and  C_14 
REMARK   13  A    between atoms: C_14  and  C_15 
REMARK   14  A    between atoms: C_15  and  C_16 
REMARK   15  A    between atoms: C_16  and  C_17 
REMARK   16  A    between atoms: C_17  and  C_18 
REMARK   17  A    between atoms: C_18  and  O_20 
REMARK   18  A    between atoms: O_20  and  C_21 
REMARK   19  A    between atoms: C_21  and  C_22 
REMARK   20  A    between atoms: C_22  and  O_31 
REMARK   21  A    between atoms: C_23  and  O_30 
REMARK   22  A    between atoms: C_24  and  O_29 
REMARK   23  A    between atoms: C_25  and  C_27 
REMARK   24  A    between atoms: C_27  and  O_28 
REMARK   25  A    between atoms: O_31  and  C_32 
REMARK   26  A    between atoms: C_33  and  O_42 
REMARK   27  A    between atoms: C_34  and  O_41 
REMARK   28  A    between atoms: C_35  and  O_40 
REMARK   29  A    between atoms: C_36  and  C_38 
REMARK   30  A    between atoms: C_38  and  O_39 
ROOT
HETATM    1  C   UNL     1     -21.861 -12.095  -3.426  1.00  0.00     0.218 C 
HETATM    2  C   UNL     1     -22.263 -12.150  -4.976  1.00  0.00     0.214 C 
HETATM    3  C   UNL     1     -22.675 -13.634  -5.243  1.00  0.00     0.183 C 
HETATM    4  C   UNL     1     -22.210 -14.363  -3.977  1.00  0.00     0.180 C 
HETATM    5  O   UNL     1     -22.363 -13.334  -2.939  1.00  0.00    -0.341 OA
ENDROOT
BRANCH   1   6
HETATM    6  C   UNL     1     -22.454 -10.819  -2.732  1.00  0.00     0.250 C 
BRANCH   6   7
HETATM    7  O   UNL     1     -23.640 -11.061  -1.893  1.00  0.00    -0.316 OA
BRANCH   7   8
HETATM    8  C   UNL     1     -23.594 -10.751  -0.592  1.00  0.00     0.258 C 
HETATM    9  O   UNL     1     -24.243 -11.269   0.303  1.00  0.00    -0.265 OA
BRANCH   8  10
HETATM   10  C   UNL     1     -22.385  -9.909  -0.159  1.00  0.00     0.111 C 
BRANCH  10  11
HETATM   11  C   UNL     1     -23.128  -8.659   0.262  1.00  0.00     0.010 C 
BRANCH  11  12
HETATM   12  C   UNL     1     -22.406  -7.461  -0.326  1.00  0.00     0.000 C 
BRANCH  12  13
HETATM   13  C   UNL     1     -21.088  -7.964  -0.970  1.00  0.00     0.000 C 
BRANCH  13  14
HETATM   14  C   UNL     1     -20.740  -7.122  -2.181  1.00  0.00     0.000 C 
BRANCH  14  15
HETATM   15  C   UNL     1     -21.930  -6.290  -2.590  1.00  0.00     0.000 C 
BRANCH  15  16
HETATM   16  C   UNL     1     -22.427  -6.759  -3.944  1.00  0.00     0.000 C 
BRANCH  16  17
HETATM   17  C   UNL     1     -21.243  -7.033  -4.848  1.00  0.00     0.000 C 
BRANCH  17  18
HETATM   18  C   UNL     1     -21.460  -6.373  -6.195  1.00  0.00     0.000 C 
BRANCH  18  19
HETATM   19  C   UNL     1     -20.125  -6.151  -6.879  1.00  0.00     0.000 C 
BRANCH  19  20
HETATM   20  C   UNL     1     -19.646  -4.734  -6.626  1.00  0.00     0.000 C 
BRANCH  20  21
HETATM   21  C   UNL     1     -19.390  -4.033  -7.948  1.00  0.00     0.000 C 
BRANCH  21  22
HETATM   22  C   UNL     1     -20.081  -4.780  -9.074  1.00  0.00     0.000 C 
BRANCH  22  23
HETATM   23  C   UNL     1     -21.046  -3.856  -9.797  1.00  0.00     0.000 C 
BRANCH  23  24
HETATM   24  C   UNL     1     -22.350  -3.751  -9.022  1.00  0.00    -0.000 C 
BRANCH  24  25
HETATM   25  C   UNL     1     -23.535  -3.701  -9.977  1.00  0.00    -0.005 C 
HETATM   26  C   UNL     1     -23.842  -5.087 -10.512  1.00  0.00     0.005 C 
ENDBRANCH  24  25
ENDBRANCH  23  24
ENDBRANCH  22  23
ENDBRANCH  21  22
ENDBRANCH  20  21
ENDBRANCH  19  20
ENDBRANCH  18  19
ENDBRANCH  17  18
ENDBRANCH  16  17
ENDBRANCH  15  16
ENDBRANCH  14  15
ENDBRANCH  13  14
ENDBRANCH  12  13
ENDBRANCH  11  12
ENDBRANCH  10  11
ENDBRANCH   8  10
ENDBRANCH   7   8
ENDBRANCH   6   7
ENDBRANCH   1   6
BRANCH   1  27
HETATM   27  O   UNL     1     -20.446 -12.235  -3.138  1.00  0.00    -0.318 OA
BRANCH  27  28
HETATM   28  C   UNL     1     -19.719 -11.070  -2.511  1.00  0.00     0.295 C 
HETATM   29  C   UNL     1     -18.671 -10.575  -3.582  1.00  0.00     0.204 C 
HETATM   30  C   UNL     1     -17.527 -11.602  -3.633  1.00  0.00     0.183 C 
HETATM   31  C   UNL     1     -16.844 -11.986  -2.173  1.00  0.00     0.180 C 
HETATM   32  C   UNL     1     -17.954 -12.003  -0.911  1.00  0.00     0.179 C 
HETATM   33  O   UNL     1     -19.088 -11.109  -1.148  1.00  0.00    -0.348 OA
BRANCH  29  34
HETATM   34  O   UNL     1     -18.255  -9.211  -3.449  1.00  0.00    -0.388 OA
HETATM   35  H   UNL     1     -17.380  -9.091  -3.852  1.00  0.00     0.210 HD
ENDBRANCH  29  34
BRANCH  30  36
HETATM   36  O   UNL     1     -16.683 -11.321  -4.778  1.00  0.00    -0.390 OA
HETATM   37  H   UNL     1     -15.939 -11.952  -4.860  1.00  0.00     0.210 HD
ENDBRANCH  30  36
BRANCH  31  38
HETATM   38  O   UNL     1     -15.639 -11.248  -1.874  1.00  0.00    -0.390 OA
HETATM   39  H   UNL     1     -14.946 -11.857  -1.570  1.00  0.00     0.210 HD
ENDBRANCH  31  38
BRANCH  32  40
HETATM   40  C   UNL     1     -17.380 -12.365   0.592  1.00  0.00     0.198 C 
BRANCH  40  41
HETATM   41  O   UNL     1     -16.191 -11.636   0.969  1.00  0.00    -0.398 OA
HETATM   42  H   UNL     1     -15.441 -12.044   0.507  1.00  0.00     0.209 HD
ENDBRANCH  40  41
ENDBRANCH  32  40
ENDBRANCH  27  28
ENDBRANCH   1  27
BRANCH   2  43
HETATM   43  O   UNL     1     -21.239 -11.653  -5.829  1.00  0.00    -0.387 OA
HETATM   44  H   UNL     1     -21.412 -10.697  -5.905  1.00  0.00     0.210 HD
ENDBRANCH   2  43
BRANCH   3  45
HETATM   45  O   UNL     1     -22.467 -14.271  -6.497  1.00  0.00    -0.390 OA
HETATM   46  H   UNL     1     -22.474 -13.620  -7.220  1.00  0.00     0.210 HD
ENDBRANCH   3  45
BRANCH   4  47
HETATM   47  C   UNL     1     -20.933 -15.463  -4.007  1.00  0.00     0.198 C 
BRANCH  47  48
HETATM   48  O   UNL     1     -21.084 -16.798  -4.468  1.00  0.00    -0.398 OA
HETATM   49  H   UNL     1     -20.858 -17.467  -3.810  1.00  0.00     0.209 HD
ENDBRANCH  47  48
ENDBRANCH   4  47
TORSDOF 30
BEGIN_RES ARG D 557
REMARK  4 active torsions:
REMARK  status: ('A' for Active; 'I' for Inactive)
REMARK    1  A    between atoms: CA   and  CB  
REMARK    2  A    between atoms: CB   and  CG  
REMARK    3  A    between atoms: CG   and  CD  
REMARK    4  A    between atoms: CD   and  NE  
REMARK       I    between atoms: NE   and  CZ  
REMARK       I    between atoms: CZ   and  NH1 
REMARK       I    between atoms: CZ   and  NH2 
ROOT
ATOM      1  CA  ARG D 557     -26.217   2.705 -17.014  1.00 35.49     0.159 C 
ENDROOT
BRANCH   1   2
ATOM      2  CB  ARG D 557     -26.789   1.319 -17.183  1.00 35.49     0.034 C 
BRANCH   2   3
ATOM      3  CG  ARG D 557     -25.917   0.196 -16.819  1.00 35.49     0.027 C 
BRANCH   3   4
ATOM      4  CD  ARG D 557     -26.646  -0.875 -16.101  1.00 35.49     0.116 C 
BRANCH   4   5
ATOM      5  NE  ARG D 557     -25.901  -1.379 -14.978  1.00 35.49    -0.212 N 
ATOM      6  CZ  ARG D 557     -25.869  -2.630 -14.576  1.00 35.49     0.666 C 
ATOM      7  NH1 ARG D 557     -26.553  -3.585 -15.177  1.00 35.49    -0.235 N 
ATOM      8  NH2 ARG D 557     -25.121  -2.912 -13.549  1.00 35.49    -0.235 N 
ATOM      9  HH  ARG D 557     -27.050  -3.423 -15.856  1.00 35.49     0.174 HD
ATOM     10  HH  ARG D 557     -26.491  -4.384 -14.873  1.00 35.49     0.174 HD
ATOM     11  HH  ARG D 557     -24.684  -2.276 -13.186  1.00 35.49     0.174 HD
ATOM     12  HH  ARG D 557     -25.071  -3.708 -13.264  1.00 35.49     0.174 HD
ATOM     13  HE  ARG D 557     -25.488  -0.819 -14.489  1.00 35.49     0.178 HD
ENDBRANCH   4   5
ENDBRANCH   3   4
ENDBRANCH   2   3
ENDBRANCH   1   2
END_RES ARG D 557
BEGIN_RES GLU D 570
REMARK  3 active torsions:
REMARK  status: ('A' for Active; 'I' for Inactive)
REMARK    5  A    between atoms: CA   and  CB  
REMARK    6  A    between atoms: CB   and  CG  
REMARK    7  A    between atoms: CG   and  CD  
ROOT
ATOM     14  CA  GLU D 570     -18.033  -6.348 -13.375  1.00 32.92     0.160 C 
ENDROOT
BRANCH  14  15
ATOM     15  CB  GLU D 570     -19.500  -6.345 -13.794  1.00 32.92     0.043 C 
BRANCH  15  16
ATOM     16  CG  GLU D 570     -20.445  -5.548 -12.971  1.00 32.92     0.100 C 
BRANCH  16  17
ATOM     17  CD  GLU D 570     -21.727  -5.217 -13.699  1.00 32.92     0.185 C 
ATOM     18  OE1 GLU D 570     -22.202  -6.048 -14.496  1.00 32.92    -0.647 OA
ATOM     19  OE2 GLU D 570     -22.252  -4.107 -13.483  1.00 32.92    -0.647 OA
ENDBRANCH  16  17
ENDBRANCH  15  16
ENDBRANCH  14  15
END_RES GLU D 570
ENDMDL
MODEL 4
REMARK VINA RESULT:      -7.2     10.784     15.608
REMARK  30 active torsions:
REMARK  status: ('A' for Active; 'I' for Inactive)
REMARK    1  A    between atoms: C_2  and  C_3 
REMARK    2  A    between atoms: C_3  and  C_4 
REMARK    3  A    between atoms: C_4  and  C_5 
REMARK    4  A    between atoms: C_5  and  C_6 
REMARK    5  A    between atoms: C_6  and  C_7 
REMARK    6  A    between atoms: C_7  and  C_8 
REMARK    7  A    between atoms: C_8  and  C_9 
REMARK    8  A    between atoms: C_9  and  C_10 
REMARK    9  A    between atoms: C_10  and  C_11 
REMARK   10  A    between atoms: C_11  and  C_12 
REMARK   11  A    between atoms: C_12  and  C_13 
REMARK   12  A    between atoms: C_13  and  C_14 
REMARK   13  A    between atoms: C_14  and  C_15 
REMARK   14  A    between atoms: C_15  and  C_16 
REMARK   15  A    between atoms: C_16  and  C_17 
REMARK   16  A    between atoms: C_17  and  C_18 
REMARK   17  A    between atoms: C_18  and  O_20 
REMARK   18  A    between atoms: O_20  and  C_21 
REMARK   19  A    between atoms: C_21  and  C_22 
REMARK   20  A    between atoms: C_22  and  O_31 
REMARK   21  A    between atoms: C_23  and  O_30 
REMARK   22  A    between atoms: C_24  and  O_29 
REMARK   23  A    between atoms: C_25  and  C_27 
REMARK   24  A    between atoms: C_27  and  O_28 
REMARK   25  A    between atoms: O_31  and  C_32 
REMARK   26  A    between atoms: C_33  and  O_42 
REMARK   27  A    between atoms: C_34  and  O_41 
REMARK   28  A    between atoms: C_35  and  O_40 
REMARK   29  A    between atoms: C_36  and  C_38 
REMARK   30  A    between atoms: C_38  and  O_39 
ROOT
HETATM    1  C   UNL     1     -18.912 -11.506  -3.305  1.00  0.00     0.218 C 
HETATM    2  C   UNL     1     -18.954 -10.108  -4.085  1.00  0.00     0.214 C 
HETATM    3  C   UNL     1     -18.535 -10.443  -5.554  1.00  0.00     0.183 C 
HETATM    4  C   UNL     1     -18.006 -11.878  -5.451  1.00  0.00     0.180 C 
HETATM    5  O   UNL     1     -18.823 -12.445  -4.370  1.00  0.00    -0.341 OA
ENDROOT
BRANCH   1   6
HETATM    6  C   UNL     1     -20.165 -11.673  -2.375  1.00  0.00     0.250 C 
BRANCH   6   7
HETATM    7  O   UNL     1     -21.438 -11.218  -2.959  1.00  0.00    -0.316 OA
BRANCH   7   8
HETATM    8  C   UNL     1     -22.545 -11.942  -2.755  1.00  0.00     0.258 C 
HETATM    9  O   UNL     1     -22.624 -13.161  -2.735  1.00  0.00    -0.265 OA
BRANCH   8  10
HETATM   10  C   UNL     1     -23.737 -11.171  -2.170  1.00  0.00     0.111 C 
BRANCH  10  11
HETATM   11  C   UNL     1     -23.495 -11.474  -0.706  1.00  0.00     0.010 C 
BRANCH  11  12
HETATM   12  C   UNL     1     -23.812 -10.222   0.091  1.00  0.00     0.000 C 
BRANCH  12  13
HETATM   13  C   UNL     1     -22.540  -9.335   0.118  1.00  0.00     0.000 C 
BRANCH  13  14
HETATM   14  C   UNL     1     -22.915  -7.887   0.354  1.00  0.00     0.000 C 
BRANCH  14  15
HETATM   15  C   UNL     1     -22.315  -7.016  -0.721  1.00  0.00     0.000 C 
BRANCH  15  16
HETATM   16  C   UNL     1     -21.252  -7.801  -1.466  1.00  0.00     0.000 C 
BRANCH  16  17
HETATM   17  C   UNL     1     -21.528  -7.737  -2.954  1.00  0.00     0.000 C 
BRANCH  17  18
HETATM   18  C   UNL     1     -21.507  -6.294  -3.419  1.00  0.00     0.000 C 
BRANCH  18  19
HETATM   19  C   UNL     1     -21.711  -6.237  -4.921  1.00  0.00     0.000 C 
BRANCH  19  20
HETATM   20  C   UNL     1     -20.368  -6.256  -5.624  1.00  0.00     0.000 C 
BRANCH  20  21
HETATM   21  C   UNL     1     -19.900  -4.835  -5.882  1.00  0.00     0.000 C 
BRANCH  21  22
HETATM   22  C   UNL     1     -19.391  -4.707  -7.307  1.00  0.00     0.000 C 
BRANCH  22  23
HETATM   23  C   UNL     1     -20.332  -3.835  -8.120  1.00  0.00     0.000 C 
BRANCH  23  24
HETATM   24  C   UNL     1     -21.390  -4.694  -8.794  1.00  0.00    -0.000 C 
BRANCH  24  25
HETATM   25  C   UNL     1     -21.950  -3.985 -10.020  1.00  0.00    -0.005 C 
HETATM   26  C   UNL     1     -23.424  -4.304 -10.187  1.00  0.00     0.005 C 
ENDBRANCH  24  25
ENDBRANCH  23  24
ENDBRANCH  22  23
ENDBRANCH  21  22
ENDBRANCH  20  21
ENDBRANCH  19  20
ENDBRANCH  18  19
ENDBRANCH  17  18
ENDBRANCH  16  17
ENDBRANCH  15  16
ENDBRANCH  14  15
ENDBRANCH  13  14
ENDBRANCH  12  13
ENDBRANCH  11  12
ENDBRANCH  10  11
ENDBRANCH   8  10
ENDBRANCH   7   8
ENDBRANCH   6   7
ENDBRANCH   1   6
BRANCH   1  27
HETATM   27  O   UNL     1     -17.686 -11.786  -2.582  1.00  0.00    -0.318 OA
BRANCH  27  28
HETATM   28  C   UNL     1     -17.548 -13.116  -1.882  1.00  0.00     0.295 C 
HETATM   29  C   UNL     1     -17.440 -12.795  -0.341  1.00  0.00     0.204 C 
HETATM   30  C   UNL     1     -16.041 -12.213  -0.076  1.00  0.00     0.183 C 
HETATM   31  C   UNL     1     -14.773 -13.110  -0.651  1.00  0.00     0.180 C 
HETATM   32  C   UNL     1     -15.117 -13.883  -2.103  1.00  0.00     0.179 C 
HETATM   33  O   UNL     1     -16.544 -14.167  -2.264  1.00  0.00    -0.348 OA
BRANCH  29  34
HETATM   34  O   UNL     1     -17.830 -13.858   0.537  1.00  0.00    -0.388 OA
HETATM   35  H   UNL     1     -17.549 -14.711   0.170  1.00  0.00     0.210 HD
ENDBRANCH  29  34
BRANCH  30  36
HETATM   36  O   UNL     1     -15.996 -11.668   1.267  1.00  0.00    -0.390 OA
HETATM   37  H   UNL     1     -15.272 -12.050   1.803  1.00  0.00     0.210 HD
ENDBRANCH  30  36
BRANCH  31  38
HETATM   38  O   UNL     1     -14.168 -13.973   0.336  1.00  0.00    -0.390 OA
HETATM   39  H   UNL     1     -13.275 -14.227   0.048  1.00  0.00     0.210 HD
ENDBRANCH  31  38
BRANCH  32  40
HETATM   40  C   UNL     1     -13.925 -14.813  -2.762  1.00  0.00     0.198 C 
BRANCH  40  41
HETATM   41  O   UNL     1     -13.402 -15.828  -1.879  1.00  0.00    -0.398 OA
HETATM   42  H   UNL     1     -13.865 -15.743  -1.030  1.00  0.00     0.209 HD
ENDBRANCH  40  41
ENDBRANCH  32  40
ENDBRANCH  27  28
ENDBRANCH   1  27
BRANCH   2  43
HETATM   43  O   UNL     1     -18.170  -9.101  -3.456  1.00  0.00    -0.387 OA
HETATM   44  H   UNL     1     -18.099  -9.379  -2.525  1.00  0.00     0.210 HD
ENDBRANCH   2  43
BRANCH   3  45
HETATM   45  O   UNL     1     -17.824  -9.524  -6.373  1.00  0.00    -0.390 OA
HETATM   46  H   UNL     1     -18.041  -9.658  -7.312  1.00  0.00     0.210 HD
ENDBRANCH   3  45
BRANCH   4  47
HETATM   47  C   UNL     1     -16.372 -12.237  -5.661  1.00  0.00     0.198 C 
BRANCH  47  48
HETATM   48  O   UNL     1     -15.394 -11.236  -5.904  1.00  0.00    -0.398 OA
HETATM   49  H   UNL     1     -14.638 -11.274  -5.304  1.00  0.00     0.209 HD
ENDBRANCH  47  48
ENDBRANCH   4  47
TORSDOF 30
BEGIN_RES ARG D 557
REMARK  4 active torsions:
REMARK  status: ('A' for Active; 'I' for Inactive)
REMARK    1  A    between atoms: CA   and  CB  
REMARK    2  A    between atoms: CB   and  CG  
REMARK    3  A    between atoms: CG   and  CD  
REMARK    4  A    between atoms: CD   and  NE  
REMARK       I    between atoms: NE   and  CZ  
REMARK       I    between atoms: CZ   and  NH1 
REMARK       I    between atoms: CZ   and  NH2 
ROOT
ATOM      1  CA  ARG D 557     -26.217   2.705 -17.014  1.00 35.49     0.159 C 
ENDROOT
BRANCH   1   2
ATOM      2  CB  ARG D 557     -26.789   1.319 -17.183  1.00 35.49     0.034 C 
BRANCH   2   3
ATOM      3  CG  ARG D 557     -25.839   0.201 -17.131  1.00 35.49     0.027 C 
BRANCH   3   4
ATOM      4  CD  ARG D 557     -24.754   0.428 -16.149  1.00 35.49     0.116 C 
BRANCH   4   5
ATOM      5  NE  ARG D 557     -24.880  -0.423 -14.995  1.00 35.49    -0.212 N 
ATOM      6  CZ  ARG D 557     -24.051  -1.384 -14.655  1.00 35.49     0.666 C 
ATOM      7  NH1 ARG D 557     -22.984  -1.687 -15.372  1.00 35.49    -0.235 N 
ATOM      8  NH2 ARG D 557     -24.310  -2.041 -13.562  1.00 35.49    -0.235 N 
ATOM      9  HH  ARG D 557     -22.793  -1.266 -16.093  1.00 35.49     0.174 HD
ATOM     10  HH  ARG D 557     -22.478  -2.322 -15.099  1.00 35.49     0.174 HD
ATOM     11  HH  ARG D 557     -25.001  -1.819 -13.115  1.00 35.49     0.174 HD
ATOM     12  HH  ARG D 557     -23.795  -2.666 -13.308  1.00 35.49     0.174 HD
ATOM     13  HE  ARG D 557     -25.578  -0.345 -14.516  1.00 35.49     0.178 HD
ENDBRANCH   4   5
ENDBRANCH   3   4
ENDBRANCH   2   3
ENDBRANCH   1   2
END_RES ARG D 557
BEGIN_RES GLU D 570
REMARK  3 active torsions:
REMARK  status: ('A' for Active; 'I' for Inactive)
REMARK    5  A    between atoms: CA   and  CB  
REMARK    6  A    between atoms: CB   and  CG  
REMARK    7  A    between atoms: CG   and  CD  
ROOT
ATOM     14  CA  GLU D 570     -18.033  -6.348 -13.375  1.00 32.92     0.160 C 
ENDROOT
BRANCH  14  15
ATOM     15  CB  GLU D 570     -19.500  -6.345 -13.794  1.00 32.92     0.043 C 
BRANCH  15  16
ATOM     16  CG  GLU D 570     -20.443  -5.534 -12.981  1.00 32.92     0.100 C 
BRANCH  16  17
ATOM     17  CD  GLU D 570     -21.734  -5.230 -13.704  1.00 32.92     0.185 C 
ATOM     18  OE1 GLU D 570     -22.251  -4.104 -13.571  1.00 32.92    -0.647 OA
ATOM     19  OE2 GLU D 570     -22.243  -6.134 -14.396  1.00 32.92    -0.647 OA
ENDBRANCH  16  17
ENDBRANCH  15  16
ENDBRANCH  14  15
END_RES GLU D 570
ENDMDL
MODEL 5
REMARK VINA RESULT:      -7.1     10.678     15.503
REMARK  30 active torsions:
REMARK  status: ('A' for Active; 'I' for Inactive)
REMARK    1  A    between atoms: C_2  and  C_3 
REMARK    2  A    between atoms: C_3  and  C_4 
REMARK    3  A    between atoms: C_4  and  C_5 
REMARK    4  A    between atoms: C_5  and  C_6 
REMARK    5  A    between atoms: C_6  and  C_7 
REMARK    6  A    between atoms: C_7  and  C_8 
REMARK    7  A    between atoms: C_8  and  C_9 
REMARK    8  A    between atoms: C_9  and  C_10 
REMARK    9  A    between atoms: C_10  and  C_11 
REMARK   10  A    between atoms: C_11  and  C_12 
REMARK   11  A    between atoms: C_12  and  C_13 
REMARK   12  A    between atoms: C_13  and  C_14 
REMARK   13  A    between atoms: C_14  and  C_15 
REMARK   14  A    between atoms: C_15  and  C_16 
REMARK   15  A    between atoms: C_16  and  C_17 
REMARK   16  A    between atoms: C_17  and  C_18 
REMARK   17  A    between atoms: C_18  and  O_20 
REMARK   18  A    between atoms: O_20  and  C_21 
REMARK   19  A    between atoms: C_21  and  C_22 
REMARK   20  A    between atoms: C_22  and  O_31 
REMARK   21  A    between atoms: C_23  and  O_30 
REMARK   22  A    between atoms: C_24  and  O_29 
REMARK   23  A    between atoms: C_25  and  C_27 
REMARK   24  A    between atoms: C_27  and  O_28 
REMARK   25  A    between atoms: O_31  and  C_32 
REMARK   26  A    between atoms: C_33  and  O_42 
REMARK   27  A    between atoms: C_34  and  O_41 
REMARK   28  A    between atoms: C_35  and  O_40 
REMARK   29  A    between atoms: C_36  and  C_38 
REMARK   30  A    between atoms: C_38  and  O_39 
ROOT
HETATM    1  C   UNL     1     -18.415 -12.290  -0.729  1.00  0.00     0.218 C 
HETATM    2  C   UNL     1     -18.105 -13.663   0.036  1.00  0.00     0.214 C 
HETATM    3  C   UNL     1     -16.554 -13.683   0.235  1.00  0.00     0.183 C 
HETATM    4  C   UNL     1     -16.069 -12.535  -0.656  1.00  0.00     0.180 C 
HETATM    5  O   UNL     1     -17.188 -11.583  -0.592  1.00  0.00    -0.341 OA
ENDROOT
BRANCH   1   6
HETATM    6  C   UNL     1     -19.667 -11.571  -0.117  1.00  0.00     0.250 C 
BRANCH   6   7
HETATM    7  O   UNL     1     -20.788 -12.462   0.231  1.00  0.00    -0.316 OA
BRANCH   7   8
HETATM    8  C   UNL     1     -21.547 -12.969  -0.747  1.00  0.00     0.258 C 
HETATM    9  O   UNL     1     -21.687 -14.151  -1.022  1.00  0.00    -0.265 OA
BRANCH   8  10
HETATM   10  C   UNL     1     -22.578 -12.002  -1.347  1.00  0.00     0.111 C 
BRANCH  10  11
HETATM   11  C   UNL     1     -23.618 -12.082  -0.249  1.00  0.00     0.010 C 
BRANCH  11  12
HETATM   12  C   UNL     1     -24.181 -10.691  -0.032  1.00  0.00     0.000 C 
BRANCH  12  13
HETATM   13  C   UNL     1     -23.044  -9.667  -0.286  1.00  0.00     0.000 C 
BRANCH  13  14
HETATM   14  C   UNL     1     -23.285  -8.405   0.516  1.00  0.00     0.000 C 
BRANCH  14  15
HETATM   15  C   UNL     1     -22.308  -7.334   0.100  1.00  0.00     0.000 C 
BRANCH  15  16
HETATM   16  C   UNL     1     -21.961  -7.515  -1.365  1.00  0.00     0.000 C 
BRANCH  16  17
HETATM   17  C   UNL     1     -22.088  -6.185  -2.080  1.00  0.00     0.000 C 
BRANCH  17  18
HETATM   18  C   UNL     1     -21.230  -6.189  -3.330  1.00  0.00     0.000 C 
BRANCH  18  19
HETATM   19  C   UNL     1     -22.031  -6.728  -4.500  1.00  0.00     0.000 C 
BRANCH  19  20
HETATM   20  C   UNL     1     -21.859  -5.821  -5.703  1.00  0.00     0.000 C 
BRANCH  20  21
HETATM   21  C   UNL     1     -20.448  -5.263  -5.731  1.00  0.00     0.000 C 
BRANCH  21  22
HETATM   22  C   UNL     1     -19.784  -5.595  -7.055  1.00  0.00     0.000 C 
BRANCH  22  23
HETATM   23  C   UNL     1     -19.583  -4.327  -7.869  1.00  0.00     0.000 C 
BRANCH  23  24
HETATM   24  C   UNL     1     -20.375  -4.407  -9.164  1.00  0.00    -0.000 C 
BRANCH  24  25
HETATM   25  C   UNL     1     -21.835  -4.052  -8.919  1.00  0.00    -0.005 C 
HETATM   26  C   UNL     1     -22.604  -4.048 -10.226  1.00  0.00     0.005 C 
ENDBRANCH  24  25
ENDBRANCH  23  24
ENDBRANCH  22  23
ENDBRANCH  21  22
ENDBRANCH  20  21
ENDBRANCH  19  20
ENDBRANCH  18  19
ENDBRANCH  17  18
ENDBRANCH  16  17
ENDBRANCH  15  16
ENDBRANCH  14  15
ENDBRANCH  13  14
ENDBRANCH  12  13
ENDBRANCH  11  12
ENDBRANCH  10  11
ENDBRANCH   8  10
ENDBRANCH   7   8
ENDBRANCH   6   7
ENDBRANCH   1   6
BRANCH   1  27
HETATM   27  O   UNL     1     -18.523 -12.386  -2.173  1.00  0.00    -0.318 OA
BRANCH  27  28
HETATM   28  C   UNL     1     -18.537 -11.111  -2.981  1.00  0.00     0.295 C 
HETATM   29  C   UNL     1     -19.885 -11.124  -3.801  1.00  0.00     0.204 C 
HETATM   30  C   UNL     1     -19.738 -12.152  -4.936  1.00  0.00     0.183 C 
HETATM   31  C   UNL     1     -18.392 -11.983  -5.886  1.00  0.00     0.180 C 
HETATM   32  C   UNL     1     -17.045 -11.452  -5.031  1.00  0.00     0.179 C 
HETATM   33  O   UNL     1     -17.403 -10.658  -3.856  1.00  0.00    -0.348 OA
BRANCH  29  34
HETATM   34  O   UNL     1     -20.369  -9.839  -4.209  1.00  0.00    -0.388 OA
HETATM   35  H   UNL     1     -21.131  -9.943  -4.800  1.00  0.00     0.210 HD
ENDBRANCH  29  34
BRANCH  30  36
HETATM   36  O   UNL     1     -21.034 -12.380  -5.545  1.00  0.00    -0.390 OA
HETATM   37  H   UNL     1     -21.155 -11.870  -6.371  1.00  0.00     0.210 HD
ENDBRANCH  30  36
BRANCH  31  38
HETATM   38  O   UNL     1     -18.624 -11.253  -7.110  1.00  0.00    -0.390 OA
HETATM   39  H   UNL     1     -19.562 -11.005  -7.174  1.00  0.00     0.210 HD
ENDBRANCH  31  38
BRANCH  32  40
HETATM   40  C   UNL     1     -15.649 -11.240  -5.882  1.00  0.00     0.198 C 
BRANCH  40  41
HETATM   41  O   UNL     1     -15.569 -12.010  -7.101  1.00  0.00    -0.398 OA
HETATM   42  H   UNL     1     -16.372 -12.552  -7.156  1.00  0.00     0.209 HD
ENDBRANCH  40  41
ENDBRANCH  32  40
ENDBRANCH  27  28
ENDBRANCH   1  27
BRANCH   2  43
HETATM   43  O   UNL     1     -18.635 -14.800  -0.635  1.00  0.00    -0.387 OA
HETATM   44  H   UNL     1     -18.543 -15.535  -0.002  1.00  0.00     0.210 HD
ENDBRANCH   2  43
BRANCH   3  45
HETATM   45  O   UNL     1     -15.801 -14.889   0.243  1.00  0.00    -0.390 OA
HETATM   46  H   UNL     1     -14.847 -14.701   0.264  1.00  0.00     0.210 HD
ENDBRANCH   3  45
BRANCH   4  47
HETATM   47  C   UNL     1     -15.175 -12.816  -2.057  1.00  0.00     0.198 C 
BRANCH  47  48
HETATM   48  O   UNL     1     -14.331 -13.950  -2.211  1.00  0.00    -0.398 OA
HETATM   49  H   UNL     1     -13.964 -14.047  -3.098  1.00  0.00     0.209 HD
ENDBRANCH  47  48
ENDBRANCH   4  47
TORSDOF 30
BEGIN_RES ARG D 557
REMARK  4 active torsions:
REMARK  status: ('A' for Active; 'I' for Inactive)
REMARK    1  A    between atoms: CA   and  CB  
REMARK    2  A    between atoms: CB   and  CG  
REMARK    3  A    between atoms: CG   and  CD  
REMARK    4  A    between atoms: CD   and  NE  
REMARK       I    between atoms: NE   and  CZ  
REMARK       I    between atoms: CZ   and  NH1 
REMARK       I    between atoms: CZ   and  NH2 
ROOT
ATOM      1  CA  ARG D 557     -26.217   2.705 -17.014  1.00 35.49     0.159 C 
ENDROOT
BRANCH   1   2
ATOM      2  CB  ARG D 557     -26.789   1.319 -17.183  1.00 35.49     0.034 C 
BRANCH   2   3
ATOM      3  CG  ARG D 557     -28.237   1.224 -17.405  1.00 35.49     0.027 C 
BRANCH   3   4
ATOM      4  CD  ARG D 557     -28.892   0.285 -16.467  1.00 35.49     0.116 C 
BRANCH   4   5
ATOM      5  NE  ARG D 557     -29.269  -0.947 -17.108  1.00 35.49    -0.212 N 
ATOM      6  CZ  ARG D 557     -28.628  -2.091 -17.011  1.00 35.49     0.666 C 
ATOM      7  NH1 ARG D 557     -27.524  -2.227 -16.300  1.00 35.49    -0.235 N 
ATOM      8  NH2 ARG D 557     -29.126  -3.113 -17.644  1.00 35.49    -0.235 N 
ATOM      9  HH  ARG D 557     -27.180  -1.568 -15.874  1.00 35.49     0.174 HD
ATOM     10  HH  ARG D 557     -27.150  -2.998 -16.272  1.00 35.49     0.174 HD
ATOM     11  HH  ARG D 557     -29.844  -2.998 -18.089  1.00 35.49     0.174 HD
ATOM     12  HH  ARG D 557     -28.742  -3.868 -17.602  1.00 35.49     0.174 HD
ATOM     13  HE  ARG D 557     -29.929  -0.933 -17.644  1.00 35.49     0.178 HD
ENDBRANCH   4   5
ENDBRANCH   3   4
ENDBRANCH   2   3
ENDBRANCH   1   2
END_RES ARG D 557
BEGIN_RES GLU D 570
REMARK  3 active torsions:
REMARK  status: ('A' for Active; 'I' for Inactive)
REMARK    5  A    between atoms: CA   and  CB  
REMARK    6  A    between atoms: CB   and  CG  
REMARK    7  A    between atoms: CG   and  CD  
ROOT
ATOM     14  CA  GLU D 570     -18.033  -6.348 -13.375  1.00 32.92     0.160 C 
ENDROOT
BRANCH  14  15
ATOM     15  CB  GLU D 570     -19.500  -6.345 -13.794  1.00 32.92     0.043 C 
BRANCH  15  16
ATOM     16  CG  GLU D 570     -20.438  -5.514 -12.996  1.00 32.92     0.100 C 
BRANCH  16  17
ATOM     17  CD  GLU D 570     -21.737  -5.235 -13.716  1.00 32.92     0.185 C 
ATOM     18  OE1 GLU D 570     -22.260  -6.140 -14.393  1.00 32.92    -0.647 OA
ATOM     19  OE2 GLU D 570     -22.227  -4.092 -13.617  1.00 32.92    -0.647 OA
ENDBRANCH  16  17
ENDBRANCH  15  16
ENDBRANCH  14  15
END_RES GLU D 570
ENDMDL
MODEL 6
REMARK VINA RESULT:      -7.1      9.733     14.711
REMARK  30 active torsions:
REMARK  status: ('A' for Active; 'I' for Inactive)
REMARK    1  A    between atoms: C_2  and  C_3 
REMARK    2  A    between atoms: C_3  and  C_4 
REMARK    3  A    between atoms: C_4  and  C_5 
REMARK    4  A    between atoms: C_5  and  C_6 
REMARK    5  A    between atoms: C_6  and  C_7 
REMARK    6  A    between atoms: C_7  and  C_8 
REMARK    7  A    between atoms: C_8  and  C_9 
REMARK    8  A    between atoms: C_9  and  C_10 
REMARK    9  A    between atoms: C_10  and  C_11 
REMARK   10  A    between atoms: C_11  and  C_12 
REMARK   11  A    between atoms: C_12  and  C_13 
REMARK   12  A    between atoms: C_13  and  C_14 
REMARK   13  A    between atoms: C_14  and  C_15 
REMARK   14  A    between atoms: C_15  and  C_16 
REMARK   15  A    between atoms: C_16  and  C_17 
REMARK   16  A    between atoms: C_17  and  C_18 
REMARK   17  A    between atoms: C_18  and  O_20 
REMARK   18  A    between atoms: O_20  and  C_21 
REMARK   19  A    between atoms: C_21  and  C_22 
REMARK   20  A    between atoms: C_22  and  O_31 
REMARK   21  A    between atoms: C_23  and  O_30 
REMARK   22  A    between atoms: C_24  and  O_29 
REMARK   23  A    between atoms: C_25  and  C_27 
REMARK   24  A    between atoms: C_27  and  O_28 
REMARK   25  A    between atoms: O_31  and  C_32 
REMARK   26  A    between atoms: C_33  and  O_42 
REMARK   27  A    between atoms: C_34  and  O_41 
REMARK   28  A    between atoms: C_35  and  O_40 
REMARK   29  A    between atoms: C_36  and  C_38 
REMARK   30  A    between atoms: C_38  and  O_39 
ROOT
HETATM    1  C   UNL     1     -19.766 -11.645  -3.061  1.00  0.00     0.218 C 
HETATM    2  C   UNL     1     -20.211 -10.204  -3.601  1.00  0.00     0.214 C 
HETATM    3  C   UNL     1     -21.066 -10.489  -4.878  1.00  0.00     0.183 C 
HETATM    4  C   UNL     1     -20.809 -11.974  -5.152  1.00  0.00     0.180 C 
HETATM    5  O   UNL     1     -20.609 -12.520  -3.801  1.00  0.00    -0.341 OA
ENDROOT
BRANCH   1   6
HETATM    6  C   UNL     1     -19.918 -11.737  -1.502  1.00  0.00     0.250 C 
BRANCH   6   7
HETATM    7  O   UNL     1     -20.050 -10.442  -0.812  1.00  0.00    -0.316 OA
BRANCH   7   8
HETATM    8  C   UNL     1     -20.854 -10.349   0.254  1.00  0.00     0.258 C 
HETATM    9  O   UNL     1     -20.521 -10.431   1.426  1.00  0.00    -0.265 OA
BRANCH   8  10
HETATM   10  C   UNL     1     -22.245  -9.759  -0.021  1.00  0.00     0.111 C 
BRANCH  10  11
HETATM   11  C   UNL     1     -22.052  -8.420   0.658  1.00  0.00     0.010 C 
BRANCH  11  12
HETATM   12  C   UNL     1     -22.543  -7.338  -0.286  1.00  0.00     0.000 C 
BRANCH  12  13
HETATM   13  C   UNL     1     -21.636  -7.351  -1.544  1.00  0.00     0.000 C 
BRANCH  13  14
HETATM   14  C   UNL     1     -21.997  -6.202  -2.463  1.00  0.00     0.000 C 
BRANCH  14  15
HETATM   15  C   UNL     1     -21.278  -6.349  -3.780  1.00  0.00     0.000 C 
BRANCH  15  16
HETATM   16  C   UNL     1     -22.296  -6.411  -4.903  1.00  0.00     0.000 C 
BRANCH  16  17
HETATM   17  C   UNL     1     -21.622  -6.065  -6.214  1.00  0.00     0.000 C 
BRANCH  17  18
HETATM   18  C   UNL     1     -22.253  -4.818  -6.803  1.00  0.00     0.000 C 
BRANCH  18  19
HETATM   19  C   UNL     1     -21.171  -3.818  -7.165  1.00  0.00     0.000 C 
BRANCH  19  20
HETATM   20  C   UNL     1     -19.879  -4.547  -7.475  1.00  0.00     0.000 C 
BRANCH  20  21
HETATM   21  C   UNL     1     -19.783  -4.815  -8.966  1.00  0.00     0.000 C 
BRANCH  21  22
HETATM   22  C   UNL     1     -20.476  -3.706  -9.738  1.00  0.00     0.000 C 
BRANCH  22  23
HETATM   23  C   UNL     1     -20.631  -4.104 -11.196  1.00  0.00     0.000 C 
BRANCH  23  24
HETATM   24  C   UNL     1     -22.083  -4.441 -11.495  1.00  0.00    -0.000 C 
BRANCH  24  25
HETATM   25  C   UNL     1     -23.002  -3.788 -10.473  1.00  0.00    -0.005 C 
HETATM   26  C   UNL     1     -24.128  -4.732 -10.095  1.00  0.00     0.005 C 
ENDBRANCH  24  25
ENDBRANCH  23  24
ENDBRANCH  22  23
ENDBRANCH  21  22
ENDBRANCH  20  21
ENDBRANCH  19  20
ENDBRANCH  18  19
ENDBRANCH  17  18
ENDBRANCH  16  17
ENDBRANCH  15  16
ENDBRANCH  14  15
ENDBRANCH  13  14
ENDBRANCH  12  13
ENDBRANCH  11  12
ENDBRANCH  10  11
ENDBRANCH   8  10
ENDBRANCH   7   8
ENDBRANCH   6   7
ENDBRANCH   1   6
BRANCH   1  27
HETATM   27  O   UNL     1     -18.454 -12.097  -3.484  1.00  0.00    -0.318 OA
BRANCH  27  28
HETATM   28  C   UNL     1     -17.289 -11.911  -2.542  1.00  0.00     0.295 C 
HETATM   29  C   UNL     1     -16.372 -10.800  -3.186  1.00  0.00     0.204 C 
HETATM   30  C   UNL     1     -15.642 -11.427  -4.386  1.00  0.00     0.183 C 
HETATM   31  C   UNL     1     -14.840 -12.843  -4.076  1.00  0.00     0.180 C 
HETATM   32  C   UNL     1     -15.626 -13.812  -2.950  1.00  0.00     0.179 C 
HETATM   33  O   UNL     1     -16.445 -13.038  -2.017  1.00  0.00    -0.348 OA
BRANCH  29  34
HETATM   34  O   UNL     1     -15.531 -10.090  -2.270  1.00  0.00    -0.388 OA
HETATM   35  H   UNL     1     -14.598 -10.246  -2.487  1.00  0.00     0.210 HD
ENDBRANCH  29  34
BRANCH  30  36
HETATM   36  O   UNL     1     -14.998 -10.380  -5.155  1.00  0.00    -0.390 OA
HETATM   37  H   UNL     1     -14.383  -9.843  -4.616  1.00  0.00     0.210 HD
ENDBRANCH  30  36
BRANCH  31  38
HETATM   38  O   UNL     1     -13.430 -12.674  -3.811  1.00  0.00    -0.390 OA
HETATM   39  H   UNL     1     -12.933 -13.422  -4.183  1.00  0.00     0.210 HD
ENDBRANCH  31  38
BRANCH  32  40
HETATM   40  C   UNL     1     -14.909 -15.244  -2.558  1.00  0.00     0.198 C 
BRANCH  40  41
HETATM   41  O   UNL     1     -13.498 -15.146  -2.265  1.00  0.00    -0.398 OA
HETATM   42  H   UNL     1     -13.412 -14.852  -1.344  1.00  0.00     0.209 HD
ENDBRANCH  40  41
ENDBRANCH  32  40
ENDBRANCH  27  28
ENDBRANCH   1  27
BRANCH   2  43
HETATM   43  O   UNL     1     -19.110  -9.327  -3.804  1.00  0.00    -0.387 OA
HETATM   44  H   UNL     1     -19.009  -9.264  -4.771  1.00  0.00     0.210 HD
ENDBRANCH   2  43
BRANCH   3  45
HETATM   45  O   UNL     1     -21.101  -9.600  -5.988  1.00  0.00    -0.390 OA
HETATM   46  H   UNL     1     -21.829  -9.827  -6.591  1.00  0.00     0.210 HD
ENDBRANCH   3  45
BRANCH   4  47
HETATM   47  C   UNL     1     -19.932 -12.490  -6.495  1.00  0.00     0.198 C 
BRANCH  47  48
HETATM   48  O   UNL     1     -18.526 -12.313  -6.604  1.00  0.00    -0.398 OA
HETATM   49  H   UNL     1     -18.264 -11.666  -7.271  1.00  0.00     0.209 HD
ENDBRANCH  47  48
ENDBRANCH   4  47
TORSDOF 30
BEGIN_RES ARG D 557
REMARK  4 active torsions:
REMARK  status: ('A' for Active; 'I' for Inactive)
REMARK    1  A    between atoms: CA   and  CB  
REMARK    2  A    between atoms: CB   and  CG  
REMARK    3  A    between atoms: CG   and  CD  
REMARK    4  A    between atoms: CD   and  NE  
REMARK       I    between atoms: NE   and  CZ  
REMARK       I    between atoms: CZ   and  NH1 
REMARK       I    between atoms: CZ   and  NH2 
ROOT
ATOM      1  CA  ARG D 557     -26.217   2.705 -17.014  1.00 35.49     0.159 C 
ENDROOT
BRANCH   1   2
ATOM      2  CB  ARG D 557     -26.789   1.319 -17.183  1.00 35.49     0.034 C 
BRANCH   2   3
ATOM      3  CG  ARG D 557     -25.871   0.194 -16.965  1.00 35.49     0.027 C 
BRANCH   3   4
ATOM      4  CD  ARG D 557     -26.325  -0.702 -15.877  1.00 35.49     0.116 C 
BRANCH   4   5
ATOM      5  NE  ARG D 557     -25.290  -0.945 -14.907  1.00 35.49    -0.212 N 
ATOM      6  CZ  ARG D 557     -25.009  -2.106 -14.359  1.00 35.49     0.666 C 
ATOM      7  NH1 ARG D 557     -25.681  -3.206 -14.642  1.00 35.49    -0.235 N 
ATOM      8  NH2 ARG D 557     -24.021  -2.146 -13.512  1.00 35.49    -0.235 N 
ATOM      9  HH  ARG D 557     -26.334  -3.203 -15.198  1.00 35.49     0.174 HD
ATOM     10  HH  ARG D 557     -25.451  -3.935 -14.256  1.00 35.49     0.174 HD
ATOM     11  HH  ARG D 557     -23.600  -1.421 -13.354  1.00 35.49     0.174 HD
ATOM     12  HH  ARG D 557     -23.807  -2.878 -13.141  1.00 35.49     0.174 HD
ATOM     13  HE  ARG D 557     -24.854  -0.277 -14.612  1.00 35.49     0.178 HD
ENDBRANCH   4   5
ENDBRANCH   3   4
ENDBRANCH   2   3
ENDBRANCH   1   2
END_RES ARG D 557
BEGIN_RES GLU D 570
REMARK  3 active torsions:
REMARK  status: ('A' for Active; 'I' for Inactive)
REMARK    5  A    between atoms: CA   and  CB  
REMARK    6  A    between atoms: CB   and  CG  
REMARK    7  A    between atoms: CG   and  CD  
ROOT
ATOM     14  CA  GLU D 570     -18.033  -6.348 -13.375  1.00 32.92     0.160 C 
ENDROOT
BRANCH  14  15
ATOM     15  CB  GLU D 570     -19.500  -6.345 -13.794  1.00 32.92     0.043 C 
BRANCH  15  16
ATOM     16  CG  GLU D 570     -20.093  -7.639 -14.221  1.00 32.92     0.100 C 
BRANCH  16  17
ATOM     17  CD  GLU D 570     -20.569  -7.624 -15.655  1.00 32.92     0.185 C 
ATOM     18  OE1 GLU D 570     -20.823  -8.706 -16.219  1.00 32.92    -0.647 OA
ATOM     19  OE2 GLU D 570     -20.673  -6.520 -16.225  1.00 32.92    -0.647 OA
ENDBRANCH  16  17
ENDBRANCH  15  16
ENDBRANCH  14  15
END_RES GLU D 570
ENDMDL
MODEL 7
REMARK VINA RESULT:      -7.1      9.653     14.593
REMARK  30 active torsions:
REMARK  status: ('A' for Active; 'I' for Inactive)
REMARK    1  A    between atoms: C_2  and  C_3 
REMARK    2  A    between atoms: C_3  and  C_4 
REMARK    3  A    between atoms: C_4  and  C_5 
REMARK    4  A    between atoms: C_5  and  C_6 
REMARK    5  A    between atoms: C_6  and  C_7 
REMARK    6  A    between atoms: C_7  and  C_8 
REMARK    7  A    between atoms: C_8  and  C_9 
REMARK    8  A    between atoms: C_9  and  C_10 
REMARK    9  A    between atoms: C_10  and  C_11 
REMARK   10  A    between atoms: C_11  and  C_12 
REMARK   11  A    between atoms: C_12  and  C_13 
REMARK   12  A    between atoms: C_13  and  C_14 
REMARK   13  A    between atoms: C_14  and  C_15 
REMARK   14  A    between atoms: C_15  and  C_16 
REMARK   15  A    between atoms: C_16  and  C_17 
REMARK   16  A    between atoms: C_17  and  C_18 
REMARK   17  A    between atoms: C_18  and  O_20 
REMARK   18  A    between atoms: O_20  and  C_21 
REMARK   19  A    between atoms: C_21  and  C_22 
REMARK   20  A    between atoms: C_22  and  O_31 
REMARK   21  A    between atoms: C_23  and  O_30 
REMARK   22  A    between atoms: C_24  and  O_29 
REMARK   23  A    between atoms: C_25  and  C_27 
REMARK   24  A    between atoms: C_27  and  O_28 
REMARK   25  A    between atoms: O_31  and  C_32 
REMARK   26  A    between atoms: C_33  and  O_42 
REMARK   27  A    between atoms: C_34  and  O_41 
REMARK   28  A    between atoms: C_35  and  O_40 
REMARK   29  A    between atoms: C_36  and  C_38 
REMARK   30  A    between atoms: C_38  and  O_39 
ROOT
HETATM    1  C   UNL     1     -19.862 -11.270  -4.025  1.00  0.00     0.218 C 
HETATM    2  C   UNL     1     -21.224 -11.015  -4.827  1.00  0.00     0.214 C 
HETATM    3  C   UNL     1     -21.784 -12.438  -5.152  1.00  0.00     0.183 C 
HETATM    4  C   UNL     1     -20.612 -13.365  -4.810  1.00  0.00     0.180 C 
HETATM    5  O   UNL     1     -19.952 -12.653  -3.706  1.00  0.00    -0.341 OA
ENDROOT
BRANCH   1   6
HETATM    6  C   UNL     1     -19.743 -10.309  -2.791  1.00  0.00     0.250 C 
BRANCH   6   7
HETATM    7  O   UNL     1     -20.535 -10.707  -1.614  1.00  0.00    -0.316 OA
BRANCH   7   8
HETATM    8  C   UNL     1     -19.905 -11.180  -0.532  1.00  0.00     0.258 C 
HETATM    9  O   UNL     1     -18.733 -11.515  -0.461  1.00  0.00    -0.265 OA
BRANCH   8  10
HETATM   10  C   UNL     1     -20.636 -10.964   0.801  1.00  0.00     0.111 C 
BRANCH  10  11
HETATM   11  C   UNL     1     -21.660  -9.954   0.327  1.00  0.00     0.010 C 
BRANCH  11  12
HETATM   12  C   UNL     1     -21.452  -8.671   1.110  1.00  0.00     0.000 C 
BRANCH  12  13
HETATM   13  C   UNL     1     -22.245  -7.542   0.402  1.00  0.00     0.000 C 
BRANCH  13  14
HETATM   14  C   UNL     1     -22.121  -7.678  -1.102  1.00  0.00     0.000 C 
BRANCH  14  15
HETATM   15  C   UNL     1     -22.287  -6.331  -1.758  1.00  0.00     0.000 C 
BRANCH  15  16
HETATM   16  C   UNL     1     -21.225  -6.160  -2.827  1.00  0.00     0.000 C 
BRANCH  16  17
HETATM   17  C   UNL     1     -21.480  -7.143  -3.952  1.00  0.00     0.000 C 
BRANCH  17  18
HETATM   18  C   UNL     1     -22.002  -6.407  -5.170  1.00  0.00     0.000 C 
BRANCH  18  19
HETATM   19  C   UNL     1     -20.871  -6.180  -6.156  1.00  0.00     0.000 C 
BRANCH  19  20
HETATM   20  C   UNL     1     -20.295  -4.790  -5.968  1.00  0.00     0.000 C 
BRANCH  20  21
HETATM   21  C   UNL     1     -20.722  -3.895  -7.117  1.00  0.00     0.000 C 
BRANCH  21  22
HETATM   22  C   UNL     1     -20.034  -4.332  -8.397  1.00  0.00     0.000 C 
BRANCH  22  23
HETATM   23  C   UNL     1     -21.038  -4.385  -9.537  1.00  0.00     0.000 C 
BRANCH  23  24
HETATM   24  C   UNL     1     -22.435  -4.090  -9.017  1.00  0.00    -0.000 C 
BRANCH  24  25
HETATM   25  C   UNL     1     -23.328  -3.588 -10.143  1.00  0.00    -0.005 C 
HETATM   26  C   UNL     1     -24.749  -3.398  -9.646  1.00  0.00     0.005 C 
ENDBRANCH  24  25
ENDBRANCH  23  24
ENDBRANCH  22  23
ENDBRANCH  21  22
ENDBRANCH  20  21
ENDBRANCH  19  20
ENDBRANCH  18  19
ENDBRANCH  17  18
ENDBRANCH  16  17
ENDBRANCH  15  16
ENDBRANCH  14  15
ENDBRANCH  13  14
ENDBRANCH  12  13
ENDBRANCH  11  12
ENDBRANCH  10  11
ENDBRANCH   8  10
ENDBRANCH   7   8
ENDBRANCH   6   7
ENDBRANCH   1   6
BRANCH   1  27
HETATM   27  O   UNL     1     -18.650 -11.245  -4.823  1.00  0.00    -0.318 OA
BRANCH  27  28
HETATM   28  C   UNL     1     -17.438 -10.534  -4.272  1.00  0.00     0.295 C 
HETATM   29  C   UNL     1     -16.386 -10.478  -5.447  1.00  0.00     0.204 C 
HETATM   30  C   UNL     1     -15.803 -11.890  -5.627  1.00  0.00     0.183 C 
HETATM   31  C   UNL     1     -15.215 -12.602  -4.252  1.00  0.00     0.180 C 
HETATM   32  C   UNL     1     -16.098 -12.210  -2.877  1.00  0.00     0.179 C 
HETATM   33  O   UNL     1     -16.757 -10.908  -2.985  1.00  0.00    -0.348 OA
BRANCH  29  34
HETATM   34  O   UNL     1     -15.415  -9.430  -5.353  1.00  0.00    -0.388 OA
HETATM   35  H   UNL     1     -15.178  -9.116  -6.240  1.00  0.00     0.210 HD
ENDBRANCH  29  34
BRANCH  30  36
HETATM   36  O   UNL     1     -15.035 -11.937  -6.855  1.00  0.00    -0.390 OA
HETATM   37  H   UNL     1     -14.861 -11.047  -7.224  1.00  0.00     0.210 HD
ENDBRANCH  30  36
BRANCH  31  38
HETATM   38  O   UNL     1     -13.787 -12.463  -4.081  1.00  0.00    -0.390 OA
HETATM   39  H   UNL     1     -13.359 -12.375  -4.949  1.00  0.00     0.210 HD
ENDBRANCH  31  38
BRANCH  32  40
HETATM   40  C   UNL     1     -15.594 -12.858  -1.447  1.00  0.00     0.198 C 
BRANCH  40  41
HETATM   41  O   UNL     1     -15.785 -12.000  -0.301  1.00  0.00    -0.398 OA
HETATM   42  H   UNL     1     -15.158 -12.285   0.383  1.00  0.00     0.209 HD
ENDBRANCH  40  41
ENDBRANCH  32  40
ENDBRANCH  27  28
ENDBRANCH   1  27
BRANCH   2  43
HETATM   43  O   UNL     1     -21.050 -10.170  -5.958  1.00  0.00    -0.387 OA
HETATM   44  H   UNL     1     -20.370 -10.609  -6.501  1.00  0.00     0.210 HD
ENDBRANCH   2  43
BRANCH   3  45
HETATM   45  O   UNL     1     -22.534 -12.713  -6.329  1.00  0.00    -0.390 OA
HETATM   46  H   UNL     1     -21.944 -12.863  -7.087  1.00  0.00     0.210 HD
ENDBRANCH   3  45
BRANCH   4  47
HETATM   47  C   UNL     1     -19.769 -14.206  -6.003  1.00  0.00     0.198 C 
BRANCH  47  48
HETATM   48  O   UNL     1     -18.753 -13.601  -6.791  1.00  0.00    -0.398 OA
HETATM   49  H   UNL     1     -17.892 -14.032  -6.717  1.00  0.00     0.209 HD
ENDBRANCH  47  48
ENDBRANCH   4  47
TORSDOF 30
BEGIN_RES ARG D 557
REMARK  4 active torsions:
REMARK  status: ('A' for Active; 'I' for Inactive)
REMARK    1  A    between atoms: CA   and  CB  
REMARK    2  A    between atoms: CB   and  CG  
REMARK    3  A    between atoms: CG   and  CD  
REMARK    4  A    between atoms: CD   and  NE  
REMARK       I    between atoms: NE   and  CZ  
REMARK       I    between atoms: CZ   and  NH1 
REMARK       I    between atoms: CZ   and  NH2 
ROOT
ATOM      1  CA  ARG D 557     -26.217   2.705 -17.014  1.00 35.49     0.159 C 
ENDROOT
BRANCH   1   2
ATOM      2  CB  ARG D 557     -26.789   1.319 -17.183  1.00 35.49     0.034 C 
BRANCH   2   3
ATOM      3  CG  ARG D 557     -28.199   1.137 -16.817  1.00 35.49     0.027 C 
BRANCH   3   4
ATOM      4  CD  ARG D 557     -28.627  -0.278 -16.905  1.00 35.49     0.116 C 
BRANCH   4   5
ATOM      5  NE  ARG D 557     -27.699  -1.166 -16.255  1.00 35.49    -0.212 N 
ATOM      6  CZ  ARG D 557     -27.698  -2.477 -16.348  1.00 35.49     0.666 C 
ATOM      7  NH1 ARG D 557     -28.589  -3.138 -17.063  1.00 35.49    -0.235 N 
ATOM      8  NH2 ARG D 557     -26.768  -3.123 -15.706  1.00 35.49    -0.235 N 
ATOM      9  HH  ARG D 557     -29.208  -2.733 -17.495  1.00 35.49     0.174 HD
ATOM     10  HH  ARG D 557     -28.536  -3.993 -17.089  1.00 35.49     0.174 HD
ATOM     11  HH  ARG D 557     -26.201  -2.669 -15.258  1.00 35.49     0.174 HD
ATOM     12  HH  ARG D 557     -26.732  -3.969 -15.745  1.00 35.49     0.174 HD
ATOM     13  HE  ARG D 557     -27.135  -0.829 -15.715  1.00 35.49     0.178 HD
ENDBRANCH   4   5
ENDBRANCH   3   4
ENDBRANCH   2   3
ENDBRANCH   1   2
END_RES ARG D 557
BEGIN_RES GLU D 570
REMARK  3 active torsions:
REMARK  status: ('A' for Active; 'I' for Inactive)
REMARK    5  A    between atoms: CA   and  CB  
REMARK    6  A    between atoms: CB   and  CG  
REMARK    7  A    between atoms: CG   and  CD  
ROOT
ATOM     14  CA  GLU D 570     -18.033  -6.348 -13.375  1.00 32.92     0.160 C 
ENDROOT
BRANCH  14  15
ATOM     15  CB  GLU D 570     -19.500  -6.345 -13.794  1.00 32.92     0.043 C 
BRANCH  15  16
ATOM     16  CG  GLU D 570     -20.440  -5.524 -12.989  1.00 32.92     0.100 C 
BRANCH  16  17
ATOM     17  CD  GLU D 570     -21.676  -5.119 -13.757  1.00 32.92     0.185 C 
ATOM     18  OE1 GLU D 570     -22.361  -4.164 -13.343  1.00 32.92    -0.647 OA
ATOM     19  OE2 GLU D 570     -21.972  -5.774 -14.776  1.00 32.92    -0.647 OA
ENDBRANCH  16  17
ENDBRANCH  15  16
ENDBRANCH  14  15
END_RES GLU D 570
ENDMDL
MODEL 8
REMARK VINA RESULT:      -7.0      8.865     14.165
REMARK  30 active torsions:
REMARK  status: ('A' for Active; 'I' for Inactive)
REMARK    1  A    between atoms: C_2  and  C_3 
REMARK    2  A    between atoms: C_3  and  C_4 
REMARK    3  A    between atoms: C_4  and  C_5 
REMARK    4  A    between atoms: C_5  and  C_6 
REMARK    5  A    between atoms: C_6  and  C_7 
REMARK    6  A    between atoms: C_7  and  C_8 
REMARK    7  A    between atoms: C_8  and  C_9 
REMARK    8  A    between atoms: C_9  and  C_10 
REMARK    9  A    between atoms: C_10  and  C_11 
REMARK   10  A    between atoms: C_11  and  C_12 
REMARK   11  A    between atoms: C_12  and  C_13 
REMARK   12  A    between atoms: C_13  and  C_14 
REMARK   13  A    between atoms: C_14  and  C_15 
REMARK   14  A    between atoms: C_15  and  C_16 
REMARK   15  A    between atoms: C_16  and  C_17 
REMARK   16  A    between atoms: C_17  and  C_18 
REMARK   17  A    between atoms: C_18  and  O_20 
REMARK   18  A    between atoms: O_20  and  C_21 
REMARK   19  A    between atoms: C_21  and  C_22 
REMARK   20  A    between atoms: C_22  and  O_31 
REMARK   21  A    between atoms: C_23  and  O_30 
REMARK   22  A    between atoms: C_24  and  O_29 
REMARK   23  A    between atoms: C_25  and  C_27 
REMARK   24  A    between atoms: C_27  and  O_28 
REMARK   25  A    between atoms: O_31  and  C_32 
REMARK   26  A    between atoms: C_33  and  O_42 
REMARK   27  A    between atoms: C_34  and  O_41 
REMARK   28  A    between atoms: C_35  and  O_40 
REMARK   29  A    between atoms: C_36  and  C_38 
REMARK   30  A    between atoms: C_38  and  O_39 
ROOT
HETATM    1  C   UNL     1     -20.479 -10.636  -3.571  1.00  0.00     0.218 C 
HETATM    2  C   UNL     1     -19.435 -10.289  -2.407  1.00  0.00     0.214 C 
HETATM    3  C   UNL     1     -18.434  -9.270  -3.040  1.00  0.00     0.183 C 
HETATM    4  C   UNL     1     -18.764  -9.334  -4.535  1.00  0.00     0.180 C 
HETATM    5  O   UNL     1     -20.204  -9.626  -4.534  1.00  0.00    -0.341 OA
ENDROOT
BRANCH   1   6
HETATM    6  C   UNL     1     -21.950 -10.652  -3.026  1.00  0.00     0.250 C 
BRANCH   6   7
HETATM    7  O   UNL     1     -22.079 -10.959  -1.591  1.00  0.00    -0.316 OA
BRANCH   7   8
HETATM    8  C   UNL     1     -23.244 -10.727  -0.976  1.00  0.00     0.258 C 
HETATM    9  O   UNL     1     -24.167 -11.515  -0.844  1.00  0.00    -0.265 OA
BRANCH   8  10
HETATM   10  C   UNL     1     -23.278  -9.481  -0.079  1.00  0.00     0.111 C 
BRANCH  10  11
HETATM   11  C   UNL     1     -21.803  -9.417   0.261  1.00  0.00     0.010 C 
BRANCH  11  12
HETATM   12  C   UNL     1     -21.278  -8.062  -0.175  1.00  0.00     0.000 C 
BRANCH  12  13
HETATM   13  C   UNL     1     -22.482  -7.214  -0.661  1.00  0.00     0.000 C 
BRANCH  13  14
HETATM   14  C   UNL     1     -22.037  -6.231  -1.725  1.00  0.00     0.000 C 
BRANCH  14  15
HETATM   15  C   UNL     1     -21.579  -6.975  -2.955  1.00  0.00     0.000 C 
BRANCH  15  16
HETATM   16  C   UNL     1     -21.237  -5.977  -4.044  1.00  0.00     0.000 C 
BRANCH  16  17
HETATM   17  C   UNL     1     -21.785  -6.469  -5.368  1.00  0.00     0.000 C 
BRANCH  17  18
HETATM   18  C   UNL     1     -21.742  -5.350  -6.390  1.00  0.00     0.000 C 
BRANCH  18  19
HETATM   19  C   UNL     1     -20.458  -4.558  -6.231  1.00  0.00     0.000 C 
BRANCH  19  20
HETATM   20  C   UNL     1     -19.681  -4.569  -7.533  1.00  0.00     0.000 C 
BRANCH  20  21
HETATM   21  C   UNL     1     -20.602  -4.216  -8.686  1.00  0.00     0.000 C 
BRANCH  21  22
HETATM   22  C   UNL     1     -20.038  -4.761  -9.986  1.00  0.00     0.000 C 
BRANCH  22  23
HETATM   23  C   UNL     1     -20.620  -4.001 -11.166  1.00  0.00     0.000 C 
BRANCH  23  24
HETATM   24  C   UNL     1     -21.904  -3.299 -10.755  1.00  0.00    -0.000 C 
BRANCH  24  25
HETATM   25  C   UNL     1     -22.630  -2.757 -11.978  1.00  0.00    -0.005 C 
HETATM   26  C   UNL     1     -24.072  -3.229 -11.989  1.00  0.00     0.005 C 
ENDBRANCH  24  25
ENDBRANCH  23  24
ENDBRANCH  22  23
ENDBRANCH  21  22
ENDBRANCH  20  21
ENDBRANCH  19  20
ENDBRANCH  18  19
ENDBRANCH  17  18
ENDBRANCH  16  17
ENDBRANCH  15  16
ENDBRANCH  14  15
ENDBRANCH  13  14
ENDBRANCH  12  13
ENDBRANCH  11  12
ENDBRANCH  10  11
ENDBRANCH   8  10
ENDBRANCH   7   8
ENDBRANCH   6   7
ENDBRANCH   1   6
BRANCH   1  27
HETATM   27  O   UNL     1     -20.193 -11.836  -4.334  1.00  0.00    -0.318 OA
BRANCH  27  28
HETATM   28  C   UNL     1     -21.129 -12.219  -5.454  1.00  0.00     0.295 C 
HETATM   29  C   UNL     1     -21.974 -13.442  -4.925  1.00  0.00     0.204 C 
HETATM   30  C   UNL     1     -21.059 -14.678  -4.914  1.00  0.00     0.183 C 
HETATM   31  C   UNL     1     -20.264 -14.993  -6.332  1.00  0.00     0.180 C 
HETATM   32  C   UNL     1     -19.811 -13.601  -7.157  1.00  0.00     0.179 C 
HETATM   33  O   UNL     1     -20.690 -12.467  -6.870  1.00  0.00    -0.348 OA
BRANCH  29  34
HETATM   34  O   UNL     1     -23.243 -13.634  -5.562  1.00  0.00    -0.388 OA
HETATM   35  H   UNL     1     -23.458 -14.579  -5.594  1.00  0.00     0.210 HD
ENDBRANCH  29  34
BRANCH  30  36
HETATM   36  O   UNL     1     -21.716 -15.752  -4.195  1.00  0.00    -0.390 OA
HETATM   37  H   UNL     1     -22.311 -15.424  -3.491  1.00  0.00     0.210 HD
ENDBRANCH  30  36
BRANCH  31  38
HETATM   38  O   UNL     1     -20.917 -15.974  -7.168  1.00  0.00    -0.390 OA
HETATM   39  H   UNL     1     -21.315 -16.666  -6.614  1.00  0.00     0.210 HD
ENDBRANCH  31  38
BRANCH  32  40
HETATM   40  C   UNL     1     -19.019 -13.798  -8.590  1.00  0.00     0.198 C 
BRANCH  40  41
HETATM   41  O   UNL     1     -17.829 -12.992  -8.731  1.00  0.00    -0.398 OA
HETATM   42  H   UNL     1     -17.064 -13.579  -8.610  1.00  0.00     0.209 HD
ENDBRANCH  40  41
ENDBRANCH  32  40
ENDBRANCH  27  28
ENDBRANCH   1  27
BRANCH   2  43
HETATM   43  O   UNL     1     -18.830 -11.448  -1.845  1.00  0.00    -0.387 OA
HETATM   44  H   UNL     1     -19.538 -12.117  -1.817  1.00  0.00     0.210 HD
ENDBRANCH   2  43
BRANCH   3  45
HETATM   45  O   UNL     1     -17.065  -9.205  -2.658  1.00  0.00    -0.390 OA
HETATM   46  H   UNL     1     -16.486  -9.377  -3.420  1.00  0.00     0.210 HD
ENDBRANCH   3  45
BRANCH   4  47
HETATM   47  C   UNL     1     -17.688  -9.993  -5.653  1.00  0.00     0.198 C 
BRANCH  47  48
HETATM   48  O   UNL     1     -17.913 -11.247  -6.283  1.00  0.00    -0.398 OA
HETATM   49  H   UNL     1     -18.660 -11.739  -5.919  1.00  0.00     0.209 HD
ENDBRANCH  47  48
ENDBRANCH   4  47
TORSDOF 30
BEGIN_RES ARG D 557
REMARK  4 active torsions:
REMARK  status: ('A' for Active; 'I' for Inactive)
REMARK    1  A    between atoms: CA   and  CB  
REMARK    2  A    between atoms: CB   and  CG  
REMARK    3  A    between atoms: CG   and  CD  
REMARK    4  A    between atoms: CD   and  NE  
REMARK       I    between atoms: NE   and  CZ  
REMARK       I    between atoms: CZ   and  NH1 
REMARK       I    between atoms: CZ   and  NH2 
ROOT
ATOM      1  CA  ARG D 557     -26.217   2.705 -17.014  1.00 35.49     0.159 C 
ENDROOT
BRANCH   1   2
ATOM      2  CB  ARG D 557     -26.789   1.319 -17.183  1.00 35.49     0.034 C 
BRANCH   2   3
ATOM      3  CG  ARG D 557     -26.186   0.252 -16.374  1.00 35.49     0.027 C 
BRANCH   3   4
ATOM      4  CD  ARG D 557     -27.110  -0.886 -16.163  1.00 35.49     0.116 C 
BRANCH   4   5
ATOM      5  NE  ARG D 557     -26.455  -2.007 -15.543  1.00 35.49    -0.212 N 
ATOM      6  CZ  ARG D 557     -26.792  -3.269 -15.687  1.00 35.49     0.666 C 
ATOM      7  NH1 ARG D 557     -27.813  -3.650 -16.432  1.00 35.49    -0.235 N 
ATOM      8  NH2 ARG D 557     -26.072  -4.158 -15.065  1.00 35.49    -0.235 N 
ATOM      9  HH  ARG D 557     -28.300  -3.083 -16.851  1.00 35.49     0.174 HD
ATOM     10  HH  ARG D 557     -27.984  -4.488 -16.490  1.00 35.49     0.174 HD
ATOM     11  HH  ARG D 557     -25.414  -3.883 -14.597  1.00 35.49     0.174 HD
ATOM     12  HH  ARG D 557     -26.256  -4.982 -15.137  1.00 35.49     0.174 HD
ATOM     13  HE  ARG D 557     -25.831  -1.848 -14.988  1.00 35.49     0.178 HD
ENDBRANCH   4   5
ENDBRANCH   3   4
ENDBRANCH   2   3
ENDBRANCH   1   2
END_RES ARG D 557
BEGIN_RES GLU D 570
REMARK  3 active torsions:
REMARK  status: ('A' for Active; 'I' for Inactive)
REMARK    5  A    between atoms: CA   and  CB  
REMARK    6  A    between atoms: CB   and  CG  
REMARK    7  A    between atoms: CG   and  CD  
ROOT
ATOM     14  CA  GLU D 570     -18.033  -6.348 -13.375  1.00 32.92     0.160 C 
ENDROOT
BRANCH  14  15
ATOM     15  CB  GLU D 570     -19.500  -6.345 -13.794  1.00 32.92     0.043 C 
BRANCH  15  16
ATOM     16  CG  GLU D 570     -19.806  -6.029 -15.213  1.00 32.92     0.100 C 
BRANCH  16  17
ATOM     17  CD  GLU D 570     -21.195  -5.465 -15.405  1.00 32.92     0.185 C 
ATOM     18  OE1 GLU D 570     -21.572  -5.163 -16.554  1.00 32.92    -0.647 OA
ATOM     19  OE2 GLU D 570     -21.907  -5.308 -14.394  1.00 32.92    -0.647 OA
ENDBRANCH  16  17
ENDBRANCH  15  16
ENDBRANCH  14  15
END_RES GLU D 570
ENDMDL
MODEL 9
REMARK VINA RESULT:      -7.0     10.434     15.264
REMARK  30 active torsions:
REMARK  status: ('A' for Active; 'I' for Inactive)
REMARK    1  A    between atoms: C_2  and  C_3 
REMARK    2  A    between atoms: C_3  and  C_4 
REMARK    3  A    between atoms: C_4  and  C_5 
REMARK    4  A    between atoms: C_5  and  C_6 
REMARK    5  A    between atoms: C_6  and  C_7 
REMARK    6  A    between atoms: C_7  and  C_8 
REMARK    7  A    between atoms: C_8  and  C_9 
REMARK    8  A    between atoms: C_9  and  C_10 
REMARK    9  A    between atoms: C_10  and  C_11 
REMARK   10  A    between atoms: C_11  and  C_12 
REMARK   11  A    between atoms: C_12  and  C_13 
REMARK   12  A    between atoms: C_13  and  C_14 
REMARK   13  A    between atoms: C_14  and  C_15 
REMARK   14  A    between atoms: C_15  and  C_16 
REMARK   15  A    between atoms: C_16  and  C_17 
REMARK   16  A    between atoms: C_17  and  C_18 
REMARK   17  A    between atoms: C_18  and  O_20 
REMARK   18  A    between atoms: O_20  and  C_21 
REMARK   19  A    between atoms: C_21  and  C_22 
REMARK   20  A    between atoms: C_22  and  O_31 
REMARK   21  A    between atoms: C_23  and  O_30 
REMARK   22  A    between atoms: C_24  and  O_29 
REMARK   23  A    between atoms: C_25  and  C_27 
REMARK   24  A    between atoms: C_27  and  O_28 
REMARK   25  A    between atoms: O_31  and  C_32 
REMARK   26  A    between atoms: C_33  and  O_42 
REMARK   27  A    between atoms: C_34  and  O_41 
REMARK   28  A    between atoms: C_35  and  O_40 
REMARK   29  A    between atoms: C_36  and  C_38 
REMARK   30  A    between atoms: C_38  and  O_39 
ROOT
HETATM    1  C   UNL     1     -19.130 -12.408  -0.391  1.00  0.00     0.218 C 
HETATM    2  C   UNL     1     -19.348 -13.877   0.207  1.00  0.00     0.214 C 
HETATM    3  C   UNL     1     -17.988 -14.255   0.880  1.00  0.00     0.183 C 
HETATM    4  C   UNL     1     -17.033 -13.167   0.379  1.00  0.00     0.180 C 
HETATM    5  O   UNL     1     -17.918 -12.003   0.235  1.00  0.00    -0.341 OA
ENDROOT
BRANCH   1   6
HETATM    6  C   UNL     1     -20.367 -11.489  -0.101  1.00  0.00     0.250 C 
BRANCH   6   7
HETATM    7  O   UNL     1     -21.678 -12.146  -0.245  1.00  0.00    -0.316 OA
BRANCH   7   8
HETATM    8  C   UNL     1     -22.781 -11.392  -0.327  1.00  0.00     0.258 C 
HETATM    9  O   UNL     1     -23.856 -11.614   0.209  1.00  0.00    -0.265 OA
BRANCH   8  10
HETATM   10  C   UNL     1     -22.567  -9.969  -0.864  1.00  0.00     0.111 C 
BRANCH  10  11
HETATM   11  C   UNL     1     -23.417  -9.225   0.145  1.00  0.00     0.010 C 
BRANCH  11  12
HETATM   12  C   UNL     1     -22.877  -7.812   0.264  1.00  0.00     0.000 C 
BRANCH  12  13
HETATM   13  C   UNL     1     -21.877  -7.580  -0.898  1.00  0.00     0.000 C 
BRANCH  13  14
HETATM   14  C   UNL     1     -22.220  -6.303  -1.638  1.00  0.00     0.000 C 
BRANCH  14  15
HETATM   15  C   UNL     1     -21.446  -6.231  -2.930  1.00  0.00     0.000 C 
BRANCH  15  16
HETATM   16  C   UNL     1     -20.931  -7.613  -3.282  1.00  0.00     0.000 C 
BRANCH  16  17
HETATM   17  C   UNL     1     -20.509  -7.637  -4.737  1.00  0.00     0.000 C 
BRANCH  17  18
HETATM   18  C   UNL     1     -21.362  -6.672  -5.537  1.00  0.00     0.000 C 
BRANCH  18  19
HETATM   19  C   UNL     1     -20.522  -6.019  -6.617  1.00  0.00     0.000 C 
BRANCH  19  20
HETATM   20  C   UNL     1     -20.320  -4.551  -6.295  1.00  0.00     0.000 C 
BRANCH  20  21
HETATM   21  C   UNL     1     -21.170  -3.698  -7.220  1.00  0.00     0.000 C 
BRANCH  21  22
HETATM   22  C   UNL     1     -21.460  -4.456  -8.503  1.00  0.00     0.000 C 
BRANCH  22  23
HETATM   23  C   UNL     1     -22.579  -3.772  -9.271  1.00  0.00     0.000 C 
BRANCH  23  24
HETATM   24  C   UNL     1     -23.033  -4.649 -10.426  1.00  0.00    -0.000 C 
BRANCH  24  25
HETATM   25  C   UNL     1     -22.183  -4.385 -11.661  1.00  0.00    -0.005 C 
HETATM   26  C   UNL     1     -22.030  -2.893 -11.889  1.00  0.00     0.005 C 
ENDBRANCH  24  25
ENDBRANCH  23  24
ENDBRANCH  22  23
ENDBRANCH  21  22
ENDBRANCH  20  21
ENDBRANCH  19  20
ENDBRANCH  18  19
ENDBRANCH  17  18
ENDBRANCH  16  17
ENDBRANCH  15  16
ENDBRANCH  14  15
ENDBRANCH  13  14
ENDBRANCH  12  13
ENDBRANCH  11  12
ENDBRANCH  10  11
ENDBRANCH   8  10
ENDBRANCH   7   8
ENDBRANCH   6   7
ENDBRANCH   1   6
BRANCH   1  27
HETATM   27  O   UNL     1     -18.754 -12.349  -1.792  1.00  0.00    -0.318 OA
BRANCH  27  28
HETATM   28  C   UNL     1     -19.297 -11.223  -2.637  1.00  0.00     0.295 C 
HETATM   29  C   UNL     1     -20.327 -11.878  -3.637  1.00  0.00     0.204 C 
HETATM   30  C   UNL     1     -19.528 -12.645  -4.704  1.00  0.00     0.183 C 
HETATM   31  C   UNL     1     -18.334 -11.782  -5.461  1.00  0.00     0.180 C 
HETATM   32  C   UNL     1     -17.570 -10.682  -4.446  1.00  0.00     0.179 C 
HETATM   33  O   UNL     1     -18.437 -10.224  -3.360  1.00  0.00    -0.348 OA
BRANCH  29  34
HETATM   34  O   UNL     1     -21.331 -10.995  -4.152  1.00  0.00    -0.388 OA
HETATM   35  H   UNL     1     -21.915 -10.702  -3.434  1.00  0.00     0.210 HD
ENDBRANCH  29  34
BRANCH  30  36
HETATM   36  O   UNL     1     -20.433 -13.469  -5.480  1.00  0.00    -0.390 OA
HETATM   37  H   UNL     1     -20.074 -13.693  -6.362  1.00  0.00     0.210 HD
ENDBRANCH  30  36
BRANCH  31  38
HETATM   38  O   UNL     1     -18.730 -11.219  -6.731  1.00  0.00    -0.390 OA
HETATM   39  H   UNL     1     -19.630 -10.857  -6.665  1.00  0.00     0.210 HD
ENDBRANCH  31  38
BRANCH  32  40
HETATM   40  C   UNL     1     -16.369  -9.761  -5.101  1.00  0.00     0.198 C 
BRANCH  40  41
HETATM   41  O   UNL     1     -15.785 -10.307  -6.303  1.00  0.00    -0.398 OA
HETATM   42  H   UNL     1     -15.880 -11.272  -6.260  1.00  0.00     0.209 HD
ENDBRANCH  40  41
ENDBRANCH  32  40
ENDBRANCH  27  28
ENDBRANCH   1  27
BRANCH   2  43
HETATM   43  O   UNL     1     -19.810 -14.806  -0.766  1.00  0.00    -0.387 OA
HETATM   44  H   UNL     1     -19.016 -15.066  -1.268  1.00  0.00     0.210 HD
ENDBRANCH   2  43
BRANCH   3  45
HETATM   45  O   UNL     1     -17.510 -15.593   0.936  1.00  0.00    -0.390 OA
HETATM   46  H   UNL     1     -18.098 -16.191   0.443  1.00  0.00     0.210 HD
ENDBRANCH   3  45
BRANCH   4  47
HETATM   47  C   UNL     1     -15.779 -13.513  -0.694  1.00  0.00     0.198 C 
BRANCH  47  48
HETATM   48  O   UNL     1     -15.068 -14.742  -0.667  1.00  0.00    -0.398 OA
HETATM   49  H   UNL     1     -14.903 -15.118  -1.541  1.00  0.00     0.209 HD
ENDBRANCH  47  48
ENDBRANCH   4  47
TORSDOF 30
BEGIN_RES ARG D 557
REMARK  4 active torsions:
REMARK  status: ('A' for Active; 'I' for Inactive)
REMARK    1  A    between atoms: CA   and  CB  
REMARK    2  A    between atoms: CB   and  CG  
REMARK    3  A    between atoms: CG   and  CD  
REMARK    4  A    between atoms: CD   and  NE  
REMARK       I    between atoms: NE   and  CZ  
REMARK       I    between atoms: CZ   and  NH1 
REMARK       I    between atoms: CZ   and  NH2 
ROOT
ATOM      1  CA  ARG D 557     -26.217   2.705 -17.014  1.00 35.49     0.159 C 
ENDROOT
BRANCH   1   2
ATOM      2  CB  ARG D 557     -26.789   1.319 -17.183  1.00 35.49     0.034 C 
BRANCH   2   3
ATOM      3  CG  ARG D 557     -25.937   0.198 -16.769  1.00 35.49     0.027 C 
BRANCH   3   4
ATOM      4  CD  ARG D 557     -26.711  -0.894 -16.134  1.00 35.49     0.116 C 
BRANCH   4   5
ATOM      5  NE  ARG D 557     -26.006  -1.485 -15.027  1.00 35.49    -0.212 N 
ATOM      6  CZ  ARG D 557     -26.025  -2.757 -14.695  1.00 35.49     0.666 C 
ATOM      7  NH1 ARG D 557     -26.730  -3.653 -15.361  1.00 35.49    -0.235 N 
ATOM      8  NH2 ARG D 557     -25.308  -3.121 -13.673  1.00 35.49    -0.235 N 
ATOM      9  HH  ARG D 557     -27.208  -3.436 -16.038  1.00 35.49     0.174 HD
ATOM     10  HH  ARG D 557     -26.702  -4.468 -15.100  1.00 35.49     0.174 HD
ATOM     11  HH  ARG D 557     -24.856  -2.522 -13.266  1.00 35.49     0.174 HD
ATOM     12  HH  ARG D 557     -25.292  -3.934 -13.431  1.00 35.49     0.174 HD
ATOM     13  HE  ARG D 557     -25.583  -0.968 -14.500  1.00 35.49     0.178 HD
ENDBRANCH   4   5
ENDBRANCH   3   4
ENDBRANCH   2   3
ENDBRANCH   1   2
END_RES ARG D 557
BEGIN_RES GLU D 570
REMARK  3 active torsions:
REMARK  status: ('A' for Active; 'I' for Inactive)
REMARK    5  A    between atoms: CA   and  CB  
REMARK    6  A    between atoms: CB   and  CG  
REMARK    7  A    between atoms: CG   and  CD  
ROOT
ATOM     14  CA  GLU D 570     -18.033  -6.348 -13.375  1.00 32.92     0.160 C 
ENDROOT
BRANCH  14  15
ATOM     15  CB  GLU D 570     -19.500  -6.345 -13.794  1.00 32.92     0.043 C 
BRANCH  15  16
ATOM     16  CG  GLU D 570     -19.808  -5.999 -15.206  1.00 32.92     0.100 C 
BRANCH  16  17
ATOM     17  CD  GLU D 570     -21.274  -5.714 -15.436  1.00 32.92     0.185 C 
ATOM     18  OE1 GLU D 570     -22.125  -6.409 -14.849  1.00 32.92    -0.647 OA
ATOM     19  OE2 GLU D 570     -21.574  -4.798 -16.226  1.00 32.92    -0.647 OA
ENDBRANCH  16  17
ENDBRANCH  15  16
ENDBRANCH  14  15
END_RES GLU D 570
ENDMDL
