MODEL 1
REMARK VINA RESULT:      -7.5      0.000      0.000
REMARK  25 active torsions:
REMARK  status: ('A' for Active; 'I' for Inactive)
REMARK    1  A    between atoms: C_2  and  C_3 
REMARK    2  A    between atoms: C_3  and  C_4 
REMARK    3  A    between atoms: C_4  and  C_5 
REMARK    4  A    between atoms: C_5  and  C_6 
REMARK    5  A    between atoms: C_6  and  C_7 
REMARK    6  A    between atoms: C_7  and  C_8 
REMARK    7  A    between atoms: C_8  and  C_9 
REMARK    8  A    between atoms: C_9  and  C_10 
REMARK    9  A    between atoms: C_10  and  C_11 
REMARK   10  A    between atoms: C_11  and  C_12 
REMARK   11  A    between atoms: C_12  and  O_14 
REMARK   12  A    between atoms: O_14  and  C_15 
REMARK   13  A    between atoms: C_15  and  C_16 
REMARK   14  A    between atoms: C_16  and  C_17 
REMARK   15  A    between atoms: C_16  and  C_23 
REMARK   16  A    between atoms: C_17  and  C_18 
REMARK   17  A    between atoms: C_18  and  C_19 
REMARK   18  A    between atoms: C_19  and  C_20 
REMARK   19  A    between atoms: C_20  and  C_21 
REMARK   20  A    between atoms: C_23  and  C_24 
REMARK   21  A    between atoms: C_24  and  C_25 
REMARK   22  A    between atoms: C_25  and  C_26 
REMARK   23  A    between atoms: C_26  and  C_27 
REMARK   24  A    between atoms: C_27  and  C_28 
REMARK   25  A    between atoms: C_28  and  C_29 
ROOT
HETATM    1  C   UNL     1     -24.711  -6.924 -15.991  1.00  0.00     0.183 C 
ENDROOT
BRANCH   1   2
HETATM    2  O   UNL     1     -24.367  -6.663 -14.630  1.00  0.00    -0.321 OA
BRANCH   2   3
HETATM    3  C   UNL     1     -23.563  -5.566 -14.447  1.00  0.00     0.258 C 
HETATM    4  O   UNL     1     -23.106  -4.866 -15.322  1.00  0.00    -0.265 OA
BRANCH   3   5
HETATM    5  C   UNL     1     -23.421  -5.263 -12.969  1.00  0.00     0.111 C 
BRANCH   5   6
HETATM    6  C   UNL     1     -22.133  -4.502 -12.729  1.00  0.00     0.010 C 
BRANCH   6   7
HETATM    7  C   UNL     1     -22.152  -3.707 -11.431  1.00  0.00     0.000 C 
BRANCH   7   8
HETATM    8  C   UNL     1     -23.253  -4.238 -10.520  1.00  0.00     0.000 C 
BRANCH   8   9
HETATM    9  C   UNL     1     -22.668  -4.738  -9.210  1.00  0.00     0.000 C 
BRANCH   9  10
HETATM   10  C   UNL     1     -21.209  -4.325  -9.088  1.00  0.00     0.000 C 
BRANCH  10  11
HETATM   11  C   UNL     1     -20.932  -3.792  -7.692  1.00  0.00     0.000 C 
BRANCH  11  12
HETATM   12  C   UNL     1     -19.868  -4.636  -7.006  1.00  0.00     0.000 C 
BRANCH  12  13
HETATM   13  C   UNL     1     -20.241  -4.869  -5.550  1.00  0.00    -0.000 C 
BRANCH  13  14
HETATM   14  C   UNL     1     -20.715  -6.302  -5.345  1.00  0.00    -0.005 C 
HETATM   15  C   UNL     1     -22.221  -6.337  -5.161  1.00  0.00     0.005 C 
ENDBRANCH  13  14
ENDBRANCH  12  13
ENDBRANCH  11  12
ENDBRANCH  10  11
ENDBRANCH   9  10
ENDBRANCH   8   9
ENDBRANCH   7   8
ENDBRANCH   6   7
ENDBRANCH   5   6
ENDBRANCH   3   5
ENDBRANCH   2   3
ENDBRANCH   1   2
BRANCH   1  16
HETATM   16  C   UNL     1     -26.063  -6.340 -16.419  1.00  0.00     0.010 C 
BRANCH  16  17
HETATM   17  C   UNL     1     -26.274  -6.466 -17.938  1.00  0.00     0.007 C 
BRANCH  17  18
HETATM   18  C   UNL     1     -25.006  -6.915 -18.648  1.00  0.00     0.000 C 
BRANCH  18  19
HETATM   19  C   UNL     1     -25.092  -6.663 -20.135  1.00  0.00     0.000 C 
BRANCH  19  20
HETATM   20  C   UNL     1     -25.037  -8.007 -20.842  1.00  0.00    -0.000 C 
BRANCH  20  21
HETATM   21  C   UNL     1     -24.078  -7.936 -22.008  1.00  0.00    -0.005 C 
HETATM   22  C   UNL     1     -22.736  -8.523 -21.622  1.00  0.00     0.005 C 
ENDBRANCH  20  21
ENDBRANCH  19  20
ENDBRANCH  18  19
ENDBRANCH  17  18
ENDBRANCH  16  17
BRANCH  16  23
HETATM   23  C   UNL     1     -27.209  -7.021 -15.657  1.00  0.00     0.007 C 
BRANCH  23  24
HETATM   24  C   UNL     1     -28.472  -7.153 -16.490  1.00  0.00     0.000 C 
BRANCH  24  25
HETATM   25  C   UNL     1     -29.459  -6.050 -16.163  1.00  0.00     0.000 C 
BRANCH  25  26
HETATM   26  C   UNL     1     -30.065  -5.513 -17.451  1.00  0.00     0.000 C 
BRANCH  26  27
HETATM   27  C   UNL     1     -29.232  -4.356 -17.973  1.00  0.00     0.000 C 
BRANCH  27  28
HETATM   28  C   UNL     1     -29.742  -3.042 -17.404  1.00  0.00    -0.000 C 
BRANCH  28  29
HETATM   29  C   UNL     1     -28.575  -2.164 -16.976  1.00  0.00    -0.005 C 
HETATM   30  C   UNL     1     -27.536  -2.989 -16.241  1.00  0.00     0.005 C 
ENDBRANCH  28  29
ENDBRANCH  27  28
ENDBRANCH  26  27
ENDBRANCH  25  26
ENDBRANCH  24  25
ENDBRANCH  23  24
ENDBRANCH  16  23
ENDBRANCH   1  16
TORSDOF 25
BEGIN_RES ARG D 557
REMARK  4 active torsions:
REMARK  status: ('A' for Active; 'I' for Inactive)
REMARK    1  A    between atoms: CA   and  CB  
REMARK    2  A    between atoms: CB   and  CG  
REMARK    3  A    between atoms: CG   and  CD  
REMARK    4  A    between atoms: CD   and  NE  
REMARK       I    between atoms: NE   and  CZ  
REMARK       I    between atoms: CZ   and  NH1 
REMARK       I    between atoms: CZ   and  NH2 
ROOT
ATOM      1  CA  ARG D 557     -26.217   2.705 -17.014  1.00 35.49     0.159 C 
ENDROOT
BRANCH   1   2
ATOM      2  CB  ARG D 557     -26.789   1.319 -17.183  1.00 35.49     0.034 C 
BRANCH   2   3
ATOM      3  CG  ARG D 557     -25.830   0.209 -17.224  1.00 35.49     0.027 C 
BRANCH   3   4
ATOM      4  CD  ARG D 557     -24.770   0.341 -16.198  1.00 35.49     0.116 C 
BRANCH   4   5
ATOM      5  NE  ARG D 557     -25.025  -0.481 -15.045  1.00 35.49    -0.212 N 
ATOM      6  CZ  ARG D 557     -24.260  -1.459 -14.615  1.00 35.49     0.666 C 
ATOM      7  NH1 ARG D 557     -23.144  -1.810 -15.228  1.00 35.49    -0.235 N 
ATOM      8  NH2 ARG D 557     -24.636  -2.086 -13.538  1.00 35.49    -0.235 N 
ATOM      9  HH  ARG D 557     -22.877  -1.410 -15.937  1.00 35.49     0.174 HD
ATOM     10  HH  ARG D 557     -22.685  -2.454 -14.900  1.00 35.49     0.174 HD
ATOM     11  HH  ARG D 557     -25.357  -1.833 -13.159  1.00 35.49     0.174 HD
ATOM     12  HH  ARG D 557     -24.166  -2.720 -13.228  1.00 35.49     0.174 HD
ATOM     13  HE  ARG D 557     -25.760  -0.372 -14.632  1.00 35.49     0.178 HD
ENDBRANCH   4   5
ENDBRANCH   3   4
ENDBRANCH   2   3
ENDBRANCH   1   2
END_RES ARG D 557
BEGIN_RES GLU D 570
REMARK  3 active torsions:
REMARK  status: ('A' for Active; 'I' for Inactive)
REMARK    5  A    between atoms: CA   and  CB  
REMARK    6  A    between atoms: CB   and  CG  
REMARK    7  A    between atoms: CG   and  CD  
ROOT
ATOM     14  CA  GLU D 570     -18.033  -6.348 -13.375  1.00 32.92     0.160 C 
ENDROOT
BRANCH  14  15
ATOM     15  CB  GLU D 570     -19.500  -6.345 -13.794  1.00 32.92     0.043 C 
BRANCH  15  16
ATOM     16  CG  GLU D 570     -20.093  -7.639 -14.219  1.00 32.92     0.100 C 
BRANCH  16  17
ATOM     17  CD  GLU D 570     -20.699  -7.585 -15.602  1.00 32.92     0.185 C 
ATOM     18  OE1 GLU D 570     -21.393  -8.541 -15.997  1.00 32.92    -0.647 OA
ATOM     19  OE2 GLU D 570     -20.462  -6.582 -16.304  1.00 32.92    -0.647 OA
ENDBRANCH  16  17
ENDBRANCH  15  16
ENDBRANCH  14  15
END_RES GLU D 570
ENDMDL
MODEL 2
REMARK VINA RESULT:      -7.1      1.591      4.374
REMARK  25 active torsions:
REMARK  status: ('A' for Active; 'I' for Inactive)
REMARK    1  A    between atoms: C_2  and  C_3 
REMARK    2  A    between atoms: C_3  and  C_4 
REMARK    3  A    between atoms: C_4  and  C_5 
REMARK    4  A    between atoms: C_5  and  C_6 
REMARK    5  A    between atoms: C_6  and  C_7 
REMARK    6  A    between atoms: C_7  and  C_8 
REMARK    7  A    between atoms: C_8  and  C_9 
REMARK    8  A    between atoms: C_9  and  C_10 
REMARK    9  A    between atoms: C_10  and  C_11 
REMARK   10  A    between atoms: C_11  and  C_12 
REMARK   11  A    between atoms: C_12  and  O_14 
REMARK   12  A    between atoms: O_14  and  C_15 
REMARK   13  A    between atoms: C_15  and  C_16 
REMARK   14  A    between atoms: C_16  and  C_17 
REMARK   15  A    between atoms: C_16  and  C_23 
REMARK   16  A    between atoms: C_17  and  C_18 
REMARK   17  A    between atoms: C_18  and  C_19 
REMARK   18  A    between atoms: C_19  and  C_20 
REMARK   19  A    between atoms: C_20  and  C_21 
REMARK   20  A    between atoms: C_23  and  C_24 
REMARK   21  A    between atoms: C_24  and  C_25 
REMARK   22  A    between atoms: C_25  and  C_26 
REMARK   23  A    between atoms: C_26  and  C_27 
REMARK   24  A    between atoms: C_27  and  C_28 
REMARK   25  A    between atoms: C_28  and  C_29 
ROOT
HETATM    1  C   UNL     1     -24.136  -6.061 -14.768  1.00  0.00     0.183 C 
ENDROOT
BRANCH   1   2
HETATM    2  O   UNL     1     -24.340  -4.653 -14.893  1.00  0.00    -0.321 OA
BRANCH   2   3
HETATM    3  C   UNL     1     -23.362  -3.883 -14.316  1.00  0.00     0.258 C 
HETATM    4  O   UNL     1     -22.693  -3.045 -14.878  1.00  0.00    -0.265 OA
BRANCH   3   5
HETATM    5  C   UNL     1     -23.311  -4.135 -12.823  1.00  0.00     0.111 C 
BRANCH   5   6
HETATM    6  C   UNL     1     -21.878  -4.037 -12.340  1.00  0.00     0.010 C 
BRANCH   6   7
HETATM    7  C   UNL     1     -21.768  -3.460 -10.937  1.00  0.00     0.000 C 
BRANCH   7   8
HETATM    8  C   UNL     1     -22.921  -3.970 -10.081  1.00  0.00     0.000 C 
BRANCH   8   9
HETATM    9  C   UNL     1     -22.485  -4.125  -8.633  1.00  0.00     0.000 C 
BRANCH   9  10
HETATM   10  C   UNL     1     -20.968  -4.092  -8.529  1.00  0.00     0.000 C 
BRANCH  10  11
HETATM   11  C   UNL     1     -20.482  -5.223  -7.636  1.00  0.00     0.000 C 
BRANCH  11  12
HETATM   12  C   UNL     1     -20.575  -4.818  -6.173  1.00  0.00     0.000 C 
BRANCH  12  13
HETATM   13  C   UNL     1     -20.427  -6.039  -5.279  1.00  0.00    -0.000 C 
BRANCH  13  14
HETATM   14  C   UNL     1     -21.731  -6.319  -4.541  1.00  0.00    -0.005 C 
HETATM   15  C   UNL     1     -21.476  -7.221  -3.347  1.00  0.00     0.005 C 
ENDBRANCH  13  14
ENDBRANCH  12  13
ENDBRANCH  11  12
ENDBRANCH  10  11
ENDBRANCH   9  10
ENDBRANCH   8   9
ENDBRANCH   7   8
ENDBRANCH   6   7
ENDBRANCH   5   6
ENDBRANCH   3   5
ENDBRANCH   2   3
ENDBRANCH   1   2
BRANCH   1  16
HETATM   16  C   UNL     1     -25.006  -6.906 -15.707  1.00  0.00     0.010 C 
BRANCH  16  17
HETATM   17  C   UNL     1     -26.330  -6.196 -16.038  1.00  0.00     0.007 C 
BRANCH  17  18
HETATM   18  C   UNL     1     -27.532  -7.081 -15.745  1.00  0.00     0.000 C 
BRANCH  18  19
HETATM   19  C   UNL     1     -28.806  -6.469 -16.279  1.00  0.00     0.000 C 
BRANCH  19  20
HETATM   20  C   UNL     1     -28.746  -6.512 -17.797  1.00  0.00    -0.000 C 
BRANCH  20  21
HETATM   21  C   UNL     1     -29.869  -7.372 -18.332  1.00  0.00    -0.005 C 
HETATM   22  C   UNL     1     -31.159  -7.067 -17.599  1.00  0.00     0.005 C 
ENDBRANCH  20  21
ENDBRANCH  19  20
ENDBRANCH  18  19
ENDBRANCH  17  18
ENDBRANCH  16  17
BRANCH  16  23
HETATM   23  C   UNL     1     -24.238  -7.243 -16.993  1.00  0.00     0.007 C 
BRANCH  23  24
HETATM   24  C   UNL     1     -24.904  -6.682 -18.239  1.00  0.00     0.000 C 
BRANCH  24  25
HETATM   25  C   UNL     1     -24.364  -7.344 -19.490  1.00  0.00     0.000 C 
BRANCH  25  26
HETATM   26  C   UNL     1     -25.398  -7.248 -20.601  1.00  0.00     0.000 C 
BRANCH  26  27
HETATM   27  C   UNL     1     -24.999  -8.143 -21.761  1.00  0.00     0.000 C 
BRANCH  27  28
HETATM   28  C   UNL     1     -23.830  -7.534 -22.517  1.00  0.00    -0.000 C 
BRANCH  28  29
HETATM   29  C   UNL     1     -22.827  -8.614 -22.899  1.00  0.00    -0.005 C 
HETATM   30  C   UNL     1     -21.904  -8.912 -21.733  1.00  0.00     0.005 C 
ENDBRANCH  28  29
ENDBRANCH  27  28
ENDBRANCH  26  27
ENDBRANCH  25  26
ENDBRANCH  24  25
ENDBRANCH  23  24
ENDBRANCH  16  23
ENDBRANCH   1  16
TORSDOF 25
BEGIN_RES ARG D 557
REMARK  4 active torsions:
REMARK  status: ('A' for Active; 'I' for Inactive)
REMARK    1  A    between atoms: CA   and  CB  
REMARK    2  A    between atoms: CB   and  CG  
REMARK    3  A    between atoms: CG   and  CD  
REMARK    4  A    between atoms: CD   and  NE  
REMARK       I    between atoms: NE   and  CZ  
REMARK       I    between atoms: CZ   and  NH1 
REMARK       I    between atoms: CZ   and  NH2 
ROOT
ATOM      1  CA  ARG D 557     -26.217   2.705 -17.014  1.00 35.49     0.159 C 
ENDROOT
BRANCH   1   2
ATOM      2  CB  ARG D 557     -26.789   1.319 -17.183  1.00 35.49     0.034 C 
BRANCH   2   3
ATOM      3  CG  ARG D 557     -28.252   1.200 -17.158  1.00 35.49     0.027 C 
BRANCH   3   4
ATOM      4  CD  ARG D 557     -28.702  -0.158 -16.775  1.00 35.49     0.116 C 
BRANCH   4   5
ATOM      5  NE  ARG D 557     -27.682  -0.887 -16.068  1.00 35.49    -0.212 N 
ATOM      6  CZ  ARG D 557     -27.478  -2.184 -16.137  1.00 35.49     0.666 C 
ATOM      7  NH1 ARG D 557     -28.224  -2.981 -16.880  1.00 35.49    -0.235 N 
ATOM      8  NH2 ARG D 557     -26.492  -2.674 -15.443  1.00 35.49    -0.235 N 
ATOM      9  HH  ARG D 557     -28.877  -2.679 -17.346  1.00 35.49     0.174 HD
ATOM     10  HH  ARG D 557     -28.042  -3.818 -16.887  1.00 35.49     0.174 HD
ATOM     11  HH  ARG D 557     -26.022  -2.134 -14.979  1.00 35.49     0.174 HD
ATOM     12  HH  ARG D 557     -26.327  -3.505 -15.466  1.00 35.49     0.174 HD
ATOM     13  HE  ARG D 557     -27.201  -0.462 -15.510  1.00 35.49     0.178 HD
ENDBRANCH   4   5
ENDBRANCH   3   4
ENDBRANCH   2   3
ENDBRANCH   1   2
END_RES ARG D 557
BEGIN_RES GLU D 570
REMARK  3 active torsions:
REMARK  status: ('A' for Active; 'I' for Inactive)
REMARK    5  A    between atoms: CA   and  CB  
REMARK    6  A    between atoms: CB   and  CG  
REMARK    7  A    between atoms: CG   and  CD  
ROOT
ATOM     14  CA  GLU D 570     -18.033  -6.348 -13.375  1.00 32.92     0.160 C 
ENDROOT
BRANCH  14  15
ATOM     15  CB  GLU D 570     -19.500  -6.345 -13.794  1.00 32.92     0.043 C 
BRANCH  15  16
ATOM     16  CG  GLU D 570     -19.866  -5.558 -15.000  1.00 32.92     0.100 C 
BRANCH  16  17
ATOM     17  CD  GLU D 570     -20.667  -6.355 -16.003  1.00 32.92     0.185 C 
ATOM     18  OE1 GLU D 570     -20.850  -7.571 -15.802  1.00 32.92    -0.647 OA
ATOM     19  OE2 GLU D 570     -21.102  -5.760 -17.009  1.00 32.92    -0.647 OA
ENDBRANCH  16  17
ENDBRANCH  15  16
ENDBRANCH  14  15
END_RES GLU D 570
ENDMDL
MODEL 3
REMARK VINA RESULT:      -7.0      1.187      2.166
REMARK  25 active torsions:
REMARK  status: ('A' for Active; 'I' for Inactive)
REMARK    1  A    between atoms: C_2  and  C_3 
REMARK    2  A    between atoms: C_3  and  C_4 
REMARK    3  A    between atoms: C_4  and  C_5 
REMARK    4  A    between atoms: C_5  and  C_6 
REMARK    5  A    between atoms: C_6  and  C_7 
REMARK    6  A    between atoms: C_7  and  C_8 
REMARK    7  A    between atoms: C_8  and  C_9 
REMARK    8  A    between atoms: C_9  and  C_10 
REMARK    9  A    between atoms: C_10  and  C_11 
REMARK   10  A    between atoms: C_11  and  C_12 
REMARK   11  A    between atoms: C_12  and  O_14 
REMARK   12  A    between atoms: O_14  and  C_15 
REMARK   13  A    between atoms: C_15  and  C_16 
REMARK   14  A    between atoms: C_16  and  C_17 
REMARK   15  A    between atoms: C_16  and  C_23 
REMARK   16  A    between atoms: C_17  and  C_18 
REMARK   17  A    between atoms: C_18  and  C_19 
REMARK   18  A    between atoms: C_19  and  C_20 
REMARK   19  A    between atoms: C_20  and  C_21 
REMARK   20  A    between atoms: C_23  and  C_24 
REMARK   21  A    between atoms: C_24  and  C_25 
REMARK   22  A    between atoms: C_25  and  C_26 
REMARK   23  A    between atoms: C_26  and  C_27 
REMARK   24  A    between atoms: C_27  and  C_28 
REMARK   25  A    between atoms: C_28  and  C_29 
ROOT
HETATM    1  C   UNL     1     -23.829  -6.462 -14.522  1.00  0.00     0.183 C 
ENDROOT
BRANCH   1   2
HETATM    2  O   UNL     1     -23.857  -5.259 -13.752  1.00  0.00    -0.321 OA
BRANCH   2   3
HETATM    3  C   UNL     1     -22.769  -4.443 -13.932  1.00  0.00     0.258 C 
HETATM    4  O   UNL     1     -22.487  -3.848 -14.948  1.00  0.00    -0.265 OA
BRANCH   3   5
HETATM    5  C   UNL     1     -22.017  -4.279 -12.627  1.00  0.00     0.111 C 
BRANCH   5   6
HETATM    6  C   UNL     1     -22.950  -4.559 -11.465  1.00  0.00     0.010 C 
BRANCH   6   7
HETATM    7  C   UNL     1     -22.669  -3.677 -10.259  1.00  0.00     0.000 C 
BRANCH   7   8
HETATM    8  C   UNL     1     -21.869  -4.461  -9.225  1.00  0.00     0.000 C 
BRANCH   8   9
HETATM    9  C   UNL     1     -20.391  -4.124  -9.323  1.00  0.00     0.000 C 
BRANCH   9  10
HETATM   10  C   UNL     1     -19.711  -4.318  -7.976  1.00  0.00     0.000 C 
BRANCH  10  11
HETATM   11  C   UNL     1     -20.742  -4.269  -6.860  1.00  0.00     0.000 C 
BRANCH  11  12
HETATM   12  C   UNL     1     -20.503  -5.399  -5.871  1.00  0.00     0.000 C 
BRANCH  12  13
HETATM   13  C   UNL     1     -21.828  -5.999  -5.427  1.00  0.00    -0.000 C 
BRANCH  13  14
HETATM   14  C   UNL     1     -21.615  -6.957  -4.262  1.00  0.00    -0.005 C 
HETATM   15  C   UNL     1     -21.510  -6.187  -2.958  1.00  0.00     0.005 C 
ENDBRANCH  13  14
ENDBRANCH  12  13
ENDBRANCH  11  12
ENDBRANCH  10  11
ENDBRANCH   9  10
ENDBRANCH   8   9
ENDBRANCH   7   8
ENDBRANCH   6   7
ENDBRANCH   5   6
ENDBRANCH   3   5
ENDBRANCH   2   3
ENDBRANCH   1   2
BRANCH   1  16
HETATM   16  C   UNL     1     -24.547  -6.357 -15.873  1.00  0.00     0.010 C 
BRANCH  16  17
HETATM   17  C   UNL     1     -24.107  -7.478 -16.832  1.00  0.00     0.007 C 
BRANCH  17  18
HETATM   18  C   UNL     1     -23.602  -6.921 -18.155  1.00  0.00     0.000 C 
BRANCH  18  19
HETATM   19  C   UNL     1     -24.673  -6.980 -19.219  1.00  0.00     0.000 C 
BRANCH  19  20
HETATM   20  C   UNL     1     -24.163  -7.863 -20.347  1.00  0.00    -0.000 C 
BRANCH  20  21
HETATM   21  C   UNL     1     -25.126  -7.816 -21.512  1.00  0.00    -0.005 C 
HETATM   22  C   UNL     1     -26.536  -8.105 -21.040  1.00  0.00     0.005 C 
ENDBRANCH  20  21
ENDBRANCH  19  20
ENDBRANCH  18  19
ENDBRANCH  17  18
ENDBRANCH  16  17
BRANCH  16  23
HETATM   23  C   UNL     1     -26.069  -6.382 -15.678  1.00  0.00     0.007 C 
BRANCH  23  24
HETATM   24  C   UNL     1     -26.703  -5.009 -15.826  1.00  0.00     0.000 C 
BRANCH  24  25
HETATM   25  C   UNL     1     -28.187  -5.121 -16.112  1.00  0.00     0.000 C 
BRANCH  25  26
HETATM   26  C   UNL     1     -28.550  -4.207 -17.272  1.00  0.00     0.000 C 
BRANCH  26  27
HETATM   27  C   UNL     1     -29.027  -5.033 -18.454  1.00  0.00     0.000 C 
BRANCH  27  28
HETATM   28  C   UNL     1     -28.763  -6.509 -18.205  1.00  0.00    -0.000 C 
BRANCH  28  29
HETATM   29  C   UNL     1     -30.028  -7.320 -18.450  1.00  0.00    -0.005 C 
HETATM   30  C   UNL     1     -31.102  -6.936 -17.451  1.00  0.00     0.005 C 
ENDBRANCH  28  29
ENDBRANCH  27  28
ENDBRANCH  26  27
ENDBRANCH  25  26
ENDBRANCH  24  25
ENDBRANCH  23  24
ENDBRANCH  16  23
ENDBRANCH   1  16
TORSDOF 25
BEGIN_RES ARG D 557
REMARK  4 active torsions:
REMARK  status: ('A' for Active; 'I' for Inactive)
REMARK    1  A    between atoms: CA   and  CB  
REMARK    2  A    between atoms: CB   and  CG  
REMARK    3  A    between atoms: CG   and  CD  
REMARK    4  A    between atoms: CD   and  NE  
REMARK       I    between atoms: NE   and  CZ  
REMARK       I    between atoms: CZ   and  NH1 
REMARK       I    between atoms: CZ   and  NH2 
ROOT
ATOM      1  CA  ARG D 557     -26.217   2.705 -17.014  1.00 35.49     0.159 C 
ENDROOT
BRANCH   1   2
ATOM      2  CB  ARG D 557     -26.789   1.319 -17.183  1.00 35.49     0.034 C 
BRANCH   2   3
ATOM      3  CG  ARG D 557     -26.014   0.210 -16.613  1.00 35.49     0.027 C 
BRANCH   3   4
ATOM      4  CD  ARG D 557     -26.859  -0.962 -16.291  1.00 35.49     0.116 C 
BRANCH   4   5
ATOM      5  NE  ARG D 557     -26.458  -1.600 -15.065  1.00 35.49    -0.212 N 
ATOM      6  CZ  ARG D 557     -25.225  -1.708 -14.623  1.00 35.49     0.666 C 
ATOM      7  NH1 ARG D 557     -24.188  -1.237 -15.291  1.00 35.49    -0.235 N 
ATOM      8  NH2 ARG D 557     -25.047  -2.300 -13.478  1.00 35.49    -0.235 N 
ATOM      9  HH  ARG D 557     -24.282  -0.842 -16.046  1.00 35.49     0.174 HD
ATOM     10  HH  ARG D 557     -23.407  -1.334 -14.952  1.00 35.49     0.174 HD
ATOM     11  HH  ARG D 557     -25.736  -2.588 -13.065  1.00 35.49     0.174 HD
ATOM     12  HH  ARG D 557     -24.267  -2.385 -13.158  1.00 35.49     0.174 HD
ATOM     13  HE  ARG D 557     -27.055  -1.995 -14.607  1.00 35.49     0.178 HD
ENDBRANCH   4   5
ENDBRANCH   3   4
ENDBRANCH   2   3
ENDBRANCH   1   2
END_RES ARG D 557
BEGIN_RES GLU D 570
REMARK  3 active torsions:
REMARK  status: ('A' for Active; 'I' for Inactive)
REMARK    5  A    between atoms: CA   and  CB  
REMARK    6  A    between atoms: CB   and  CG  
REMARK    7  A    between atoms: CG   and  CD  
ROOT
ATOM     14  CA  GLU D 570     -18.033  -6.348 -13.375  1.00 32.92     0.160 C 
ENDROOT
BRANCH  14  15
ATOM     15  CB  GLU D 570     -19.500  -6.345 -13.794  1.00 32.92     0.043 C 
BRANCH  15  16
ATOM     16  CG  GLU D 570     -20.089  -7.636 -14.234  1.00 32.92     0.100 C 
BRANCH  16  17
ATOM     17  CD  GLU D 570     -20.549  -7.614 -15.673  1.00 32.92     0.185 C 
ATOM     18  OE1 GLU D 570     -20.679  -6.517 -16.250  1.00 32.92    -0.647 OA
ATOM     19  OE2 GLU D 570     -20.799  -8.704 -16.224  1.00 32.92    -0.647 OA
ENDBRANCH  16  17
ENDBRANCH  15  16
ENDBRANCH  14  15
END_RES GLU D 570
ENDMDL
MODEL 4
REMARK VINA RESULT:      -7.0      4.879     11.357
REMARK  25 active torsions:
REMARK  status: ('A' for Active; 'I' for Inactive)
REMARK    1  A    between atoms: C_2  and  C_3 
REMARK    2  A    between atoms: C_3  and  C_4 
REMARK    3  A    between atoms: C_4  and  C_5 
REMARK    4  A    between atoms: C_5  and  C_6 
REMARK    5  A    between atoms: C_6  and  C_7 
REMARK    6  A    between atoms: C_7  and  C_8 
REMARK    7  A    between atoms: C_8  and  C_9 
REMARK    8  A    between atoms: C_9  and  C_10 
REMARK    9  A    between atoms: C_10  and  C_11 
REMARK   10  A    between atoms: C_11  and  C_12 
REMARK   11  A    between atoms: C_12  and  O_14 
REMARK   12  A    between atoms: O_14  and  C_15 
REMARK   13  A    between atoms: C_15  and  C_16 
REMARK   14  A    between atoms: C_16  and  C_17 
REMARK   15  A    between atoms: C_16  and  C_23 
REMARK   16  A    between atoms: C_17  and  C_18 
REMARK   17  A    between atoms: C_18  and  C_19 
REMARK   18  A    between atoms: C_19  and  C_20 
REMARK   19  A    between atoms: C_20  and  C_21 
REMARK   20  A    between atoms: C_23  and  C_24 
REMARK   21  A    between atoms: C_24  and  C_25 
REMARK   22  A    between atoms: C_25  and  C_26 
REMARK   23  A    between atoms: C_26  and  C_27 
REMARK   24  A    between atoms: C_27  and  C_28 
REMARK   25  A    between atoms: C_28  and  C_29 
ROOT
HETATM    1  C   UNL     1     -19.964  -7.376  -5.325  1.00  0.00     0.183 C 
ENDROOT
BRANCH   1   2
HETATM    2  O   UNL     1     -19.643  -8.724  -5.672  1.00  0.00    -0.321 OA
BRANCH   2   3
HETATM    3  C   UNL     1     -18.939  -9.406  -4.713  1.00  0.00     0.258 C 
HETATM    4  O   UNL     1     -17.786  -9.766  -4.799  1.00  0.00    -0.265 OA
BRANCH   3   5
HETATM    5  C   UNL     1     -19.771  -9.545  -3.455  1.00  0.00     0.111 C 
BRANCH   5   6
HETATM    6  C   UNL     1     -20.686 -10.746  -3.581  1.00  0.00     0.010 C 
BRANCH   6   7
HETATM    7  C   UNL     1     -22.140 -10.413  -3.281  1.00  0.00     0.000 C 
BRANCH   7   8
HETATM    8  C   UNL     1     -22.770 -11.543  -2.474  1.00  0.00     0.000 C 
BRANCH   8   9
HETATM    9  C   UNL     1     -23.807 -10.996  -1.508  1.00  0.00     0.000 C 
BRANCH   9  10
HETATM   10  C   UNL     1     -23.456 -11.383  -0.079  1.00  0.00     0.000 C 
BRANCH  10  11
HETATM   11  C   UNL     1     -22.347 -12.423  -0.077  1.00  0.00     0.000 C 
BRANCH  11  12
HETATM   12  C   UNL     1     -21.227 -11.998   0.860  1.00  0.00     0.000 C 
BRANCH  12  13
HETATM   13  C   UNL     1     -20.206 -11.156   0.111  1.00  0.00    -0.000 C 
BRANCH  13  14
HETATM   14  C   UNL     1     -18.848 -11.847   0.106  1.00  0.00    -0.005 C 
HETATM   15  C   UNL     1     -18.745 -12.800  -1.071  1.00  0.00     0.005 C 
ENDBRANCH  13  14
ENDBRANCH  12  13
ENDBRANCH  11  12
ENDBRANCH  10  11
ENDBRANCH   9  10
ENDBRANCH   8   9
ENDBRANCH   7   8
ENDBRANCH   6   7
ENDBRANCH   5   6
ENDBRANCH   3   5
ENDBRANCH   2   3
ENDBRANCH   1   2
BRANCH   1  16
HETATM   16  C   UNL     1     -21.374  -6.940  -5.741  1.00  0.00     0.010 C 
BRANCH  16  17
HETATM   17  C   UNL     1     -22.250  -6.627  -4.516  1.00  0.00     0.007 C 
BRANCH  17  18
HETATM   18  C   UNL     1     -21.414  -6.203  -3.318  1.00  0.00     0.000 C 
BRANCH  18  19
HETATM   19  C   UNL     1     -22.217  -6.264  -2.040  1.00  0.00     0.000 C 
BRANCH  19  20
HETATM   20  C   UNL     1     -21.712  -7.444  -1.226  1.00  0.00    -0.000 C 
BRANCH  20  21
HETATM   21  C   UNL     1     -22.656  -7.719  -0.077  1.00  0.00    -0.005 C 
HETATM   22  C   UNL     1     -21.877  -8.112   1.161  1.00  0.00     0.005 C 
ENDBRANCH  20  21
ENDBRANCH  19  20
ENDBRANCH  18  19
ENDBRANCH  17  18
ENDBRANCH  16  17
BRANCH  16  23
HETATM   23  C   UNL     1     -21.307  -5.727  -6.680  1.00  0.00     0.007 C 
BRANCH  23  24
HETATM   24  C   UNL     1     -20.012  -4.946  -6.540  1.00  0.00     0.000 C 
BRANCH  24  25
HETATM   25  C   UNL     1     -19.510  -4.474  -7.890  1.00  0.00     0.000 C 
BRANCH  25  26
HETATM   26  C   UNL     1     -20.696  -4.158  -8.789  1.00  0.00     0.000 C 
BRANCH  26  27
HETATM   27  C   UNL     1     -20.307  -4.342 -10.245  1.00  0.00     0.000 C 
BRANCH  27  28
HETATM   28  C   UNL     1     -21.520  -4.158 -11.141  1.00  0.00    -0.000 C 
BRANCH  28  29
HETATM   29  C   UNL     1     -22.723  -3.719 -10.317  1.00  0.00    -0.005 C 
HETATM   30  C   UNL     1     -23.833  -3.228 -11.226  1.00  0.00     0.005 C 
ENDBRANCH  28  29
ENDBRANCH  27  28
ENDBRANCH  26  27
ENDBRANCH  25  26
ENDBRANCH  24  25
ENDBRANCH  23  24
ENDBRANCH  16  23
ENDBRANCH   1  16
TORSDOF 25
BEGIN_RES ARG D 557
REMARK  4 active torsions:
REMARK  status: ('A' for Active; 'I' for Inactive)
REMARK    1  A    between atoms: CA   and  CB  
REMARK    2  A    between atoms: CB   and  CG  
REMARK    3  A    between atoms: CG   and  CD  
REMARK    4  A    between atoms: CD   and  NE  
REMARK       I    between atoms: NE   and  CZ  
REMARK       I    between atoms: CZ   and  NH1 
REMARK       I    between atoms: CZ   and  NH2 
ROOT
ATOM      1  CA  ARG D 557     -26.217   2.705 -17.014  1.00 35.49     0.159 C 
ENDROOT
BRANCH   1   2
ATOM      2  CB  ARG D 557     -26.789   1.319 -17.183  1.00 35.49     0.034 C 
BRANCH   2   3
ATOM      3  CG  ARG D 557     -28.230   1.227 -17.446  1.00 35.49     0.027 C 
BRANCH   3   4
ATOM      4  CD  ARG D 557     -28.918   0.311 -16.507  1.00 35.49     0.116 C 
BRANCH   4   5
ATOM      5  NE  ARG D 557     -29.308  -0.922 -17.139  1.00 35.49    -0.212 N 
ATOM      6  CZ  ARG D 557     -28.677  -2.070 -17.038  1.00 35.49     0.666 C 
ATOM      7  NH1 ARG D 557     -27.571  -2.212 -16.331  1.00 35.49    -0.235 N 
ATOM      8  NH2 ARG D 557     -29.185  -3.092 -17.663  1.00 35.49    -0.235 N 
ATOM      9  HH  ARG D 557     -27.220  -1.553 -15.910  1.00 35.49     0.174 HD
ATOM     10  HH  ARG D 557     -27.204  -2.986 -16.299  1.00 35.49     0.174 HD
ATOM     11  HH  ARG D 557     -29.904  -2.972 -18.106  1.00 35.49     0.174 HD
ATOM     12  HH  ARG D 557     -28.809  -3.850 -17.619  1.00 35.49     0.174 HD
ATOM     13  HE  ARG D 557     -29.969  -0.905 -17.673  1.00 35.49     0.178 HD
ENDBRANCH   4   5
ENDBRANCH   3   4
ENDBRANCH   2   3
ENDBRANCH   1   2
END_RES ARG D 557
BEGIN_RES GLU D 570
REMARK  3 active torsions:
REMARK  status: ('A' for Active; 'I' for Inactive)
REMARK    5  A    between atoms: CA   and  CB  
REMARK    6  A    between atoms: CB   and  CG  
REMARK    7  A    between atoms: CG   and  CD  
ROOT
ATOM     14  CA  GLU D 570     -18.033  -6.348 -13.375  1.00 32.92     0.160 C 
ENDROOT
BRANCH  14  15
ATOM     15  CB  GLU D 570     -19.500  -6.345 -13.794  1.00 32.92     0.043 C 
BRANCH  15  16
ATOM     16  CG  GLU D 570     -20.134  -7.659 -14.076  1.00 32.92     0.100 C 
BRANCH  16  17
ATOM     17  CD  GLU D 570     -20.815  -7.708 -15.424  1.00 32.92     0.185 C 
ATOM     18  OE1 GLU D 570     -21.522  -6.745 -15.780  1.00 32.92    -0.647 OA
ATOM     19  OE2 GLU D 570     -20.653  -8.727 -16.123  1.00 32.92    -0.647 OA
ENDBRANCH  16  17
ENDBRANCH  15  16
ENDBRANCH  14  15
END_RES GLU D 570
ENDMDL
MODEL 5
REMARK VINA RESULT:      -6.9      4.652     12.310
REMARK  25 active torsions:
REMARK  status: ('A' for Active; 'I' for Inactive)
REMARK    1  A    between atoms: C_2  and  C_3 
REMARK    2  A    between atoms: C_3  and  C_4 
REMARK    3  A    between atoms: C_4  and  C_5 
REMARK    4  A    between atoms: C_5  and  C_6 
REMARK    5  A    between atoms: C_6  and  C_7 
REMARK    6  A    between atoms: C_7  and  C_8 
REMARK    7  A    between atoms: C_8  and  C_9 
REMARK    8  A    between atoms: C_9  and  C_10 
REMARK    9  A    between atoms: C_10  and  C_11 
REMARK   10  A    between atoms: C_11  and  C_12 
REMARK   11  A    between atoms: C_12  and  O_14 
REMARK   12  A    between atoms: O_14  and  C_15 
REMARK   13  A    between atoms: C_15  and  C_16 
REMARK   14  A    between atoms: C_16  and  C_17 
REMARK   15  A    between atoms: C_16  and  C_23 
REMARK   16  A    between atoms: C_17  and  C_18 
REMARK   17  A    between atoms: C_18  and  C_19 
REMARK   18  A    between atoms: C_19  and  C_20 
REMARK   19  A    between atoms: C_20  and  C_21 
REMARK   20  A    between atoms: C_23  and  C_24 
REMARK   21  A    between atoms: C_24  and  C_25 
REMARK   22  A    between atoms: C_25  and  C_26 
REMARK   23  A    between atoms: C_26  and  C_27 
REMARK   24  A    between atoms: C_27  and  C_28 
REMARK   25  A    between atoms: C_28  and  C_29 
ROOT
HETATM    1  C   UNL     1     -20.611  -8.346  -4.258  1.00  0.00     0.183 C 
ENDROOT
BRANCH   1   2
HETATM    2  O   UNL     1     -21.941  -7.972  -4.617  1.00  0.00    -0.321 OA
BRANCH   2   3
HETATM    3  C   UNL     1     -22.047  -6.732  -5.193  1.00  0.00     0.258 C 
HETATM    4  O   UNL     1     -23.015  -6.006  -5.146  1.00  0.00    -0.265 OA
BRANCH   3   5
HETATM    5  C   UNL     1     -20.722  -6.325  -5.805  1.00  0.00     0.111 C 
BRANCH   5   6
HETATM    6  C   UNL     1     -20.522  -4.832  -5.638  1.00  0.00     0.010 C 
BRANCH   6   7
HETATM    7  C   UNL     1     -20.907  -4.044  -6.881  1.00  0.00     0.000 C 
BRANCH   7   8
HETATM    8  C   UNL     1     -20.583  -4.861  -8.127  1.00  0.00     0.000 C 
BRANCH   8   9
HETATM    9  C   UNL     1     -20.102  -3.957  -9.250  1.00  0.00     0.000 C 
BRANCH   9  10
HETATM   10  C   UNL     1     -20.310  -4.629 -10.598  1.00  0.00     0.000 C 
BRANCH  10  11
HETATM   11  C   UNL     1     -20.911  -3.642 -11.586  1.00  0.00     0.000 C 
BRANCH  11  12
HETATM   12  C   UNL     1     -22.349  -3.323 -11.205  1.00  0.00     0.000 C 
BRANCH  12  13
HETATM   13  C   UNL     1     -23.236  -4.535 -11.442  1.00  0.00    -0.000 C 
BRANCH  13  14
HETATM   14  C   UNL     1     -24.036  -4.863 -10.187  1.00  0.00    -0.005 C 
HETATM   15  C   UNL     1     -23.975  -3.705  -9.206  1.00  0.00     0.005 C 
ENDBRANCH  13  14
ENDBRANCH  12  13
ENDBRANCH  11  12
ENDBRANCH  10  11
ENDBRANCH   9  10
ENDBRANCH   8   9
ENDBRANCH   7   8
ENDBRANCH   6   7
ENDBRANCH   5   6
ENDBRANCH   3   5
ENDBRANCH   2   3
ENDBRANCH   1   2
BRANCH   1  16
HETATM   16  C   UNL     1     -20.441  -8.717  -2.780  1.00  0.00     0.010 C 
BRANCH  16  17
HETATM   17  C   UNL     1     -19.116  -9.460  -2.535  1.00  0.00     0.007 C 
BRANCH  17  18
HETATM   18  C   UNL     1     -19.349 -10.898  -2.098  1.00  0.00     0.000 C 
BRANCH  18  19
HETATM   19  C   UNL     1     -19.842 -11.747  -3.246  1.00  0.00     0.000 C 
BRANCH  19  20
HETATM   20  C   UNL     1     -20.768 -12.810  -2.678  1.00  0.00    -0.000 C 
BRANCH  20  21
HETATM   21  C   UNL     1     -22.065 -12.830  -3.455  1.00  0.00    -0.005 C 
HETATM   22  C   UNL     1     -22.664 -11.440  -3.514  1.00  0.00     0.005 C 
ENDBRANCH  20  21
ENDBRANCH  19  20
ENDBRANCH  18  19
ENDBRANCH  17  18
ENDBRANCH  16  17
BRANCH  16  23
HETATM   23  C   UNL     1     -20.527  -7.463  -1.898  1.00  0.00     0.007 C 
BRANCH  23  24
HETATM   24  C   UNL     1     -21.892  -7.291  -1.254  1.00  0.00     0.000 C 
BRANCH  24  25
HETATM   25  C   UNL     1     -21.933  -7.936   0.118  1.00  0.00     0.000 C 
BRANCH  25  26
HETATM   26  C   UNL     1     -23.256  -8.665   0.296  1.00  0.00     0.000 C 
BRANCH  26  27
HETATM   27  C   UNL     1     -23.102 -10.123  -0.101  1.00  0.00     0.000 C 
BRANCH  27  28
HETATM   28  C   UNL     1     -21.781 -10.670   0.411  1.00  0.00    -0.000 C 
BRANCH  28  29
HETATM   29  C   UNL     1     -21.910 -12.155   0.723  1.00  0.00    -0.005 C 
HETATM   30  C   UNL     1     -23.350 -12.602   0.571  1.00  0.00     0.005 C 
ENDBRANCH  28  29
ENDBRANCH  27  28
ENDBRANCH  26  27
ENDBRANCH  25  26
ENDBRANCH  24  25
ENDBRANCH  23  24
ENDBRANCH  16  23
ENDBRANCH   1  16
TORSDOF 25
BEGIN_RES ARG D 557
REMARK  4 active torsions:
REMARK  status: ('A' for Active; 'I' for Inactive)
REMARK    1  A    between atoms: CA   and  CB  
REMARK    2  A    between atoms: CB   and  CG  
REMARK    3  A    between atoms: CG   and  CD  
REMARK    4  A    between atoms: CD   and  NE  
REMARK       I    between atoms: NE   and  CZ  
REMARK       I    between atoms: CZ   and  NH1 
REMARK       I    between atoms: CZ   and  NH2 
ROOT
ATOM      1  CA  ARG D 557     -26.217   2.705 -17.014  1.00 35.49     0.159 C 
ENDROOT
BRANCH   1   2
ATOM      2  CB  ARG D 557     -26.789   1.319 -17.183  1.00 35.49     0.034 C 
BRANCH   2   3
ATOM      3  CG  ARG D 557     -28.236   1.225 -17.414  1.00 35.49     0.027 C 
BRANCH   3   4
ATOM      4  CD  ARG D 557     -28.896   0.284 -16.480  1.00 35.49     0.116 C 
BRANCH   4   5
ATOM      5  NE  ARG D 557     -29.299  -0.934 -17.132  1.00 35.49    -0.212 N 
ATOM      6  CZ  ARG D 557     -28.685  -2.092 -17.044  1.00 35.49     0.666 C 
ATOM      7  NH1 ARG D 557     -27.586  -2.260 -16.332  1.00 35.49    -0.235 N 
ATOM      8  NH2 ARG D 557     -29.205  -3.098 -17.687  1.00 35.49    -0.235 N 
ATOM      9  HH  ARG D 557     -27.228  -1.613 -15.899  1.00 35.49     0.174 HD
ATOM     10  HH  ARG D 557     -27.231  -3.039 -16.309  1.00 35.49     0.174 HD
ATOM     11  HH  ARG D 557     -29.919  -2.962 -18.133  1.00 35.49     0.174 HD
ATOM     12  HH  ARG D 557     -28.839  -3.862 -17.651  1.00 35.49     0.174 HD
ATOM     13  HE  ARG D 557     -29.957  -0.900 -17.670  1.00 35.49     0.178 HD
ENDBRANCH   4   5
ENDBRANCH   3   4
ENDBRANCH   2   3
ENDBRANCH   1   2
END_RES ARG D 557
BEGIN_RES GLU D 570
REMARK  3 active torsions:
REMARK  status: ('A' for Active; 'I' for Inactive)
REMARK    5  A    between atoms: CA   and  CB  
REMARK    6  A    between atoms: CB   and  CG  
REMARK    7  A    between atoms: CG   and  CD  
ROOT
ATOM     14  CA  GLU D 570     -18.033  -6.348 -13.375  1.00 32.92     0.160 C 
ENDROOT
BRANCH  14  15
ATOM     15  CB  GLU D 570     -19.500  -6.345 -13.794  1.00 32.92     0.043 C 
BRANCH  15  16
ATOM     16  CG  GLU D 570     -19.807  -6.009 -15.208  1.00 32.92     0.100 C 
BRANCH  16  17
ATOM     17  CD  GLU D 570     -21.274  -5.733 -15.443  1.00 32.92     0.185 C 
ATOM     18  OE1 GLU D 570     -22.121  -6.506 -14.955  1.00 32.92    -0.647 OA
ATOM     19  OE2 GLU D 570     -21.579  -4.743 -16.137  1.00 32.92    -0.647 OA
ENDBRANCH  16  17
ENDBRANCH  15  16
ENDBRANCH  14  15
END_RES GLU D 570
ENDMDL
MODEL 6
REMARK VINA RESULT:      -6.9      1.922      8.780
REMARK  25 active torsions:
REMARK  status: ('A' for Active; 'I' for Inactive)
REMARK    1  A    between atoms: C_2  and  C_3 
REMARK    2  A    between atoms: C_3  and  C_4 
REMARK    3  A    between atoms: C_4  and  C_5 
REMARK    4  A    between atoms: C_5  and  C_6 
REMARK    5  A    between atoms: C_6  and  C_7 
REMARK    6  A    between atoms: C_7  and  C_8 
REMARK    7  A    between atoms: C_8  and  C_9 
REMARK    8  A    between atoms: C_9  and  C_10 
REMARK    9  A    between atoms: C_10  and  C_11 
REMARK   10  A    between atoms: C_11  and  C_12 
REMARK   11  A    between atoms: C_12  and  O_14 
REMARK   12  A    between atoms: O_14  and  C_15 
REMARK   13  A    between atoms: C_15  and  C_16 
REMARK   14  A    between atoms: C_16  and  C_17 
REMARK   15  A    between atoms: C_16  and  C_23 
REMARK   16  A    between atoms: C_17  and  C_18 
REMARK   17  A    between atoms: C_18  and  C_19 
REMARK   18  A    between atoms: C_19  and  C_20 
REMARK   19  A    between atoms: C_20  and  C_21 
REMARK   20  A    between atoms: C_23  and  C_24 
REMARK   21  A    between atoms: C_24  and  C_25 
REMARK   22  A    between atoms: C_25  and  C_26 
REMARK   23  A    between atoms: C_26  and  C_27 
REMARK   24  A    between atoms: C_27  and  C_28 
REMARK   25  A    between atoms: C_28  and  C_29 
ROOT
HETATM    1  C   UNL     1     -24.191  -5.540 -14.203  1.00  0.00     0.183 C 
ENDROOT
BRANCH   1   2
HETATM    2  O   UNL     1     -24.401  -6.928 -14.464  1.00  0.00    -0.321 OA
BRANCH   2   3
HETATM    3  C   UNL     1     -24.841  -7.207 -15.733  1.00  0.00     0.258 C 
HETATM    4  O   UNL     1     -24.432  -8.094 -16.449  1.00  0.00    -0.265 OA
BRANCH   3   5
HETATM    5  C   UNL     1     -26.020  -6.322 -16.083  1.00  0.00     0.111 C 
BRANCH   5   6
HETATM    6  C   UNL     1     -27.311  -7.027 -15.718  1.00  0.00     0.010 C 
BRANCH   6   7
HETATM    7  C   UNL     1     -28.545  -6.295 -16.226  1.00  0.00     0.000 C 
BRANCH   7   8
HETATM    8  C   UNL     1     -28.821  -6.695 -17.670  1.00  0.00     0.000 C 
BRANCH   8   9
HETATM    9  C   UNL     1     -28.010  -5.837 -18.627  1.00  0.00     0.000 C 
BRANCH   9  10
HETATM   10  C   UNL     1     -27.489  -6.678 -19.783  1.00  0.00     0.000 C 
BRANCH  10  11
HETATM   11  C   UNL     1     -25.969  -6.706 -19.765  1.00  0.00     0.000 C 
BRANCH  11  12
HETATM   12  C   UNL     1     -25.444  -7.578 -20.895  1.00  0.00     0.000 C 
BRANCH  12  13
HETATM   13  C   UNL     1     -23.978  -7.910 -20.665  1.00  0.00    -0.000 C 
BRANCH  13  14
HETATM   14  C   UNL     1     -23.305  -8.289 -21.978  1.00  0.00    -0.005 C 
HETATM   15  C   UNL     1     -21.977  -8.974 -21.711  1.00  0.00     0.005 C 
ENDBRANCH  13  14
ENDBRANCH  12  13
ENDBRANCH  11  12
ENDBRANCH  10  11
ENDBRANCH   9  10
ENDBRANCH   8   9
ENDBRANCH   7   8
ENDBRANCH   6   7
ENDBRANCH   5   6
ENDBRANCH   3   5
ENDBRANCH   2   3
ENDBRANCH   1   2
BRANCH   1  16
HETATM   16  C   UNL     1     -23.147  -5.258 -13.115  1.00  0.00     0.010 C 
BRANCH  16  17
HETATM   17  C   UNL     1     -22.313  -4.008 -13.446  1.00  0.00     0.007 C 
BRANCH  17  18
HETATM   18  C   UNL     1     -22.446  -3.613 -14.909  1.00  0.00     0.000 C 
BRANCH  18  19
HETATM   19  C   UNL     1     -22.835  -2.161 -15.052  1.00  0.00     0.000 C 
BRANCH  19  20
HETATM   20  C   UNL     1     -24.259  -2.006 -14.545  1.00  0.00    -0.000 C 
BRANCH  20  21
HETATM   21  C   UNL     1     -24.857  -0.722 -15.075  1.00  0.00    -0.005 C 
HETATM   22  C   UNL     1     -23.791   0.111 -15.756  1.00  0.00     0.005 C 
ENDBRANCH  20  21
ENDBRANCH  19  20
ENDBRANCH  18  19
ENDBRANCH  17  18
ENDBRANCH  16  17
BRANCH  16  23
HETATM   23  C   UNL     1     -23.824  -5.108 -11.745  1.00  0.00     0.007 C 
BRANCH  23  24
HETATM   24  C   UNL     1     -24.152  -3.663 -11.407  1.00  0.00     0.000 C 
BRANCH  24  25
HETATM   25  C   UNL     1     -24.126  -3.434  -9.909  1.00  0.00     0.000 C 
BRANCH  25  26
HETATM   26  C   UNL     1     -23.206  -4.454  -9.257  1.00  0.00     0.000 C 
BRANCH  26  27
HETATM   27  C   UNL     1     -22.272  -3.761  -8.280  1.00  0.00     0.000 C 
BRANCH  27  28
HETATM   28  C   UNL     1     -20.826  -4.089  -8.613  1.00  0.00    -0.000 C 
BRANCH  28  29
HETATM   29  C   UNL     1     -20.706  -4.537 -10.062  1.00  0.00    -0.005 C 
HETATM   30  C   UNL     1     -20.214  -3.394 -10.929  1.00  0.00     0.005 C 
ENDBRANCH  28  29
ENDBRANCH  27  28
ENDBRANCH  26  27
ENDBRANCH  25  26
ENDBRANCH  24  25
ENDBRANCH  23  24
ENDBRANCH  16  23
ENDBRANCH   1  16
TORSDOF 25
BEGIN_RES ARG D 557
REMARK  4 active torsions:
REMARK  status: ('A' for Active; 'I' for Inactive)
REMARK    1  A    between atoms: CA   and  CB  
REMARK    2  A    between atoms: CB   and  CG  
REMARK    3  A    between atoms: CG   and  CD  
REMARK    4  A    between atoms: CD   and  NE  
REMARK       I    between atoms: NE   and  CZ  
REMARK       I    between atoms: CZ   and  NH1 
REMARK       I    between atoms: CZ   and  NH2 
ROOT
ATOM      1  CA  ARG D 557     -26.217   2.705 -17.014  1.00 35.49     0.159 C 
ENDROOT
BRANCH   1   2
ATOM      2  CB  ARG D 557     -26.789   1.319 -17.183  1.00 35.49     0.034 C 
BRANCH   2   3
ATOM      3  CG  ARG D 557     -28.235   1.225 -17.417  1.00 35.49     0.027 C 
BRANCH   3   4
ATOM      4  CD  ARG D 557     -28.904   0.315 -16.459  1.00 35.49     0.116 C 
BRANCH   4   5
ATOM      5  NE  ARG D 557     -28.121  -0.863 -16.193  1.00 35.49    -0.212 N 
ATOM      6  CZ  ARG D 557     -28.346  -2.061 -16.683  1.00 35.49     0.666 C 
ATOM      7  NH1 ARG D 557     -29.359  -2.319 -17.490  1.00 35.49    -0.235 N 
ATOM      8  NH2 ARG D 557     -27.519  -3.010 -16.351  1.00 35.49    -0.235 N 
ATOM      9  HH  ARG D 557     -29.914  -1.709 -17.723  1.00 35.49     0.174 HD
ATOM     10  HH  ARG D 557     -29.454  -3.119 -17.781  1.00 35.49     0.174 HD
ATOM     11  HH  ARG D 557     -26.870  -2.813 -15.835  1.00 35.49     0.174 HD
ATOM     12  HH  ARG D 557     -27.629  -3.796 -16.651  1.00 35.49     0.174 HD
ATOM     13  HE  ARG D 557     -27.490  -0.803 -15.625  1.00 35.49     0.178 HD
ENDBRANCH   4   5
ENDBRANCH   3   4
ENDBRANCH   2   3
ENDBRANCH   1   2
END_RES ARG D 557
BEGIN_RES GLU D 570
REMARK  3 active torsions:
REMARK  status: ('A' for Active; 'I' for Inactive)
REMARK    5  A    between atoms: CA   and  CB  
REMARK    6  A    between atoms: CB   and  CG  
REMARK    7  A    between atoms: CG   and  CD  
ROOT
ATOM     14  CA  GLU D 570     -18.033  -6.348 -13.375  1.00 32.92     0.160 C 
ENDROOT
BRANCH  14  15
ATOM     15  CB  GLU D 570     -19.500  -6.345 -13.794  1.00 32.92     0.043 C 
BRANCH  15  16
ATOM     16  CG  GLU D 570     -19.804  -6.064 -15.221  1.00 32.92     0.100 C 
BRANCH  16  17
ATOM     17  CD  GLU D 570     -20.767  -7.059 -15.825  1.00 32.92     0.185 C 
ATOM     18  OE1 GLU D 570     -20.934  -8.158 -15.263  1.00 32.92    -0.647 OA
ATOM     19  OE2 GLU D 570     -21.348  -6.743 -16.882  1.00 32.92    -0.647 OA
ENDBRANCH  16  17
ENDBRANCH  15  16
ENDBRANCH  14  15
END_RES GLU D 570
ENDMDL
MODEL 7
REMARK VINA RESULT:      -6.7      3.906     11.974
REMARK  25 active torsions:
REMARK  status: ('A' for Active; 'I' for Inactive)
REMARK    1  A    between atoms: C_2  and  C_3 
REMARK    2  A    between atoms: C_3  and  C_4 
REMARK    3  A    between atoms: C_4  and  C_5 
REMARK    4  A    between atoms: C_5  and  C_6 
REMARK    5  A    between atoms: C_6  and  C_7 
REMARK    6  A    between atoms: C_7  and  C_8 
REMARK    7  A    between atoms: C_8  and  C_9 
REMARK    8  A    between atoms: C_9  and  C_10 
REMARK    9  A    between atoms: C_10  and  C_11 
REMARK   10  A    between atoms: C_11  and  C_12 
REMARK   11  A    between atoms: C_12  and  O_14 
REMARK   12  A    between atoms: O_14  and  C_15 
REMARK   13  A    between atoms: C_15  and  C_16 
REMARK   14  A    between atoms: C_16  and  C_17 
REMARK   15  A    between atoms: C_16  and  C_23 
REMARK   16  A    between atoms: C_17  and  C_18 
REMARK   17  A    between atoms: C_18  and  C_19 
REMARK   18  A    between atoms: C_19  and  C_20 
REMARK   19  A    between atoms: C_20  and  C_21 
REMARK   20  A    between atoms: C_23  and  C_24 
REMARK   21  A    between atoms: C_24  and  C_25 
REMARK   22  A    between atoms: C_25  and  C_26 
REMARK   23  A    between atoms: C_26  and  C_27 
REMARK   24  A    between atoms: C_27  and  C_28 
REMARK   25  A    between atoms: C_28  and  C_29 
ROOT
HETATM    1  C   UNL     1     -22.303  -6.730  -4.854  1.00  0.00     0.183 C 
ENDROOT
BRANCH   1   2
HETATM    2  O   UNL     1     -22.153  -5.550  -5.645  1.00  0.00    -0.321 OA
BRANCH   2   3
HETATM    3  C   UNL     1     -21.112  -5.592  -6.537  1.00  0.00     0.258 C 
HETATM    4  O   UNL     1     -20.654  -6.589  -7.050  1.00  0.00    -0.265 OA
BRANCH   3   5
HETATM    5  C   UNL     1     -20.679  -4.187  -6.901  1.00  0.00     0.111 C 
BRANCH   5   6
HETATM    6  C   UNL     1     -19.992  -4.200  -8.252  1.00  0.00     0.010 C 
BRANCH   6   7
HETATM    7  C   UNL     1     -20.962  -4.415  -9.404  1.00  0.00     0.000 C 
BRANCH   7   8
HETATM    8  C   UNL     1     -20.389  -3.807 -10.678  1.00  0.00     0.000 C 
BRANCH   8   9
HETATM    9  C   UNL     1     -21.502  -3.272 -11.564  1.00  0.00     0.000 C 
BRANCH   9  10
HETATM   10  C   UNL     1     -22.859  -3.706 -11.031  1.00  0.00     0.000 C 
BRANCH  10  11
HETATM   11  C   UNL     1     -23.426  -4.822 -11.894  1.00  0.00     0.000 C 
BRANCH  11  12
HETATM   12  C   UNL     1     -22.897  -4.710 -13.316  1.00  0.00     0.000 C 
BRANCH  12  13
HETATM   13  C   UNL     1     -24.051  -4.590 -14.298  1.00  0.00    -0.000 C 
BRANCH  13  14
HETATM   14  C   UNL     1     -24.733  -3.235 -14.155  1.00  0.00    -0.005 C 
HETATM   15  C   UNL     1     -23.778  -2.121 -14.545  1.00  0.00     0.005 C 
ENDBRANCH  13  14
ENDBRANCH  12  13
ENDBRANCH  11  12
ENDBRANCH  10  11
ENDBRANCH   9  10
ENDBRANCH   8   9
ENDBRANCH   7   8
ENDBRANCH   6   7
ENDBRANCH   5   6
ENDBRANCH   3   5
ENDBRANCH   2   3
ENDBRANCH   1   2
BRANCH   1  16
HETATM   16  C   UNL     1     -21.305  -6.839  -3.695  1.00  0.00     0.010 C 
BRANCH  16  17
HETATM   17  C   UNL     1     -21.916  -6.329  -2.378  1.00  0.00     0.007 C 
BRANCH  17  18
HETATM   18  C   UNL     1     -21.602  -7.258  -1.214  1.00  0.00     0.000 C 
BRANCH  18  19
HETATM   19  C   UNL     1     -22.763  -7.341  -0.251  1.00  0.00     0.000 C 
BRANCH  19  20
HETATM   20  C   UNL     1     -22.669  -8.670   0.480  1.00  0.00    -0.000 C 
BRANCH  20  21
HETATM   21  C   UNL     1     -21.250  -8.901   0.947  1.00  0.00    -0.005 C 
HETATM   22  C   UNL     1     -20.884 -10.365   0.813  1.00  0.00     0.005 C 
ENDBRANCH  20  21
ENDBRANCH  19  20
ENDBRANCH  18  19
ENDBRANCH  17  18
ENDBRANCH  16  17
BRANCH  16  23
HETATM   23  C   UNL     1     -20.818  -8.286  -3.539  1.00  0.00     0.007 C 
BRANCH  23  24
HETATM   24  C   UNL     1     -19.573  -8.579  -4.360  1.00  0.00     0.000 C 
BRANCH  24  25
HETATM   25  C   UNL     1     -19.722  -9.876  -5.131  1.00  0.00     0.000 C 
BRANCH  25  26
HETATM   26  C   UNL     1     -21.195 -10.243  -5.226  1.00  0.00     0.000 C 
BRANCH  26  27
HETATM   27  C   UNL     1     -21.350 -11.752  -5.295  1.00  0.00     0.000 C 
BRANCH  27  28
HETATM   28  C   UNL     1     -22.364 -12.223  -4.266  1.00  0.00    -0.000 C 
BRANCH  28  29
HETATM   29  C   UNL     1     -21.974 -11.735  -2.878  1.00  0.00    -0.005 C 
HETATM   30  C   UNL     1     -23.173 -11.129  -2.176  1.00  0.00     0.005 C 
ENDBRANCH  28  29
ENDBRANCH  27  28
ENDBRANCH  26  27
ENDBRANCH  25  26
ENDBRANCH  24  25
ENDBRANCH  23  24
ENDBRANCH  16  23
ENDBRANCH   1  16
TORSDOF 25
BEGIN_RES ARG D 557
REMARK  4 active torsions:
REMARK  status: ('A' for Active; 'I' for Inactive)
REMARK    1  A    between atoms: CA   and  CB  
REMARK    2  A    between atoms: CB   and  CG  
REMARK    3  A    between atoms: CG   and  CD  
REMARK    4  A    between atoms: CD   and  NE  
REMARK       I    between atoms: NE   and  CZ  
REMARK       I    between atoms: CZ   and  NH1 
REMARK       I    between atoms: CZ   and  NH2 
ROOT
ATOM      1  CA  ARG D 557     -26.217   2.705 -17.014  1.00 35.49     0.159 C 
ENDROOT
BRANCH   1   2
ATOM      2  CB  ARG D 557     -26.789   1.319 -17.183  1.00 35.49     0.034 C 
BRANCH   2   3
ATOM      3  CG  ARG D 557     -28.233   1.226 -17.431  1.00 35.49     0.027 C 
BRANCH   3   4
ATOM      4  CD  ARG D 557     -28.908   0.301 -16.492  1.00 35.49     0.116 C 
BRANCH   4   5
ATOM      5  NE  ARG D 557     -28.131  -0.884 -16.245  1.00 35.49    -0.212 N 
ATOM      6  CZ  ARG D 557     -28.384  -2.082 -16.723  1.00 35.49     0.666 C 
ATOM      7  NH1 ARG D 557     -29.425  -2.332 -17.495  1.00 35.49    -0.235 N 
ATOM      8  NH2 ARG D 557     -27.558  -3.039 -16.412  1.00 35.49    -0.235 N 
ATOM      9  HH  ARG D 557     -29.980  -1.717 -17.714  1.00 35.49     0.174 HD
ATOM     10  HH  ARG D 557     -29.538  -3.133 -17.779  1.00 35.49     0.174 HD
ATOM     11  HH  ARG D 557     -26.891  -2.847 -15.917  1.00 35.49     0.174 HD
ATOM     12  HH  ARG D 557     -27.686  -3.825 -16.704  1.00 35.49     0.174 HD
ATOM     13  HE  ARG D 557     -27.482  -0.830 -15.698  1.00 35.49     0.178 HD
ENDBRANCH   4   5
ENDBRANCH   3   4
ENDBRANCH   2   3
ENDBRANCH   1   2
END_RES ARG D 557
BEGIN_RES GLU D 570
REMARK  3 active torsions:
REMARK  status: ('A' for Active; 'I' for Inactive)
REMARK    5  A    between atoms: CA   and  CB  
REMARK    6  A    between atoms: CB   and  CG  
REMARK    7  A    between atoms: CG   and  CD  
ROOT
ATOM     14  CA  GLU D 570     -18.033  -6.348 -13.375  1.00 32.92     0.160 C 
ENDROOT
BRANCH  14  15
ATOM     15  CB  GLU D 570     -19.500  -6.345 -13.794  1.00 32.92     0.043 C 
BRANCH  15  16
ATOM     16  CG  GLU D 570     -20.095  -7.641 -14.212  1.00 32.92     0.100 C 
BRANCH  16  17
ATOM     17  CD  GLU D 570     -20.824  -7.556 -15.533  1.00 32.92     0.185 C 
ATOM     18  OE1 GLU D 570     -21.092  -8.608 -16.144  1.00 32.92    -0.647 OA
ATOM     19  OE2 GLU D 570     -21.115  -6.424 -15.968  1.00 32.92    -0.647 OA
ENDBRANCH  16  17
ENDBRANCH  15  16
ENDBRANCH  14  15
END_RES GLU D 570
ENDMDL
MODEL 8
REMARK VINA RESULT:      -6.7      4.085     12.392
REMARK  25 active torsions:
REMARK  status: ('A' for Active; 'I' for Inactive)
REMARK    1  A    between atoms: C_2  and  C_3 
REMARK    2  A    between atoms: C_3  and  C_4 
REMARK    3  A    between atoms: C_4  and  C_5 
REMARK    4  A    between atoms: C_5  and  C_6 
REMARK    5  A    between atoms: C_6  and  C_7 
REMARK    6  A    between atoms: C_7  and  C_8 
REMARK    7  A    between atoms: C_8  and  C_9 
REMARK    8  A    between atoms: C_9  and  C_10 
REMARK    9  A    between atoms: C_10  and  C_11 
REMARK   10  A    between atoms: C_11  and  C_12 
REMARK   11  A    between atoms: C_12  and  O_14 
REMARK   12  A    between atoms: O_14  and  C_15 
REMARK   13  A    between atoms: C_15  and  C_16 
REMARK   14  A    between atoms: C_16  and  C_17 
REMARK   15  A    between atoms: C_16  and  C_23 
REMARK   16  A    between atoms: C_17  and  C_18 
REMARK   17  A    between atoms: C_18  and  C_19 
REMARK   18  A    between atoms: C_19  and  C_20 
REMARK   19  A    between atoms: C_20  and  C_21 
REMARK   20  A    between atoms: C_23  and  C_24 
REMARK   21  A    between atoms: C_24  and  C_25 
REMARK   22  A    between atoms: C_25  and  C_26 
REMARK   23  A    between atoms: C_26  and  C_27 
REMARK   24  A    between atoms: C_27  and  C_28 
REMARK   25  A    between atoms: C_28  and  C_29 
ROOT
HETATM    1  C   UNL     1     -21.524  -5.947  -4.778  1.00  0.00     0.183 C 
ENDROOT
BRANCH   1   2
HETATM    2  O   UNL     1     -20.443  -5.175  -5.303  1.00  0.00    -0.321 OA
BRANCH   2   3
HETATM    3  C   UNL     1     -20.130  -5.450  -6.610  1.00  0.00     0.258 C 
HETATM    4  O   UNL     1     -19.883  -6.544  -7.067  1.00  0.00    -0.265 OA
BRANCH   3   5
HETATM    5  C   UNL     1     -20.259  -4.198  -7.453  1.00  0.00     0.111 C 
BRANCH   5   6
HETATM    6  C   UNL     1     -21.070  -4.504  -8.697  1.00  0.00     0.010 C 
BRANCH   6   7
HETATM    7  C   UNL     1     -20.232  -4.478  -9.967  1.00  0.00     0.000 C 
BRANCH   7   8
HETATM    8  C   UNL     1     -20.934  -3.639 -11.028  1.00  0.00     0.000 C 
BRANCH   8   9
HETATM    9  C   UNL     1     -22.442  -3.703 -10.848  1.00  0.00     0.000 C 
BRANCH   9  10
HETATM   10  C   UNL     1     -23.084  -4.445 -12.011  1.00  0.00     0.000 C 
BRANCH  10  11
HETATM   11  C   UNL     1     -22.720  -3.772 -13.325  1.00  0.00     0.000 C 
BRANCH  11  12
HETATM   12  C   UNL     1     -22.723  -4.788 -14.457  1.00  0.00     0.000 C 
BRANCH  12  13
HETATM   13  C   UNL     1     -23.846  -5.793 -14.257  1.00  0.00    -0.000 C 
BRANCH  13  14
HETATM   14  C   UNL     1     -23.983  -6.688 -15.483  1.00  0.00    -0.005 C 
HETATM   15  C   UNL     1     -25.448  -6.921 -15.803  1.00  0.00     0.005 C 
ENDBRANCH  13  14
ENDBRANCH  12  13
ENDBRANCH  11  12
ENDBRANCH  10  11
ENDBRANCH   9  10
ENDBRANCH   8   9
ENDBRANCH   7   8
ENDBRANCH   6   7
ENDBRANCH   5   6
ENDBRANCH   3   5
ENDBRANCH   2   3
ENDBRANCH   1   2
BRANCH   1  16
HETATM   16  C   UNL     1     -21.128  -6.873  -3.621  1.00  0.00     0.010 C 
BRANCH  16  17
HETATM   17  C   UNL     1     -21.790  -6.440  -2.302  1.00  0.00     0.007 C 
BRANCH  17  18
HETATM   18  C   UNL     1     -22.243  -7.637  -1.479  1.00  0.00     0.000 C 
BRANCH  18  19
HETATM   19  C   UNL     1     -22.333  -7.292  -0.011  1.00  0.00     0.000 C 
BRANCH  19  20
HETATM   20  C   UNL     1     -21.726  -8.440   0.777  1.00  0.00    -0.000 C 
BRANCH  20  21
HETATM   21  C   UNL     1     -21.306  -9.546  -0.165  1.00  0.00    -0.005 C 
HETATM   22  C   UNL     1     -20.576 -10.634   0.594  1.00  0.00     0.005 C 
ENDBRANCH  20  21
ENDBRANCH  19  20
ENDBRANCH  18  19
ENDBRANCH  17  18
ENDBRANCH  16  17
BRANCH  16  23
HETATM   23  C   UNL     1     -21.484  -8.329  -3.951  1.00  0.00     0.007 C 
BRANCH  23  24
HETATM   24  C   UNL     1     -20.261  -9.182  -4.246  1.00  0.00     0.000 C 
BRANCH  24  25
HETATM   25  C   UNL     1     -19.201  -9.001  -3.178  1.00  0.00     0.000 C 
BRANCH  25  26
HETATM   26  C   UNL     1     -17.955  -9.785  -3.563  1.00  0.00     0.000 C 
BRANCH  26  27
HETATM   27  C   UNL     1     -18.065 -10.261  -5.001  1.00  0.00     0.000 C 
BRANCH  27  28
HETATM   28  C   UNL     1     -16.742 -10.065  -5.722  1.00  0.00    -0.000 C 
BRANCH  28  29
HETATM   29  C   UNL     1     -15.581 -10.349  -4.780  1.00  0.00    -0.005 C 
HETATM   30  C   UNL     1     -14.692 -11.436  -5.353  1.00  0.00     0.005 C 
ENDBRANCH  28  29
ENDBRANCH  27  28
ENDBRANCH  26  27
ENDBRANCH  25  26
ENDBRANCH  24  25
ENDBRANCH  23  24
ENDBRANCH  16  23
ENDBRANCH   1  16
TORSDOF 25
BEGIN_RES ARG D 557
REMARK  4 active torsions:
REMARK  status: ('A' for Active; 'I' for Inactive)
REMARK    1  A    between atoms: CA   and  CB  
REMARK    2  A    between atoms: CB   and  CG  
REMARK    3  A    between atoms: CG   and  CD  
REMARK    4  A    between atoms: CD   and  NE  
REMARK       I    between atoms: NE   and  CZ  
REMARK       I    between atoms: CZ   and  NH1 
REMARK       I    between atoms: CZ   and  NH2 
ROOT
ATOM      1  CA  ARG D 557     -26.217   2.705 -17.014  1.00 35.49     0.159 C 
ENDROOT
BRANCH   1   2
ATOM      2  CB  ARG D 557     -26.789   1.319 -17.183  1.00 35.49     0.034 C 
BRANCH   2   3
ATOM      3  CG  ARG D 557     -28.237   1.224 -17.403  1.00 35.49     0.027 C 
BRANCH   3   4
ATOM      4  CD  ARG D 557     -28.891   0.286 -16.461  1.00 35.49     0.116 C 
BRANCH   4   5
ATOM      5  NE  ARG D 557     -29.278  -0.943 -17.101  1.00 35.49    -0.212 N 
ATOM      6  CZ  ARG D 557     -28.642  -2.090 -17.010  1.00 35.49     0.666 C 
ATOM      7  NH1 ARG D 557     -27.534  -2.232 -16.306  1.00 35.49    -0.235 N 
ATOM      8  NH2 ARG D 557     -29.149  -3.109 -17.641  1.00 35.49    -0.235 N 
ATOM      9  HH  ARG D 557     -27.184  -1.576 -15.881  1.00 35.49     0.174 HD
ATOM     10  HH  ARG D 557     -27.165  -3.005 -16.281  1.00 35.49     0.174 HD
ATOM     11  HH  ARG D 557     -29.869  -2.989 -18.081  1.00 35.49     0.174 HD
ATOM     12  HH  ARG D 557     -28.769  -3.866 -17.602  1.00 35.49     0.174 HD
ATOM     13  HE  ARG D 557     -29.941  -0.925 -17.633  1.00 35.49     0.178 HD
ENDBRANCH   4   5
ENDBRANCH   3   4
ENDBRANCH   2   3
ENDBRANCH   1   2
END_RES ARG D 557
BEGIN_RES GLU D 570
REMARK  3 active torsions:
REMARK  status: ('A' for Active; 'I' for Inactive)
REMARK    5  A    between atoms: CA   and  CB  
REMARK    6  A    between atoms: CB   and  CG  
REMARK    7  A    between atoms: CG   and  CD  
ROOT
ATOM     14  CA  GLU D 570     -18.033  -6.348 -13.375  1.00 32.92     0.160 C 
ENDROOT
BRANCH  14  15
ATOM     15  CB  GLU D 570     -19.500  -6.345 -13.794  1.00 32.92     0.043 C 
BRANCH  15  16
ATOM     16  CG  GLU D 570     -20.090  -7.637 -14.230  1.00 32.92     0.100 C 
BRANCH  16  17
ATOM     17  CD  GLU D 570     -20.495  -7.638 -15.686  1.00 32.92     0.185 C 
ATOM     18  OE1 GLU D 570     -20.457  -6.570 -16.325  1.00 32.92    -0.647 OA
ATOM     19  OE2 GLU D 570     -20.871  -8.717 -16.187  1.00 32.92    -0.647 OA
ENDBRANCH  16  17
ENDBRANCH  15  16
ENDBRANCH  14  15
END_RES GLU D 570
ENDMDL
MODEL 9
REMARK VINA RESULT:      -6.7      1.672      9.720
REMARK  25 active torsions:
REMARK  status: ('A' for Active; 'I' for Inactive)
REMARK    1  A    between atoms: C_2  and  C_3 
REMARK    2  A    between atoms: C_3  and  C_4 
REMARK    3  A    between atoms: C_4  and  C_5 
REMARK    4  A    between atoms: C_5  and  C_6 
REMARK    5  A    between atoms: C_6  and  C_7 
REMARK    6  A    between atoms: C_7  and  C_8 
REMARK    7  A    between atoms: C_8  and  C_9 
REMARK    8  A    between atoms: C_9  and  C_10 
REMARK    9  A    between atoms: C_10  and  C_11 
REMARK   10  A    between atoms: C_11  and  C_12 
REMARK   11  A    between atoms: C_12  and  O_14 
REMARK   12  A    between atoms: O_14  and  C_15 
REMARK   13  A    between atoms: C_15  and  C_16 
REMARK   14  A    between atoms: C_16  and  C_17 
REMARK   15  A    between atoms: C_16  and  C_23 
REMARK   16  A    between atoms: C_17  and  C_18 
REMARK   17  A    between atoms: C_18  and  C_19 
REMARK   18  A    between atoms: C_19  and  C_20 
REMARK   19  A    between atoms: C_20  and  C_21 
REMARK   20  A    between atoms: C_23  and  C_24 
REMARK   21  A    between atoms: C_24  and  C_25 
REMARK   22  A    between atoms: C_25  and  C_26 
REMARK   23  A    between atoms: C_26  and  C_27 
REMARK   24  A    between atoms: C_27  and  C_28 
REMARK   25  A    between atoms: C_28  and  C_29 
ROOT
HETATM    1  C   UNL     1     -22.738  -4.322 -13.862  1.00  0.00     0.183 C 
ENDROOT
BRANCH   1   2
HETATM    2  O   UNL     1     -23.843  -4.446 -14.759  1.00  0.00    -0.321 OA
BRANCH   2   3
HETATM    3  C   UNL     1     -24.415  -5.692 -14.789  1.00  0.00     0.258 C 
HETATM    4  O   UNL     1     -23.991  -6.682 -14.238  1.00  0.00    -0.265 OA
BRANCH   3   5
HETATM    5  C   UNL     1     -25.744  -5.639 -15.514  1.00  0.00     0.111 C 
BRANCH   5   6
HETATM    6  C   UNL     1     -26.163  -7.041 -15.911  1.00  0.00     0.010 C 
BRANCH   6   7
HETATM    7  C   UNL     1     -27.624  -7.330 -15.597  1.00  0.00     0.000 C 
BRANCH   7   8
HETATM    8  C   UNL     1     -28.496  -6.198 -16.128  1.00  0.00     0.000 C 
BRANCH   8   9
HETATM    9  C   UNL     1     -29.088  -6.567 -17.478  1.00  0.00     0.000 C 
BRANCH   9  10
HETATM   10  C   UNL     1     -28.323  -5.878 -18.598  1.00  0.00     0.000 C 
BRANCH  10  11
HETATM   11  C   UNL     1     -27.681  -6.916 -19.506  1.00  0.00     0.000 C 
BRANCH  11  12
HETATM   12  C   UNL     1     -26.582  -6.277 -20.342  1.00  0.00     0.000 C 
BRANCH  12  13
HETATM   13  C   UNL     1     -25.238  -6.907 -20.010  1.00  0.00    -0.000 C 
BRANCH  13  14
HETATM   14  C   UNL     1     -24.936  -8.053 -20.967  1.00  0.00    -0.005 C 
HETATM   15  C   UNL     1     -24.266  -7.527 -22.224  1.00  0.00     0.005 C 
ENDBRANCH  13  14
ENDBRANCH  12  13
ENDBRANCH  11  12
ENDBRANCH  10  11
ENDBRANCH   9  10
ENDBRANCH   8   9
ENDBRANCH   7   8
ENDBRANCH   6   7
ENDBRANCH   5   6
ENDBRANCH   3   5
ENDBRANCH   2   3
ENDBRANCH   1   2
BRANCH   1  16
HETATM   16  C   UNL     1     -22.849  -3.143 -12.889  1.00  0.00     0.010 C 
BRANCH  16  17
HETATM   17  C   UNL     1     -24.227  -3.106 -12.205  1.00  0.00     0.007 C 
BRANCH  17  18
HETATM   18  C   UNL     1     -24.103  -3.073 -10.689  1.00  0.00     0.000 C 
BRANCH  18  19
HETATM   19  C   UNL     1     -24.685  -4.319 -10.065  1.00  0.00     0.000 C 
BRANCH  19  20
HETATM   20  C   UNL     1     -23.616  -4.941  -9.180  1.00  0.00    -0.000 C 
BRANCH  20  21
HETATM   21  C   UNL     1     -23.392  -4.076  -7.960  1.00  0.00    -0.005 C 
HETATM   22  C   UNL     1     -23.384  -4.927  -6.707  1.00  0.00     0.005 C 
ENDBRANCH  20  21
ENDBRANCH  19  20
ENDBRANCH  18  19
ENDBRANCH  17  18
ENDBRANCH  16  17
BRANCH  16  23
HETATM   23  C   UNL     1     -21.729  -3.202 -11.841  1.00  0.00     0.007 C 
BRANCH  23  24
HETATM   24  C   UNL     1     -21.106  -4.583 -11.724  1.00  0.00     0.000 C 
BRANCH  24  25
HETATM   25  C   UNL     1     -20.020  -4.602 -10.667  1.00  0.00     0.000 C 
BRANCH  25  26
HETATM   26  C   UNL     1     -20.287  -3.508  -9.645  1.00  0.00     0.000 C 
BRANCH  26  27
HETATM   27  C   UNL     1     -19.859  -3.973  -8.264  1.00  0.00     0.000 C 
BRANCH  27  28
HETATM   28  C   UNL     1     -19.994  -5.482  -8.151  1.00  0.00    -0.000 C 
BRANCH  28  29
HETATM   29  C   UNL     1     -19.842  -5.918  -6.701  1.00  0.00    -0.005 C 
HETATM   30  C   UNL     1     -19.959  -4.723  -5.775  1.00  0.00     0.005 C 
ENDBRANCH  28  29
ENDBRANCH  27  28
ENDBRANCH  26  27
ENDBRANCH  25  26
ENDBRANCH  24  25
ENDBRANCH  23  24
ENDBRANCH  16  23
ENDBRANCH   1  16
TORSDOF 25
BEGIN_RES ARG D 557
REMARK  4 active torsions:
REMARK  status: ('A' for Active; 'I' for Inactive)
REMARK    1  A    between atoms: CA   and  CB  
REMARK    2  A    between atoms: CB   and  CG  
REMARK    3  A    between atoms: CG   and  CD  
REMARK    4  A    between atoms: CD   and  NE  
REMARK       I    between atoms: NE   and  CZ  
REMARK       I    between atoms: CZ   and  NH1 
REMARK       I    between atoms: CZ   and  NH2 
ROOT
ATOM      1  CA  ARG D 557     -26.217   2.705 -17.014  1.00 35.49     0.159 C 
ENDROOT
BRANCH   1   2
ATOM      2  CB  ARG D 557     -26.789   1.319 -17.183  1.00 35.49     0.034 C 
BRANCH   2   3
ATOM      3  CG  ARG D 557     -28.249   1.192 -17.099  1.00 35.49     0.027 C 
BRANCH   3   4
ATOM      4  CD  ARG D 557     -28.672  -0.135 -16.596  1.00 35.49     0.116 C 
BRANCH   4   5
ATOM      5  NE  ARG D 557     -27.627  -0.793 -15.857  1.00 35.49    -0.212 N 
ATOM      6  CZ  ARG D 557     -27.299  -2.062 -15.956  1.00 35.49     0.666 C 
ATOM      7  NH1 ARG D 557     -27.928  -2.897 -16.763  1.00 35.49    -0.235 N 
ATOM      8  NH2 ARG D 557     -26.309  -2.485 -15.224  1.00 35.49    -0.235 N 
ATOM      9  HH  ARG D 557     -28.581  -2.640 -17.255  1.00 35.49     0.174 HD
ATOM     10  HH  ARG D 557     -27.668  -3.713 -16.787  1.00 35.49     0.174 HD
ATOM     11  HH  ARG D 557     -25.917  -1.921 -14.718  1.00 35.49     0.174 HD
ATOM     12  HH  ARG D 557     -26.066  -3.296 -15.263  1.00 35.49     0.174 HD
ATOM     13  HE  ARG D 557     -27.218  -0.347 -15.261  1.00 35.49     0.178 HD
ENDBRANCH   4   5
ENDBRANCH   3   4
ENDBRANCH   2   3
ENDBRANCH   1   2
END_RES ARG D 557
BEGIN_RES GLU D 570
REMARK  3 active torsions:
REMARK  status: ('A' for Active; 'I' for Inactive)
REMARK    5  A    between atoms: CA   and  CB  
REMARK    6  A    between atoms: CB   and  CG  
REMARK    7  A    between atoms: CG   and  CD  
ROOT
ATOM     14  CA  GLU D 570     -18.033  -6.348 -13.375  1.00 32.92     0.160 C 
ENDROOT
BRANCH  14  15
ATOM     15  CB  GLU D 570     -19.500  -6.345 -13.794  1.00 32.92     0.043 C 
BRANCH  15  16
ATOM     16  CG  GLU D 570     -19.804  -6.057 -15.219  1.00 32.92     0.100 C 
BRANCH  16  17
ATOM     17  CD  GLU D 570     -20.772  -7.045 -15.827  1.00 32.92     0.185 C 
ATOM     18  OE1 GLU D 570     -21.553  -6.658 -16.718  1.00 32.92    -0.647 OA
ATOM     19  OE2 GLU D 570     -20.761  -8.215 -15.396  1.00 32.92    -0.647 OA
ENDBRANCH  16  17
ENDBRANCH  15  16
ENDBRANCH  14  15
END_RES GLU D 570
ENDMDL
