MODEL 1
REMARK VINA RESULT:      -7.2      0.000      0.000
REMARK  32 active torsions:
REMARK  status: ('A' for Active; 'I' for Inactive)
REMARK    1  A    between atoms: C_2  and  C_3 
REMARK    2  A    between atoms: C_3  and  C_4 
REMARK    3  A    between atoms: C_4  and  C_5 
REMARK    4  A    between atoms: C_5  and  C_6 
REMARK    5  A    between atoms: C_6  and  C_7 
REMARK    6  A    between atoms: C_7  and  C_8 
REMARK    7  A    between atoms: C_8  and  C_9 
REMARK    8  A    between atoms: C_9  and  C_10 
REMARK    9  A    between atoms: C_10  and  C_11 
REMARK   10  A    between atoms: C_11  and  C_12 
REMARK   11  A    between atoms: C_12  and  C_13 
REMARK   12  A    between atoms: C_13  and  C_14 
REMARK   13  A    between atoms: C_14  and  C_15 
REMARK   14  A    between atoms: C_15  and  C_16 
REMARK   15  A    between atoms: C_16  and  C_17 
REMARK   16  A    between atoms: C_17  and  C_18 
REMARK   17  A    between atoms: C_22  and  C_23 
REMARK   18  A    between atoms: C_23  and  C_24 
REMARK   19  A    between atoms: C_24  and  C_25 
REMARK   20  A    between atoms: C_25  and  C_26 
REMARK   21  A    between atoms: C_26  and  C_27 
REMARK   22  A    between atoms: C_27  and  C_28 
REMARK   23  A    between atoms: C_28  and  C_29 
REMARK   24  A    between atoms: C_29  and  C_30 
REMARK   25  A    between atoms: C_30  and  C_31 
REMARK   26  A    between atoms: C_31  and  C_32 
REMARK   27  A    between atoms: C_32  and  C_33 
REMARK   28  A    between atoms: C_33  and  C_34 
REMARK   29  A    between atoms: C_34  and  C_35 
REMARK   30  A    between atoms: C_35  and  C_36 
REMARK   31  A    between atoms: C_36  and  C_37 
REMARK   32  A    between atoms: C_37  and  C_38 
ROOT
HETATM    1  C   UNL     2     -22.879  -3.074 -14.489  1.00  0.00     0.289 C 
HETATM    2  O   UNL     2     -23.623  -1.931 -14.562  1.00  0.00    -0.150 OA
HETATM    3  O   UNL     2     -22.333  -3.751 -15.423  1.00  0.00    -0.263 OA
HETATM    4 CA   UNL     3     -25.023  -0.001 -14.379  1.00  0.00     0.000 Ca
ENDROOT
BRANCH   1   5
HETATM    5  C   UNL     2     -22.728  -3.587 -13.061  1.00  0.00     0.114 C 
BRANCH   5   6
HETATM    6  C   UNL     2     -23.225  -2.640 -11.965  1.00  0.00     0.010 C 
BRANCH   6   7
HETATM    7  C   UNL     2     -23.933  -3.456 -10.865  1.00  0.00     0.000 C 
BRANCH   7   8
HETATM    8  C   UNL     2     -23.309  -4.830 -10.615  1.00  0.00     0.000 C 
BRANCH   8   9
HETATM    9  C   UNL     2     -22.375  -4.729  -9.407  1.00  0.00     0.000 C 
BRANCH   9  10
HETATM   10  C   UNL     2     -20.923  -4.431  -9.782  1.00  0.00     0.000 C 
BRANCH  10  11
HETATM   11  C   UNL     2     -20.034  -4.182  -8.561  1.00  0.00     0.000 C 
BRANCH  11  12
HETATM   12  C   UNL     2     -20.792  -3.765  -7.297  1.00  0.00     0.000 C 
BRANCH  12  13
HETATM   13  C   UNL     2     -20.456  -4.563  -6.063  1.00  0.00     0.000 C 
BRANCH  13  14
HETATM   14  C   UNL     2     -20.066  -6.016  -6.312  1.00  0.00     0.000 C 
BRANCH  14  15
HETATM   15  C   UNL     2     -20.961  -7.043  -5.597  1.00  0.00     0.000 C 
BRANCH  15  16
HETATM   16  C   UNL     2     -22.084  -6.380  -4.795  1.00  0.00     0.000 C 
BRANCH  16  17
HETATM   17  C   UNL     2     -22.105  -6.734  -3.298  1.00  0.00     0.000 C 
BRANCH  17  18
HETATM   18  C   UNL     2     -20.851  -7.455  -2.806  1.00  0.00     0.000 C 
BRANCH  18  19
HETATM   19  C   UNL     2     -20.962  -7.879  -1.345  1.00  0.00    -0.000 C 
BRANCH  19  20
HETATM   20  C   UNL     2     -22.285  -7.469  -0.718  1.00  0.00    -0.005 C 
HETATM   21  C   UNL     2     -22.375  -7.936   0.726  1.00  0.00     0.005 C 
ENDBRANCH  19  20
ENDBRANCH  18  19
ENDBRANCH  17  18
ENDBRANCH  16  17
ENDBRANCH  15  16
ENDBRANCH  14  15
ENDBRANCH  13  14
ENDBRANCH  12  13
ENDBRANCH  11  12
ENDBRANCH  10  11
ENDBRANCH   9  10
ENDBRANCH   8   9
ENDBRANCH   7   8
ENDBRANCH   6   7
ENDBRANCH   5   6
ENDBRANCH   1   5
TORSDOF 32
BEGIN_RES ARG D 557
REMARK  4 active torsions:
REMARK  status: ('A' for Active; 'I' for Inactive)
REMARK    1  A    between atoms: CA   and  CB  
REMARK    2  A    between atoms: CB   and  CG  
REMARK    3  A    between atoms: CG   and  CD  
REMARK    4  A    between atoms: CD   and  NE  
REMARK       I    between atoms: NE   and  CZ  
REMARK       I    between atoms: CZ   and  NH1 
REMARK       I    between atoms: CZ   and  NH2 
ROOT
ATOM      1  CA  ARG D 557     -26.217   2.705 -17.014  1.00 35.49     0.159 C 
ENDROOT
BRANCH   1   2
ATOM      2  CB  ARG D 557     -26.789   1.319 -17.183  1.00 35.49     0.034 C 
BRANCH   2   3
ATOM      3  CG  ARG D 557     -28.237   1.174 -16.992  1.00 35.49     0.027 C 
BRANCH   3   4
ATOM      4  CD  ARG D 557     -28.629  -0.219 -16.678  1.00 35.49     0.116 C 
BRANCH   4   5
ATOM      5  NE  ARG D 557     -27.582  -0.936 -15.999  1.00 35.49    -0.212 N 
ATOM      6  CZ  ARG D 557     -27.369  -2.231 -16.066  1.00 35.49     0.666 C 
ATOM      7  NH1 ARG D 557     -28.132  -3.039 -16.780  1.00 35.49    -0.235 N 
ATOM      8  NH2 ARG D 557     -26.358  -2.709 -15.400  1.00 35.49    -0.235 N 
ATOM      9  HH  ARG D 557     -28.801  -2.745 -17.227  1.00 35.49     0.174 HD
ATOM     10  HH  ARG D 557     -27.943  -3.874 -16.788  1.00 35.49     0.174 HD
ATOM     11  HH  ARG D 557     -25.879  -2.163 -14.954  1.00 35.49     0.174 HD
ATOM     12  HH  ARG D 557     -26.187  -3.539 -15.423  1.00 35.49     0.174 HD
ATOM     13  HE  ARG D 557     -27.087  -0.504 -15.459  1.00 35.49     0.178 HD
ENDBRANCH   4   5
ENDBRANCH   3   4
ENDBRANCH   2   3
ENDBRANCH   1   2
END_RES ARG D 557
BEGIN_RES GLU D 570
REMARK  3 active torsions:
REMARK  status: ('A' for Active; 'I' for Inactive)
REMARK    5  A    between atoms: CA   and  CB  
REMARK    6  A    between atoms: CB   and  CG  
REMARK    7  A    between atoms: CG   and  CD  
ROOT
ATOM     14  CA  GLU D 570     -18.033  -6.348 -13.375  1.00 32.92     0.160 C 
ENDROOT
BRANCH  14  15
ATOM     15  CB  GLU D 570     -19.500  -6.345 -13.794  1.00 32.92     0.043 C 
BRANCH  15  16
ATOM     16  CG  GLU D 570     -19.800  -6.145 -15.235  1.00 32.92     0.100 C 
BRANCH  16  17
ATOM     17  CD  GLU D 570     -20.649  -7.249 -15.820  1.00 32.92     0.185 C 
ATOM     18  OE1 GLU D 570     -20.719  -8.340 -15.221  1.00 32.92    -0.647 OA
ATOM     19  OE2 GLU D 570     -21.237  -7.027 -16.896  1.00 32.92    -0.647 OA
ENDBRANCH  16  17
ENDBRANCH  15  16
ENDBRANCH  14  15
END_RES GLU D 570
ENDMDL
MODEL 2
REMARK VINA RESULT:      -7.1      2.388      4.032
REMARK  32 active torsions:
REMARK  status: ('A' for Active; 'I' for Inactive)
REMARK    1  A    between atoms: C_2  and  C_3 
REMARK    2  A    between atoms: C_3  and  C_4 
REMARK    3  A    between atoms: C_4  and  C_5 
REMARK    4  A    between atoms: C_5  and  C_6 
REMARK    5  A    between atoms: C_6  and  C_7 
REMARK    6  A    between atoms: C_7  and  C_8 
REMARK    7  A    between atoms: C_8  and  C_9 
REMARK    8  A    between atoms: C_9  and  C_10 
REMARK    9  A    between atoms: C_10  and  C_11 
REMARK   10  A    between atoms: C_11  and  C_12 
REMARK   11  A    between atoms: C_12  and  C_13 
REMARK   12  A    between atoms: C_13  and  C_14 
REMARK   13  A    between atoms: C_14  and  C_15 
REMARK   14  A    between atoms: C_15  and  C_16 
REMARK   15  A    between atoms: C_16  and  C_17 
REMARK   16  A    between atoms: C_17  and  C_18 
REMARK   17  A    between atoms: C_22  and  C_23 
REMARK   18  A    between atoms: C_23  and  C_24 
REMARK   19  A    between atoms: C_24  and  C_25 
REMARK   20  A    between atoms: C_25  and  C_26 
REMARK   21  A    between atoms: C_26  and  C_27 
REMARK   22  A    between atoms: C_27  and  C_28 
REMARK   23  A    between atoms: C_28  and  C_29 
REMARK   24  A    between atoms: C_29  and  C_30 
REMARK   25  A    between atoms: C_30  and  C_31 
REMARK   26  A    between atoms: C_31  and  C_32 
REMARK   27  A    between atoms: C_32  and  C_33 
REMARK   28  A    between atoms: C_33  and  C_34 
REMARK   29  A    between atoms: C_34  and  C_35 
REMARK   30  A    between atoms: C_35  and  C_36 
REMARK   31  A    between atoms: C_36  and  C_37 
REMARK   32  A    between atoms: C_37  and  C_38 
ROOT
HETATM    1  C   UNL     2     -23.890  -3.451 -10.276  1.00  0.00     0.289 C 
HETATM    2  O   UNL     2     -22.788  -3.136 -11.021  1.00  0.00    -0.150 OA
HETATM    3  O   UNL     2     -25.126  -3.262 -10.531  1.00  0.00    -0.263 OA
HETATM    4 CA   UNL     3     -20.687  -2.631 -12.045  1.00  0.00     0.000 Ca
ENDROOT
BRANCH   1   5
HETATM    5  C   UNL     2     -23.532  -4.101  -8.944  1.00  0.00     0.114 C 
BRANCH   5   6
HETATM    6  C   UNL     2     -22.154  -3.736  -8.383  1.00  0.00     0.010 C 
BRANCH   6   7
HETATM    7  C   UNL     2     -21.372  -5.027  -8.070  1.00  0.00     0.000 C 
BRANCH   7   8
HETATM    8  C   UNL     2     -20.096  -4.796  -7.257  1.00  0.00     0.000 C 
BRANCH   8   9
HETATM    9  C   UNL     2     -20.419  -4.998  -5.774  1.00  0.00     0.000 C 
BRANCH   9  10
HETATM   10  C   UNL     2     -21.526  -6.023  -5.526  1.00  0.00     0.000 C 
BRANCH  10  11
HETATM   11  C   UNL     2     -21.000  -7.459  -5.455  1.00  0.00     0.000 C 
BRANCH  11  12
HETATM   12  C   UNL     2     -21.567  -8.287  -4.298  1.00  0.00     0.000 C 
BRANCH  12  13
HETATM   13  C   UNL     2     -20.562  -8.680  -3.246  1.00  0.00     0.000 C 
BRANCH  13  14
HETATM   14  C   UNL     2     -20.543  -7.801  -2.000  1.00  0.00     0.000 C 
BRANCH  14  15
HETATM   15  C   UNL     2     -21.736  -6.834  -1.891  1.00  0.00     0.000 C 
BRANCH  15  16
HETATM   16  C   UNL     2     -22.507  -7.005  -0.580  1.00  0.00     0.000 C 
BRANCH  16  17
HETATM   17  C   UNL     2     -22.258  -8.338   0.148  1.00  0.00     0.000 C 
BRANCH  17  18
HETATM   18  C   UNL     2     -23.434  -9.312   0.091  1.00  0.00     0.000 C 
BRANCH  18  19
HETATM   19  C   UNL     2     -23.076 -10.610  -0.628  1.00  0.00    -0.000 C 
BRANCH  19  20
HETATM   20  C   UNL     2     -21.635 -11.030  -0.390  1.00  0.00    -0.005 C 
HETATM   21  C   UNL     2     -21.540 -12.049   0.735  1.00  0.00     0.005 C 
ENDBRANCH  19  20
ENDBRANCH  18  19
ENDBRANCH  17  18
ENDBRANCH  16  17
ENDBRANCH  15  16
ENDBRANCH  14  15
ENDBRANCH  13  14
ENDBRANCH  12  13
ENDBRANCH  11  12
ENDBRANCH  10  11
ENDBRANCH   9  10
ENDBRANCH   8   9
ENDBRANCH   7   8
ENDBRANCH   6   7
ENDBRANCH   5   6
ENDBRANCH   1   5
TORSDOF 32
BEGIN_RES ARG D 557
REMARK  4 active torsions:
REMARK  status: ('A' for Active; 'I' for Inactive)
REMARK    1  A    between atoms: CA   and  CB  
REMARK    2  A    between atoms: CB   and  CG  
REMARK    3  A    between atoms: CG   and  CD  
REMARK    4  A    between atoms: CD   and  NE  
REMARK       I    between atoms: NE   and  CZ  
REMARK       I    between atoms: CZ   and  NH1 
REMARK       I    between atoms: CZ   and  NH2 
ROOT
ATOM      1  CA  ARG D 557     -26.217   2.705 -17.014  1.00 35.49     0.159 C 
ENDROOT
BRANCH   1   2
ATOM      2  CB  ARG D 557     -26.789   1.319 -17.183  1.00 35.49     0.034 C 
BRANCH   2   3
ATOM      3  CG  ARG D 557     -25.865   0.195 -16.990  1.00 35.49     0.027 C 
BRANCH   3   4
ATOM      4  CD  ARG D 557     -26.323  -0.738 -15.935  1.00 35.49     0.116 C 
BRANCH   4   5
ATOM      5  NE  ARG D 557     -25.320  -0.947 -14.924  1.00 35.49    -0.212 N 
ATOM      6  CZ  ARG D 557     -25.059  -2.089 -14.327  1.00 35.49     0.666 C 
ATOM      7  NH1 ARG D 557     -25.723  -3.197 -14.594  1.00 35.49    -0.235 N 
ATOM      8  NH2 ARG D 557     -24.099  -2.100 -13.448  1.00 35.49    -0.235 N 
ATOM      9  HH  ARG D 557     -26.357  -3.214 -15.170  1.00 35.49     0.174 HD
ATOM     10  HH  ARG D 557     -25.507  -3.913 -14.175  1.00 35.49     0.174 HD
ATOM     11  HH  ARG D 557     -23.682  -1.370 -13.302  1.00 35.49     0.174 HD
ATOM     12  HH  ARG D 557     -23.898  -2.818 -13.045  1.00 35.49     0.174 HD
ATOM     13  HE  ARG D 557     -24.893  -0.270 -14.639  1.00 35.49     0.178 HD
ENDBRANCH   4   5
ENDBRANCH   3   4
ENDBRANCH   2   3
ENDBRANCH   1   2
END_RES ARG D 557
BEGIN_RES GLU D 570
REMARK  3 active torsions:
REMARK  status: ('A' for Active; 'I' for Inactive)
REMARK    5  A    between atoms: CA   and  CB  
REMARK    6  A    between atoms: CB   and  CG  
REMARK    7  A    between atoms: CG   and  CD  
ROOT
ATOM     14  CA  GLU D 570     -18.033  -6.348 -13.375  1.00 32.92     0.160 C 
ENDROOT
BRANCH  14  15
ATOM     15  CB  GLU D 570     -19.500  -6.345 -13.794  1.00 32.92     0.043 C 
BRANCH  15  16
ATOM     16  CG  GLU D 570     -20.437  -5.511 -12.999  1.00 32.92     0.100 C 
BRANCH  16  17
ATOM     17  CD  GLU D 570     -21.723  -5.207 -13.732  1.00 32.92     0.185 C 
ATOM     18  OE1 GLU D 570     -22.410  -6.151 -14.166  1.00 32.92    -0.647 OA
ATOM     19  OE2 GLU D 570     -22.038  -4.010 -13.888  1.00 32.92    -0.647 OA
ENDBRANCH  16  17
ENDBRANCH  15  16
ENDBRANCH  14  15
END_RES GLU D 570
ENDMDL
MODEL 3
REMARK VINA RESULT:      -7.0      2.554      3.348
REMARK  32 active torsions:
REMARK  status: ('A' for Active; 'I' for Inactive)
REMARK    1  A    between atoms: C_2  and  C_3 
REMARK    2  A    between atoms: C_3  and  C_4 
REMARK    3  A    between atoms: C_4  and  C_5 
REMARK    4  A    between atoms: C_5  and  C_6 
REMARK    5  A    between atoms: C_6  and  C_7 
REMARK    6  A    between atoms: C_7  and  C_8 
REMARK    7  A    between atoms: C_8  and  C_9 
REMARK    8  A    between atoms: C_9  and  C_10 
REMARK    9  A    between atoms: C_10  and  C_11 
REMARK   10  A    between atoms: C_11  and  C_12 
REMARK   11  A    between atoms: C_12  and  C_13 
REMARK   12  A    between atoms: C_13  and  C_14 
REMARK   13  A    between atoms: C_14  and  C_15 
REMARK   14  A    between atoms: C_15  and  C_16 
REMARK   15  A    between atoms: C_16  and  C_17 
REMARK   16  A    between atoms: C_17  and  C_18 
REMARK   17  A    between atoms: C_22  and  C_23 
REMARK   18  A    between atoms: C_23  and  C_24 
REMARK   19  A    between atoms: C_24  and  C_25 
REMARK   20  A    between atoms: C_25  and  C_26 
REMARK   21  A    between atoms: C_26  and  C_27 
REMARK   22  A    between atoms: C_27  and  C_28 
REMARK   23  A    between atoms: C_28  and  C_29 
REMARK   24  A    between atoms: C_29  and  C_30 
REMARK   25  A    between atoms: C_30  and  C_31 
REMARK   26  A    between atoms: C_31  and  C_32 
REMARK   27  A    between atoms: C_32  and  C_33 
REMARK   28  A    between atoms: C_33  and  C_34 
REMARK   29  A    between atoms: C_34  and  C_35 
REMARK   30  A    between atoms: C_35  and  C_36 
REMARK   31  A    between atoms: C_36  and  C_37 
REMARK   32  A    between atoms: C_37  and  C_38 
ROOT
HETATM    1  C   UNL     2     -24.295  -3.864 -10.134  1.00  0.00     0.289 C 
HETATM    2  O   UNL     2     -24.308  -3.940  -8.770  1.00  0.00    -0.150 OA
HETATM    3  O   UNL     2     -24.963  -3.105 -10.913  1.00  0.00    -0.263 OA
HETATM    4 CA   UNL     3     -24.177  -4.365  -6.420  1.00  0.00     0.000 Ca
ENDROOT
BRANCH   1   5
HETATM    5  C   UNL     2     -23.344  -4.872 -10.770  1.00  0.00     0.114 C 
BRANCH   5   6
HETATM    6  C   UNL     2     -22.277  -4.277 -11.694  1.00  0.00     0.010 C 
BRANCH   6   7
HETATM    7  C   UNL     2     -21.203  -3.568 -10.845  1.00  0.00     0.000 C 
BRANCH   7   8
HETATM    8  C   UNL     2     -20.353  -4.519 -10.000  1.00  0.00     0.000 C 
BRANCH   8   9
HETATM    9  C   UNL     2     -20.518  -4.142  -8.526  1.00  0.00     0.000 C 
BRANCH   9  10
HETATM   10  C   UNL     2     -20.217  -5.293  -7.565  1.00  0.00     0.000 C 
BRANCH  10  11
HETATM   11  C   UNL     2     -19.977  -4.818  -6.130  1.00  0.00     0.000 C 
BRANCH  11  12
HETATM   12  C   UNL     2     -20.858  -5.501  -5.079  1.00  0.00     0.000 C 
BRANCH  12  13
HETATM   13  C   UNL     2     -21.305  -6.896  -5.436  1.00  0.00     0.000 C 
BRANCH  13  14
HETATM   14  C   UNL     2     -21.641  -7.796  -4.251  1.00  0.00     0.000 C 
BRANCH  14  15
HETATM   15  C   UNL     2     -20.415  -8.270  -3.450  1.00  0.00     0.000 C 
BRANCH  15  16
HETATM   16  C   UNL     2     -20.534  -7.950  -1.958  1.00  0.00     0.000 C 
BRANCH  16  17
HETATM   17  C   UNL     2     -21.850  -7.265  -1.547  1.00  0.00     0.000 C 
BRANCH  17  18
HETATM   18  C   UNL     2     -22.273  -7.537  -0.104  1.00  0.00     0.000 C 
BRANCH  18  19
HETATM   19  C   UNL     2     -22.166  -9.014   0.262  1.00  0.00    -0.000 C 
BRANCH  19  20
HETATM   20  C   UNL     2     -23.387  -9.812  -0.166  1.00  0.00    -0.005 C 
HETATM   21  C   UNL     2     -23.045 -10.776  -1.290  1.00  0.00     0.005 C 
ENDBRANCH  19  20
ENDBRANCH  18  19
ENDBRANCH  17  18
ENDBRANCH  16  17
ENDBRANCH  15  16
ENDBRANCH  14  15
ENDBRANCH  13  14
ENDBRANCH  12  13
ENDBRANCH  11  12
ENDBRANCH  10  11
ENDBRANCH   9  10
ENDBRANCH   8   9
ENDBRANCH   7   8
ENDBRANCH   6   7
ENDBRANCH   5   6
ENDBRANCH   1   5
TORSDOF 32
BEGIN_RES ARG D 557
REMARK  4 active torsions:
REMARK  status: ('A' for Active; 'I' for Inactive)
REMARK    1  A    between atoms: CA   and  CB  
REMARK    2  A    between atoms: CB   and  CG  
REMARK    3  A    between atoms: CG   and  CD  
REMARK    4  A    between atoms: CD   and  NE  
REMARK       I    between atoms: NE   and  CZ  
REMARK       I    between atoms: CZ   and  NH1 
REMARK       I    between atoms: CZ   and  NH2 
ROOT
ATOM      1  CA  ARG D 557     -26.217   2.705 -17.014  1.00 35.49     0.159 C 
ENDROOT
BRANCH   1   2
ATOM      2  CB  ARG D 557     -26.789   1.319 -17.183  1.00 35.49     0.034 C 
BRANCH   2   3
ATOM      3  CG  ARG D 557     -25.942   0.198 -16.756  1.00 35.49     0.027 C 
BRANCH   3   4
ATOM      4  CD  ARG D 557     -26.715  -0.865 -16.074  1.00 35.49     0.116 C 
BRANCH   4   5
ATOM      5  NE  ARG D 557     -25.963  -1.490 -15.019  1.00 35.49    -0.212 N 
ATOM      6  CZ  ARG D 557     -25.959  -2.773 -14.733  1.00 35.49     0.666 C 
ATOM      7  NH1 ARG D 557     -26.684  -3.650 -15.403  1.00 35.49    -0.235 N 
ATOM      8  NH2 ARG D 557     -25.199  -3.168 -13.754  1.00 35.49    -0.235 N 
ATOM      9  HH  ARG D 557     -27.190  -3.413 -16.053  1.00 35.49     0.174 HD
ATOM     10  HH  ARG D 557     -26.640  -4.474 -15.174  1.00 35.49     0.174 HD
ATOM     11  HH  ARG D 557     -24.737  -2.580 -13.344  1.00 35.49     0.174 HD
ATOM     12  HH  ARG D 557     -25.168  -3.989 -13.543  1.00 35.49     0.174 HD
ATOM     13  HE  ARG D 557     -25.524  -0.989 -14.490  1.00 35.49     0.178 HD
ENDBRANCH   4   5
ENDBRANCH   3   4
ENDBRANCH   2   3
ENDBRANCH   1   2
END_RES ARG D 557
BEGIN_RES GLU D 570
REMARK  3 active torsions:
REMARK  status: ('A' for Active; 'I' for Inactive)
REMARK    5  A    between atoms: CA   and  CB  
REMARK    6  A    between atoms: CB   and  CG  
REMARK    7  A    between atoms: CG   and  CD  
ROOT
ATOM     14  CA  GLU D 570     -18.033  -6.348 -13.375  1.00 32.92     0.160 C 
ENDROOT
BRANCH  14  15
ATOM     15  CB  GLU D 570     -19.500  -6.345 -13.794  1.00 32.92     0.043 C 
BRANCH  15  16
ATOM     16  CG  GLU D 570     -19.812  -5.952 -15.193  1.00 32.92     0.100 C 
BRANCH  16  17
ATOM     17  CD  GLU D 570     -21.274  -5.638 -15.404  1.00 32.92     0.185 C 
ATOM     18  OE1 GLU D 570     -21.589  -4.721 -16.187  1.00 32.92    -0.647 OA
ATOM     19  OE2 GLU D 570     -22.114  -6.305 -14.768  1.00 32.92    -0.647 OA
ENDBRANCH  16  17
ENDBRANCH  15  16
ENDBRANCH  14  15
END_RES GLU D 570
ENDMDL
MODEL 4
REMARK VINA RESULT:      -6.7      1.975      3.284
REMARK  32 active torsions:
REMARK  status: ('A' for Active; 'I' for Inactive)
REMARK    1  A    between atoms: C_2  and  C_3 
REMARK    2  A    between atoms: C_3  and  C_4 
REMARK    3  A    between atoms: C_4  and  C_5 
REMARK    4  A    between atoms: C_5  and  C_6 
REMARK    5  A    between atoms: C_6  and  C_7 
REMARK    6  A    between atoms: C_7  and  C_8 
REMARK    7  A    between atoms: C_8  and  C_9 
REMARK    8  A    between atoms: C_9  and  C_10 
REMARK    9  A    between atoms: C_10  and  C_11 
REMARK   10  A    between atoms: C_11  and  C_12 
REMARK   11  A    between atoms: C_12  and  C_13 
REMARK   12  A    between atoms: C_13  and  C_14 
REMARK   13  A    between atoms: C_14  and  C_15 
REMARK   14  A    between atoms: C_15  and  C_16 
REMARK   15  A    between atoms: C_16  and  C_17 
REMARK   16  A    between atoms: C_17  and  C_18 
REMARK   17  A    between atoms: C_22  and  C_23 
REMARK   18  A    between atoms: C_23  and  C_24 
REMARK   19  A    between atoms: C_24  and  C_25 
REMARK   20  A    between atoms: C_25  and  C_26 
REMARK   21  A    between atoms: C_26  and  C_27 
REMARK   22  A    between atoms: C_27  and  C_28 
REMARK   23  A    between atoms: C_28  and  C_29 
REMARK   24  A    between atoms: C_29  and  C_30 
REMARK   25  A    between atoms: C_30  and  C_31 
REMARK   26  A    between atoms: C_31  and  C_32 
REMARK   27  A    between atoms: C_32  and  C_33 
REMARK   28  A    between atoms: C_33  and  C_34 
REMARK   29  A    between atoms: C_34  and  C_35 
REMARK   30  A    between atoms: C_35  and  C_36 
REMARK   31  A    between atoms: C_36  and  C_37 
REMARK   32  A    between atoms: C_37  and  C_38 
ROOT
HETATM    1  C   UNL     2     -23.756  -3.227 -11.927  1.00  0.00     0.289 C 
HETATM    2  O   UNL     2     -23.206  -3.001 -13.157  1.00  0.00    -0.150 OA
HETATM    3  O   UNL     2     -24.945  -3.013 -11.515  1.00  0.00    -0.263 OA
HETATM    4 CA   UNL     3     -21.950  -2.637 -15.159  1.00  0.00     0.000 Ca
ENDROOT
BRANCH   1   5
HETATM    5  C   UNL     2     -22.753  -3.798 -10.931  1.00  0.00     0.114 C 
BRANCH   5   6
HETATM    6  C   UNL     2     -23.174  -3.727  -9.459  1.00  0.00     0.010 C 
BRANCH   6   7
HETATM    7  C   UNL     2     -22.121  -4.443  -8.591  1.00  0.00     0.000 C 
BRANCH   7   8
HETATM    8  C   UNL     2     -20.678  -4.193  -9.034  1.00  0.00     0.000 C 
BRANCH   8   9
HETATM    9  C   UNL     2     -19.738  -4.670  -7.924  1.00  0.00     0.000 C 
BRANCH   9  10
HETATM   10  C   UNL     2     -20.441  -4.898  -6.586  1.00  0.00     0.000 C 
BRANCH  10  11
HETATM   11  C   UNL     2     -20.696  -6.379  -6.295  1.00  0.00     0.000 C 
BRANCH  11  12
HETATM   12  C   UNL     2     -20.618  -6.758  -4.812  1.00  0.00     0.000 C 
BRANCH  12  13
HETATM   13  C   UNL     2     -21.846  -6.422  -4.006  1.00  0.00     0.000 C 
BRANCH  13  14
HETATM   14  C   UNL     2     -21.624  -6.293  -2.503  1.00  0.00     0.000 C 
BRANCH  14  15
HETATM   15  C   UNL     2     -21.886  -7.587  -1.712  1.00  0.00     0.000 C 
BRANCH  15  16
HETATM   16  C   UNL     2     -22.407  -7.311  -0.299  1.00  0.00     0.000 C 
BRANCH  16  17
HETATM   17  C   UNL     2     -23.076  -8.514   0.389  1.00  0.00     0.000 C 
BRANCH  17  18
HETATM   18  C   UNL     2     -22.833  -9.851  -0.309  1.00  0.00     0.000 C 
BRANCH  18  19
HETATM   19  C   UNL     2     -24.037 -10.783  -0.210  1.00  0.00    -0.000 C 
BRANCH  19  20
HETATM   20  C   UNL     2     -23.638 -12.223   0.071  1.00  0.00    -0.005 C 
HETATM   21  C   UNL     2     -22.270 -12.294   0.728  1.00  0.00     0.005 C 
ENDBRANCH  19  20
ENDBRANCH  18  19
ENDBRANCH  17  18
ENDBRANCH  16  17
ENDBRANCH  15  16
ENDBRANCH  14  15
ENDBRANCH  13  14
ENDBRANCH  12  13
ENDBRANCH  11  12
ENDBRANCH  10  11
ENDBRANCH   9  10
ENDBRANCH   8   9
ENDBRANCH   7   8
ENDBRANCH   6   7
ENDBRANCH   5   6
ENDBRANCH   1   5
TORSDOF 32
BEGIN_RES ARG D 557
REMARK  4 active torsions:
REMARK  status: ('A' for Active; 'I' for Inactive)
REMARK    1  A    between atoms: CA   and  CB  
REMARK    2  A    between atoms: CB   and  CG  
REMARK    3  A    between atoms: CG   and  CD  
REMARK    4  A    between atoms: CD   and  NE  
REMARK       I    between atoms: NE   and  CZ  
REMARK       I    between atoms: CZ   and  NH1 
REMARK       I    between atoms: CZ   and  NH2 
ROOT
ATOM      1  CA  ARG D 557     -26.217   2.705 -17.014  1.00 35.49     0.159 C 
ENDROOT
BRANCH   1   2
ATOM      2  CB  ARG D 557     -26.789   1.319 -17.183  1.00 35.49     0.034 C 
BRANCH   2   3
ATOM      3  CG  ARG D 557     -28.232   1.226 -17.437  1.00 35.49     0.027 C 
BRANCH   3   4
ATOM      4  CD  ARG D 557     -28.905   0.274 -16.524  1.00 35.49     0.116 C 
BRANCH   4   5
ATOM      5  NE  ARG D 557     -29.229  -0.967 -17.177  1.00 35.49    -0.212 N 
ATOM      6  CZ  ARG D 557     -28.582  -2.102 -17.033  1.00 35.49     0.666 C 
ATOM      7  NH1 ARG D 557     -27.521  -2.220 -16.257  1.00 35.49    -0.235 N 
ATOM      8  NH2 ARG D 557     -29.030  -3.134 -17.687  1.00 35.49    -0.235 N 
ATOM      9  HH  ARG D 557     -27.211  -1.554 -15.815  1.00 35.49     0.174 HD
ATOM     10  HH  ARG D 557     -27.142  -2.986 -16.200  1.00 35.49     0.174 HD
ATOM     11  HH  ARG D 557     -29.721  -3.030 -18.175  1.00 35.49     0.174 HD
ATOM     12  HH  ARG D 557     -28.641  -3.884 -17.617  1.00 35.49     0.174 HD
ATOM     13  HE  ARG D 557     -29.856  -0.964 -17.752  1.00 35.49     0.178 HD
ENDBRANCH   4   5
ENDBRANCH   3   4
ENDBRANCH   2   3
ENDBRANCH   1   2
END_RES ARG D 557
BEGIN_RES GLU D 570
REMARK  3 active torsions:
REMARK  status: ('A' for Active; 'I' for Inactive)
REMARK    5  A    between atoms: CA   and  CB  
REMARK    6  A    between atoms: CB   and  CG  
REMARK    7  A    between atoms: CG   and  CD  
ROOT
ATOM     14  CA  GLU D 570     -18.033  -6.348 -13.375  1.00 32.92     0.160 C 
ENDROOT
BRANCH  14  15
ATOM     15  CB  GLU D 570     -19.500  -6.345 -13.794  1.00 32.92     0.043 C 
BRANCH  15  16
ATOM     16  CG  GLU D 570     -19.813  -5.933 -15.187  1.00 32.92     0.100 C 
BRANCH  16  17
ATOM     17  CD  GLU D 570     -21.258  -5.530 -15.371  1.00 32.92     0.185 C 
ATOM     18  OE1 GLU D 570     -21.571  -4.832 -16.355  1.00 32.92    -0.647 OA
ATOM     19  OE2 GLU D 570     -22.083  -5.904 -14.514  1.00 32.92    -0.647 OA
ENDBRANCH  16  17
ENDBRANCH  15  16
ENDBRANCH  14  15
END_RES GLU D 570
ENDMDL
MODEL 5
REMARK VINA RESULT:      -6.7      1.686      2.101
REMARK  32 active torsions:
REMARK  status: ('A' for Active; 'I' for Inactive)
REMARK    1  A    between atoms: C_2  and  C_3 
REMARK    2  A    between atoms: C_3  and  C_4 
REMARK    3  A    between atoms: C_4  and  C_5 
REMARK    4  A    between atoms: C_5  and  C_6 
REMARK    5  A    between atoms: C_6  and  C_7 
REMARK    6  A    between atoms: C_7  and  C_8 
REMARK    7  A    between atoms: C_8  and  C_9 
REMARK    8  A    between atoms: C_9  and  C_10 
REMARK    9  A    between atoms: C_10  and  C_11 
REMARK   10  A    between atoms: C_11  and  C_12 
REMARK   11  A    between atoms: C_12  and  C_13 
REMARK   12  A    between atoms: C_13  and  C_14 
REMARK   13  A    between atoms: C_14  and  C_15 
REMARK   14  A    between atoms: C_15  and  C_16 
REMARK   15  A    between atoms: C_16  and  C_17 
REMARK   16  A    between atoms: C_17  and  C_18 
REMARK   17  A    between atoms: C_22  and  C_23 
REMARK   18  A    between atoms: C_23  and  C_24 
REMARK   19  A    between atoms: C_24  and  C_25 
REMARK   20  A    between atoms: C_25  and  C_26 
REMARK   21  A    between atoms: C_26  and  C_27 
REMARK   22  A    between atoms: C_27  and  C_28 
REMARK   23  A    between atoms: C_28  and  C_29 
REMARK   24  A    between atoms: C_29  and  C_30 
REMARK   25  A    between atoms: C_30  and  C_31 
REMARK   26  A    between atoms: C_31  and  C_32 
REMARK   27  A    between atoms: C_32  and  C_33 
REMARK   28  A    between atoms: C_33  and  C_34 
REMARK   29  A    between atoms: C_34  and  C_35 
REMARK   30  A    between atoms: C_35  and  C_36 
REMARK   31  A    between atoms: C_36  and  C_37 
REMARK   32  A    between atoms: C_37  and  C_38 
ROOT
HETATM    1  C   UNL     2     -24.576  -2.933 -14.087  1.00  0.00     0.289 C 
HETATM    2  O   UNL     2     -24.424  -4.220 -14.519  1.00  0.00    -0.150 OA
HETATM    3  O   UNL     2     -25.194  -1.958 -14.634  1.00  0.00    -0.263 OA
HETATM    4 CA   UNL     3     -23.912  -6.494 -15.052  1.00  0.00     0.000 Ca
ENDROOT
BRANCH   1   5
HETATM    5  C   UNL     2     -23.866  -2.668 -12.765  1.00  0.00     0.114 C 
BRANCH   5   6
HETATM    6  C   UNL     2     -23.981  -3.784 -11.721  1.00  0.00     0.010 C 
BRANCH   6   7
HETATM    7  C   UNL     2     -22.712  -3.799 -10.846  1.00  0.00     0.000 C 
BRANCH   7   8
HETATM    8  C   UNL     2     -21.409  -3.704 -11.642  1.00  0.00     0.000 C 
BRANCH   8   9
HETATM    9  C   UNL     2     -20.236  -3.926 -10.685  1.00  0.00     0.000 C 
BRANCH   9  10
HETATM   10  C   UNL     2     -20.639  -4.598  -9.372  1.00  0.00     0.000 C 
BRANCH  10  11
HETATM   11  C   UNL     2     -19.995  -3.941  -8.148  1.00  0.00     0.000 C 
BRANCH  11  12
HETATM   12  C   UNL     2     -20.839  -4.011  -6.871  1.00  0.00     0.000 C 
BRANCH  12  13
HETATM   13  C   UNL     2     -20.224  -4.804  -5.746  1.00  0.00     0.000 C 
BRANCH  13  14
HETATM   14  C   UNL     2     -20.922  -6.118  -5.417  1.00  0.00     0.000 C 
BRANCH  14  15
HETATM   15  C   UNL     2     -21.472  -6.200  -3.981  1.00  0.00     0.000 C 
BRANCH  15  16
HETATM   16  C   UNL     2     -21.173  -7.546  -3.318  1.00  0.00     0.000 C 
BRANCH  16  17
HETATM   17  C   UNL     2     -21.096  -7.508  -1.782  1.00  0.00     0.000 C 
BRANCH  17  18
HETATM   18  C   UNL     2     -22.345  -6.944  -1.105  1.00  0.00     0.000 C 
BRANCH  18  19
HETATM   19  C   UNL     2     -22.694  -7.690   0.179  1.00  0.00    -0.000 C 
BRANCH  19  20
HETATM   20  C   UNL     2     -22.268  -9.149   0.140  1.00  0.00    -0.005 C 
HETATM   21  C   UNL     2     -23.439 -10.052  -0.211  1.00  0.00     0.005 C 
ENDBRANCH  19  20
ENDBRANCH  18  19
ENDBRANCH  17  18
ENDBRANCH  16  17
ENDBRANCH  15  16
ENDBRANCH  14  15
ENDBRANCH  13  14
ENDBRANCH  12  13
ENDBRANCH  11  12
ENDBRANCH  10  11
ENDBRANCH   9  10
ENDBRANCH   8   9
ENDBRANCH   7   8
ENDBRANCH   6   7
ENDBRANCH   5   6
ENDBRANCH   1   5
TORSDOF 32
BEGIN_RES ARG D 557
REMARK  4 active torsions:
REMARK  status: ('A' for Active; 'I' for Inactive)
REMARK    1  A    between atoms: CA   and  CB  
REMARK    2  A    between atoms: CB   and  CG  
REMARK    3  A    between atoms: CG   and  CD  
REMARK    4  A    between atoms: CD   and  NE  
REMARK       I    between atoms: NE   and  CZ  
REMARK       I    between atoms: CZ   and  NH1 
REMARK       I    between atoms: CZ   and  NH2 
ROOT
ATOM      1  CA  ARG D 557     -26.217   2.705 -17.014  1.00 35.49     0.159 C 
ENDROOT
BRANCH   1   2
ATOM      2  CB  ARG D 557     -26.789   1.319 -17.183  1.00 35.49     0.034 C 
BRANCH   2   3
ATOM      3  CG  ARG D 557     -28.227   1.227 -17.464  1.00 35.49     0.027 C 
BRANCH   3   4
ATOM      4  CD  ARG D 557     -28.923   0.295 -16.547  1.00 35.49     0.116 C 
BRANCH   4   5
ATOM      5  NE  ARG D 557     -28.124  -0.863 -16.243  1.00 35.49    -0.212 N 
ATOM      6  CZ  ARG D 557     -28.332  -2.079 -16.695  1.00 35.49     0.666 C 
ATOM      7  NH1 ARG D 557     -29.340  -2.377 -17.493  1.00 35.49    -0.235 N 
ATOM      8  NH2 ARG D 557     -27.493  -3.006 -16.332  1.00 35.49    -0.235 N 
ATOM      9  HH  ARG D 557     -29.903  -1.782 -17.747  1.00 35.49     0.174 HD
ATOM     10  HH  ARG D 557     -29.424  -3.187 -17.759  1.00 35.49     0.174 HD
ATOM     11  HH  ARG D 557     -26.847  -2.783 -15.821  1.00 35.49     0.174 HD
ATOM     12  HH  ARG D 557     -27.592  -3.802 -16.606  1.00 35.49     0.174 HD
ATOM     13  HE  ARG D 557     -27.495  -0.777 -15.677  1.00 35.49     0.178 HD
ENDBRANCH   4   5
ENDBRANCH   3   4
ENDBRANCH   2   3
ENDBRANCH   1   2
END_RES ARG D 557
BEGIN_RES GLU D 570
REMARK  3 active torsions:
REMARK  status: ('A' for Active; 'I' for Inactive)
REMARK    5  A    between atoms: CA   and  CB  
REMARK    6  A    between atoms: CB   and  CG  
REMARK    7  A    between atoms: CG   and  CD  
ROOT
ATOM     14  CA  GLU D 570     -18.033  -6.348 -13.375  1.00 32.92     0.160 C 
ENDROOT
BRANCH  14  15
ATOM     15  CB  GLU D 570     -19.500  -6.345 -13.794  1.00 32.92     0.043 C 
BRANCH  15  16
ATOM     16  CG  GLU D 570     -20.084  -7.632 -14.251  1.00 32.92     0.100 C 
BRANCH  16  17
ATOM     17  CD  GLU D 570     -21.043  -7.467 -15.407  1.00 32.92     0.185 C 
ATOM     18  OE1 GLU D 570     -21.487  -6.332 -15.667  1.00 32.92    -0.647 OA
ATOM     19  OE2 GLU D 570     -21.366  -8.486 -16.049  1.00 32.92    -0.647 OA
ENDBRANCH  16  17
ENDBRANCH  15  16
ENDBRANCH  14  15
END_RES GLU D 570
ENDMDL
MODEL 6
REMARK VINA RESULT:      -6.6      2.299      2.779
REMARK  32 active torsions:
REMARK  status: ('A' for Active; 'I' for Inactive)
REMARK    1  A    between atoms: C_2  and  C_3 
REMARK    2  A    between atoms: C_3  and  C_4 
REMARK    3  A    between atoms: C_4  and  C_5 
REMARK    4  A    between atoms: C_5  and  C_6 
REMARK    5  A    between atoms: C_6  and  C_7 
REMARK    6  A    between atoms: C_7  and  C_8 
REMARK    7  A    between atoms: C_8  and  C_9 
REMARK    8  A    between atoms: C_9  and  C_10 
REMARK    9  A    between atoms: C_10  and  C_11 
REMARK   10  A    between atoms: C_11  and  C_12 
REMARK   11  A    between atoms: C_12  and  C_13 
REMARK   12  A    between atoms: C_13  and  C_14 
REMARK   13  A    between atoms: C_14  and  C_15 
REMARK   14  A    between atoms: C_15  and  C_16 
REMARK   15  A    between atoms: C_16  and  C_17 
REMARK   16  A    between atoms: C_17  and  C_18 
REMARK   17  A    between atoms: C_22  and  C_23 
REMARK   18  A    between atoms: C_23  and  C_24 
REMARK   19  A    between atoms: C_24  and  C_25 
REMARK   20  A    between atoms: C_25  and  C_26 
REMARK   21  A    between atoms: C_26  and  C_27 
REMARK   22  A    between atoms: C_27  and  C_28 
REMARK   23  A    between atoms: C_28  and  C_29 
REMARK   24  A    between atoms: C_29  and  C_30 
REMARK   25  A    between atoms: C_30  and  C_31 
REMARK   26  A    between atoms: C_31  and  C_32 
REMARK   27  A    between atoms: C_32  and  C_33 
REMARK   28  A    between atoms: C_33  and  C_34 
REMARK   29  A    between atoms: C_34  and  C_35 
REMARK   30  A    between atoms: C_35  and  C_36 
REMARK   31  A    between atoms: C_36  and  C_37 
REMARK   32  A    between atoms: C_37  and  C_38 
ROOT
HETATM    1  C   UNL     2     -24.946  -7.088 -15.573  1.00  0.00     0.289 C 
HETATM    2  O   UNL     2     -26.287  -7.298 -15.417  1.00  0.00    -0.150 OA
HETATM    3  O   UNL     2     -24.055  -7.855 -16.071  1.00  0.00    -0.263 OA
HETATM    4 CA   UNL     3     -28.626  -7.408 -14.932  1.00  0.00     0.000 Ca
ENDROOT
BRANCH   1   5
HETATM    5  C   UNL     2     -24.496  -5.734 -15.036  1.00  0.00     0.114 C 
BRANCH   5   6
HETATM    6  C   UNL     2     -23.430  -5.784 -13.937  1.00  0.00     0.010 C 
BRANCH   6   7
HETATM    7  C   UNL     2     -22.799  -4.387 -13.772  1.00  0.00     0.000 C 
BRANCH   7   8
HETATM    8  C   UNL     2     -22.799  -3.874 -12.330  1.00  0.00     0.000 C 
BRANCH   8   9
HETATM    9  C   UNL     2     -21.600  -4.481 -11.597  1.00  0.00     0.000 C 
BRANCH   9  10
HETATM   10  C   UNL     2     -21.239  -3.745 -10.306  1.00  0.00     0.000 C 
BRANCH  10  11
HETATM   11  C   UNL     2     -21.472  -4.594  -9.054  1.00  0.00     0.000 C 
BRANCH  11  12
HETATM   12  C   UNL     2     -21.219  -3.861  -7.733  1.00  0.00     0.000 C 
BRANCH  12  13
HETATM   13  C   UNL     2     -20.026  -4.353  -6.954  1.00  0.00     0.000 C 
BRANCH  13  14
HETATM   14  C   UNL     2     -20.334  -4.893  -5.562  1.00  0.00     0.000 C 
BRANCH  14  15
HETATM   15  C   UNL     2     -20.420  -6.428  -5.483  1.00  0.00     0.000 C 
BRANCH  15  16
HETATM   16  C   UNL     2     -21.739  -6.908  -4.874  1.00  0.00     0.000 C 
BRANCH  16  17
HETATM   17  C   UNL     2     -21.664  -7.282  -3.383  1.00  0.00     0.000 C 
BRANCH  17  18
HETATM   18  C   UNL     2     -22.252  -6.230  -2.443  1.00  0.00     0.000 C 
BRANCH  18  19
HETATM   19  C   UNL     2     -22.046  -6.586  -0.974  1.00  0.00    -0.000 C 
BRANCH  19  20
HETATM   20  C   UNL     2     -22.248  -8.068  -0.700  1.00  0.00    -0.005 C 
HETATM   21  C   UNL     2     -23.200  -8.284   0.465  1.00  0.00     0.005 C 
ENDBRANCH  19  20
ENDBRANCH  18  19
ENDBRANCH  17  18
ENDBRANCH  16  17
ENDBRANCH  15  16
ENDBRANCH  14  15
ENDBRANCH  13  14
ENDBRANCH  12  13
ENDBRANCH  11  12
ENDBRANCH  10  11
ENDBRANCH   9  10
ENDBRANCH   8   9
ENDBRANCH   7   8
ENDBRANCH   6   7
ENDBRANCH   5   6
ENDBRANCH   1   5
TORSDOF 32
BEGIN_RES ARG D 557
REMARK  4 active torsions:
REMARK  status: ('A' for Active; 'I' for Inactive)
REMARK    1  A    between atoms: CA   and  CB  
REMARK    2  A    between atoms: CB   and  CG  
REMARK    3  A    between atoms: CG   and  CD  
REMARK    4  A    between atoms: CD   and  NE  
REMARK       I    between atoms: NE   and  CZ  
REMARK       I    between atoms: CZ   and  NH1 
REMARK       I    between atoms: CZ   and  NH2 
ROOT
ATOM      1  CA  ARG D 557     -26.217   2.705 -17.014  1.00 35.49     0.159 C 
ENDROOT
BRANCH   1   2
ATOM      2  CB  ARG D 557     -26.789   1.319 -17.183  1.00 35.49     0.034 C 
BRANCH   2   3
ATOM      3  CG  ARG D 557     -28.242   1.222 -17.365  1.00 35.49     0.027 C 
BRANCH   3   4
ATOM      4  CD  ARG D 557     -28.864   0.252 -16.435  1.00 35.49     0.116 C 
BRANCH   4   5
ATOM      5  NE  ARG D 557     -29.253  -0.964 -17.099  1.00 35.49    -0.212 N 
ATOM      6  CZ  ARG D 557     -28.625  -2.116 -17.023  1.00 35.49     0.666 C 
ATOM      7  NH1 ARG D 557     -27.523  -2.277 -16.314  1.00 35.49    -0.235 N 
ATOM      8  NH2 ARG D 557     -29.133  -3.121 -17.675  1.00 35.49    -0.235 N 
ATOM      9  HH  ARG D 557     -27.173  -1.630 -15.875  1.00 35.49     0.174 HD
ATOM     10  HH  ARG D 557     -27.158  -3.052 -16.299  1.00 35.49     0.174 HD
ATOM     11  HH  ARG D 557     -29.849  -2.989 -18.119  1.00 35.49     0.174 HD
ATOM     12  HH  ARG D 557     -28.758  -3.881 -17.647  1.00 35.49     0.174 HD
ATOM     13  HE  ARG D 557     -29.913  -0.932 -17.636  1.00 35.49     0.178 HD
ENDBRANCH   4   5
ENDBRANCH   3   4
ENDBRANCH   2   3
ENDBRANCH   1   2
END_RES ARG D 557
BEGIN_RES GLU D 570
REMARK  3 active torsions:
REMARK  status: ('A' for Active; 'I' for Inactive)
REMARK    5  A    between atoms: CA   and  CB  
REMARK    6  A    between atoms: CB   and  CG  
REMARK    7  A    between atoms: CG   and  CD  
ROOT
ATOM     14  CA  GLU D 570     -18.033  -6.348 -13.375  1.00 32.92     0.160 C 
ENDROOT
BRANCH  14  15
ATOM     15  CB  GLU D 570     -19.500  -6.345 -13.794  1.00 32.92     0.043 C 
BRANCH  15  16
ATOM     16  CG  GLU D 570     -19.812  -5.946 -15.191  1.00 32.92     0.100 C 
BRANCH  16  17
ATOM     17  CD  GLU D 570     -20.628  -6.980 -15.931  1.00 32.92     0.185 C 
ATOM     18  OE1 GLU D 570     -21.190  -6.659 -16.995  1.00 32.92    -0.647 OA
ATOM     19  OE2 GLU D 570     -20.720  -8.119 -15.432  1.00 32.92    -0.647 OA
ENDBRANCH  16  17
ENDBRANCH  15  16
ENDBRANCH  14  15
END_RES GLU D 570
ENDMDL
MODEL 7
REMARK VINA RESULT:      -6.5      2.339      3.673
REMARK  32 active torsions:
REMARK  status: ('A' for Active; 'I' for Inactive)
REMARK    1  A    between atoms: C_2  and  C_3 
REMARK    2  A    between atoms: C_3  and  C_4 
REMARK    3  A    between atoms: C_4  and  C_5 
REMARK    4  A    between atoms: C_5  and  C_6 
REMARK    5  A    between atoms: C_6  and  C_7 
REMARK    6  A    between atoms: C_7  and  C_8 
REMARK    7  A    between atoms: C_8  and  C_9 
REMARK    8  A    between atoms: C_9  and  C_10 
REMARK    9  A    between atoms: C_10  and  C_11 
REMARK   10  A    between atoms: C_11  and  C_12 
REMARK   11  A    between atoms: C_12  and  C_13 
REMARK   12  A    between atoms: C_13  and  C_14 
REMARK   13  A    between atoms: C_14  and  C_15 
REMARK   14  A    between atoms: C_15  and  C_16 
REMARK   15  A    between atoms: C_16  and  C_17 
REMARK   16  A    between atoms: C_17  and  C_18 
REMARK   17  A    between atoms: C_22  and  C_23 
REMARK   18  A    between atoms: C_23  and  C_24 
REMARK   19  A    between atoms: C_24  and  C_25 
REMARK   20  A    between atoms: C_25  and  C_26 
REMARK   21  A    between atoms: C_26  and  C_27 
REMARK   22  A    between atoms: C_27  and  C_28 
REMARK   23  A    between atoms: C_28  and  C_29 
REMARK   24  A    between atoms: C_29  and  C_30 
REMARK   25  A    between atoms: C_30  and  C_31 
REMARK   26  A    between atoms: C_31  and  C_32 
REMARK   27  A    between atoms: C_32  and  C_33 
REMARK   28  A    between atoms: C_33  and  C_34 
REMARK   29  A    between atoms: C_34  and  C_35 
REMARK   30  A    between atoms: C_35  and  C_36 
REMARK   31  A    between atoms: C_36  and  C_37 
REMARK   32  A    between atoms: C_37  and  C_38 
ROOT
HETATM    1  C   UNL     2     -23.658  -3.108 -11.600  1.00  0.00     0.289 C 
HETATM    2  O   UNL     2     -24.820  -3.214 -10.889  1.00  0.00    -0.150 OA
HETATM    3  O   UNL     2     -23.416  -2.453 -12.669  1.00  0.00    -0.263 OA
HETATM    4 CA   UNL     3     -26.712  -3.663  -9.496  1.00  0.00     0.000 Ca
ENDROOT
BRANCH   1   5
HETATM    5  C   UNL     2     -22.524  -3.929 -11.000  1.00  0.00     0.114 C 
BRANCH   5   6
HETATM    6  C   UNL     2     -22.769  -4.451  -9.580  1.00  0.00     0.010 C 
BRANCH   6   7
HETATM    7  C   UNL     2     -21.680  -3.903  -8.638  1.00  0.00     0.000 C 
BRANCH   7   8
HETATM    8  C   UNL     2     -21.921  -4.219  -7.160  1.00  0.00     0.000 C 
BRANCH   8   9
HETATM    9  C   UNL     2     -20.582  -4.581  -6.514  1.00  0.00     0.000 C 
BRANCH   9  10
HETATM   10  C   UNL     2     -20.571  -5.966  -5.866  1.00  0.00     0.000 C 
BRANCH  10  11
HETATM   11  C   UNL     2     -21.838  -6.250  -5.055  1.00  0.00     0.000 C 
BRANCH  11  12
HETATM   12  C   UNL     2     -21.884  -7.641  -4.416  1.00  0.00     0.000 C 
BRANCH  12  13
HETATM   13  C   UNL     2     -20.903  -7.855  -3.291  1.00  0.00     0.000 C 
BRANCH  13  14
HETATM   14  C   UNL     2     -21.050  -6.904  -2.108  1.00  0.00     0.000 C 
BRANCH  14  15
HETATM   15  C   UNL     2     -22.085  -7.352  -1.061  1.00  0.00     0.000 C 
BRANCH  15  16
HETATM   16  C   UNL     2     -21.443  -8.094   0.113  1.00  0.00     0.000 C 
BRANCH  16  17
HETATM   17  C   UNL     2     -22.006  -9.503   0.373  1.00  0.00     0.000 C 
BRANCH  17  18
HETATM   18  C   UNL     2     -23.018  -9.976  -0.670  1.00  0.00     0.000 C 
BRANCH  18  19
HETATM   19  C   UNL     2     -24.030 -10.959  -0.090  1.00  0.00    -0.000 C 
BRANCH  19  20
HETATM   20  C   UNL     2     -23.610 -12.408  -0.280  1.00  0.00    -0.005 C 
HETATM   21  C   UNL     2     -23.307 -13.070   1.054  1.00  0.00     0.005 C 
ENDBRANCH  19  20
ENDBRANCH  18  19
ENDBRANCH  17  18
ENDBRANCH  16  17
ENDBRANCH  15  16
ENDBRANCH  14  15
ENDBRANCH  13  14
ENDBRANCH  12  13
ENDBRANCH  11  12
ENDBRANCH  10  11
ENDBRANCH   9  10
ENDBRANCH   8   9
ENDBRANCH   7   8
ENDBRANCH   6   7
ENDBRANCH   5   6
ENDBRANCH   1   5
TORSDOF 32
BEGIN_RES ARG D 557
REMARK  4 active torsions:
REMARK  status: ('A' for Active; 'I' for Inactive)
REMARK    1  A    between atoms: CA   and  CB  
REMARK    2  A    between atoms: CB   and  CG  
REMARK    3  A    between atoms: CG   and  CD  
REMARK    4  A    between atoms: CD   and  NE  
REMARK       I    between atoms: NE   and  CZ  
REMARK       I    between atoms: CZ   and  NH1 
REMARK       I    between atoms: CZ   and  NH2 
ROOT
ATOM      1  CA  ARG D 557     -26.217   2.705 -17.014  1.00 35.49     0.159 C 
ENDROOT
BRANCH   1   2
ATOM      2  CB  ARG D 557     -26.789   1.319 -17.183  1.00 35.49     0.034 C 
BRANCH   2   3
ATOM      3  CG  ARG D 557     -25.996   0.207 -16.646  1.00 35.49     0.027 C 
BRANCH   3   4
ATOM      4  CD  ARG D 557     -26.829  -0.969 -16.308  1.00 35.49     0.116 C 
BRANCH   4   5
ATOM      5  NE  ARG D 557     -26.324  -1.681 -15.164  1.00 35.49    -0.212 N 
ATOM      6  CZ  ARG D 557     -26.467  -2.968 -14.935  1.00 35.49     0.666 C 
ATOM      7  NH1 ARG D 557     -27.124  -3.765 -15.756  1.00 35.49    -0.235 N 
ATOM      8  NH2 ARG D 557     -25.923  -3.449 -13.855  1.00 35.49    -0.235 N 
ATOM      9  HH  ARG D 557     -27.488  -3.470 -16.474  1.00 35.49     0.174 HD
ATOM     10  HH  ARG D 557     -27.183  -4.597 -15.557  1.00 35.49     0.174 HD
ATOM     11  HH  ARG D 557     -25.498  -2.912 -13.347  1.00 35.49     0.174 HD
ATOM     12  HH  ARG D 557     -25.991  -4.275 -13.676  1.00 35.49     0.174 HD
ATOM     13  HE  ARG D 557     -25.949  -1.232 -14.547  1.00 35.49     0.178 HD
ENDBRANCH   4   5
ENDBRANCH   3   4
ENDBRANCH   2   3
ENDBRANCH   1   2
END_RES ARG D 557
BEGIN_RES GLU D 570
REMARK  3 active torsions:
REMARK  status: ('A' for Active; 'I' for Inactive)
REMARK    5  A    between atoms: CA   and  CB  
REMARK    6  A    between atoms: CB   and  CG  
REMARK    7  A    between atoms: CG   and  CD  
ROOT
ATOM     14  CA  GLU D 570     -18.033  -6.348 -13.375  1.00 32.92     0.160 C 
ENDROOT
BRANCH  14  15
ATOM     15  CB  GLU D 570     -19.500  -6.345 -13.794  1.00 32.92     0.043 C 
BRANCH  15  16
ATOM     16  CG  GLU D 570     -19.799  -6.494 -15.242  1.00 32.92     0.100 C 
BRANCH  16  17
ATOM     17  CD  GLU D 570     -21.202  -6.065 -15.601  1.00 32.92     0.185 C 
ATOM     18  OE1 GLU D 570     -22.167  -6.687 -15.117  1.00 32.92    -0.647 OA
ATOM     19  OE2 GLU D 570     -21.338  -5.108 -16.388  1.00 32.92    -0.647 OA
ENDBRANCH  16  17
ENDBRANCH  15  16
ENDBRANCH  14  15
END_RES GLU D 570
ENDMDL
MODEL 8
REMARK VINA RESULT:      -6.5      2.987      5.227
REMARK  32 active torsions:
REMARK  status: ('A' for Active; 'I' for Inactive)
REMARK    1  A    between atoms: C_2  and  C_3 
REMARK    2  A    between atoms: C_3  and  C_4 
REMARK    3  A    between atoms: C_4  and  C_5 
REMARK    4  A    between atoms: C_5  and  C_6 
REMARK    5  A    between atoms: C_6  and  C_7 
REMARK    6  A    between atoms: C_7  and  C_8 
REMARK    7  A    between atoms: C_8  and  C_9 
REMARK    8  A    between atoms: C_9  and  C_10 
REMARK    9  A    between atoms: C_10  and  C_11 
REMARK   10  A    between atoms: C_11  and  C_12 
REMARK   11  A    between atoms: C_12  and  C_13 
REMARK   12  A    between atoms: C_13  and  C_14 
REMARK   13  A    between atoms: C_14  and  C_15 
REMARK   14  A    between atoms: C_15  and  C_16 
REMARK   15  A    between atoms: C_16  and  C_17 
REMARK   16  A    between atoms: C_17  and  C_18 
REMARK   17  A    between atoms: C_22  and  C_23 
REMARK   18  A    between atoms: C_23  and  C_24 
REMARK   19  A    between atoms: C_24  and  C_25 
REMARK   20  A    between atoms: C_25  and  C_26 
REMARK   21  A    between atoms: C_26  and  C_27 
REMARK   22  A    between atoms: C_27  and  C_28 
REMARK   23  A    between atoms: C_28  and  C_29 
REMARK   24  A    between atoms: C_29  and  C_30 
REMARK   25  A    between atoms: C_30  and  C_31 
REMARK   26  A    between atoms: C_31  and  C_32 
REMARK   27  A    between atoms: C_32  and  C_33 
REMARK   28  A    between atoms: C_33  and  C_34 
REMARK   29  A    between atoms: C_34  and  C_35 
REMARK   30  A    between atoms: C_35  and  C_36 
REMARK   31  A    between atoms: C_36  and  C_37 
REMARK   32  A    between atoms: C_37  and  C_38 
ROOT
HETATM    1  C   UNL     2     -27.978  -5.965 -18.681  1.00  0.00     0.289 C 
HETATM    2  O   UNL     2     -28.936  -4.996 -18.791  1.00  0.00    -0.150 OA
HETATM    3  O   UNL     2     -27.477  -6.719 -19.581  1.00  0.00    -0.263 OA
HETATM    4 CA   UNL     3     -30.637  -3.322 -18.651  1.00  0.00     0.000 Ca
ENDROOT
BRANCH   1   5
HETATM    5  C   UNL     2     -27.489  -6.149 -17.249  1.00  0.00     0.114 C 
BRANCH   5   6
HETATM    6  C   UNL     2     -25.977  -6.337 -17.090  1.00  0.00     0.010 C 
BRANCH   6   7
HETATM    7  C   UNL     2     -25.632  -6.472 -15.594  1.00  0.00     0.000 C 
BRANCH   7   8
HETATM    8  C   UNL     2     -24.130  -6.504 -15.304  1.00  0.00     0.000 C 
BRANCH   8   9
HETATM    9  C   UNL     2     -23.869  -5.744 -14.001  1.00  0.00     0.000 C 
BRANCH   9  10
HETATM   10  C   UNL     2     -22.669  -4.800 -14.076  1.00  0.00     0.000 C 
BRANCH  10  11
HETATM   11  C   UNL     2     -23.076  -3.339 -14.284  1.00  0.00     0.000 C 
BRANCH  11  12
HETATM   12  C   UNL     2     -23.912  -2.744 -13.146  1.00  0.00     0.000 C 
BRANCH  12  13
HETATM   13  C   UNL     2     -23.240  -2.748 -11.796  1.00  0.00     0.000 C 
BRANCH  13  14
HETATM   14  C   UNL     2     -24.001  -3.470 -10.691  1.00  0.00     0.000 C 
BRANCH  14  15
HETATM   15  C   UNL     2     -23.428  -4.851 -10.326  1.00  0.00     0.000 C 
BRANCH  15  16
HETATM   16  C   UNL     2     -22.291  -4.760  -9.306  1.00  0.00     0.000 C 
BRANCH  16  17
HETATM   17  C   UNL     2     -22.571  -3.838  -8.107  1.00  0.00     0.000 C 
BRANCH  17  18
HETATM   18  C   UNL     2     -21.326  -3.456  -7.306  1.00  0.00     0.000 C 
BRANCH  18  19
HETATM   19  C   UNL     2     -20.329  -4.606  -7.203  1.00  0.00    -0.000 C 
BRANCH  19  20
HETATM   20  C   UNL     2     -19.975  -4.944  -5.764  1.00  0.00    -0.005 C 
HETATM   21  C   UNL     2     -21.081  -5.750  -5.102  1.00  0.00     0.005 C 
ENDBRANCH  19  20
ENDBRANCH  18  19
ENDBRANCH  17  18
ENDBRANCH  16  17
ENDBRANCH  15  16
ENDBRANCH  14  15
ENDBRANCH  13  14
ENDBRANCH  12  13
ENDBRANCH  11  12
ENDBRANCH  10  11
ENDBRANCH   9  10
ENDBRANCH   8   9
ENDBRANCH   7   8
ENDBRANCH   6   7
ENDBRANCH   5   6
ENDBRANCH   1   5
TORSDOF 32
BEGIN_RES ARG D 557
REMARK  4 active torsions:
REMARK  status: ('A' for Active; 'I' for Inactive)
REMARK    1  A    between atoms: CA   and  CB  
REMARK    2  A    between atoms: CB   and  CG  
REMARK    3  A    between atoms: CG   and  CD  
REMARK    4  A    between atoms: CD   and  NE  
REMARK       I    between atoms: NE   and  CZ  
REMARK       I    between atoms: CZ   and  NH1 
REMARK       I    between atoms: CZ   and  NH2 
ROOT
ATOM      1  CA  ARG D 557     -26.217   2.705 -17.014  1.00 35.49     0.159 C 
ENDROOT
BRANCH   1   2
ATOM      2  CB  ARG D 557     -26.789   1.319 -17.183  1.00 35.49     0.034 C 
BRANCH   2   3
ATOM      3  CG  ARG D 557     -28.248   1.189 -17.081  1.00 35.49     0.027 C 
BRANCH   3   4
ATOM      4  CD  ARG D 557     -28.672  -0.199 -16.789  1.00 35.49     0.116 C 
BRANCH   4   5
ATOM      5  NE  ARG D 557     -27.643  -0.951 -16.119  1.00 35.49    -0.212 N 
ATOM      6  CZ  ARG D 557     -27.506  -2.257 -16.146  1.00 35.49     0.666 C 
ATOM      7  NH1 ARG D 557     -28.336  -3.044 -16.804  1.00 35.49    -0.235 N 
ATOM      8  NH2 ARG D 557     -26.500  -2.768 -15.496  1.00 35.49    -0.235 N 
ATOM      9  HH  ARG D 557     -29.003  -2.729 -17.240  1.00 35.49     0.174 HD
ATOM     10  HH  ARG D 557     -28.195  -3.889 -16.788  1.00 35.49     0.174 HD
ATOM     11  HH  ARG D 557     -25.976  -2.235 -15.086  1.00 35.49     0.174 HD
ATOM     12  HH  ARG D 557     -26.376  -3.607 -15.493  1.00 35.49     0.174 HD
ATOM     13  HE  ARG D 557     -27.107  -0.529 -15.611  1.00 35.49     0.178 HD
ENDBRANCH   4   5
ENDBRANCH   3   4
ENDBRANCH   2   3
ENDBRANCH   1   2
END_RES ARG D 557
BEGIN_RES GLU D 570
REMARK  3 active torsions:
REMARK  status: ('A' for Active; 'I' for Inactive)
REMARK    5  A    between atoms: CA   and  CB  
REMARK    6  A    between atoms: CB   and  CG  
REMARK    7  A    between atoms: CG   and  CD  
ROOT
ATOM     14  CA  GLU D 570     -18.033  -6.348 -13.375  1.00 32.92     0.160 C 
ENDROOT
BRANCH  14  15
ATOM     15  CB  GLU D 570     -19.500  -6.345 -13.794  1.00 32.92     0.043 C 
BRANCH  15  16
ATOM     16  CG  GLU D 570     -20.107  -7.648 -14.169  1.00 32.92     0.100 C 
BRANCH  16  17
ATOM     17  CD  GLU D 570     -20.524  -7.708 -15.620  1.00 32.92     0.185 C 
ATOM     18  OE1 GLU D 570     -20.657  -8.820 -16.166  1.00 32.92    -0.647 OA
ATOM     19  OE2 GLU D 570     -20.702  -6.631 -16.223  1.00 32.92    -0.647 OA
ENDBRANCH  16  17
ENDBRANCH  15  16
ENDBRANCH  14  15
END_RES GLU D 570
ENDMDL
MODEL 9
REMARK VINA RESULT:      -6.4      1.880      2.950
REMARK  32 active torsions:
REMARK  status: ('A' for Active; 'I' for Inactive)
REMARK    1  A    between atoms: C_2  and  C_3 
REMARK    2  A    between atoms: C_3  and  C_4 
REMARK    3  A    between atoms: C_4  and  C_5 
REMARK    4  A    between atoms: C_5  and  C_6 
REMARK    5  A    between atoms: C_6  and  C_7 
REMARK    6  A    between atoms: C_7  and  C_8 
REMARK    7  A    between atoms: C_8  and  C_9 
REMARK    8  A    between atoms: C_9  and  C_10 
REMARK    9  A    between atoms: C_10  and  C_11 
REMARK   10  A    between atoms: C_11  and  C_12 
REMARK   11  A    between atoms: C_12  and  C_13 
REMARK   12  A    between atoms: C_13  and  C_14 
REMARK   13  A    between atoms: C_14  and  C_15 
REMARK   14  A    between atoms: C_15  and  C_16 
REMARK   15  A    between atoms: C_16  and  C_17 
REMARK   16  A    between atoms: C_17  and  C_18 
REMARK   17  A    between atoms: C_22  and  C_23 
REMARK   18  A    between atoms: C_23  and  C_24 
REMARK   19  A    between atoms: C_24  and  C_25 
REMARK   20  A    between atoms: C_25  and  C_26 
REMARK   21  A    between atoms: C_26  and  C_27 
REMARK   22  A    between atoms: C_27  and  C_28 
REMARK   23  A    between atoms: C_28  and  C_29 
REMARK   24  A    between atoms: C_29  and  C_30 
REMARK   25  A    between atoms: C_30  and  C_31 
REMARK   26  A    between atoms: C_31  and  C_32 
REMARK   27  A    between atoms: C_32  and  C_33 
REMARK   28  A    between atoms: C_33  and  C_34 
REMARK   29  A    between atoms: C_34  and  C_35 
REMARK   30  A    between atoms: C_35  and  C_36 
REMARK   31  A    between atoms: C_36  and  C_37 
REMARK   32  A    between atoms: C_37  and  C_38 
ROOT
HETATM    1  C   UNL     2     -23.897  -3.271 -11.335  1.00  0.00     0.289 C 
HETATM    2  O   UNL     2     -25.090  -3.207 -10.672  1.00  0.00    -0.150 OA
HETATM    3  O   UNL     2     -23.479  -2.584 -12.326  1.00  0.00    -0.263 OA
HETATM    4 CA   UNL     3     -27.099  -3.392  -9.387  1.00  0.00     0.000 Ca
ENDROOT
BRANCH   1   5
HETATM    5  C   UNL     2     -22.977  -4.355 -10.785  1.00  0.00     0.114 C 
BRANCH   5   6
HETATM    6  C   UNL     2     -21.912  -3.874  -9.795  1.00  0.00     0.010 C 
BRANCH   6   7
HETATM    7  C   UNL     2     -22.442  -4.031  -8.356  1.00  0.00     0.000 C 
BRANCH   7   8
HETATM    8  C   UNL     2     -21.447  -3.598  -7.277  1.00  0.00     0.000 C 
BRANCH   8   9
HETATM    9  C   UNL     2     -20.142  -4.373  -7.478  1.00  0.00     0.000 C 
BRANCH   9  10
HETATM   10  C   UNL     2     -19.991  -5.566  -6.534  1.00  0.00     0.000 C 
BRANCH  10  11
HETATM   11  C   UNL     2     -20.915  -5.480  -5.317  1.00  0.00     0.000 C 
BRANCH  11  12
HETATM   12  C   UNL     2     -21.932  -6.622  -5.209  1.00  0.00     0.000 C 
BRANCH  12  13
HETATM   13  C   UNL     2     -21.329  -7.999  -5.100  1.00  0.00     0.000 C 
BRANCH  13  14
HETATM   14  C   UNL     2     -20.212  -8.142  -4.072  1.00  0.00     0.000 C 
BRANCH  14  15
HETATM   15  C   UNL     2     -19.997  -9.580  -3.567  1.00  0.00     0.000 C 
BRANCH  15  16
HETATM   16  C   UNL     2     -21.316 -10.306  -3.293  1.00  0.00     0.000 C 
BRANCH  16  17
HETATM   17  C   UNL     2     -21.600 -10.593  -1.808  1.00  0.00     0.000 C 
BRANCH  17  18
HETATM   18  C   UNL     2     -22.616  -9.648  -1.169  1.00  0.00     0.000 C 
BRANCH  18  19
HETATM   19  C   UNL     2     -22.151  -9.131   0.189  1.00  0.00    -0.000 C 
BRANCH  19  20
HETATM   20  C   UNL     2     -22.097  -7.612   0.248  1.00  0.00    -0.005 C 
HETATM   21  C   UNL     2     -22.228  -7.006  -1.140  1.00  0.00     0.005 C 
ENDBRANCH  19  20
ENDBRANCH  18  19
ENDBRANCH  17  18
ENDBRANCH  16  17
ENDBRANCH  15  16
ENDBRANCH  14  15
ENDBRANCH  13  14
ENDBRANCH  12  13
ENDBRANCH  11  12
ENDBRANCH  10  11
ENDBRANCH   9  10
ENDBRANCH   8   9
ENDBRANCH   7   8
ENDBRANCH   6   7
ENDBRANCH   5   6
ENDBRANCH   1   5
TORSDOF 32
BEGIN_RES ARG D 557
REMARK  4 active torsions:
REMARK  status: ('A' for Active; 'I' for Inactive)
REMARK    1  A    between atoms: CA   and  CB  
REMARK    2  A    between atoms: CB   and  CG  
REMARK    3  A    between atoms: CG   and  CD  
REMARK    4  A    between atoms: CD   and  NE  
REMARK       I    between atoms: NE   and  CZ  
REMARK       I    between atoms: CZ   and  NH1 
REMARK       I    between atoms: CZ   and  NH2 
ROOT
ATOM      1  CA  ARG D 557     -26.217   2.705 -17.014  1.00 35.49     0.159 C 
ENDROOT
BRANCH   1   2
ATOM      2  CB  ARG D 557     -26.789   1.319 -17.183  1.00 35.49     0.034 C 
BRANCH   2   3
ATOM      3  CG  ARG D 557     -28.252   1.202 -17.170  1.00 35.49     0.027 C 
BRANCH   3   4
ATOM      4  CD  ARG D 557     -28.709  -0.112 -16.664  1.00 35.49     0.116 C 
BRANCH   4   5
ATOM      5  NE  ARG D 557     -27.659  -0.827 -15.987  1.00 35.49    -0.212 N 
ATOM      6  CZ  ARG D 557     -27.432  -2.119 -16.070  1.00 35.49     0.666 C 
ATOM      7  NH1 ARG D 557     -28.181  -2.925 -16.799  1.00 35.49    -0.235 N 
ATOM      8  NH2 ARG D 557     -26.421  -2.595 -15.404  1.00 35.49    -0.235 N 
ATOM      9  HH  ARG D 557     -28.850  -2.633 -17.248  1.00 35.49     0.174 HD
ATOM     10  HH  ARG D 557     -27.984  -3.759 -16.818  1.00 35.49     0.174 HD
ATOM     11  HH  ARG D 557     -25.950  -2.050 -14.947  1.00 35.49     0.174 HD
ATOM     12  HH  ARG D 557     -26.240  -3.423 -15.436  1.00 35.49     0.174 HD
ATOM     13  HE  ARG D 557     -27.172  -0.397 -15.438  1.00 35.49     0.178 HD
ENDBRANCH   4   5
ENDBRANCH   3   4
ENDBRANCH   2   3
ENDBRANCH   1   2
END_RES ARG D 557
BEGIN_RES GLU D 570
REMARK  3 active torsions:
REMARK  status: ('A' for Active; 'I' for Inactive)
REMARK    5  A    between atoms: CA   and  CB  
REMARK    6  A    between atoms: CB   and  CG  
REMARK    7  A    between atoms: CG   and  CD  
ROOT
ATOM     14  CA  GLU D 570     -18.033  -6.348 -13.375  1.00 32.92     0.160 C 
ENDROOT
BRANCH  14  15
ATOM     15  CB  GLU D 570     -19.500  -6.345 -13.794  1.00 32.92     0.043 C 
BRANCH  15  16
ATOM     16  CG  GLU D 570     -19.798  -6.481 -15.243  1.00 32.92     0.100 C 
BRANCH  16  17
ATOM     17  CD  GLU D 570     -20.975  -7.387 -15.520  1.00 32.92     0.185 C 
ATOM     18  OE1 GLU D 570     -22.129  -6.933 -15.402  1.00 32.92    -0.647 OA
ATOM     19  OE2 GLU D 570     -20.740  -8.568 -15.843  1.00 32.92    -0.647 OA
ENDBRANCH  16  17
ENDBRANCH  15  16
ENDBRANCH  14  15
END_RES GLU D 570
ENDMDL
