MODEL 1
REMARK VINA RESULT:      -4.5      0.000      0.000
REMARK  7 active torsions:
REMARK  status: ('A' for Active; 'I' for Inactive)
REMARK    1  A    between atoms: C_2  and  O_3 
REMARK    2  A    between atoms: O_3  and  C_4 
REMARK    3  A    between atoms: C_4  and  C_5 
REMARK    4  A    between atoms: C_5  and  O_6 
REMARK    5  A    between atoms: O_6  and  C_7 
REMARK    6  A    between atoms: C_7  and  C_8 
REMARK    7  A    between atoms: C_8  and  O_9 
ROOT
HETATM    1  C   UNL     1     -27.297  -6.768 -15.791  1.00  0.00     0.193 C 
ENDROOT
BRANCH   1   2
HETATM    2  C   UNL     1     -27.052  -5.820 -16.961  1.00  0.00     0.193 C 
BRANCH   2   3
HETATM    3  O   UNL     1     -27.497  -4.505 -16.615  1.00  0.00    -0.389 OA
BRANCH   3   4
HETATM    4  C   UNL     1     -28.851  -4.285 -17.007  1.00  0.00     0.163 C 
HETATM    5  C   UNL     1     -29.047  -4.865 -18.393  1.00  0.00     0.033 C 
ENDBRANCH   3   4
ENDBRANCH   2   3
ENDBRANCH   1   2
BRANCH   1   6
HETATM    6  O   UNL     1     -26.082  -7.454 -15.451  1.00  0.00    -0.387 OA
BRANCH   6   7
HETATM    7  C   UNL     1     -24.952  -6.578 -15.526  1.00  0.00     0.193 C 
BRANCH   7   8
HETATM    8  C   UNL     1     -23.903  -7.209 -16.435  1.00  0.00     0.190 C 
BRANCH   8   9
HETATM    9  O   UNL     1     -23.917  -8.627 -16.286  1.00  0.00    -0.399 OA
HETATM   10  H   UNL     1     -24.788  -8.907 -16.631  1.00  0.00     0.209 HD
ENDBRANCH   8   9
ENDBRANCH   7   8
ENDBRANCH   6   7
ENDBRANCH   1   6
TORSDOF 7
BEGIN_RES ARG D 557
REMARK  4 active torsions:
REMARK  status: ('A' for Active; 'I' for Inactive)
REMARK    1  A    between atoms: CA   and  CB  
REMARK    2  A    between atoms: CB   and  CG  
REMARK    3  A    between atoms: CG   and  CD  
REMARK    4  A    between atoms: CD   and  NE  
REMARK       I    between atoms: NE   and  CZ  
REMARK       I    between atoms: CZ   and  NH1 
REMARK       I    between atoms: CZ   and  NH2 
ROOT
ATOM      1  CA  ARG D 557     -26.217   2.705 -17.014  1.00 35.49     0.159 C 
ENDROOT
BRANCH   1   2
ATOM      2  CB  ARG D 557     -26.789   1.319 -17.183  1.00 35.49     0.034 C 
BRANCH   2   3
ATOM      3  CG  ARG D 557     -25.866   0.195 -16.987  1.00 35.49     0.027 C 
BRANCH   3   4
ATOM      4  CD  ARG D 557     -26.321  -0.731 -15.925  1.00 35.49     0.116 C 
BRANCH   4   5
ATOM      5  NE  ARG D 557     -25.302  -0.963 -14.935  1.00 35.49    -0.212 N 
ATOM      6  CZ  ARG D 557     -25.059  -2.108 -14.337  1.00 35.49     0.666 C 
ATOM      7  NH1 ARG D 557     -25.760  -3.200 -14.583  1.00 35.49    -0.235 N 
ATOM      8  NH2 ARG D 557     -24.081  -2.142 -13.480  1.00 35.49    -0.235 N 
ATOM      9  HH  ARG D 557     -26.407  -3.201 -15.145  1.00 35.49     0.174 HD
ATOM     10  HH  ARG D 557     -25.554  -3.918 -14.165  1.00 35.49     0.174 HD
ATOM     11  HH  ARG D 557     -23.640  -1.424 -13.347  1.00 35.49     0.174 HD
ATOM     12  HH  ARG D 557     -23.891  -2.863 -13.077  1.00 35.49     0.174 HD
ATOM     13  HE  ARG D 557     -24.850  -0.296 -14.663  1.00 35.49     0.178 HD
ENDBRANCH   4   5
ENDBRANCH   3   4
ENDBRANCH   2   3
ENDBRANCH   1   2
END_RES ARG D 557
BEGIN_RES GLU D 570
REMARK  3 active torsions:
REMARK  status: ('A' for Active; 'I' for Inactive)
REMARK    5  A    between atoms: CA   and  CB  
REMARK    6  A    between atoms: CB   and  CG  
REMARK    7  A    between atoms: CG   and  CD  
ROOT
ATOM     14  CA  GLU D 570     -18.033  -6.348 -13.375  1.00 32.92     0.160 C 
ENDROOT
BRANCH  14  15
ATOM     15  CB  GLU D 570     -19.500  -6.345 -13.794  1.00 32.92     0.043 C 
BRANCH  15  16
ATOM     16  CG  GLU D 570     -20.450  -5.571 -12.954  1.00 32.92     0.100 C 
BRANCH  16  17
ATOM     17  CD  GLU D 570     -21.666  -5.102 -13.719  1.00 32.92     0.185 C 
ATOM     18  OE1 GLU D 570     -22.717  -4.860 -13.095  1.00 32.92    -0.647 OA
ATOM     19  OE2 GLU D 570     -21.571  -4.993 -14.957  1.00 32.92    -0.647 OA
ENDBRANCH  16  17
ENDBRANCH  15  16
ENDBRANCH  14  15
END_RES GLU D 570
ENDMDL
MODEL 2
REMARK VINA RESULT:      -4.4      2.532      4.610
REMARK  7 active torsions:
REMARK  status: ('A' for Active; 'I' for Inactive)
REMARK    1  A    between atoms: C_2  and  O_3 
REMARK    2  A    between atoms: O_3  and  C_4 
REMARK    3  A    between atoms: C_4  and  C_5 
REMARK    4  A    between atoms: C_5  and  O_6 
REMARK    5  A    between atoms: O_6  and  C_7 
REMARK    6  A    between atoms: C_7  and  C_8 
REMARK    7  A    between atoms: C_8  and  O_9 
ROOT
HETATM    1  C   UNL     1     -22.636  -4.757 -12.713  1.00  0.00     0.193 C 
ENDROOT
BRANCH   1   2
HETATM    2  C   UNL     1     -22.534  -4.196 -14.128  1.00  0.00     0.193 C 
BRANCH   2   3
HETATM    3  O   UNL     1     -23.566  -4.759 -14.944  1.00  0.00    -0.389 OA
BRANCH   3   4
HETATM    4  C   UNL     1     -23.920  -6.072 -14.514  1.00  0.00     0.163 C 
HETATM    5  C   UNL     1     -24.372  -6.865 -15.724  1.00  0.00     0.033 C 
ENDBRANCH   3   4
ENDBRANCH   2   3
ENDBRANCH   1   2
BRANCH   1   6
HETATM    6  O   UNL     1     -23.255  -3.794 -11.846  1.00  0.00    -0.387 OA
BRANCH   6   7
HETATM    7  C   UNL     1     -23.926  -4.432 -10.753  1.00  0.00     0.193 C 
BRANCH   7   8
HETATM    8  C   UNL     1     -24.413  -3.361  -9.784  1.00  0.00     0.190 C 
BRANCH   8   9
HETATM    9  O   UNL     1     -25.838  -3.316  -9.781  1.00  0.00    -0.399 OA
HETATM   10  H   UNL     1     -26.070  -2.667 -10.474  1.00  0.00     0.209 HD
ENDBRANCH   8   9
ENDBRANCH   7   8
ENDBRANCH   6   7
ENDBRANCH   1   6
TORSDOF 7
BEGIN_RES ARG D 557
REMARK  4 active torsions:
REMARK  status: ('A' for Active; 'I' for Inactive)
REMARK    1  A    between atoms: CA   and  CB  
REMARK    2  A    between atoms: CB   and  CG  
REMARK    3  A    between atoms: CG   and  CD  
REMARK    4  A    between atoms: CD   and  NE  
REMARK       I    between atoms: NE   and  CZ  
REMARK       I    between atoms: CZ   and  NH1 
REMARK       I    between atoms: CZ   and  NH2 
ROOT
ATOM      1  CA  ARG D 557     -26.217   2.705 -17.014  1.00 35.49     0.159 C 
ENDROOT
BRANCH   1   2
ATOM      2  CB  ARG D 557     -26.789   1.319 -17.183  1.00 35.49     0.034 C 
BRANCH   2   3
ATOM      3  CG  ARG D 557     -25.965   0.202 -16.707  1.00 35.49     0.027 C 
BRANCH   3   4
ATOM      4  CD  ARG D 557     -26.781  -0.938 -16.228  1.00 35.49     0.116 C 
BRANCH   4   5
ATOM      5  NE  ARG D 557     -26.296  -1.465 -14.980  1.00 35.49    -0.212 N 
ATOM      6  CZ  ARG D 557     -26.220  -2.738 -14.662  1.00 35.49     0.666 C 
ATOM      7  NH1 ARG D 557     -26.608  -3.698 -15.481  1.00 35.49    -0.235 N 
ATOM      8  NH2 ARG D 557     -25.733  -3.037 -13.492  1.00 35.49    -0.235 N 
ATOM      9  HH  ARG D 557     -26.929  -3.525 -16.257  1.00 35.49     0.174 HD
ATOM     10  HH  ARG D 557     -26.532  -4.511 -15.221  1.00 35.49     0.174 HD
ATOM     11  HH  ARG D 557     -25.484  -2.397 -12.987  1.00 35.49     0.174 HD
ATOM     12  HH  ARG D 557     -25.665  -3.848 -13.254  1.00 35.49     0.174 HD
ATOM     13  HE  ARG D 557     -26.093  -0.914 -14.365  1.00 35.49     0.178 HD
ENDBRANCH   4   5
ENDBRANCH   3   4
ENDBRANCH   2   3
ENDBRANCH   1   2
END_RES ARG D 557
BEGIN_RES GLU D 570
REMARK  3 active torsions:
REMARK  status: ('A' for Active; 'I' for Inactive)
REMARK    5  A    between atoms: CA   and  CB  
REMARK    6  A    between atoms: CB   and  CG  
REMARK    7  A    between atoms: CG   and  CD  
ROOT
ATOM     14  CA  GLU D 570     -18.033  -6.348 -13.375  1.00 32.92     0.160 C 
ENDROOT
BRANCH  14  15
ATOM     15  CB  GLU D 570     -19.500  -6.345 -13.794  1.00 32.92     0.043 C 
BRANCH  15  16
ATOM     16  CG  GLU D 570     -20.082  -7.630 -14.260  1.00 32.92     0.100 C 
BRANCH  16  17
ATOM     17  CD  GLU D 570     -20.697  -7.534 -15.636  1.00 32.92     0.185 C 
ATOM     18  OE1 GLU D 570     -20.680  -6.440 -16.232  1.00 32.92    -0.647 OA
ATOM     19  OE2 GLU D 570     -21.216  -8.561 -16.117  1.00 32.92    -0.647 OA
ENDBRANCH  16  17
ENDBRANCH  15  16
ENDBRANCH  14  15
END_RES GLU D 570
ENDMDL
MODEL 3
REMARK VINA RESULT:      -4.4      2.558      2.891
REMARK  7 active torsions:
REMARK  status: ('A' for Active; 'I' for Inactive)
REMARK    1  A    between atoms: C_2  and  O_3 
REMARK    2  A    between atoms: O_3  and  C_4 
REMARK    3  A    between atoms: C_4  and  C_5 
REMARK    4  A    between atoms: C_5  and  O_6 
REMARK    5  A    between atoms: O_6  and  C_7 
REMARK    6  A    between atoms: C_7  and  C_8 
REMARK    7  A    between atoms: C_8  and  O_9 
ROOT
HETATM    1  C   UNL     1     -27.997  -7.103 -15.465  1.00  0.00     0.193 C 
ENDROOT
BRANCH   1   2
HETATM    2  C   UNL     1     -28.344  -6.719 -16.901  1.00  0.00     0.193 C 
BRANCH   2   3
HETATM    3  O   UNL     1     -29.488  -5.859 -16.904  1.00  0.00    -0.389 OA
BRANCH   3   4
HETATM    4  C   UNL     1     -30.676  -6.563 -17.261  1.00  0.00     0.163 C 
HETATM    5  C   UNL     1     -30.333  -7.561 -18.349  1.00  0.00     0.033 C 
ENDBRANCH   3   4
ENDBRANCH   2   3
ENDBRANCH   1   2
BRANCH   1   6
HETATM    6  O   UNL     1     -26.616  -7.488 -15.380  1.00  0.00    -0.387 OA
BRANCH   6   7
HETATM    7  C   UNL     1     -25.790  -6.646 -16.191  1.00  0.00     0.193 C 
BRANCH   7   8
HETATM    8  C   UNL     1     -24.337  -7.076 -16.021  1.00  0.00     0.190 C 
BRANCH   8   9
HETATM    9  O   UNL     1     -24.182  -8.438 -16.414  1.00  0.00    -0.399 OA
HETATM   10  H   UNL     1     -23.329  -8.466 -16.890  1.00  0.00     0.209 HD
ENDBRANCH   8   9
ENDBRANCH   7   8
ENDBRANCH   6   7
ENDBRANCH   1   6
TORSDOF 7
BEGIN_RES ARG D 557
REMARK  4 active torsions:
REMARK  status: ('A' for Active; 'I' for Inactive)
REMARK    1  A    between atoms: CA   and  CB  
REMARK    2  A    between atoms: CB   and  CG  
REMARK    3  A    between atoms: CG   and  CD  
REMARK    4  A    between atoms: CD   and  NE  
REMARK       I    between atoms: NE   and  CZ  
REMARK       I    between atoms: CZ   and  NH1 
REMARK       I    between atoms: CZ   and  NH2 
ROOT
ATOM      1  CA  ARG D 557     -26.217   2.705 -17.014  1.00 35.49     0.159 C 
ENDROOT
BRANCH   1   2
ATOM      2  CB  ARG D 557     -26.789   1.319 -17.183  1.00 35.49     0.034 C 
BRANCH   2   3
ATOM      3  CG  ARG D 557     -28.197   1.135 -16.811  1.00 35.49     0.027 C 
BRANCH   3   4
ATOM      4  CD  ARG D 557     -28.727  -0.180 -17.237  1.00 35.49     0.116 C 
BRANCH   4   5
ATOM      5  NE  ARG D 557     -28.008  -1.274 -16.638  1.00 35.49    -0.212 N 
ATOM      6  CZ  ARG D 557     -28.271  -2.550 -16.808  1.00 35.49     0.666 C 
ATOM      7  NH1 ARG D 557     -29.267  -2.975 -17.563  1.00 35.49    -0.235 N 
ATOM      8  NH2 ARG D 557     -27.501  -3.407 -16.202  1.00 35.49    -0.235 N 
ATOM      9  HH  ARG D 557     -29.785  -2.428 -17.972  1.00 35.49     0.174 HD
ATOM     10  HH  ARG D 557     -29.389  -3.819 -17.638  1.00 35.49     0.174 HD
ATOM     11  HH  ARG D 557     -26.861  -3.104 -15.727  1.00 35.49     0.174 HD
ATOM     12  HH  ARG D 557     -27.637  -4.240 -16.291  1.00 35.49     0.174 HD
ATOM     13  HE  ARG D 557     -27.395  -1.090 -16.078  1.00 35.49     0.178 HD
ENDBRANCH   4   5
ENDBRANCH   3   4
ENDBRANCH   2   3
ENDBRANCH   1   2
END_RES ARG D 557
BEGIN_RES GLU D 570
REMARK  3 active torsions:
REMARK  status: ('A' for Active; 'I' for Inactive)
REMARK    5  A    between atoms: CA   and  CB  
REMARK    6  A    between atoms: CB   and  CG  
REMARK    7  A    between atoms: CG   and  CD  
ROOT
ATOM     14  CA  GLU D 570     -18.033  -6.348 -13.375  1.00 32.92     0.160 C 
ENDROOT
BRANCH  14  15
ATOM     15  CB  GLU D 570     -19.500  -6.345 -13.794  1.00 32.92     0.043 C 
BRANCH  15  16
ATOM     16  CG  GLU D 570     -20.094  -7.640 -14.215  1.00 32.92     0.100 C 
BRANCH  16  17
ATOM     17  CD  GLU D 570     -20.679  -7.595 -15.608  1.00 32.92     0.185 C 
ATOM     18  OE1 GLU D 570     -21.144  -8.640 -16.103  1.00 32.92    -0.647 OA
ATOM     19  OE2 GLU D 570     -20.656  -6.507 -16.216  1.00 32.92    -0.647 OA
ENDBRANCH  16  17
ENDBRANCH  15  16
ENDBRANCH  14  15
END_RES GLU D 570
ENDMDL
MODEL 4
REMARK VINA RESULT:      -4.3      3.322      5.843
REMARK  7 active torsions:
REMARK  status: ('A' for Active; 'I' for Inactive)
REMARK    1  A    between atoms: C_2  and  O_3 
REMARK    2  A    between atoms: O_3  and  C_4 
REMARK    3  A    between atoms: C_4  and  C_5 
REMARK    4  A    between atoms: C_5  and  O_6 
REMARK    5  A    between atoms: O_6  and  C_7 
REMARK    6  A    between atoms: C_7  and  C_8 
REMARK    7  A    between atoms: C_8  and  O_9 
ROOT
HETATM    1  C   UNL     1     -23.880  -2.971 -12.036  1.00  0.00     0.193 C 
ENDROOT
BRANCH   1   2
HETATM    2  C   UNL     1     -24.103  -3.355 -10.576  1.00  0.00     0.193 C 
BRANCH   2   3
HETATM    3  O   UNL     1     -22.860  -3.750  -9.988  1.00  0.00    -0.389 OA
BRANCH   3   4
HETATM    4  C   UNL     1     -22.014  -4.404 -10.931  1.00  0.00     0.163 C 
HETATM    5  C   UNL     1     -20.577  -4.028 -10.627  1.00  0.00     0.033 C 
ENDBRANCH   3   4
ENDBRANCH   2   3
ENDBRANCH   1   2
BRANCH   1   6
HETATM    6  O   UNL     1     -25.121  -3.032 -12.755  1.00  0.00    -0.387 OA
BRANCH   6   7
HETATM    7  C   UNL     1     -24.903  -3.056 -14.170  1.00  0.00     0.193 C 
BRANCH   7   8
HETATM    8  C   UNL     1     -24.143  -1.797 -14.570  1.00  0.00     0.190 C 
BRANCH   8   9
HETATM    9  O   UNL     1     -25.041  -0.692 -14.658  1.00  0.00    -0.399 OA
HETATM   10  H   UNL     1     -25.127  -0.515 -15.615  1.00  0.00     0.209 HD
ENDBRANCH   8   9
ENDBRANCH   7   8
ENDBRANCH   6   7
ENDBRANCH   1   6
TORSDOF 7
BEGIN_RES ARG D 557
REMARK  4 active torsions:
REMARK  status: ('A' for Active; 'I' for Inactive)
REMARK    1  A    between atoms: CA   and  CB  
REMARK    2  A    between atoms: CB   and  CG  
REMARK    3  A    between atoms: CG   and  CD  
REMARK    4  A    between atoms: CD   and  NE  
REMARK       I    between atoms: NE   and  CZ  
REMARK       I    between atoms: CZ   and  NH1 
REMARK       I    between atoms: CZ   and  NH2 
ROOT
ATOM      1  CA  ARG D 557     -26.217   2.705 -17.014  1.00 35.49     0.159 C 
ENDROOT
BRANCH   1   2
ATOM      2  CB  ARG D 557     -26.789   1.319 -17.183  1.00 35.49     0.034 C 
BRANCH   2   3
ATOM      3  CG  ARG D 557     -28.221   1.228 -17.492  1.00 35.49     0.027 C 
BRANCH   3   4
ATOM      4  CD  ARG D 557     -28.947   0.345 -16.550  1.00 35.49     0.116 C 
BRANCH   4   5
ATOM      5  NE  ARG D 557     -29.279  -0.923 -17.143  1.00 35.49    -0.212 N 
ATOM      6  CZ  ARG D 557     -28.600  -2.039 -17.001  1.00 35.49     0.666 C 
ATOM      7  NH1 ARG D 557     -27.494  -2.110 -16.284  1.00 35.49    -0.235 N 
ATOM      8  NH2 ARG D 557     -29.060  -3.102 -17.595  1.00 35.49    -0.235 N 
ATOM      9  HH  ARG D 557     -27.174  -1.423 -15.883  1.00 35.49     0.174 HD
ATOM     10  HH  ARG D 557     -27.094  -2.865 -16.225  1.00 35.49     0.174 HD
ATOM     11  HH  ARG D 557     -29.781  -3.028 -18.045  1.00 35.49     0.174 HD
ATOM     12  HH  ARG D 557     -28.651  -3.841 -17.523  1.00 35.49     0.174 HD
ATOM     13  HE  ARG D 557     -29.938  -0.952 -17.681  1.00 35.49     0.178 HD
ENDBRANCH   4   5
ENDBRANCH   3   4
ENDBRANCH   2   3
ENDBRANCH   1   2
END_RES ARG D 557
BEGIN_RES GLU D 570
REMARK  3 active torsions:
REMARK  status: ('A' for Active; 'I' for Inactive)
REMARK    5  A    between atoms: CA   and  CB  
REMARK    6  A    between atoms: CB   and  CG  
REMARK    7  A    between atoms: CG   and  CD  
ROOT
ATOM     14  CA  GLU D 570     -18.033  -6.348 -13.375  1.00 32.92     0.160 C 
ENDROOT
BRANCH  14  15
ATOM     15  CB  GLU D 570     -19.500  -6.345 -13.794  1.00 32.92     0.043 C 
BRANCH  15  16
ATOM     16  CG  GLU D 570     -19.802  -6.097 -15.227  1.00 32.92     0.100 C 
BRANCH  16  17
ATOM     17  CD  GLU D 570     -21.106  -5.363 -15.436  1.00 32.92     0.185 C 
ATOM     18  OE1 GLU D 570     -21.499  -5.147 -16.599  1.00 32.92    -0.647 OA
ATOM     19  OE2 GLU D 570     -21.733  -4.986 -14.427  1.00 32.92    -0.647 OA
ENDBRANCH  16  17
ENDBRANCH  15  16
ENDBRANCH  14  15
END_RES GLU D 570
ENDMDL
MODEL 5
REMARK VINA RESULT:      -4.3      3.705      7.160
REMARK  7 active torsions:
REMARK  status: ('A' for Active; 'I' for Inactive)
REMARK    1  A    between atoms: C_2  and  O_3 
REMARK    2  A    between atoms: O_3  and  C_4 
REMARK    3  A    between atoms: C_4  and  C_5 
REMARK    4  A    between atoms: C_5  and  O_6 
REMARK    5  A    between atoms: O_6  and  C_7 
REMARK    6  A    between atoms: C_7  and  C_8 
REMARK    7  A    between atoms: C_8  and  O_9 
ROOT
HETATM    1  C   UNL     1     -22.272  -3.793  -8.892  1.00  0.00     0.193 C 
ENDROOT
BRANCH   1   2
HETATM    2  C   UNL     1     -20.975  -4.196  -8.195  1.00  0.00     0.193 C 
BRANCH   2   3
HETATM    3  O   UNL     1     -21.021  -5.587  -7.863  1.00  0.00    -0.389 OA
BRANCH   3   4
HETATM    4  C   UNL     1     -21.044  -5.792  -6.452  1.00  0.00     0.163 C 
HETATM    5  C   UNL     1     -20.076  -4.817  -5.811  1.00  0.00     0.033 C 
ENDBRANCH   3   4
ENDBRANCH   2   3
ENDBRANCH   1   2
BRANCH   1   6
HETATM    6  O   UNL     1     -22.665  -4.811  -9.825  1.00  0.00    -0.387 OA
BRANCH   6   7
HETATM    7  C   UNL     1     -24.042  -4.677 -10.192  1.00  0.00     0.193 C 
BRANCH   7   8
HETATM    8  C   UNL     1     -24.549  -3.324  -9.707  1.00  0.00     0.190 C 
BRANCH   8   9
HETATM    9  O   UNL     1     -25.974  -3.291  -9.751  1.00  0.00    -0.399 OA
HETATM   10  H   UNL     1     -26.260  -3.653  -8.890  1.00  0.00     0.209 HD
ENDBRANCH   8   9
ENDBRANCH   7   8
ENDBRANCH   6   7
ENDBRANCH   1   6
TORSDOF 7
BEGIN_RES ARG D 557
REMARK  4 active torsions:
REMARK  status: ('A' for Active; 'I' for Inactive)
REMARK    1  A    between atoms: CA   and  CB  
REMARK    2  A    between atoms: CB   and  CG  
REMARK    3  A    between atoms: CG   and  CD  
REMARK    4  A    between atoms: CD   and  NE  
REMARK       I    between atoms: NE   and  CZ  
REMARK       I    between atoms: CZ   and  NH1 
REMARK       I    between atoms: CZ   and  NH2 
ROOT
ATOM      1  CA  ARG D 557     -26.217   2.705 -17.014  1.00 35.49     0.159 C 
ENDROOT
BRANCH   1   2
ATOM      2  CB  ARG D 557     -26.789   1.319 -17.183  1.00 35.49     0.034 C 
BRANCH   2   3
ATOM      3  CG  ARG D 557     -25.834   0.204 -17.171  1.00 35.49     0.027 C 
BRANCH   3   4
ATOM      4  CD  ARG D 557     -24.751   0.399 -16.180  1.00 35.49     0.116 C 
BRANCH   4   5
ATOM      5  NE  ARG D 557     -24.910  -0.451 -15.029  1.00 35.49    -0.212 N 
ATOM      6  CZ  ARG D 557     -24.093  -1.415 -14.668  1.00 35.49     0.666 C 
ATOM      7  NH1 ARG D 557     -23.011  -1.723 -15.358  1.00 35.49    -0.235 N 
ATOM      8  NH2 ARG D 557     -24.383  -2.071 -13.582  1.00 35.49    -0.235 N 
ATOM      9  HH  ARG D 557     -22.800  -1.303 -16.074  1.00 35.49     0.174 HD
ATOM     10  HH  ARG D 557     -22.514  -2.360 -15.073  1.00 35.49     0.174 HD
ATOM     11  HH  ARG D 557     -25.084  -1.846 -13.153  1.00 35.49     0.174 HD
ATOM     12  HH  ARG D 557     -23.877  -2.698 -13.315  1.00 35.49     0.174 HD
ATOM     13  HE  ARG D 557     -25.620  -0.370 -14.568  1.00 35.49     0.178 HD
ENDBRANCH   4   5
ENDBRANCH   3   4
ENDBRANCH   2   3
ENDBRANCH   1   2
END_RES ARG D 557
BEGIN_RES GLU D 570
REMARK  3 active torsions:
REMARK  status: ('A' for Active; 'I' for Inactive)
REMARK    5  A    between atoms: CA   and  CB  
REMARK    6  A    between atoms: CB   and  CG  
REMARK    7  A    between atoms: CG   and  CD  
ROOT
ATOM     14  CA  GLU D 570     -18.033  -6.348 -13.375  1.00 32.92     0.160 C 
ENDROOT
BRANCH  14  15
ATOM     15  CB  GLU D 570     -19.500  -6.345 -13.794  1.00 32.92     0.043 C 
BRANCH  15  16
ATOM     16  CG  GLU D 570     -20.447  -5.555 -12.965  1.00 32.92     0.100 C 
BRANCH  16  17
ATOM     17  CD  GLU D 570     -21.740  -5.245 -13.682  1.00 32.92     0.185 C 
ATOM     18  OE1 GLU D 570     -22.199  -6.076 -14.489  1.00 32.92    -0.647 OA
ATOM     19  OE2 GLU D 570     -22.292  -4.151 -13.447  1.00 32.92    -0.647 OA
ENDBRANCH  16  17
ENDBRANCH  15  16
ENDBRANCH  14  15
END_RES GLU D 570
ENDMDL
MODEL 6
REMARK VINA RESULT:      -4.3      2.969      5.319
REMARK  7 active torsions:
REMARK  status: ('A' for Active; 'I' for Inactive)
REMARK    1  A    between atoms: C_2  and  O_3 
REMARK    2  A    between atoms: O_3  and  C_4 
REMARK    3  A    between atoms: C_4  and  C_5 
REMARK    4  A    between atoms: C_5  and  O_6 
REMARK    5  A    between atoms: O_6  and  C_7 
REMARK    6  A    between atoms: C_7  and  C_8 
REMARK    7  A    between atoms: C_8  and  O_9 
ROOT
HETATM    1  C   UNL     1     -22.700  -4.401 -14.384  1.00  0.00     0.193 C 
ENDROOT
BRANCH   1   2
HETATM    2  C   UNL     1     -23.308  -5.190 -13.227  1.00  0.00     0.193 C 
BRANCH   2   3
HETATM    3  O   UNL     1     -22.676  -4.808 -12.002  1.00  0.00    -0.389 OA
BRANCH   3   4
HETATM    4  C   UNL     1     -23.627  -4.382 -11.028  1.00  0.00     0.163 C 
HETATM    5  C   UNL     1     -23.014  -4.557  -9.653  1.00  0.00     0.033 C 
ENDBRANCH   3   4
ENDBRANCH   2   3
ENDBRANCH   1   2
BRANCH   1   6
HETATM    6  O   UNL     1     -23.640  -3.426 -14.861  1.00  0.00    -0.387 OA
BRANCH   6   7
HETATM    7  C   UNL     1     -23.542  -2.204 -14.120  1.00  0.00     0.193 C 
BRANCH   7   8
HETATM    8  C   UNL     1     -23.778  -1.035 -15.071  1.00  0.00     0.190 C 
BRANCH   8   9
HETATM    9  O   UNL     1     -25.016  -0.398 -14.764  1.00  0.00    -0.399 OA
HETATM   10  H   UNL     1     -25.337  -0.050 -15.618  1.00  0.00     0.209 HD
ENDBRANCH   8   9
ENDBRANCH   7   8
ENDBRANCH   6   7
ENDBRANCH   1   6
TORSDOF 7
BEGIN_RES ARG D 557
REMARK  4 active torsions:
REMARK  status: ('A' for Active; 'I' for Inactive)
REMARK    1  A    between atoms: CA   and  CB  
REMARK    2  A    between atoms: CB   and  CG  
REMARK    3  A    between atoms: CG   and  CD  
REMARK    4  A    between atoms: CD   and  NE  
REMARK       I    between atoms: NE   and  CZ  
REMARK       I    between atoms: CZ   and  NH1 
REMARK       I    between atoms: CZ   and  NH2 
ROOT
ATOM      1  CA  ARG D 557     -26.217   2.705 -17.014  1.00 35.49     0.159 C 
ENDROOT
BRANCH   1   2
ATOM      2  CB  ARG D 557     -26.789   1.319 -17.183  1.00 35.49     0.034 C 
BRANCH   2   3
ATOM      3  CG  ARG D 557     -28.203   1.140 -16.831  1.00 35.49     0.027 C 
BRANCH   3   4
ATOM      4  CD  ARG D 557     -28.612  -0.283 -16.842  1.00 35.49     0.116 C 
BRANCH   4   5
ATOM      5  NE  ARG D 557     -27.669  -1.123 -16.152  1.00 35.49    -0.212 N 
ATOM      6  CZ  ARG D 557     -27.605  -2.434 -16.233  1.00 35.49     0.666 C 
ATOM      7  NH1 ARG D 557     -28.440  -3.140 -16.973  1.00 35.49    -0.235 N 
ATOM      8  NH2 ARG D 557     -26.670  -3.032 -15.554  1.00 35.49    -0.235 N 
ATOM      9  HH  ARG D 557     -29.061  -2.767 -17.430  1.00 35.49     0.174 HD
ATOM     10  HH  ARG D 557     -28.348  -3.992 -16.989  1.00 35.49     0.174 HD
ATOM     11  HH  ARG D 557     -26.140  -2.550 -15.091  1.00 35.49     0.174 HD
ATOM     12  HH  ARG D 557     -26.594  -3.876 -15.584  1.00 35.49     0.174 HD
ATOM     13  HE  ARG D 557     -27.139  -0.757 -15.597  1.00 35.49     0.178 HD
ENDBRANCH   4   5
ENDBRANCH   3   4
ENDBRANCH   2   3
ENDBRANCH   1   2
END_RES ARG D 557
BEGIN_RES GLU D 570
REMARK  3 active torsions:
REMARK  status: ('A' for Active; 'I' for Inactive)
REMARK    5  A    between atoms: CA   and  CB  
REMARK    6  A    between atoms: CB   and  CG  
REMARK    7  A    between atoms: CG   and  CD  
ROOT
ATOM     14  CA  GLU D 570     -18.033  -6.348 -13.375  1.00 32.92     0.160 C 
ENDROOT
BRANCH  14  15
ATOM     15  CB  GLU D 570     -19.500  -6.345 -13.794  1.00 32.92     0.043 C 
BRANCH  15  16
ATOM     16  CG  GLU D 570     -20.088  -7.635 -14.238  1.00 32.92     0.100 C 
BRANCH  16  17
ATOM     17  CD  GLU D 570     -20.671  -7.569 -15.630  1.00 32.92     0.185 C 
ATOM     18  OE1 GLU D 570     -20.615  -6.495 -16.260  1.00 32.92    -0.647 OA
ATOM     19  OE2 GLU D 570     -21.205  -8.598 -16.090  1.00 32.92    -0.647 OA
ENDBRANCH  16  17
ENDBRANCH  15  16
ENDBRANCH  14  15
END_RES GLU D 570
ENDMDL
MODEL 7
REMARK VINA RESULT:      -4.1      3.424      5.116
REMARK  7 active torsions:
REMARK  status: ('A' for Active; 'I' for Inactive)
REMARK    1  A    between atoms: C_2  and  O_3 
REMARK    2  A    between atoms: O_3  and  C_4 
REMARK    3  A    between atoms: C_4  and  C_5 
REMARK    4  A    between atoms: C_5  and  O_6 
REMARK    5  A    between atoms: O_6  and  C_7 
REMARK    6  A    between atoms: C_7  and  C_8 
REMARK    7  A    between atoms: C_8  and  O_9 
ROOT
HETATM    1  C   UNL     1     -24.121  -3.265 -10.939  1.00  0.00     0.193 C 
ENDROOT
BRANCH   1   2
HETATM    2  C   UNL     1     -24.484  -3.064 -12.408  1.00  0.00     0.193 C 
BRANCH   2   3
HETATM    3  O   UNL     1     -23.405  -2.412 -13.084  1.00  0.00    -0.389 OA
BRANCH   3   4
HETATM    4  C   UNL     1     -23.784  -1.977 -14.388  1.00  0.00     0.163 C 
HETATM    5  C   UNL     1     -25.278  -2.178 -14.543  1.00  0.00     0.033 C 
ENDBRANCH   3   4
ENDBRANCH   2   3
ENDBRANCH   1   2
BRANCH   1   6
HETATM    6  O   UNL     1     -23.229  -4.382 -10.802  1.00  0.00    -0.387 OA
BRANCH   6   7
HETATM    7  C   UNL     1     -22.050  -4.021 -10.073  1.00  0.00     0.193 C 
BRANCH   7   8
HETATM    8  C   UNL     1     -20.829  -4.338 -10.928  1.00  0.00     0.190 C 
BRANCH   8   9
HETATM    9  O   UNL     1     -20.770  -3.452 -12.044  1.00  0.00    -0.399 OA
HETATM   10  H   UNL     1     -20.080  -2.801 -11.811  1.00  0.00     0.209 HD
ENDBRANCH   8   9
ENDBRANCH   7   8
ENDBRANCH   6   7
ENDBRANCH   1   6
TORSDOF 7
BEGIN_RES ARG D 557
REMARK  4 active torsions:
REMARK  status: ('A' for Active; 'I' for Inactive)
REMARK    1  A    between atoms: CA   and  CB  
REMARK    2  A    between atoms: CB   and  CG  
REMARK    3  A    between atoms: CG   and  CD  
REMARK    4  A    between atoms: CD   and  NE  
REMARK       I    between atoms: NE   and  CZ  
REMARK       I    between atoms: CZ   and  NH1 
REMARK       I    between atoms: CZ   and  NH2 
ROOT
ATOM      1  CA  ARG D 557     -26.217   2.705 -17.014  1.00 35.49     0.159 C 
ENDROOT
BRANCH   1   2
ATOM      2  CB  ARG D 557     -26.789   1.319 -17.183  1.00 35.49     0.034 C 
BRANCH   2   3
ATOM      3  CG  ARG D 557     -28.151   1.101 -16.682  1.00 35.49     0.027 C 
BRANCH   3   4
ATOM      4  CD  ARG D 557     -28.793  -0.087 -17.290  1.00 35.49     0.116 C 
BRANCH   4   5
ATOM      5  NE  ARG D 557     -28.188  -1.316 -16.851  1.00 35.49    -0.212 N 
ATOM      6  CZ  ARG D 557     -28.675  -2.522 -17.036  1.00 35.49     0.666 C 
ATOM      7  NH1 ARG D 557     -29.821  -2.736 -17.656  1.00 35.49    -0.235 N 
ATOM      8  NH2 ARG D 557     -27.980  -3.526 -16.588  1.00 35.49    -0.235 N 
ATOM      9  HH  ARG D 557     -30.294  -2.090 -17.962  1.00 35.49     0.174 HD
ATOM     10  HH  ARG D 557     -30.088  -3.545 -17.751  1.00 35.49     0.174 HD
ATOM     11  HH  ARG D 557     -27.240  -3.359 -16.198  1.00 35.49     0.174 HD
ATOM     12  HH  ARG D 557     -28.260  -4.320 -16.692  1.00 35.49     0.174 HD
ATOM     13  HE  ARG D 557     -27.482  -1.267 -16.378  1.00 35.49     0.178 HD
ENDBRANCH   4   5
ENDBRANCH   3   4
ENDBRANCH   2   3
ENDBRANCH   1   2
END_RES ARG D 557
BEGIN_RES GLU D 570
REMARK  3 active torsions:
REMARK  status: ('A' for Active; 'I' for Inactive)
REMARK    5  A    between atoms: CA   and  CB  
REMARK    6  A    between atoms: CB   and  CG  
REMARK    7  A    between atoms: CG   and  CD  
ROOT
ATOM     14  CA  GLU D 570     -18.033  -6.348 -13.375  1.00 32.92     0.160 C 
ENDROOT
BRANCH  14  15
ATOM     15  CB  GLU D 570     -19.500  -6.345 -13.794  1.00 32.92     0.043 C 
BRANCH  15  16
ATOM     16  CG  GLU D 570     -19.808  -5.993 -15.204  1.00 32.92     0.100 C 
BRANCH  16  17
ATOM     17  CD  GLU D 570     -21.145  -5.306 -15.361  1.00 32.92     0.185 C 
ATOM     18  OE1 GLU D 570     -21.537  -4.998 -16.503  1.00 32.92    -0.647 OA
ATOM     19  OE2 GLU D 570     -21.800  -5.058 -14.329  1.00 32.92    -0.647 OA
ENDBRANCH  16  17
ENDBRANCH  15  16
ENDBRANCH  14  15
END_RES GLU D 570
ENDMDL
MODEL 8
REMARK VINA RESULT:      -4.1      2.549      3.860
REMARK  7 active torsions:
REMARK  status: ('A' for Active; 'I' for Inactive)
REMARK    1  A    between atoms: C_2  and  O_3 
REMARK    2  A    between atoms: O_3  and  C_4 
REMARK    3  A    between atoms: C_4  and  C_5 
REMARK    4  A    between atoms: C_5  and  O_6 
REMARK    5  A    between atoms: O_6  and  C_7 
REMARK    6  A    between atoms: C_7  and  C_8 
REMARK    7  A    between atoms: C_8  and  O_9 
ROOT
HETATM    1  C   UNL     1     -24.479  -5.343 -14.535  1.00  0.00     0.193 C 
ENDROOT
BRANCH   1   2
HETATM    2  C   UNL     1     -25.164  -6.245 -15.558  1.00  0.00     0.193 C 
BRANCH   2   3
HETATM    3  O   UNL     1     -26.154  -5.497 -16.270  1.00  0.00    -0.389 OA
BRANCH   3   4
HETATM    4  C   UNL     1     -27.218  -6.331 -16.727  1.00  0.00     0.163 C 
HETATM    5  C   UNL     1     -27.721  -7.150 -15.555  1.00  0.00     0.033 C 
ENDBRANCH   3   4
ENDBRANCH   2   3
ENDBRANCH   1   2
BRANCH   1   6
HETATM    6  O   UNL     1     -24.668  -3.964 -14.890  1.00  0.00    -0.387 OA
BRANCH   6   7
HETATM    7  C   UNL     1     -23.892  -3.099 -14.054  1.00  0.00     0.193 C 
BRANCH   7   8
HETATM    8  C   UNL     1     -23.898  -1.700 -14.658  1.00  0.00     0.190 C 
BRANCH   8   9
HETATM    9  O   UNL     1     -25.192  -1.115 -14.523  1.00  0.00    -0.399 OA
HETATM   10  H   UNL     1     -25.762  -1.625 -15.129  1.00  0.00     0.209 HD
ENDBRANCH   8   9
ENDBRANCH   7   8
ENDBRANCH   6   7
ENDBRANCH   1   6
TORSDOF 7
BEGIN_RES ARG D 557
REMARK  4 active torsions:
REMARK  status: ('A' for Active; 'I' for Inactive)
REMARK    1  A    between atoms: CA   and  CB  
REMARK    2  A    between atoms: CB   and  CG  
REMARK    3  A    between atoms: CG   and  CD  
REMARK    4  A    between atoms: CD   and  NE  
REMARK       I    between atoms: NE   and  CZ  
REMARK       I    between atoms: CZ   and  NH1 
REMARK       I    between atoms: CZ   and  NH2 
ROOT
ATOM      1  CA  ARG D 557     -26.217   2.705 -17.014  1.00 35.49     0.159 C 
ENDROOT
BRANCH   1   2
ATOM      2  CB  ARG D 557     -26.789   1.319 -17.183  1.00 35.49     0.034 C 
BRANCH   2   3
ATOM      3  CG  ARG D 557     -28.236   1.225 -17.411  1.00 35.49     0.027 C 
BRANCH   3   4
ATOM      4  CD  ARG D 557     -28.884   0.235 -16.520  1.00 35.49     0.116 C 
BRANCH   4   5
ATOM      5  NE  ARG D 557     -27.977  -0.805 -16.114  1.00 35.49    -0.212 N 
ATOM      6  CZ  ARG D 557     -28.012  -2.056 -16.517  1.00 35.49     0.666 C 
ATOM      7  NH1 ARG D 557     -28.927  -2.505 -17.356  1.00 35.49    -0.235 N 
ATOM      8  NH2 ARG D 557     -27.095  -2.859 -16.061  1.00 35.49    -0.235 N 
ATOM      9  HH  ARG D 557     -29.538  -1.993 -17.670  1.00 35.49     0.174 HD
ATOM     10  HH  ARG D 557     -28.899  -3.330 -17.586  1.00 35.49     0.174 HD
ATOM     11  HH  ARG D 557     -26.513  -2.540 -15.527  1.00 35.49     0.174 HD
ATOM     12  HH  ARG D 557     -27.083  -3.672 -16.302  1.00 35.49     0.174 HD
ATOM     13  HE  ARG D 557     -27.399  -0.621 -15.518  1.00 35.49     0.178 HD
ENDBRANCH   4   5
ENDBRANCH   3   4
ENDBRANCH   2   3
ENDBRANCH   1   2
END_RES ARG D 557
BEGIN_RES GLU D 570
REMARK  3 active torsions:
REMARK  status: ('A' for Active; 'I' for Inactive)
REMARK    5  A    between atoms: CA   and  CB  
REMARK    6  A    between atoms: CB   and  CG  
REMARK    7  A    between atoms: CG   and  CD  
ROOT
ATOM     14  CA  GLU D 570     -18.033  -6.348 -13.375  1.00 32.92     0.160 C 
ENDROOT
BRANCH  14  15
ATOM     15  CB  GLU D 570     -19.500  -6.345 -13.794  1.00 32.92     0.043 C 
BRANCH  15  16
ATOM     16  CG  GLU D 570     -19.797  -6.261 -15.247  1.00 32.92     0.100 C 
BRANCH  16  17
ATOM     17  CD  GLU D 570     -20.800  -7.293 -15.705  1.00 32.92     0.185 C 
ATOM     18  OE1 GLU D 570     -21.747  -6.937 -16.432  1.00 32.92    -0.647 OA
ATOM     19  OE2 GLU D 570     -20.647  -8.469 -15.318  1.00 32.92    -0.647 OA
ENDBRANCH  16  17
ENDBRANCH  15  16
ENDBRANCH  14  15
END_RES GLU D 570
ENDMDL
MODEL 9
REMARK VINA RESULT:      -4.1      3.180      5.941
REMARK  7 active torsions:
REMARK  status: ('A' for Active; 'I' for Inactive)
REMARK    1  A    between atoms: C_2  and  O_3 
REMARK    2  A    between atoms: O_3  and  C_4 
REMARK    3  A    between atoms: C_4  and  C_5 
REMARK    4  A    between atoms: C_5  and  O_6 
REMARK    5  A    between atoms: O_6  and  C_7 
REMARK    6  A    between atoms: C_7  and  C_8 
REMARK    7  A    between atoms: C_8  and  O_9 
ROOT
HETATM    1  C   UNL     1     -24.480  -3.557 -10.317  1.00  0.00     0.193 C 
ENDROOT
BRANCH   1   2
HETATM    2  C   UNL     1     -23.700  -4.864 -10.441  1.00  0.00     0.193 C 
BRANCH   2   3
HETATM    3  O   UNL     1     -22.648  -4.888  -9.472  1.00  0.00    -0.389 OA
BRANCH   3   4
HETATM    4  C   UNL     1     -22.987  -4.142  -8.305  1.00  0.00     0.163 C 
HETATM    5  C   UNL     1     -21.705  -3.740  -7.604  1.00  0.00     0.033 C 
ENDBRANCH   3   4
ENDBRANCH   2   3
ENDBRANCH   1   2
BRANCH   1   6
HETATM    6  O   UNL     1     -24.824  -3.065 -11.622  1.00  0.00    -0.387 OA
BRANCH   6   7
HETATM    7  C   UNL     1     -24.003  -3.658 -12.635  1.00  0.00     0.193 C 
BRANCH   7   8
HETATM    8  C   UNL     1     -23.399  -2.547 -13.487  1.00  0.00     0.190 C 
BRANCH   8   9
HETATM    9  O   UNL     1     -24.399  -1.587 -13.819  1.00  0.00    -0.399 OA
HETATM   10  H   UNL     1     -24.930  -1.486 -13.005  1.00  0.00     0.209 HD
ENDBRANCH   8   9
ENDBRANCH   7   8
ENDBRANCH   6   7
ENDBRANCH   1   6
TORSDOF 7
BEGIN_RES ARG D 557
REMARK  4 active torsions:
REMARK  status: ('A' for Active; 'I' for Inactive)
REMARK    1  A    between atoms: CA   and  CB  
REMARK    2  A    between atoms: CB   and  CG  
REMARK    3  A    between atoms: CG   and  CD  
REMARK    4  A    between atoms: CD   and  NE  
REMARK       I    between atoms: NE   and  CZ  
REMARK       I    between atoms: CZ   and  NH1 
REMARK       I    between atoms: CZ   and  NH2 
ROOT
ATOM      1  CA  ARG D 557     -26.217   2.705 -17.014  1.00 35.49     0.159 C 
ENDROOT
BRANCH   1   2
ATOM      2  CB  ARG D 557     -26.789   1.319 -17.183  1.00 35.49     0.034 C 
BRANCH   2   3
ATOM      3  CG  ARG D 557     -28.230   1.166 -16.948  1.00 35.49     0.027 C 
BRANCH   3   4
ATOM      4  CD  ARG D 557     -28.624  -0.249 -16.759  1.00 35.49     0.116 C 
BRANCH   4   5
ATOM      5  NE  ARG D 557     -27.613  -1.005 -16.067  1.00 35.49    -0.212 N 
ATOM      6  CZ  ARG D 557     -27.452  -2.308 -16.128  1.00 35.49     0.666 C 
ATOM      7  NH1 ARG D 557     -28.239  -3.087 -16.848  1.00 35.49    -0.235 N 
ATOM      8  NH2 ARG D 557     -26.468  -2.824 -15.450  1.00 35.49    -0.235 N 
ATOM      9  HH  ARG D 557     -28.891  -2.769 -17.303  1.00 35.49     0.174 HD
ATOM     10  HH  ARG D 557     -28.084  -3.930 -16.852  1.00 35.49     0.174 HD
ATOM     11  HH  ARG D 557     -25.972  -2.296 -15.001  1.00 35.49     0.174 HD
ATOM     12  HH  ARG D 557     -26.330  -3.660 -15.468  1.00 35.49     0.174 HD
ATOM     13  HE  ARG D 557     -27.107  -0.591 -15.523  1.00 35.49     0.178 HD
ENDBRANCH   4   5
ENDBRANCH   3   4
ENDBRANCH   2   3
ENDBRANCH   1   2
END_RES ARG D 557
BEGIN_RES GLU D 570
REMARK  3 active torsions:
REMARK  status: ('A' for Active; 'I' for Inactive)
REMARK    5  A    between atoms: CA   and  CB  
REMARK    6  A    between atoms: CB   and  CG  
REMARK    7  A    between atoms: CG   and  CD  
ROOT
ATOM     14  CA  GLU D 570     -18.033  -6.348 -13.375  1.00 32.92     0.160 C 
ENDROOT
BRANCH  14  15
ATOM     15  CB  GLU D 570     -19.500  -6.345 -13.794  1.00 32.92     0.043 C 
BRANCH  15  16
ATOM     16  CG  GLU D 570     -19.813  -5.936 -15.188  1.00 32.92     0.100 C 
BRANCH  16  17
ATOM     17  CD  GLU D 570     -21.261  -5.548 -15.377  1.00 32.92     0.185 C 
ATOM     18  OE1 GLU D 570     -21.567  -4.793 -16.319  1.00 32.92    -0.647 OA
ATOM     19  OE2 GLU D 570     -22.096  -5.992 -14.564  1.00 32.92    -0.647 OA
ENDBRANCH  16  17
ENDBRANCH  15  16
ENDBRANCH  14  15
END_RES GLU D 570
ENDMDL
