MODEL 1
REMARK VINA RESULT:      -1.2      0.000      0.000
REMARK  3 active torsions:
REMARK  status: ('A' for Active; 'I' for Inactive)
REMARK    1  A    between atoms: C_3  and  C_21 
REMARK    2  A    between atoms: C_22  and  C_31 
REMARK    3  A    between atoms: C_31  and  O_33 
ROOT
HETATM    1 NA   UNL     3     -27.327  -5.651  -9.128  1.00  0.00     0.000 Na
ENDROOT
TORSDOF 3
BEGIN_RES ARG D 557
REMARK  4 active torsions:
REMARK  status: ('A' for Active; 'I' for Inactive)
REMARK    1  A    between atoms: CA   and  CB  
REMARK    2  A    between atoms: CB   and  CG  
REMARK    3  A    between atoms: CG   and  CD  
REMARK    4  A    between atoms: CD   and  NE  
REMARK       I    between atoms: NE   and  CZ  
REMARK       I    between atoms: CZ   and  NH1 
REMARK       I    between atoms: CZ   and  NH2 
ROOT
ATOM      1  CA  ARG D 557     -26.217   2.705 -17.014  1.00 35.49     0.159 C 
ENDROOT
BRANCH   1   2
ATOM      2  CB  ARG D 557     -26.789   1.319 -17.183  1.00 35.49     0.034 C 
BRANCH   2   3
ATOM      3  CG  ARG D 557     -25.835   0.203 -17.160  1.00 35.49     0.027 C 
BRANCH   3   4
ATOM      4  CD  ARG D 557     -24.749   0.410 -16.175  1.00 35.49     0.116 C 
BRANCH   4   5
ATOM      5  NE  ARG D 557     -24.896  -0.437 -15.021  1.00 35.49    -0.212 N 
ATOM      6  CZ  ARG D 557     -24.080  -1.406 -14.670  1.00 35.49     0.666 C 
ATOM      7  NH1 ARG D 557     -23.010  -1.722 -15.375  1.00 35.49    -0.235 N 
ATOM      8  NH2 ARG D 557     -24.357  -2.058 -13.578  1.00 35.49    -0.235 N 
ATOM      9  HH  ARG D 557     -22.807  -1.305 -16.095  1.00 35.49     0.174 HD
ATOM     10  HH  ARG D 557     -22.513  -2.362 -15.096  1.00 35.49     0.174 HD
ATOM     11  HH  ARG D 557     -25.051  -1.827 -13.139  1.00 35.49     0.174 HD
ATOM     12  HH  ARG D 557     -23.852  -2.687 -13.318  1.00 35.49     0.174 HD
ATOM     13  HE  ARG D 557     -25.598  -0.351 -14.549  1.00 35.49     0.178 HD
ENDBRANCH   4   5
ENDBRANCH   3   4
ENDBRANCH   2   3
ENDBRANCH   1   2
END_RES ARG D 557
BEGIN_RES GLU D 570
REMARK  3 active torsions:
REMARK  status: ('A' for Active; 'I' for Inactive)
REMARK    5  A    between atoms: CA   and  CB  
REMARK    6  A    between atoms: CB   and  CG  
REMARK    7  A    between atoms: CG   and  CD  
ROOT
ATOM     14  CA  GLU D 570     -18.033  -6.348 -13.375  1.00 32.92     0.160 C 
ENDROOT
BRANCH  14  15
ATOM     15  CB  GLU D 570     -19.500  -6.345 -13.794  1.00 32.92     0.043 C 
BRANCH  15  16
ATOM     16  CG  GLU D 570     -20.441  -5.528 -12.985  1.00 32.92     0.100 C 
BRANCH  16  17
ATOM     17  CD  GLU D 570     -21.743  -5.248 -13.700  1.00 32.92     0.185 C 
ATOM     18  OE1 GLU D 570     -22.304  -4.149 -13.527  1.00 32.92    -0.647 OA
ATOM     19  OE2 GLU D 570     -22.215  -6.145 -14.427  1.00 32.92    -0.647 OA
ENDBRANCH  16  17
ENDBRANCH  15  16
ENDBRANCH  14  15
END_RES GLU D 570
ENDMDL
MODEL 2
REMARK VINA RESULT:      -1.2      6.938      7.000
REMARK  3 active torsions:
REMARK  status: ('A' for Active; 'I' for Inactive)
REMARK    1  A    between atoms: C_3  and  C_21 
REMARK    2  A    between atoms: C_22  and  C_31 
REMARK    3  A    between atoms: C_31  and  O_33 
ROOT
HETATM    1 NA   UNL     3      -9.118   5.884 -17.181  1.00  0.00     0.000 Na
ENDROOT
TORSDOF 3
BEGIN_RES ARG D 557
REMARK  4 active torsions:
REMARK  status: ('A' for Active; 'I' for Inactive)
REMARK    1  A    between atoms: CA   and  CB  
REMARK    2  A    between atoms: CB   and  CG  
REMARK    3  A    between atoms: CG   and  CD  
REMARK    4  A    between atoms: CD   and  NE  
REMARK       I    between atoms: NE   and  CZ  
REMARK       I    between atoms: CZ   and  NH1 
REMARK       I    between atoms: CZ   and  NH2 
ROOT
ATOM      1  CA  ARG D 557     -26.217   2.705 -17.014  1.00 35.49     0.159 C 
ENDROOT
BRANCH   1   2
ATOM      2  CB  ARG D 557     -26.789   1.319 -17.183  1.00 35.49     0.034 C 
BRANCH   2   3
ATOM      3  CG  ARG D 557     -25.836   0.203 -17.155  1.00 35.49     0.027 C 
BRANCH   3   4
ATOM      4  CD  ARG D 557     -24.751   0.411 -16.169  1.00 35.49     0.116 C 
BRANCH   4   5
ATOM      5  NE  ARG D 557     -24.897  -0.437 -15.016  1.00 35.49    -0.212 N 
ATOM      6  CZ  ARG D 557     -24.082  -1.408 -14.669  1.00 35.49     0.666 C 
ATOM      7  NH1 ARG D 557     -23.014  -1.725 -15.378  1.00 35.49    -0.235 N 
ATOM      8  NH2 ARG D 557     -24.357  -2.062 -13.578  1.00 35.49    -0.235 N 
ATOM      9  HH  ARG D 557     -22.812  -1.306 -16.098  1.00 35.49     0.174 HD
ATOM     10  HH  ARG D 557     -22.517  -2.366 -15.101  1.00 35.49     0.174 HD
ATOM     11  HH  ARG D 557     -25.049  -1.831 -13.137  1.00 35.49     0.174 HD
ATOM     12  HH  ARG D 557     -23.852  -2.693 -13.320  1.00 35.49     0.174 HD
ATOM     13  HE  ARG D 557     -25.598  -0.351 -14.542  1.00 35.49     0.178 HD
ENDBRANCH   4   5
ENDBRANCH   3   4
ENDBRANCH   2   3
ENDBRANCH   1   2
END_RES ARG D 557
BEGIN_RES GLU D 570
REMARK  3 active torsions:
REMARK  status: ('A' for Active; 'I' for Inactive)
REMARK    5  A    between atoms: CA   and  CB  
REMARK    6  A    between atoms: CB   and  CG  
REMARK    7  A    between atoms: CG   and  CD  
ROOT
ATOM     14  CA  GLU D 570     -18.033  -6.348 -13.375  1.00 32.92     0.160 C 
ENDROOT
BRANCH  14  15
ATOM     15  CB  GLU D 570     -19.500  -6.345 -13.794  1.00 32.92     0.043 C 
BRANCH  15  16
ATOM     16  CG  GLU D 570     -20.444  -5.540 -12.977  1.00 32.92     0.100 C 
BRANCH  16  17
ATOM     17  CD  GLU D 570     -21.745  -5.253 -13.690  1.00 32.92     0.185 C 
ATOM     18  OE1 GLU D 570     -22.244  -6.134 -14.415  1.00 32.92    -0.647 OA
ATOM     19  OE2 GLU D 570     -22.260  -4.128 -13.535  1.00 32.92    -0.647 OA
ENDBRANCH  16  17
ENDBRANCH  15  16
ENDBRANCH  14  15
END_RES GLU D 570
ENDMDL
MODEL 3
REMARK VINA RESULT:      -1.1      4.576      4.692
REMARK  3 active torsions:
REMARK  status: ('A' for Active; 'I' for Inactive)
REMARK    1  A    between atoms: C_3  and  C_21 
REMARK    2  A    between atoms: C_22  and  C_31 
REMARK    3  A    between atoms: C_31  and  O_33 
ROOT
HETATM    1 NA   UNL     3     -32.385  -8.530   4.525  1.00  0.00     0.000 Na
ENDROOT
TORSDOF 3
BEGIN_RES ARG D 557
REMARK  4 active torsions:
REMARK  status: ('A' for Active; 'I' for Inactive)
REMARK    1  A    between atoms: CA   and  CB  
REMARK    2  A    between atoms: CB   and  CG  
REMARK    3  A    between atoms: CG   and  CD  
REMARK    4  A    between atoms: CD   and  NE  
REMARK       I    between atoms: NE   and  CZ  
REMARK       I    between atoms: CZ   and  NH1 
REMARK       I    between atoms: CZ   and  NH2 
ROOT
ATOM      1  CA  ARG D 557     -26.217   2.705 -17.014  1.00 35.49     0.159 C 
ENDROOT
BRANCH   1   2
ATOM      2  CB  ARG D 557     -26.789   1.319 -17.183  1.00 35.49     0.034 C 
BRANCH   2   3
ATOM      3  CG  ARG D 557     -25.861   0.195 -17.006  1.00 35.49     0.027 C 
BRANCH   3   4
ATOM      4  CD  ARG D 557     -26.261  -0.697 -15.894  1.00 35.49     0.116 C 
BRANCH   4   5
ATOM      5  NE  ARG D 557     -25.200  -0.886 -14.941  1.00 35.49    -0.212 N 
ATOM      6  CZ  ARG D 557     -24.884  -2.020 -14.357  1.00 35.49     0.666 C 
ATOM      7  NH1 ARG D 557     -25.542  -3.141 -14.584  1.00 35.49    -0.235 N 
ATOM      8  NH2 ARG D 557     -23.876  -2.011 -13.534  1.00 35.49    -0.235 N 
ATOM      9  HH  ARG D 557     -26.207  -3.171 -15.123  1.00 35.49     0.174 HD
ATOM     10  HH  ARG D 557     -25.289  -3.851 -14.176  1.00 35.49     0.174 HD
ATOM     11  HH  ARG D 557     -23.465  -1.274 -13.413  1.00 35.49     0.174 HD
ATOM     12  HH  ARG D 557     -23.640  -2.724 -13.141  1.00 35.49     0.174 HD
ATOM     13  HE  ARG D 557     -24.770  -0.199 -14.682  1.00 35.49     0.178 HD
ENDBRANCH   4   5
ENDBRANCH   3   4
ENDBRANCH   2   3
ENDBRANCH   1   2
END_RES ARG D 557
BEGIN_RES GLU D 570
REMARK  3 active torsions:
REMARK  status: ('A' for Active; 'I' for Inactive)
REMARK    5  A    between atoms: CA   and  CB  
REMARK    6  A    between atoms: CB   and  CG  
REMARK    7  A    between atoms: CG   and  CD  
ROOT
ATOM     14  CA  GLU D 570     -18.033  -6.348 -13.375  1.00 32.92     0.160 C 
ENDROOT
BRANCH  14  15
ATOM     15  CB  GLU D 570     -19.500  -6.345 -13.794  1.00 32.92     0.043 C 
BRANCH  15  16
ATOM     16  CG  GLU D 570     -20.449  -5.563 -12.960  1.00 32.92     0.100 C 
BRANCH  16  17
ATOM     17  CD  GLU D 570     -21.691  -5.147 -13.713  1.00 32.92     0.185 C 
ATOM     18  OE1 GLU D 570     -21.693  -5.206 -14.957  1.00 32.92    -0.647 OA
ATOM     19  OE2 GLU D 570     -22.667  -4.741 -13.051  1.00 32.92    -0.647 OA
ENDBRANCH  16  17
ENDBRANCH  15  16
ENDBRANCH  14  15
END_RES GLU D 570
ENDMDL
MODEL 4
REMARK VINA RESULT:      -1.0      2.089      2.089
REMARK  3 active torsions:
REMARK  status: ('A' for Active; 'I' for Inactive)
REMARK    1  A    between atoms: C_3  and  C_21 
REMARK    2  A    between atoms: C_22  and  C_31 
REMARK    3  A    between atoms: C_31  and  O_33 
ROOT
HETATM    1 NA   UNL     3     -32.934  -9.326 -10.880  1.00  0.00     0.000 Na
ENDROOT
TORSDOF 3
BEGIN_RES ARG D 557
REMARK  4 active torsions:
REMARK  status: ('A' for Active; 'I' for Inactive)
REMARK    1  A    between atoms: CA   and  CB  
REMARK    2  A    between atoms: CB   and  CG  
REMARK    3  A    between atoms: CG   and  CD  
REMARK    4  A    between atoms: CD   and  NE  
REMARK       I    between atoms: NE   and  CZ  
REMARK       I    between atoms: CZ   and  NH1 
REMARK       I    between atoms: CZ   and  NH2 
ROOT
ATOM      1  CA  ARG D 557     -26.217   2.705 -17.014  1.00 35.49     0.159 C 
ENDROOT
BRANCH   1   2
ATOM      2  CB  ARG D 557     -26.789   1.319 -17.183  1.00 35.49     0.034 C 
BRANCH   2   3
ATOM      3  CG  ARG D 557     -25.836   0.203 -17.155  1.00 35.49     0.027 C 
BRANCH   3   4
ATOM      4  CD  ARG D 557     -24.753   0.410 -16.166  1.00 35.49     0.116 C 
BRANCH   4   5
ATOM      5  NE  ARG D 557     -24.900  -0.441 -15.015  1.00 35.49    -0.212 N 
ATOM      6  CZ  ARG D 557     -24.082  -1.408 -14.665  1.00 35.49     0.666 C 
ATOM      7  NH1 ARG D 557     -23.009  -1.718 -15.369  1.00 35.49    -0.235 N 
ATOM      8  NH2 ARG D 557     -24.359  -2.065 -13.577  1.00 35.49    -0.235 N 
ATOM      9  HH  ARG D 557     -22.806  -1.298 -16.087  1.00 35.49     0.174 HD
ATOM     10  HH  ARG D 557     -22.510  -2.357 -15.091  1.00 35.49     0.174 HD
ATOM     11  HH  ARG D 557     -25.055  -1.838 -13.138  1.00 35.49     0.174 HD
ATOM     12  HH  ARG D 557     -23.852  -2.693 -13.317  1.00 35.49     0.174 HD
ATOM     13  HE  ARG D 557     -25.604  -0.359 -14.545  1.00 35.49     0.178 HD
ENDBRANCH   4   5
ENDBRANCH   3   4
ENDBRANCH   2   3
ENDBRANCH   1   2
END_RES ARG D 557
BEGIN_RES GLU D 570
REMARK  3 active torsions:
REMARK  status: ('A' for Active; 'I' for Inactive)
REMARK    5  A    between atoms: CA   and  CB  
REMARK    6  A    between atoms: CB   and  CG  
REMARK    7  A    between atoms: CG   and  CD  
ROOT
ATOM     14  CA  GLU D 570     -18.033  -6.348 -13.375  1.00 32.92     0.160 C 
ENDROOT
BRANCH  14  15
ATOM     15  CB  GLU D 570     -19.500  -6.345 -13.794  1.00 32.92     0.043 C 
BRANCH  15  16
ATOM     16  CG  GLU D 570     -20.440  -5.521 -12.991  1.00 32.92     0.100 C 
BRANCH  16  17
ATOM     17  CD  GLU D 570     -21.730  -5.221 -13.717  1.00 32.92     0.185 C 
ATOM     18  OE1 GLU D 570     -22.294  -4.127 -13.523  1.00 32.92    -0.647 OA
ATOM     19  OE2 GLU D 570     -22.190  -6.097 -14.476  1.00 32.92    -0.647 OA
ENDBRANCH  16  17
ENDBRANCH  15  16
ENDBRANCH  14  15
END_RES GLU D 570
ENDMDL
MODEL 5
REMARK VINA RESULT:      -0.9      1.738      2.004
REMARK  3 active torsions:
REMARK  status: ('A' for Active; 'I' for Inactive)
REMARK    1  A    between atoms: C_3  and  C_21 
REMARK    2  A    between atoms: C_22  and  C_31 
REMARK    3  A    between atoms: C_31  and  O_33 
ROOT
HETATM    1 NA   UNL     3     -25.258  -5.228  -4.940  1.00  0.00     0.000 Na
ENDROOT
TORSDOF 3
BEGIN_RES ARG D 557
REMARK  4 active torsions:
REMARK  status: ('A' for Active; 'I' for Inactive)
REMARK    1  A    between atoms: CA   and  CB  
REMARK    2  A    between atoms: CB   and  CG  
REMARK    3  A    between atoms: CG   and  CD  
REMARK    4  A    between atoms: CD   and  NE  
REMARK       I    between atoms: NE   and  CZ  
REMARK       I    between atoms: CZ   and  NH1 
REMARK       I    between atoms: CZ   and  NH2 
ROOT
ATOM      1  CA  ARG D 557     -26.217   2.705 -17.014  1.00 35.49     0.159 C 
ENDROOT
BRANCH   1   2
ATOM      2  CB  ARG D 557     -26.789   1.319 -17.183  1.00 35.49     0.034 C 
BRANCH   2   3
ATOM      3  CG  ARG D 557     -25.864   0.195 -16.993  1.00 35.49     0.027 C 
BRANCH   3   4
ATOM      4  CD  ARG D 557     -26.289  -0.706 -15.897  1.00 35.49     0.116 C 
BRANCH   4   5
ATOM      5  NE  ARG D 557     -25.240  -0.923 -14.935  1.00 35.49    -0.212 N 
ATOM      6  CZ  ARG D 557     -24.953  -2.067 -14.357  1.00 35.49     0.666 C 
ATOM      7  NH1 ARG D 557     -25.632  -3.174 -14.598  1.00 35.49    -0.235 N 
ATOM      8  NH2 ARG D 557     -23.953  -2.085 -13.525  1.00 35.49    -0.235 N 
ATOM      9  HH  ARG D 557     -26.292  -3.186 -15.144  1.00 35.49     0.174 HD
ATOM     10  HH  ARG D 557     -25.397  -3.892 -14.194  1.00 35.49     0.174 HD
ATOM     11  HH  ARG D 557     -23.528  -1.357 -13.394  1.00 35.49     0.174 HD
ATOM     12  HH  ARG D 557     -23.735  -2.806 -13.135  1.00 35.49     0.174 HD
ATOM     13  HE  ARG D 557     -24.799  -0.247 -14.667  1.00 35.49     0.178 HD
ENDBRANCH   4   5
ENDBRANCH   3   4
ENDBRANCH   2   3
ENDBRANCH   1   2
END_RES ARG D 557
BEGIN_RES GLU D 570
REMARK  3 active torsions:
REMARK  status: ('A' for Active; 'I' for Inactive)
REMARK    5  A    between atoms: CA   and  CB  
REMARK    6  A    between atoms: CB   and  CG  
REMARK    7  A    between atoms: CG   and  CD  
ROOT
ATOM     14  CA  GLU D 570     -18.033  -6.348 -13.375  1.00 32.92     0.160 C 
ENDROOT
BRANCH  14  15
ATOM     15  CB  GLU D 570     -19.500  -6.345 -13.794  1.00 32.92     0.043 C 
BRANCH  15  16
ATOM     16  CG  GLU D 570     -20.449  -5.563 -12.959  1.00 32.92     0.100 C 
BRANCH  16  17
ATOM     17  CD  GLU D 570     -21.677  -5.121 -13.721  1.00 32.92     0.185 C 
ATOM     18  OE1 GLU D 570     -21.613  -5.010 -14.960  1.00 32.92    -0.647 OA
ATOM     19  OE2 GLU D 570     -22.708  -4.866 -13.068  1.00 32.92    -0.647 OA
ENDBRANCH  16  17
ENDBRANCH  15  16
ENDBRANCH  14  15
END_RES GLU D 570
ENDMDL
MODEL 6
REMARK VINA RESULT:      -0.9      2.319      2.498
REMARK  3 active torsions:
REMARK  status: ('A' for Active; 'I' for Inactive)
REMARK    1  A    between atoms: C_3  and  C_21 
REMARK    2  A    between atoms: C_22  and  C_31 
REMARK    3  A    between atoms: C_31  and  O_33 
ROOT
HETATM    1 NA   UNL     3     -21.086  -2.534 -12.356  1.00  0.00     0.000 Na
ENDROOT
TORSDOF 3
BEGIN_RES ARG D 557
REMARK  4 active torsions:
REMARK  status: ('A' for Active; 'I' for Inactive)
REMARK    1  A    between atoms: CA   and  CB  
REMARK    2  A    between atoms: CB   and  CG  
REMARK    3  A    between atoms: CG   and  CD  
REMARK    4  A    between atoms: CD   and  NE  
REMARK       I    between atoms: NE   and  CZ  
REMARK       I    between atoms: CZ   and  NH1 
REMARK       I    between atoms: CZ   and  NH2 
ROOT
ATOM      1  CA  ARG D 557     -26.217   2.705 -17.014  1.00 35.49     0.159 C 
ENDROOT
BRANCH   1   2
ATOM      2  CB  ARG D 557     -26.789   1.319 -17.183  1.00 35.49     0.034 C 
BRANCH   2   3
ATOM      3  CG  ARG D 557     -25.835   0.203 -17.160  1.00 35.49     0.027 C 
BRANCH   3   4
ATOM      4  CD  ARG D 557     -24.766   0.395 -16.154  1.00 35.49     0.116 C 
BRANCH   4   5
ATOM      5  NE  ARG D 557     -24.934  -0.467 -15.013  1.00 35.49    -0.212 N 
ATOM      6  CZ  ARG D 557     -24.126  -1.442 -14.662  1.00 35.49     0.666 C 
ATOM      7  NH1 ARG D 557     -23.045  -1.751 -15.354  1.00 35.49    -0.235 N 
ATOM      8  NH2 ARG D 557     -24.423  -2.108 -13.584  1.00 35.49    -0.235 N 
ATOM      9  HH  ARG D 557     -22.830  -1.325 -16.065  1.00 35.49     0.174 HD
ATOM     10  HH  ARG D 557     -22.554  -2.396 -15.075  1.00 35.49     0.174 HD
ATOM     11  HH  ARG D 557     -25.123  -1.882 -13.154  1.00 35.49     0.174 HD
ATOM     12  HH  ARG D 557     -23.924  -2.742 -13.324  1.00 35.49     0.174 HD
ATOM     13  HE  ARG D 557     -25.644  -0.385 -14.552  1.00 35.49     0.178 HD
ENDBRANCH   4   5
ENDBRANCH   3   4
ENDBRANCH   2   3
ENDBRANCH   1   2
END_RES ARG D 557
BEGIN_RES GLU D 570
REMARK  3 active torsions:
REMARK  status: ('A' for Active; 'I' for Inactive)
REMARK    5  A    between atoms: CA   and  CB  
REMARK    6  A    between atoms: CB   and  CG  
REMARK    7  A    between atoms: CG   and  CD  
ROOT
ATOM     14  CA  GLU D 570     -18.033  -6.348 -13.375  1.00 32.92     0.160 C 
ENDROOT
BRANCH  14  15
ATOM     15  CB  GLU D 570     -19.500  -6.345 -13.794  1.00 32.92     0.043 C 
BRANCH  15  16
ATOM     16  CG  GLU D 570     -20.429  -5.476 -13.026  1.00 32.92     0.100 C 
BRANCH  16  17
ATOM     17  CD  GLU D 570     -21.747  -5.254 -13.732  1.00 32.92     0.185 C 
ATOM     18  OE1 GLU D 570     -22.134  -6.092 -14.568  1.00 32.92    -0.647 OA
ATOM     19  OE2 GLU D 570     -22.389  -4.221 -13.459  1.00 32.92    -0.647 OA
ENDBRANCH  16  17
ENDBRANCH  15  16
ENDBRANCH  14  15
END_RES GLU D 570
ENDMDL
MODEL 7
REMARK VINA RESULT:      -0.9      5.452      5.452
REMARK  3 active torsions:
REMARK  status: ('A' for Active; 'I' for Inactive)
REMARK    1  A    between atoms: C_3  and  C_21 
REMARK    2  A    between atoms: C_22  and  C_31 
REMARK    3  A    between atoms: C_31  and  O_33 
ROOT
HETATM    1 NA   UNL     3     -11.440   1.350  -4.069  1.00  0.00     0.000 Na
ENDROOT
TORSDOF 3
BEGIN_RES ARG D 557
REMARK  4 active torsions:
REMARK  status: ('A' for Active; 'I' for Inactive)
REMARK    1  A    between atoms: CA   and  CB  
REMARK    2  A    between atoms: CB   and  CG  
REMARK    3  A    between atoms: CG   and  CD  
REMARK    4  A    between atoms: CD   and  NE  
REMARK       I    between atoms: NE   and  CZ  
REMARK       I    between atoms: CZ   and  NH1 
REMARK       I    between atoms: CZ   and  NH2 
ROOT
ATOM      1  CA  ARG D 557     -26.217   2.705 -17.014  1.00 35.49     0.159 C 
ENDROOT
BRANCH   1   2
ATOM      2  CB  ARG D 557     -26.789   1.319 -17.183  1.00 35.49     0.034 C 
BRANCH   2   3
ATOM      3  CG  ARG D 557     -25.834   0.205 -17.176  1.00 35.49     0.027 C 
BRANCH   3   4
ATOM      4  CD  ARG D 557     -24.740   0.405 -16.197  1.00 35.49     0.116 C 
BRANCH   4   5
ATOM      5  NE  ARG D 557     -24.890  -0.435 -15.038  1.00 35.49    -0.212 N 
ATOM      6  CZ  ARG D 557     -24.074  -1.402 -14.680  1.00 35.49     0.666 C 
ATOM      7  NH1 ARG D 557     -23.003  -1.722 -15.382  1.00 35.49    -0.235 N 
ATOM      8  NH2 ARG D 557     -24.354  -2.048 -13.586  1.00 35.49    -0.235 N 
ATOM      9  HH  ARG D 557     -22.798  -1.309 -16.104  1.00 35.49     0.174 HD
ATOM     10  HH  ARG D 557     -22.506  -2.360 -15.098  1.00 35.49     0.174 HD
ATOM     11  HH  ARG D 557     -25.048  -1.815 -13.149  1.00 35.49     0.174 HD
ATOM     12  HH  ARG D 557     -23.849  -2.676 -13.320  1.00 35.49     0.174 HD
ATOM     13  HE  ARG D 557     -25.593  -0.346 -14.569  1.00 35.49     0.178 HD
ENDBRANCH   4   5
ENDBRANCH   3   4
ENDBRANCH   2   3
ENDBRANCH   1   2
END_RES ARG D 557
BEGIN_RES GLU D 570
REMARK  3 active torsions:
REMARK  status: ('A' for Active; 'I' for Inactive)
REMARK    5  A    between atoms: CA   and  CB  
REMARK    6  A    between atoms: CB   and  CG  
REMARK    7  A    between atoms: CG   and  CD  
ROOT
ATOM     14  CA  GLU D 570     -18.033  -6.348 -13.375  1.00 32.92     0.160 C 
ENDROOT
BRANCH  14  15
ATOM     15  CB  GLU D 570     -19.500  -6.345 -13.794  1.00 32.92     0.043 C 
BRANCH  15  16
ATOM     16  CG  GLU D 570     -20.440  -5.523 -12.989  1.00 32.92     0.100 C 
BRANCH  16  17
ATOM     17  CD  GLU D 570     -21.740  -5.242 -13.706  1.00 32.92     0.185 C 
ATOM     18  OE1 GLU D 570     -22.320  -4.158 -13.506  1.00 32.92    -0.647 OA
ATOM     19  OE2 GLU D 570     -22.192  -6.123 -14.464  1.00 32.92    -0.647 OA
ENDBRANCH  16  17
ENDBRANCH  15  16
ENDBRANCH  14  15
END_RES GLU D 570
ENDMDL
MODEL 8
REMARK VINA RESULT:      -0.9      3.105      3.228
REMARK  3 active torsions:
REMARK  status: ('A' for Active; 'I' for Inactive)
REMARK    1  A    between atoms: C_3  and  C_21 
REMARK    2  A    between atoms: C_22  and  C_31 
REMARK    3  A    between atoms: C_31  and  O_33 
ROOT
HETATM    1 NA   UNL     3     -27.028 -13.626 -13.034  1.00  0.00     0.000 Na
ENDROOT
TORSDOF 3
BEGIN_RES ARG D 557
REMARK  4 active torsions:
REMARK  status: ('A' for Active; 'I' for Inactive)
REMARK    1  A    between atoms: CA   and  CB  
REMARK    2  A    between atoms: CB   and  CG  
REMARK    3  A    between atoms: CG   and  CD  
REMARK    4  A    between atoms: CD   and  NE  
REMARK       I    between atoms: NE   and  CZ  
REMARK       I    between atoms: CZ   and  NH1 
REMARK       I    between atoms: CZ   and  NH2 
ROOT
ATOM      1  CA  ARG D 557     -26.217   2.705 -17.014  1.00 35.49     0.159 C 
ENDROOT
BRANCH   1   2
ATOM      2  CB  ARG D 557     -26.789   1.319 -17.183  1.00 35.49     0.034 C 
BRANCH   2   3
ATOM      3  CG  ARG D 557     -25.929   0.197 -16.788  1.00 35.49     0.027 C 
BRANCH   3   4
ATOM      4  CD  ARG D 557     -26.681  -0.873 -16.093  1.00 35.49     0.116 C 
BRANCH   4   5
ATOM      5  NE  ARG D 557     -25.882  -1.538 -15.098  1.00 35.49    -0.212 N 
ATOM      6  CZ  ARG D 557     -25.936  -2.817 -14.799  1.00 35.49     0.666 C 
ATOM      7  NH1 ARG D 557     -26.770  -3.650 -15.393  1.00 35.49    -0.235 N 
ATOM      8  NH2 ARG D 557     -25.121  -3.254 -13.883  1.00 35.49    -0.235 N 
ATOM      9  HH  ARG D 557     -27.314  -3.384 -16.000  1.00 35.49     0.174 HD
ATOM     10  HH  ARG D 557     -26.759  -4.474 -15.158  1.00 35.49     0.174 HD
ATOM     11  HH  ARG D 557     -24.588  -2.695 -13.522  1.00 35.49     0.174 HD
ATOM     12  HH  ARG D 557     -25.124  -4.074 -13.666  1.00 35.49     0.174 HD
ATOM     13  HE  ARG D 557     -25.367  -1.063 -14.615  1.00 35.49     0.178 HD
ENDBRANCH   4   5
ENDBRANCH   3   4
ENDBRANCH   2   3
ENDBRANCH   1   2
END_RES ARG D 557
BEGIN_RES GLU D 570
REMARK  3 active torsions:
REMARK  status: ('A' for Active; 'I' for Inactive)
REMARK    5  A    between atoms: CA   and  CB  
REMARK    6  A    between atoms: CB   and  CG  
REMARK    7  A    between atoms: CG   and  CD  
ROOT
ATOM     14  CA  GLU D 570     -18.033  -6.348 -13.375  1.00 32.92     0.160 C 
ENDROOT
BRANCH  14  15
ATOM     15  CB  GLU D 570     -19.500  -6.345 -13.794  1.00 32.92     0.043 C 
BRANCH  15  16
ATOM     16  CG  GLU D 570     -20.450  -5.570 -12.955  1.00 32.92     0.100 C 
BRANCH  16  17
ATOM     17  CD  GLU D 570     -21.679  -5.126 -13.713  1.00 32.92     0.185 C 
ATOM     18  OE1 GLU D 570     -22.706  -4.822 -13.076  1.00 32.92    -0.647 OA
ATOM     19  OE2 GLU D 570     -21.621  -5.100 -14.958  1.00 32.92    -0.647 OA
ENDBRANCH  16  17
ENDBRANCH  15  16
ENDBRANCH  14  15
END_RES GLU D 570
ENDMDL
MODEL 9
REMARK VINA RESULT:      -0.8      2.276      2.485
REMARK  3 active torsions:
REMARK  status: ('A' for Active; 'I' for Inactive)
REMARK    1  A    between atoms: C_3  and  C_21 
REMARK    2  A    between atoms: C_22  and  C_31 
REMARK    3  A    between atoms: C_31  and  O_33 
ROOT
HETATM    1 NA   UNL     3     -32.719  -6.026  -5.055  1.00  0.00     0.000 Na
ENDROOT
TORSDOF 3
BEGIN_RES ARG D 557
REMARK  4 active torsions:
REMARK  status: ('A' for Active; 'I' for Inactive)
REMARK    1  A    between atoms: CA   and  CB  
REMARK    2  A    between atoms: CB   and  CG  
REMARK    3  A    between atoms: CG   and  CD  
REMARK    4  A    between atoms: CD   and  NE  
REMARK       I    between atoms: NE   and  CZ  
REMARK       I    between atoms: CZ   and  NH1 
REMARK       I    between atoms: CZ   and  NH2 
ROOT
ATOM      1  CA  ARG D 557     -26.217   2.705 -17.014  1.00 35.49     0.159 C 
ENDROOT
BRANCH   1   2
ATOM      2  CB  ARG D 557     -26.789   1.319 -17.183  1.00 35.49     0.034 C 
BRANCH   2   3
ATOM      3  CG  ARG D 557     -25.864   0.195 -16.992  1.00 35.49     0.027 C 
BRANCH   3   4
ATOM      4  CD  ARG D 557     -26.287  -0.703 -15.893  1.00 35.49     0.116 C 
BRANCH   4   5
ATOM      5  NE  ARG D 557     -25.235  -0.922 -14.936  1.00 35.49    -0.212 N 
ATOM      6  CZ  ARG D 557     -24.948  -2.066 -14.357  1.00 35.49     0.666 C 
ATOM      7  NH1 ARG D 557     -25.632  -3.171 -14.593  1.00 35.49    -0.235 N 
ATOM      8  NH2 ARG D 557     -23.944  -2.086 -13.530  1.00 35.49    -0.235 N 
ATOM      9  HH  ARG D 557     -26.295  -3.181 -15.136  1.00 35.49     0.174 HD
ATOM     10  HH  ARG D 557     -25.398  -3.889 -14.188  1.00 35.49     0.174 HD
ATOM     11  HH  ARG D 557     -23.516  -1.359 -13.403  1.00 35.49     0.174 HD
ATOM     12  HH  ARG D 557     -23.727  -2.807 -13.140  1.00 35.49     0.174 HD
ATOM     13  HE  ARG D 557     -24.789  -0.247 -14.671  1.00 35.49     0.178 HD
ENDBRANCH   4   5
ENDBRANCH   3   4
ENDBRANCH   2   3
ENDBRANCH   1   2
END_RES ARG D 557
BEGIN_RES GLU D 570
REMARK  3 active torsions:
REMARK  status: ('A' for Active; 'I' for Inactive)
REMARK    5  A    between atoms: CA   and  CB  
REMARK    6  A    between atoms: CB   and  CG  
REMARK    7  A    between atoms: CG   and  CD  
ROOT
ATOM     14  CA  GLU D 570     -18.033  -6.348 -13.375  1.00 32.92     0.160 C 
ENDROOT
BRANCH  14  15
ATOM     15  CB  GLU D 570     -19.500  -6.345 -13.794  1.00 32.92     0.043 C 
BRANCH  15  16
ATOM     16  CG  GLU D 570     -20.448  -5.561 -12.961  1.00 32.92     0.100 C 
BRANCH  16  17
ATOM     17  CD  GLU D 570     -21.680  -5.126 -13.721  1.00 32.92     0.185 C 
ATOM     18  OE1 GLU D 570     -21.620  -5.020 -14.961  1.00 32.92    -0.647 OA
ATOM     19  OE2 GLU D 570     -22.711  -4.873 -13.068  1.00 32.92    -0.647 OA
ENDBRANCH  16  17
ENDBRANCH  15  16
ENDBRANCH  14  15
END_RES GLU D 570
ENDMDL
