MODEL 1
REMARK VINA RESULT:      -9.9      0.000      0.000
REMARK  6 active torsions:
REMARK  status: ('A' for Active; 'I' for Inactive)
REMARK    1  A    between atoms: C_4  and  S_26 
REMARK    2  A    between atoms: C_5  and  N_8 
REMARK    3  A    between atoms: N_10  and  C_12 
REMARK    4  A    between atoms: C_14  and  C_22 
REMARK    5  A    between atoms: C_22  and  O_24 
REMARK    6  A    between atoms: S_26  and  O_27 
ROOT
HETATM    1  N   UNL     1     -25.333  -4.943 -15.095  1.00  0.00    -0.299 N 
ATOM      2  HN  UNL     1     -25.944  -4.223 -15.483  1.00  0.00     0.187 HD
HETATM    3  N   UNL     1     -25.395  -6.142 -15.459  1.00  0.00    -0.296 N 
ATOM      4  HN  UNL     1     -24.788  -6.882 -15.104  1.00  0.00     0.187 HD
ENDROOT
BRANCH   3   5
HETATM    5  C   UNL     1     -26.424  -6.344 -16.439  1.00  0.00     0.110 C 
HETATM    6  C   UNL     1     -27.782  -6.401 -15.993  1.00  0.00     0.217 C 
HETATM    7  C   UNL     1     -28.746  -6.355 -17.051  1.00  0.00     0.090 C 
HETATM    8  O   UNL     1     -28.078  -6.505 -14.745  1.00  0.00    -0.285 OA
HETATM    9  C   UNL     1     -28.384  -6.365 -18.407  1.00  0.00     0.034 C 
HETATM   10  C   UNL     1     -27.050  -6.487 -18.799  1.00  0.00    -0.022 A 
HETATM   11  C   UNL     1     -26.722  -6.537 -20.167  1.00  0.00     0.012 A 
HETATM   12  C   UNL     1     -26.054  -6.545 -17.813  1.00  0.00     0.006 A 
HETATM   13  C   UNL     1     -25.405  -6.722 -20.580  1.00  0.00     0.001 A 
HETATM   14  C   UNL     1     -24.417  -6.900 -19.627  1.00  0.00     0.001 A 
HETATM   15  C   UNL     1     -24.740  -6.812 -18.269  1.00  0.00     0.015 A 
BRANCH   7  16
HETATM   16  C   UNL     1     -30.249  -6.274 -16.834  1.00  0.00     0.180 C 
HETATM   17  O   UNL     1     -31.061  -6.961 -17.441  1.00  0.00    -0.646 OA
BRANCH  16  18
HETATM   18  O   UNL     1     -30.613  -5.345 -15.928  1.00  0.00    -0.773 OA
HETATM   19  H   UNL     1     -31.593  -5.184 -16.027  1.00  0.00     0.167 HD
ENDBRANCH  16  18
ENDBRANCH   7  16
ENDBRANCH   3   5
BRANCH   1  20
HETATM   20  C   UNL     1     -24.357  -4.657 -14.106  1.00  0.00     0.072 A 
HETATM   21  C   UNL     1     -23.999  -3.367 -13.669  1.00  0.00     0.117 A 
HETATM   22  C   UNL     1     -23.124  -3.156 -12.595  1.00  0.00     0.035 A 
HETATM   23  C   UNL     1     -22.493  -4.229 -11.972  1.00  0.00    -0.060 A 
HETATM   24  C   UNL     1     -21.504  -3.972 -10.872  1.00  0.00     0.048 C 
HETATM   25  C   UNL     1     -22.792  -5.522 -12.416  1.00  0.00     0.009 A 
HETATM   26  C   UNL     1     -23.725  -5.729 -13.453  1.00  0.00     0.033 A 
BRANCH  21  27
HETATM   27  S   UNL     1     -24.298  -1.956 -14.735  1.00  0.00     0.327 S 
HETATM   28  O   UNL     1     -25.575  -2.220 -15.341  1.00  0.00    -0.191 OA
HETATM   29  O   UNL     1     -24.198  -0.795 -13.865  1.00  0.00    -0.191 OA
BRANCH  27  30
HETATM   30  O   UNL     1     -23.118  -2.137 -15.623  1.00  0.00    -0.086 OA
HETATM   31 CA   UNL     2     -21.589  -3.549 -16.037  1.00  0.00     0.000 Ca
ENDBRANCH  27  30
ENDBRANCH  21  27
ENDBRANCH   1  20
TORSDOF 6
BEGIN_RES ARG D 557
REMARK  4 active torsions:
REMARK  status: ('A' for Active; 'I' for Inactive)
REMARK    1  A    between atoms: CA   and  CB  
REMARK    2  A    between atoms: CB   and  CG  
REMARK    3  A    between atoms: CG   and  CD  
REMARK    4  A    between atoms: CD   and  NE  
REMARK       I    between atoms: NE   and  CZ  
REMARK       I    between atoms: CZ   and  NH1 
REMARK       I    between atoms: CZ   and  NH2 
ROOT
ATOM      1  CA  ARG D 557     -26.217   2.705 -17.014  1.00 35.49     0.159 C 
ENDROOT
BRANCH   1   2
ATOM      2  CB  ARG D 557     -26.789   1.319 -17.183  1.00 35.49     0.034 C 
BRANCH   2   3
ATOM      3  CG  ARG D 557     -28.237   1.174 -16.992  1.00 35.49     0.027 C 
BRANCH   3   4
ATOM      4  CD  ARG D 557     -28.587  -0.048 -16.233  1.00 35.49     0.116 C 
BRANCH   4   5
ATOM      5  NE  ARG D 557     -29.342  -0.982 -17.026  1.00 35.49    -0.212 N 
ATOM      6  CZ  ARG D 557     -29.082  -2.263 -17.160  1.00 35.49     0.666 C 
ATOM      7  NH1 ARG D 557     -28.053  -2.843 -16.569  1.00 35.49    -0.235 N 
ATOM      8  NH2 ARG D 557     -29.887  -2.965 -17.903  1.00 35.49    -0.235 N 
ATOM      9  HH  ARG D 557     -27.512  -2.401 -16.074  1.00 35.49     0.174 HD
ATOM     10  HH  ARG D 557     -27.935  -3.683 -16.690  1.00 35.49     0.174 HD
ATOM     11  HH  ARG D 557     -30.547  -2.565 -18.266  1.00 35.49     0.174 HD
ATOM     12  HH  ARG D 557     -29.754  -3.796 -18.010  1.00 35.49     0.174 HD
ATOM     13  HE  ARG D 557     -29.980  -0.679 -17.499  1.00 35.49     0.178 HD
ENDBRANCH   4   5
ENDBRANCH   3   4
ENDBRANCH   2   3
ENDBRANCH   1   2
END_RES ARG D 557
BEGIN_RES GLU D 570
REMARK  3 active torsions:
REMARK  status: ('A' for Active; 'I' for Inactive)
REMARK    5  A    between atoms: CA   and  CB  
REMARK    6  A    between atoms: CB   and  CG  
REMARK    7  A    between atoms: CG   and  CD  
ROOT
ATOM     14  CA  GLU D 570     -18.033  -6.348 -13.375  1.00 32.92     0.160 C 
ENDROOT
BRANCH  14  15
ATOM     15  CB  GLU D 570     -19.500  -6.345 -13.794  1.00 32.92     0.043 C 
BRANCH  15  16
ATOM     16  CG  GLU D 570     -19.815  -5.910 -15.179  1.00 32.92     0.100 C 
BRANCH  16  17
ATOM     17  CD  GLU D 570     -21.055  -6.570 -15.737  1.00 32.92     0.185 C 
ATOM     18  OE1 GLU D 570     -21.867  -5.882 -16.385  1.00 32.92    -0.647 OA
ATOM     19  OE2 GLU D 570     -21.224  -7.784 -15.508  1.00 32.92    -0.647 OA
ENDBRANCH  16  17
ENDBRANCH  15  16
ENDBRANCH  14  15
END_RES GLU D 570
ENDMDL
MODEL 2
REMARK VINA RESULT:      -9.3      9.483     13.238
REMARK  6 active torsions:
REMARK  status: ('A' for Active; 'I' for Inactive)
REMARK    1  A    between atoms: C_4  and  S_26 
REMARK    2  A    between atoms: C_5  and  N_8 
REMARK    3  A    between atoms: N_10  and  C_12 
REMARK    4  A    between atoms: C_14  and  C_22 
REMARK    5  A    between atoms: C_22  and  O_24 
REMARK    6  A    between atoms: S_26  and  O_27 
ROOT
HETATM    1  N   UNL     1     -17.972  -9.570  -3.498  1.00  0.00    -0.299 N 
ATOM      2  HN  UNL     1     -17.572  -8.632  -3.536  1.00  0.00     0.187 HD
HETATM    3  N   UNL     1     -19.199  -9.782  -3.654  1.00  0.00    -0.296 N 
ATOM      4  HN  UNL     1     -19.627 -10.708  -3.638  1.00  0.00     0.187 HD
ENDROOT
BRANCH   3   5
HETATM    5  C   UNL     1     -19.924  -8.560  -3.857  1.00  0.00     0.110 C 
HETATM    6  C   UNL     1     -19.830  -7.921  -5.134  1.00  0.00     0.217 C 
HETATM    7  C   UNL     1     -20.771  -6.858  -5.324  1.00  0.00     0.090 C 
HETATM    8  O   UNL     1     -18.954  -8.281  -6.005  1.00  0.00    -0.285 OA
HETATM    9  C   UNL     1     -21.629  -6.414  -4.306  1.00  0.00     0.034 C 
HETATM   10  C   UNL     1     -21.565  -6.951  -3.020  1.00  0.00    -0.022 A 
HETATM   11  C   UNL     1     -22.409  -6.456  -2.008  1.00  0.00     0.012 A 
HETATM   12  C   UNL     1     -20.659  -7.991  -2.761  1.00  0.00     0.006 A 
HETATM   13  C   UNL     1     -22.317  -6.932  -0.703  1.00  0.00     0.001 A 
HETATM   14  C   UNL     1     -21.352  -7.875  -0.395  1.00  0.00     0.001 A 
HETATM   15  C   UNL     1     -20.539  -8.393  -1.408  1.00  0.00     0.015 A 
BRANCH   7  16
HETATM   16  C   UNL     1     -20.960  -6.109  -6.635  1.00  0.00     0.180 C 
HETATM   17  O   UNL     1     -21.943  -5.425  -6.890  1.00  0.00    -0.646 OA
BRANCH  16  18
HETATM   18  O   UNL     1     -19.953  -6.295  -7.510  1.00  0.00    -0.773 OA
HETATM   19  H   UNL     1     -19.567  -5.401  -7.732  1.00  0.00     0.167 HD
ENDBRANCH  16  18
ENDBRANCH   7  16
ENDBRANCH   3   5
BRANCH   1  20
HETATM   20  C   UNL     1     -17.179 -10.723  -3.264  1.00  0.00     0.072 A 
HETATM   21  C   UNL     1     -16.253 -11.269  -4.174  1.00  0.00     0.117 A 
HETATM   22  C   UNL     1     -15.405 -12.331  -3.833  1.00  0.00     0.035 A 
HETATM   23  C   UNL     1     -15.515 -12.957  -2.595  1.00  0.00    -0.060 A 
HETATM   24  C   UNL     1     -14.644 -14.140  -2.281  1.00  0.00     0.048 C 
HETATM   25  C   UNL     1     -16.460 -12.469  -1.686  1.00  0.00     0.009 A 
HETATM   26  C   UNL     1     -17.264 -11.357  -2.012  1.00  0.00     0.033 A 
BRANCH  21  27
HETATM   27  S   UNL     1     -16.424 -10.922  -5.926  1.00  0.00     0.327 S 
HETATM   28  O   UNL     1     -16.119  -9.523  -6.053  1.00  0.00    -0.191 OA
HETATM   29  O   UNL     1     -15.533 -11.863  -6.587  1.00  0.00    -0.191 OA
BRANCH  27  30
HETATM   30  O   UNL     1     -17.863 -11.280  -6.049  1.00  0.00    -0.086 OA
HETATM   31 CA   UNL     2     -19.684 -10.482  -6.791  1.00  0.00     0.000 Ca
ENDBRANCH  27  30
ENDBRANCH  21  27
ENDBRANCH   1  20
TORSDOF 6
BEGIN_RES ARG D 557
REMARK  4 active torsions:
REMARK  status: ('A' for Active; 'I' for Inactive)
REMARK    1  A    between atoms: CA   and  CB  
REMARK    2  A    between atoms: CB   and  CG  
REMARK    3  A    between atoms: CG   and  CD  
REMARK    4  A    between atoms: CD   and  NE  
REMARK       I    between atoms: NE   and  CZ  
REMARK       I    between atoms: CZ   and  NH1 
REMARK       I    between atoms: CZ   and  NH2 
ROOT
ATOM      1  CA  ARG D 557     -26.217   2.705 -17.014  1.00 35.49     0.159 C 
ENDROOT
BRANCH   1   2
ATOM      2  CB  ARG D 557     -26.789   1.319 -17.183  1.00 35.49     0.034 C 
BRANCH   2   3
ATOM      3  CG  ARG D 557     -25.836   0.203 -17.154  1.00 35.49     0.027 C 
BRANCH   3   4
ATOM      4  CD  ARG D 557     -24.753   0.411 -16.166  1.00 35.49     0.116 C 
BRANCH   4   5
ATOM      5  NE  ARG D 557     -24.900  -0.438 -15.013  1.00 35.49    -0.212 N 
ATOM      6  CZ  ARG D 557     -24.087  -1.411 -14.668  1.00 35.49     0.666 C 
ATOM      7  NH1 ARG D 557     -23.021  -1.731 -15.378  1.00 35.49    -0.235 N 
ATOM      8  NH2 ARG D 557     -24.364  -2.065 -13.577  1.00 35.49    -0.235 N 
ATOM      9  HH  ARG D 557     -22.819  -1.313 -16.098  1.00 35.49     0.174 HD
ATOM     10  HH  ARG D 557     -22.526  -2.374 -15.102  1.00 35.49     0.174 HD
ATOM     11  HH  ARG D 557     -25.055  -1.832 -13.135  1.00 35.49     0.174 HD
ATOM     12  HH  ARG D 557     -23.861  -2.697 -13.320  1.00 35.49     0.174 HD
ATOM     13  HE  ARG D 557     -25.600  -0.349 -14.539  1.00 35.49     0.178 HD
ENDBRANCH   4   5
ENDBRANCH   3   4
ENDBRANCH   2   3
ENDBRANCH   1   2
END_RES ARG D 557
BEGIN_RES GLU D 570
REMARK  3 active torsions:
REMARK  status: ('A' for Active; 'I' for Inactive)
REMARK    5  A    between atoms: CA   and  CB  
REMARK    6  A    between atoms: CB   and  CG  
REMARK    7  A    between atoms: CG   and  CD  
ROOT
ATOM     14  CA  GLU D 570     -18.033  -6.348 -13.375  1.00 32.92     0.160 C 
ENDROOT
BRANCH  14  15
ATOM     15  CB  GLU D 570     -19.500  -6.345 -13.794  1.00 32.92     0.043 C 
BRANCH  15  16
ATOM     16  CG  GLU D 570     -20.443  -5.535 -12.980  1.00 32.92     0.100 C 
BRANCH  16  17
ATOM     17  CD  GLU D 570     -21.739  -5.241 -13.698  1.00 32.92     0.185 C 
ATOM     18  OE1 GLU D 570     -22.211  -6.097 -14.471  1.00 32.92    -0.647 OA
ATOM     19  OE2 GLU D 570     -22.280  -4.135 -13.498  1.00 32.92    -0.647 OA
ENDBRANCH  16  17
ENDBRANCH  15  16
ENDBRANCH  14  15
END_RES GLU D 570
ENDMDL
MODEL 3
REMARK VINA RESULT:      -9.0      9.380     13.082
REMARK  6 active torsions:
REMARK  status: ('A' for Active; 'I' for Inactive)
REMARK    1  A    between atoms: C_4  and  S_26 
REMARK    2  A    between atoms: C_5  and  N_8 
REMARK    3  A    between atoms: N_10  and  C_12 
REMARK    4  A    between atoms: C_14  and  C_22 
REMARK    5  A    between atoms: C_22  and  O_24 
REMARK    6  A    between atoms: S_26  and  O_27 
ROOT
HETATM    1  N   UNL     1     -17.879  -9.426  -3.479  1.00  0.00    -0.299 N 
ATOM      2  HN  UNL     1     -17.520  -8.472  -3.507  1.00  0.00     0.187 HD
HETATM    3  N   UNL     1     -19.092  -9.692  -3.656  1.00  0.00    -0.296 N 
ATOM      4  HN  UNL     1     -19.480 -10.635  -3.650  1.00  0.00     0.187 HD
ENDROOT
BRANCH   3   5
HETATM    5  C   UNL     1     -19.867  -8.502  -3.866  1.00  0.00     0.110 C 
HETATM    6  C   UNL     1     -19.800  -7.868  -5.146  1.00  0.00     0.217 C 
HETATM    7  C   UNL     1     -20.785  -6.846  -5.343  1.00  0.00     0.090 C 
HETATM    8  O   UNL     1     -18.911  -8.196  -6.016  1.00  0.00    -0.285 OA
HETATM    9  C   UNL     1     -21.660  -6.431  -4.327  1.00  0.00     0.034 C 
HETATM   10  C   UNL     1     -21.572  -6.956  -3.037  1.00  0.00    -0.022 A 
HETATM   11  C   UNL     1     -22.436  -6.490  -2.028  1.00  0.00     0.012 A 
HETATM   12  C   UNL     1     -20.625  -7.957  -2.773  1.00  0.00     0.006 A 
HETATM   13  C   UNL     1     -22.324  -6.955  -0.720  1.00  0.00     0.001 A 
HETATM   14  C   UNL     1     -21.321  -7.855  -0.407  1.00  0.00     0.001 A 
HETATM   15  C   UNL     1     -20.488  -8.345  -1.418  1.00  0.00     0.015 A 
BRANCH   7  16
HETATM   16  C   UNL     1     -21.005  -6.113  -6.658  1.00  0.00     0.180 C 
HETATM   17  O   UNL     1     -21.997  -5.438  -6.901  1.00  0.00    -0.646 OA
BRANCH  16  18
HETATM   18  O   UNL     1     -20.014  -6.303  -7.551  1.00  0.00    -0.773 OA
HETATM   19  H   UNL     1     -20.276  -5.852  -8.403  1.00  0.00     0.167 HD
ENDBRANCH  16  18
ENDBRANCH   7  16
ENDBRANCH   3   5
BRANCH   1  20
HETATM   20  C   UNL     1     -17.040 -10.545  -3.237  1.00  0.00     0.072 A 
HETATM   21  C   UNL     1     -16.120 -11.083  -4.158  1.00  0.00     0.117 A 
HETATM   22  C   UNL     1     -15.225 -12.105  -3.813  1.00  0.00     0.035 A 
HETATM   23  C   UNL     1     -15.280 -12.700  -2.556  1.00  0.00    -0.060 A 
HETATM   24  C   UNL     1     -14.360 -13.843  -2.235  1.00  0.00     0.048 C 
HETATM   25  C   UNL     1     -16.217 -12.220  -1.634  1.00  0.00     0.009 A 
HETATM   26  C   UNL     1     -17.068 -11.146  -1.967  1.00  0.00     0.033 A 
BRANCH  21  27
HETATM   27  S   UNL     1     -16.350 -10.791  -5.913  1.00  0.00     0.327 S 
HETATM   28  O   UNL     1     -16.070  -9.392  -6.090  1.00  0.00    -0.191 OA
HETATM   29  O   UNL     1     -15.466 -11.739  -6.574  1.00  0.00    -0.191 OA
BRANCH  27  30
HETATM   30  O   UNL     1     -17.787 -11.171  -5.980  1.00  0.00    -0.086 OA
HETATM   31 CA   UNL     2     -19.631 -10.450  -6.742  1.00  0.00     0.000 Ca
ENDBRANCH  27  30
ENDBRANCH  21  27
ENDBRANCH   1  20
TORSDOF 6
BEGIN_RES ARG D 557
REMARK  4 active torsions:
REMARK  status: ('A' for Active; 'I' for Inactive)
REMARK    1  A    between atoms: CA   and  CB  
REMARK    2  A    between atoms: CB   and  CG  
REMARK    3  A    between atoms: CG   and  CD  
REMARK    4  A    between atoms: CD   and  NE  
REMARK       I    between atoms: NE   and  CZ  
REMARK       I    between atoms: CZ   and  NH1 
REMARK       I    between atoms: CZ   and  NH2 
ROOT
ATOM      1  CA  ARG D 557     -26.217   2.705 -17.014  1.00 35.49     0.159 C 
ENDROOT
BRANCH   1   2
ATOM      2  CB  ARG D 557     -26.789   1.319 -17.183  1.00 35.49     0.034 C 
BRANCH   2   3
ATOM      3  CG  ARG D 557     -28.154   1.103 -16.689  1.00 35.49     0.027 C 
BRANCH   3   4
ATOM      4  CD  ARG D 557     -28.787  -0.096 -17.285  1.00 35.49     0.116 C 
BRANCH   4   5
ATOM      5  NE  ARG D 557     -28.169  -1.315 -16.836  1.00 35.49    -0.212 N 
ATOM      6  CZ  ARG D 557     -28.641  -2.528 -17.019  1.00 35.49     0.666 C 
ATOM      7  NH1 ARG D 557     -29.781  -2.759 -17.644  1.00 35.49    -0.235 N 
ATOM      8  NH2 ARG D 557     -27.936  -3.522 -16.562  1.00 35.49    -0.235 N 
ATOM      9  HH  ARG D 557     -30.260  -2.120 -17.955  1.00 35.49     0.174 HD
ATOM     10  HH  ARG D 557     -30.037  -3.571 -17.736  1.00 35.49     0.174 HD
ATOM     11  HH  ARG D 557     -27.200  -3.343 -16.169  1.00 35.49     0.174 HD
ATOM     12  HH  ARG D 557     -28.206  -4.319 -16.664  1.00 35.49     0.174 HD
ATOM     13  HE  ARG D 557     -27.467  -1.255 -16.361  1.00 35.49     0.178 HD
ENDBRANCH   4   5
ENDBRANCH   3   4
ENDBRANCH   2   3
ENDBRANCH   1   2
END_RES ARG D 557
BEGIN_RES GLU D 570
REMARK  3 active torsions:
REMARK  status: ('A' for Active; 'I' for Inactive)
REMARK    5  A    between atoms: CA   and  CB  
REMARK    6  A    between atoms: CB   and  CG  
REMARK    7  A    between atoms: CG   and  CD  
ROOT
ATOM     14  CA  GLU D 570     -18.033  -6.348 -13.375  1.00 32.92     0.160 C 
ENDROOT
BRANCH  14  15
ATOM     15  CB  GLU D 570     -19.500  -6.345 -13.794  1.00 32.92     0.043 C 
BRANCH  15  16
ATOM     16  CG  GLU D 570     -20.450  -5.568 -12.956  1.00 32.92     0.100 C 
BRANCH  16  17
ATOM     17  CD  GLU D 570     -21.701  -5.166 -13.702  1.00 32.92     0.185 C 
ATOM     18  OE1 GLU D 570     -22.675  -4.731 -13.059  1.00 32.92    -0.647 OA
ATOM     19  OE2 GLU D 570     -21.712  -5.303 -14.941  1.00 32.92    -0.647 OA
ENDBRANCH  16  17
ENDBRANCH  15  16
ENDBRANCH  14  15
END_RES GLU D 570
ENDMDL
MODEL 4
REMARK VINA RESULT:      -8.6      1.901      3.006
REMARK  6 active torsions:
REMARK  status: ('A' for Active; 'I' for Inactive)
REMARK    1  A    between atoms: C_4  and  S_26 
REMARK    2  A    between atoms: C_5  and  N_8 
REMARK    3  A    between atoms: N_10  and  C_12 
REMARK    4  A    between atoms: C_14  and  C_22 
REMARK    5  A    between atoms: C_22  and  O_24 
REMARK    6  A    between atoms: S_26  and  O_27 
ROOT
HETATM    1  N   UNL     1     -24.770  -4.988 -15.260  1.00  0.00    -0.299 N 
ATOM      2  HN  UNL     1     -24.877  -4.274 -15.981  1.00  0.00     0.187 HD
HETATM    3  N   UNL     1     -25.189  -6.160 -15.410  1.00  0.00    -0.296 N 
ATOM      4  HN  UNL     1     -25.083  -6.901 -14.716  1.00  0.00     0.187 HD
ENDROOT
BRANCH   3   5
HETATM    5  C   UNL     1     -25.838  -6.330 -16.678  1.00  0.00     0.110 C 
HETATM    6  C   UNL     1     -25.022  -6.540 -17.834  1.00  0.00     0.217 C 
HETATM    7  C   UNL     1     -25.752  -6.943 -18.999  1.00  0.00     0.090 C 
HETATM    8  O   UNL     1     -23.749  -6.355 -17.803  1.00  0.00    -0.285 OA
HETATM    9  C   UNL     1     -27.153  -7.016 -19.028  1.00  0.00     0.034 C 
HETATM   10  C   UNL     1     -27.920  -6.633 -17.927  1.00  0.00    -0.022 A 
HETATM   11  C   UNL     1     -29.325  -6.676 -18.000  1.00  0.00     0.012 A 
HETATM   12  C   UNL     1     -27.269  -6.220 -16.755  1.00  0.00     0.006 A 
HETATM   13  C   UNL     1     -30.111  -6.239 -16.936  1.00  0.00     0.001 A 
HETATM   14  C   UNL     1     -29.495  -5.716 -15.812  1.00  0.00     0.001 A 
HETATM   15  C   UNL     1     -28.099  -5.709 -15.727  1.00  0.00     0.015 A 
BRANCH   7  16
HETATM   16  C   UNL     1     -25.105  -7.349 -20.314  1.00  0.00     0.180 C 
HETATM   17  O   UNL     1     -25.579  -7.089 -21.413  1.00  0.00    -0.646 OA
BRANCH  16  18
HETATM   18  O   UNL     1     -23.968  -8.056 -20.160  1.00  0.00    -0.773 OA
HETATM   19  H   UNL     1     -24.115  -8.966 -20.543  1.00  0.00     0.167 HD
ENDBRANCH  16  18
ENDBRANCH   7  16
ENDBRANCH   3   5
BRANCH   1  20
HETATM   20  C   UNL     1     -24.135  -4.722 -14.019  1.00  0.00     0.072 A 
HETATM   21  C   UNL     1     -23.906  -3.440 -13.483  1.00  0.00     0.117 A 
HETATM   22  C   UNL     1     -23.394  -3.248 -12.192  1.00  0.00     0.035 A 
HETATM   23  C   UNL     1     -22.999  -4.335 -11.417  1.00  0.00    -0.060 A 
HETATM   24  C   UNL     1     -22.386  -4.100 -10.066  1.00  0.00     0.048 C 
HETATM   25  C   UNL     1     -23.170  -5.621 -11.942  1.00  0.00     0.009 A 
HETATM   26  C   UNL     1     -23.747  -5.808 -13.214  1.00  0.00     0.033 A 
BRANCH  21  27
HETATM   27  S   UNL     1     -23.845  -2.021 -14.578  1.00  0.00     0.327 S 
HETATM   28  O   UNL     1     -25.148  -1.970 -15.184  1.00  0.00    -0.191 OA
HETATM   29  O   UNL     1     -23.458  -0.904 -13.730  1.00  0.00    -0.191 OA
BRANCH  27  30
HETATM   30  O   UNL     1     -22.747  -2.508 -15.457  1.00  0.00    -0.086 OA
HETATM   31 CA   UNL     2     -21.195  -3.954 -15.479  1.00  0.00     0.000 Ca
ENDBRANCH  27  30
ENDBRANCH  21  27
ENDBRANCH   1  20
TORSDOF 6
BEGIN_RES ARG D 557
REMARK  4 active torsions:
REMARK  status: ('A' for Active; 'I' for Inactive)
REMARK    1  A    between atoms: CA   and  CB  
REMARK    2  A    between atoms: CB   and  CG  
REMARK    3  A    between atoms: CG   and  CD  
REMARK    4  A    between atoms: CD   and  NE  
REMARK       I    between atoms: NE   and  CZ  
REMARK       I    between atoms: CZ   and  NH1 
REMARK       I    between atoms: CZ   and  NH2 
ROOT
ATOM      1  CA  ARG D 557     -26.217   2.705 -17.014  1.00 35.49     0.159 C 
ENDROOT
BRANCH   1   2
ATOM      2  CB  ARG D 557     -26.789   1.319 -17.183  1.00 35.49     0.034 C 
BRANCH   2   3
ATOM      3  CG  ARG D 557     -28.239   1.223 -17.390  1.00 35.49     0.027 C 
BRANCH   3   4
ATOM      4  CD  ARG D 557     -28.876   0.249 -16.475  1.00 35.49     0.116 C 
BRANCH   4   5
ATOM      5  NE  ARG D 557     -29.320  -0.933 -17.165  1.00 35.49    -0.212 N 
ATOM      6  CZ  ARG D 557     -28.741  -2.112 -17.120  1.00 35.49     0.666 C 
ATOM      7  NH1 ARG D 557     -27.644  -2.337 -16.421  1.00 35.49    -0.235 N 
ATOM      8  NH2 ARG D 557     -29.294  -3.079 -17.793  1.00 35.49    -0.235 N 
ATOM      9  HH  ARG D 557     -27.264  -1.716 -15.968  1.00 35.49     0.174 HD
ATOM     10  HH  ARG D 557     -27.313  -3.127 -16.426  1.00 35.49     0.174 HD
ATOM     11  HH  ARG D 557     -30.006  -2.906 -18.229  1.00 35.49     0.174 HD
ATOM     12  HH  ARG D 557     -28.952  -3.855 -17.785  1.00 35.49     0.174 HD
ATOM     13  HE  ARG D 557     -29.980  -0.861 -17.697  1.00 35.49     0.178 HD
ENDBRANCH   4   5
ENDBRANCH   3   4
ENDBRANCH   2   3
ENDBRANCH   1   2
END_RES ARG D 557
BEGIN_RES GLU D 570
REMARK  3 active torsions:
REMARK  status: ('A' for Active; 'I' for Inactive)
REMARK    5  A    between atoms: CA   and  CB  
REMARK    6  A    between atoms: CB   and  CG  
REMARK    7  A    between atoms: CG   and  CD  
ROOT
ATOM     14  CA  GLU D 570     -18.033  -6.348 -13.375  1.00 32.92     0.160 C 
ENDROOT
BRANCH  14  15
ATOM     15  CB  GLU D 570     -19.500  -6.345 -13.794  1.00 32.92     0.043 C 
BRANCH  15  16
ATOM     16  CG  GLU D 570     -20.095  -7.640 -14.213  1.00 32.92     0.100 C 
BRANCH  16  17
ATOM     17  CD  GLU D 570     -20.939  -7.525 -15.461  1.00 32.92     0.185 C 
ATOM     18  OE1 GLU D 570     -21.199  -8.555 -16.113  1.00 32.92    -0.647 OA
ATOM     19  OE2 GLU D 570     -21.331  -6.391 -15.799  1.00 32.92    -0.647 OA
ENDBRANCH  16  17
ENDBRANCH  15  16
ENDBRANCH  14  15
END_RES GLU D 570
ENDMDL
MODEL 5
REMARK VINA RESULT:      -8.5      9.026     12.827
REMARK  6 active torsions:
REMARK  status: ('A' for Active; 'I' for Inactive)
REMARK    1  A    between atoms: C_4  and  S_26 
REMARK    2  A    between atoms: C_5  and  N_8 
REMARK    3  A    between atoms: N_10  and  C_12 
REMARK    4  A    between atoms: C_14  and  C_22 
REMARK    5  A    between atoms: C_22  and  O_24 
REMARK    6  A    between atoms: S_26  and  O_27 
ROOT
HETATM    1  N   UNL     1     -21.142 -10.506  -5.311  1.00  0.00    -0.299 N 
ATOM      2  HN  UNL     1     -21.533  -9.787  -5.920  1.00  0.00     0.187 HD
HETATM    3  N   UNL     1     -20.744 -10.255  -4.148  1.00  0.00    -0.296 N 
ATOM      4  HN  UNL     1     -20.364 -10.953  -3.508  1.00  0.00     0.187 HD
ENDROOT
BRANCH   3   5
HETATM    5  C   UNL     1     -20.889  -8.863  -3.830  1.00  0.00     0.110 C 
HETATM    6  C   UNL     1     -20.505  -7.899  -4.815  1.00  0.00     0.217 C 
HETATM    7  C   UNL     1     -20.913  -6.560  -4.511  1.00  0.00     0.090 C 
HETATM    8  O   UNL     1     -19.837  -8.235  -5.862  1.00  0.00    -0.285 OA
HETATM    9  C   UNL     1     -21.534  -6.213  -3.301  1.00  0.00     0.034 C 
HETATM   10  C   UNL     1     -21.731  -7.157  -2.292  1.00  0.00    -0.022 A 
HETATM   11  C   UNL     1     -22.318  -6.770  -1.073  1.00  0.00     0.012 A 
HETATM   12  C   UNL     1     -21.348  -8.487  -2.521  1.00  0.00     0.006 A 
HETATM   13  C   UNL     1     -22.467  -7.680  -0.030  1.00  0.00     0.001 A 
HETATM   14  C   UNL     1     -21.990  -8.970  -0.186  1.00  0.00     0.001 A 
HETATM   15  C   UNL     1     -21.441  -9.363  -1.411  1.00  0.00     0.015 A 
BRANCH   7  16
HETATM   16  C   UNL     1     -20.739  -5.379  -5.454  1.00  0.00     0.180 C 
HETATM   17  O   UNL     1     -20.064  -4.392  -5.189  1.00  0.00    -0.646 OA
BRANCH  16  18
HETATM   18  O   UNL     1     -21.428  -5.504  -6.605  1.00  0.00    -0.773 OA
HETATM   19  H   UNL     1     -22.316  -5.064  -6.484  1.00  0.00     0.167 HD
ENDBRANCH  16  18
ENDBRANCH   7  16
ENDBRANCH   3   5
BRANCH   1  20
HETATM   20  C   UNL     1     -21.012 -11.858  -5.720  1.00  0.00     0.072 A 
HETATM   21  C   UNL     1     -19.817 -12.603  -5.688  1.00  0.00     0.117 A 
HETATM   22  C   UNL     1     -19.781 -13.974  -5.980  1.00  0.00     0.035 A 
HETATM   23  C   UNL     1     -20.925 -14.637  -6.411  1.00  0.00    -0.060 A 
HETATM   24  C   UNL     1     -20.845 -16.089  -6.788  1.00  0.00     0.048 C 
HETATM   25  C   UNL     1     -22.119 -13.913  -6.499  1.00  0.00     0.009 A 
HETATM   26  C   UNL     1     -22.161 -12.550  -6.139  1.00  0.00     0.033 A 
BRANCH  21  27
HETATM   27  S   UNL     1     -18.240 -11.749  -5.702  1.00  0.00     0.327 S 
HETATM   28  O   UNL     1     -18.112 -11.196  -4.382  1.00  0.00    -0.191 OA
HETATM   29  O   UNL     1     -17.268 -12.754  -6.104  1.00  0.00    -0.191 OA
BRANCH  27  30
HETATM   30  O   UNL     1     -18.564 -10.773  -6.778  1.00  0.00    -0.086 OA
HETATM   31 CA   UNL     2     -18.161  -8.765  -7.336  1.00  0.00     0.000 Ca
ENDBRANCH  27  30
ENDBRANCH  21  27
ENDBRANCH   1  20
TORSDOF 6
BEGIN_RES ARG D 557
REMARK  4 active torsions:
REMARK  status: ('A' for Active; 'I' for Inactive)
REMARK    1  A    between atoms: CA   and  CB  
REMARK    2  A    between atoms: CB   and  CG  
REMARK    3  A    between atoms: CG   and  CD  
REMARK    4  A    between atoms: CD   and  NE  
REMARK       I    between atoms: NE   and  CZ  
REMARK       I    between atoms: CZ   and  NH1 
REMARK       I    between atoms: CZ   and  NH2 
ROOT
ATOM      1  CA  ARG D 557     -26.217   2.705 -17.014  1.00 35.49     0.159 C 
ENDROOT
BRANCH   1   2
ATOM      2  CB  ARG D 557     -26.789   1.319 -17.183  1.00 35.49     0.034 C 
BRANCH   2   3
ATOM      3  CG  ARG D 557     -25.839   0.201 -17.133  1.00 35.49     0.027 C 
BRANCH   3   4
ATOM      4  CD  ARG D 557     -24.757   0.424 -16.146  1.00 35.49     0.116 C 
BRANCH   4   5
ATOM      5  NE  ARG D 557     -24.876  -0.448 -15.007  1.00 35.49    -0.212 N 
ATOM      6  CZ  ARG D 557     -24.042  -1.413 -14.688  1.00 35.49     0.666 C 
ATOM      7  NH1 ARG D 557     -22.979  -1.701 -15.416  1.00 35.49    -0.235 N 
ATOM      8  NH2 ARG D 557     -24.294  -2.090 -13.606  1.00 35.49    -0.235 N 
ATOM      9  HH  ARG D 557     -22.793  -1.266 -16.131  1.00 35.49     0.174 HD
ATOM     10  HH  ARG D 557     -22.470  -2.339 -15.157  1.00 35.49     0.174 HD
ATOM     11  HH  ARG D 557     -24.984  -1.877 -13.152  1.00 35.49     0.174 HD
ATOM     12  HH  ARG D 557     -23.777  -2.718 -13.366  1.00 35.49     0.174 HD
ATOM     13  HE  ARG D 557     -25.571  -0.380 -14.523  1.00 35.49     0.178 HD
ENDBRANCH   4   5
ENDBRANCH   3   4
ENDBRANCH   2   3
ENDBRANCH   1   2
END_RES ARG D 557
BEGIN_RES GLU D 570
REMARK  3 active torsions:
REMARK  status: ('A' for Active; 'I' for Inactive)
REMARK    5  A    between atoms: CA   and  CB  
REMARK    6  A    between atoms: CB   and  CG  
REMARK    7  A    between atoms: CG   and  CD  
ROOT
ATOM     14  CA  GLU D 570     -18.033  -6.348 -13.375  1.00 32.92     0.160 C 
ENDROOT
BRANCH  14  15
ATOM     15  CB  GLU D 570     -19.500  -6.345 -13.794  1.00 32.92     0.043 C 
BRANCH  15  16
ATOM     16  CG  GLU D 570     -20.450  -5.569 -12.955  1.00 32.92     0.100 C 
BRANCH  16  17
ATOM     17  CD  GLU D 570     -21.637  -5.052 -13.734  1.00 32.92     0.185 C 
ATOM     18  OE1 GLU D 570     -22.631  -4.630 -13.113  1.00 32.92    -0.647 OA
ATOM     19  OE2 GLU D 570     -21.578  -5.084 -14.979  1.00 32.92    -0.647 OA
ENDBRANCH  16  17
ENDBRANCH  15  16
ENDBRANCH  14  15
END_RES GLU D 570
ENDMDL
MODEL 6
REMARK VINA RESULT:      -8.5      9.775     13.316
REMARK  6 active torsions:
REMARK  status: ('A' for Active; 'I' for Inactive)
REMARK    1  A    between atoms: C_4  and  S_26 
REMARK    2  A    between atoms: C_5  and  N_8 
REMARK    3  A    between atoms: N_10  and  C_12 
REMARK    4  A    between atoms: C_14  and  C_22 
REMARK    5  A    between atoms: C_22  and  O_24 
REMARK    6  A    between atoms: S_26  and  O_27 
ROOT
HETATM    1  N   UNL     1     -18.263 -10.784  -4.204  1.00  0.00    -0.299 N 
ATOM      2  HN  UNL     1     -19.138 -11.308  -4.169  1.00  0.00     0.187 HD
HETATM    3  N   UNL     1     -18.157  -9.625  -3.736  1.00  0.00    -0.296 N 
ATOM      4  HN  UNL     1     -17.294  -9.081  -3.740  1.00  0.00     0.187 HD
ENDROOT
BRANCH   3   5
HETATM    5  C   UNL     1     -19.401  -9.159  -3.194  1.00  0.00     0.110 C 
HETATM    6  C   UNL     1     -19.870  -9.743  -1.974  1.00  0.00     0.217 C 
HETATM    7  C   UNL     1     -20.977  -9.051  -1.385  1.00  0.00     0.090 C 
HETATM    8  O   UNL     1     -19.335 -10.806  -1.487  1.00  0.00    -0.285 OA
HETATM    9  C   UNL     1     -21.613  -7.966  -2.009  1.00  0.00     0.034 C 
HETATM   10  C   UNL     1     -21.234  -7.540  -3.283  1.00  0.00    -0.022 A 
HETATM   11  C   UNL     1     -21.917  -6.477  -3.901  1.00  0.00     0.012 A 
HETATM   12  C   UNL     1     -20.160  -8.179  -3.921  1.00  0.00     0.006 A 
HETATM   13  C   UNL     1     -21.598  -6.077  -5.195  1.00  0.00     0.001 A 
HETATM   14  C   UNL     1     -20.622  -6.767  -5.894  1.00  0.00     0.001 A 
HETATM   15  C   UNL     1     -19.918  -7.799  -5.265  1.00  0.00     0.015 A 
BRANCH   7  16
HETATM   16  C   UNL     1     -21.574  -9.394  -0.028  1.00  0.00     0.180 C 
HETATM   17  O   UNL     1     -22.731  -9.145   0.287  1.00  0.00    -0.646 OA
BRANCH  16  18
HETATM   18  O   UNL     1     -20.697  -9.974   0.814  1.00  0.00    -0.773 OA
HETATM   19  H   UNL     1     -20.409 -10.841   0.413  1.00  0.00     0.167 HD
ENDBRANCH  16  18
ENDBRANCH   7  16
ENDBRANCH   3   5
BRANCH   1  20
HETATM   20  C   UNL     1     -17.084 -11.316  -4.786  1.00  0.00     0.072 A 
HETATM   21  C   UNL     1     -16.978 -11.808  -6.101  1.00  0.00     0.117 A 
HETATM   22  C   UNL     1     -15.753 -12.197  -6.660  1.00  0.00     0.035 A 
HETATM   23  C   UNL     1     -14.593 -12.201  -5.892  1.00  0.00    -0.060 A 
HETATM   24  C   UNL     1     -13.306 -12.691  -6.492  1.00  0.00     0.048 C 
HETATM   25  C   UNL     1     -14.674 -11.763  -4.565  1.00  0.00     0.009 A 
HETATM   26  C   UNL     1     -15.898 -11.310  -4.031  1.00  0.00     0.033 A 
BRANCH  21  27
HETATM   27  S   UNL     1     -18.452 -12.365  -6.959  1.00  0.00     0.327 S 
HETATM   28  O   UNL     1     -17.979 -12.830  -8.234  1.00  0.00    -0.191 OA
HETATM   29  O   UNL     1     -19.059 -13.346  -6.072  1.00  0.00    -0.191 OA
BRANCH  27  30
HETATM   30  O   UNL     1     -19.165 -11.059  -6.976  1.00  0.00    -0.086 OA
HETATM   31 CA   UNL     2     -21.121 -10.265  -6.761  1.00  0.00     0.000 Ca
ENDBRANCH  27  30
ENDBRANCH  21  27
ENDBRANCH   1  20
TORSDOF 6
BEGIN_RES ARG D 557
REMARK  4 active torsions:
REMARK  status: ('A' for Active; 'I' for Inactive)
REMARK    1  A    between atoms: CA   and  CB  
REMARK    2  A    between atoms: CB   and  CG  
REMARK    3  A    between atoms: CG   and  CD  
REMARK    4  A    between atoms: CD   and  NE  
REMARK       I    between atoms: NE   and  CZ  
REMARK       I    between atoms: CZ   and  NH1 
REMARK       I    between atoms: CZ   and  NH2 
ROOT
ATOM      1  CA  ARG D 557     -26.217   2.705 -17.014  1.00 35.49     0.159 C 
ENDROOT
BRANCH   1   2
ATOM      2  CB  ARG D 557     -26.789   1.319 -17.183  1.00 35.49     0.034 C 
BRANCH   2   3
ATOM      3  CG  ARG D 557     -25.865   0.195 -16.991  1.00 35.49     0.027 C 
BRANCH   3   4
ATOM      4  CD  ARG D 557     -26.289  -0.703 -15.892  1.00 35.49     0.116 C 
BRANCH   4   5
ATOM      5  NE  ARG D 557     -25.240  -0.917 -14.931  1.00 35.49    -0.212 N 
ATOM      6  CZ  ARG D 557     -24.950  -2.061 -14.352  1.00 35.49     0.666 C 
ATOM      7  NH1 ARG D 557     -25.627  -3.169 -14.592  1.00 35.49    -0.235 N 
ATOM      8  NH2 ARG D 557     -23.950  -2.076 -13.520  1.00 35.49    -0.235 N 
ATOM      9  HH  ARG D 557     -26.288  -3.182 -15.138  1.00 35.49     0.174 HD
ATOM     10  HH  ARG D 557     -25.391  -3.886 -14.187  1.00 35.49     0.174 HD
ATOM     11  HH  ARG D 557     -23.526  -1.347 -13.390  1.00 35.49     0.174 HD
ATOM     12  HH  ARG D 557     -23.730  -2.797 -13.130  1.00 35.49     0.174 HD
ATOM     13  HE  ARG D 557     -24.800  -0.241 -14.663  1.00 35.49     0.178 HD
ENDBRANCH   4   5
ENDBRANCH   3   4
ENDBRANCH   2   3
ENDBRANCH   1   2
END_RES ARG D 557
BEGIN_RES GLU D 570
REMARK  3 active torsions:
REMARK  status: ('A' for Active; 'I' for Inactive)
REMARK    5  A    between atoms: CA   and  CB  
REMARK    6  A    between atoms: CB   and  CG  
REMARK    7  A    between atoms: CG   and  CD  
ROOT
ATOM     14  CA  GLU D 570     -18.033  -6.348 -13.375  1.00 32.92     0.160 C 
ENDROOT
BRANCH  14  15
ATOM     15  CB  GLU D 570     -19.500  -6.345 -13.794  1.00 32.92     0.043 C 
BRANCH  15  16
ATOM     16  CG  GLU D 570     -20.448  -5.562 -12.960  1.00 32.92     0.100 C 
BRANCH  16  17
ATOM     17  CD  GLU D 570     -21.688  -5.142 -13.715  1.00 32.92     0.185 C 
ATOM     18  OE1 GLU D 570     -22.701  -4.802 -13.074  1.00 32.92    -0.647 OA
ATOM     19  OE2 GLU D 570     -21.651  -5.169 -14.961  1.00 32.92    -0.647 OA
ENDBRANCH  16  17
ENDBRANCH  15  16
ENDBRANCH  14  15
END_RES GLU D 570
ENDMDL
MODEL 7
REMARK VINA RESULT:      -8.5     11.884     15.175
REMARK  6 active torsions:
REMARK  status: ('A' for Active; 'I' for Inactive)
REMARK    1  A    between atoms: C_4  and  S_26 
REMARK    2  A    between atoms: C_5  and  N_8 
REMARK    3  A    between atoms: N_10  and  C_12 
REMARK    4  A    between atoms: C_14  and  C_22 
REMARK    5  A    between atoms: C_22  and  O_24 
REMARK    6  A    between atoms: S_26  and  O_27 
ROOT
HETATM    1  N   UNL     1     -18.257 -10.899  -2.036  1.00  0.00    -0.299 N 
ATOM      2  HN  UNL     1     -18.340 -11.086  -1.037  1.00  0.00     0.187 HD
HETATM    3  N   UNL     1     -19.210 -10.443  -2.714  1.00  0.00    -0.296 N 
ATOM      4  HN  UNL     1     -19.155 -10.229  -3.710  1.00  0.00     0.187 HD
ENDROOT
BRANCH   3   5
HETATM    5  C   UNL     1     -20.387 -10.260  -1.913  1.00  0.00     0.110 C 
HETATM    6  C   UNL     1     -20.942 -11.403  -1.254  1.00  0.00     0.217 C 
HETATM    7  C   UNL     1     -21.953 -11.086  -0.290  1.00  0.00     0.090 C 
HETATM    8  O   UNL     1     -20.558 -12.597  -1.538  1.00  0.00    -0.285 OA
HETATM    9  C   UNL     1     -22.432  -9.781  -0.094  1.00  0.00     0.034 C 
HETATM   10  C   UNL     1     -21.985  -8.720  -0.885  1.00  0.00    -0.022 A 
HETATM   11  C   UNL     1     -22.515  -7.431  -0.694  1.00  0.00     0.012 A 
HETATM   12  C   UNL     1     -21.000  -8.962  -1.854  1.00  0.00     0.006 A 
HETATM   13  C   UNL     1     -22.131  -6.372  -1.512  1.00  0.00     0.001 A 
HETATM   14  C   UNL     1     -21.249  -6.607  -2.552  1.00  0.00     0.001 A 
HETATM   15  C   UNL     1     -20.695  -7.881  -2.717  1.00  0.00     0.015 A 
BRANCH   7  16
HETATM   16  C   UNL     1     -22.604 -12.106   0.631  1.00  0.00     0.180 C 
HETATM   17  O   UNL     1     -23.815 -12.212   0.778  1.00  0.00    -0.646 OA
BRANCH  16  18
HETATM   18  O   UNL     1     -21.719 -12.868   1.302  1.00  0.00    -0.773 OA
HETATM   19  H   UNL     1     -21.267 -13.469   0.644  1.00  0.00     0.167 HD
ENDBRANCH  16  18
ENDBRANCH   7  16
ENDBRANCH   3   5
BRANCH   1  20
HETATM   20  C   UNL     1     -17.057 -11.135  -2.756  1.00  0.00     0.072 A 
HETATM   21  C   UNL     1     -16.082 -12.092  -2.414  1.00  0.00     0.117 A 
HETATM   22  C   UNL     1     -14.983 -12.369  -3.239  1.00  0.00     0.035 A 
HETATM   23  C   UNL     1     -14.762 -11.631  -4.398  1.00  0.00    -0.060 A 
HETATM   24  C   UNL     1     -13.539 -11.898  -5.227  1.00  0.00     0.048 C 
HETATM   25  C   UNL     1     -15.689 -10.639  -4.740  1.00  0.00     0.009 A 
HETATM   26  C   UNL     1     -16.827 -10.412  -3.939  1.00  0.00     0.033 A 
BRANCH  21  27
HETATM   27  S   UNL     1     -15.968 -12.674  -0.722  1.00  0.00     0.327 S 
HETATM   28  O   UNL     1     -14.906 -13.642  -0.739  1.00  0.00    -0.191 OA
HETATM   29  O   UNL     1     -15.769 -11.476   0.079  1.00  0.00    -0.191 OA
BRANCH  27  30
HETATM   30  O   UNL     1     -17.344 -13.233  -0.622  1.00  0.00    -0.086 OA
HETATM   31 CA   UNL     2     -19.134 -12.973   0.486  1.00  0.00     0.000 Ca
ENDBRANCH  27  30
ENDBRANCH  21  27
ENDBRANCH   1  20
TORSDOF 6
BEGIN_RES ARG D 557
REMARK  4 active torsions:
REMARK  status: ('A' for Active; 'I' for Inactive)
REMARK    1  A    between atoms: CA   and  CB  
REMARK    2  A    between atoms: CB   and  CG  
REMARK    3  A    between atoms: CG   and  CD  
REMARK    4  A    between atoms: CD   and  NE  
REMARK       I    between atoms: NE   and  CZ  
REMARK       I    between atoms: CZ   and  NH1 
REMARK       I    between atoms: CZ   and  NH2 
ROOT
ATOM      1  CA  ARG D 557     -26.217   2.705 -17.014  1.00 35.49     0.159 C 
ENDROOT
BRANCH   1   2
ATOM      2  CB  ARG D 557     -26.789   1.319 -17.183  1.00 35.49     0.034 C 
BRANCH   2   3
ATOM      3  CG  ARG D 557     -25.838   0.201 -17.133  1.00 35.49     0.027 C 
BRANCH   3   4
ATOM      4  CD  ARG D 557     -24.762   0.420 -16.140  1.00 35.49     0.116 C 
BRANCH   4   5
ATOM      5  NE  ARG D 557     -24.885  -0.457 -15.006  1.00 35.49    -0.212 N 
ATOM      6  CZ  ARG D 557     -24.052  -1.422 -14.686  1.00 35.49     0.666 C 
ATOM      7  NH1 ARG D 557     -22.984  -1.704 -15.409  1.00 35.49    -0.235 N 
ATOM      8  NH2 ARG D 557     -24.308  -2.105 -13.609  1.00 35.49    -0.235 N 
ATOM      9  HH  ARG D 557     -22.794  -1.266 -16.121  1.00 35.49     0.174 HD
ATOM     10  HH  ARG D 557     -22.474  -2.343 -15.151  1.00 35.49     0.174 HD
ATOM     11  HH  ARG D 557     -25.001  -1.895 -13.158  1.00 35.49     0.174 HD
ATOM     12  HH  ARG D 557     -23.791  -2.733 -13.369  1.00 35.49     0.174 HD
ATOM     13  HE  ARG D 557     -25.584  -0.393 -14.525  1.00 35.49     0.178 HD
ENDBRANCH   4   5
ENDBRANCH   3   4
ENDBRANCH   2   3
ENDBRANCH   1   2
END_RES ARG D 557
BEGIN_RES GLU D 570
REMARK  3 active torsions:
REMARK  status: ('A' for Active; 'I' for Inactive)
REMARK    5  A    between atoms: CA   and  CB  
REMARK    6  A    between atoms: CB   and  CG  
REMARK    7  A    between atoms: CG   and  CD  
ROOT
ATOM     14  CA  GLU D 570     -18.033  -6.348 -13.375  1.00 32.92     0.160 C 
ENDROOT
BRANCH  14  15
ATOM     15  CB  GLU D 570     -19.500  -6.345 -13.794  1.00 32.92     0.043 C 
BRANCH  15  16
ATOM     16  CG  GLU D 570     -20.452  -5.578 -12.949  1.00 32.92     0.100 C 
BRANCH  16  17
ATOM     17  CD  GLU D 570     -21.645  -5.067 -13.722  1.00 32.92     0.185 C 
ATOM     18  OE1 GLU D 570     -21.623  -5.107 -14.967  1.00 32.92    -0.647 OA
ATOM     19  OE2 GLU D 570     -22.606  -4.605 -13.075  1.00 32.92    -0.647 OA
ENDBRANCH  16  17
ENDBRANCH  15  16
ENDBRANCH  14  15
END_RES GLU D 570
ENDMDL
MODEL 8
REMARK VINA RESULT:      -8.4      9.672     13.254
REMARK  6 active torsions:
REMARK  status: ('A' for Active; 'I' for Inactive)
REMARK    1  A    between atoms: C_4  and  S_26 
REMARK    2  A    between atoms: C_5  and  N_8 
REMARK    3  A    between atoms: N_10  and  C_12 
REMARK    4  A    between atoms: C_14  and  C_22 
REMARK    5  A    between atoms: C_22  and  O_24 
REMARK    6  A    between atoms: S_26  and  O_27 
ROOT
HETATM    1  N   UNL     1     -18.373  -9.454  -4.761  1.00  0.00    -0.299 N 
ATOM      2  HN  UNL     1     -17.950  -8.528  -4.836  1.00  0.00     0.187 HD
HETATM    3  N   UNL     1     -19.576  -9.619  -4.445  1.00  0.00    -0.296 N 
ATOM      4  HN  UNL     1     -20.032 -10.529  -4.378  1.00  0.00     0.187 HD
ENDROOT
BRANCH   3   5
HETATM    5  C   UNL     1     -20.231  -8.367  -4.192  1.00  0.00     0.110 C 
HETATM    6  C   UNL     1     -20.293  -7.409  -5.252  1.00  0.00     0.217 C 
HETATM    7  C   UNL     1     -21.171  -6.307  -4.991  1.00  0.00     0.090 C 
HETATM    8  O   UNL     1     -19.597  -7.543  -6.325  1.00  0.00    -0.285 OA
HETATM    9  C   UNL     1     -21.820  -6.130  -3.759  1.00  0.00     0.034 C 
HETATM   10  C   UNL     1     -21.592  -6.998  -2.690  1.00  0.00    -0.022 A 
HETATM   11  C   UNL     1     -22.225  -6.772  -1.454  1.00  0.00     0.012 A 
HETATM   12  C   UNL     1     -20.738  -8.095  -2.875  1.00  0.00     0.006 A 
HETATM   13  C   UNL     1     -21.963  -7.587  -0.356  1.00  0.00     0.001 A 
HETATM   14  C   UNL     1     -21.034  -8.606  -0.478  1.00  0.00     0.001 A 
HETATM   15  C   UNL     1     -20.434  -8.853  -1.717  1.00  0.00     0.015 A 
BRANCH   7  16
HETATM   16  C   UNL     1     -21.509  -5.225  -6.005  1.00  0.00     0.180 C 
HETATM   17  O   UNL     1     -22.649  -4.970  -6.371  1.00  0.00    -0.646 OA
BRANCH  16  18
HETATM   18  O   UNL     1     -20.427  -4.589  -6.495  1.00  0.00    -0.773 OA
HETATM   19  H   UNL     1     -19.999  -4.085  -5.746  1.00  0.00     0.167 HD
ENDBRANCH  16  18
ENDBRANCH   7  16
ENDBRANCH   3   5
BRANCH   1  20
HETATM   20  C   UNL     1     -17.639 -10.644  -5.005  1.00  0.00     0.072 A 
HETATM   21  C   UNL     1     -17.013 -11.428  -4.017  1.00  0.00     0.117 A 
HETATM   22  C   UNL     1     -16.417 -12.663  -4.306  1.00  0.00     0.035 A 
HETATM   23  C   UNL     1     -16.338 -13.122  -5.618  1.00  0.00    -0.060 A 
HETATM   24  C   UNL     1     -15.630 -14.413  -5.912  1.00  0.00     0.048 C 
HETATM   25  C   UNL     1     -16.909 -12.341  -6.630  1.00  0.00     0.009 A 
HETATM   26  C   UNL     1     -17.565 -11.132  -6.321  1.00  0.00     0.033 A 
BRANCH  21  27
HETATM   27  S   UNL     1     -16.570 -10.685  -2.446  1.00  0.00     0.327 S 
HETATM   28  O   UNL     1     -15.600 -11.580  -1.878  1.00  0.00    -0.191 OA
HETATM   29  O   UNL     1     -16.127  -9.339  -2.774  1.00  0.00    -0.191 OA
BRANCH  27  30
HETATM   30  O   UNL     1     -17.924 -10.730  -1.828  1.00  0.00    -0.086 OA
HETATM   31 CA   UNL     2     -19.749 -11.802  -1.974  1.00  0.00     0.000 Ca
ENDBRANCH  27  30
ENDBRANCH  21  27
ENDBRANCH   1  20
TORSDOF 6
BEGIN_RES ARG D 557
REMARK  4 active torsions:
REMARK  status: ('A' for Active; 'I' for Inactive)
REMARK    1  A    between atoms: CA   and  CB  
REMARK    2  A    between atoms: CB   and  CG  
REMARK    3  A    between atoms: CG   and  CD  
REMARK    4  A    between atoms: CD   and  NE  
REMARK       I    between atoms: NE   and  CZ  
REMARK       I    between atoms: CZ   and  NH1 
REMARK       I    between atoms: CZ   and  NH2 
ROOT
ATOM      1  CA  ARG D 557     -26.217   2.705 -17.014  1.00 35.49     0.159 C 
ENDROOT
BRANCH   1   2
ATOM      2  CB  ARG D 557     -26.789   1.319 -17.183  1.00 35.49     0.034 C 
BRANCH   2   3
ATOM      3  CG  ARG D 557     -25.861   0.195 -17.006  1.00 35.49     0.027 C 
BRANCH   3   4
ATOM      4  CD  ARG D 557     -26.289  -0.725 -15.927  1.00 35.49     0.116 C 
BRANCH   4   5
ATOM      5  NE  ARG D 557     -25.254  -0.931 -14.948  1.00 35.49    -0.212 N 
ATOM      6  CZ  ARG D 557     -24.985  -2.066 -14.343  1.00 35.49     0.666 C 
ATOM      7  NH1 ARG D 557     -25.670  -3.171 -14.570  1.00 35.49    -0.235 N 
ATOM      8  NH2 ARG D 557     -23.995  -2.075 -13.498  1.00 35.49    -0.235 N 
ATOM      9  HH  ARG D 557     -26.324  -3.189 -15.124  1.00 35.49     0.174 HD
ATOM     10  HH  ARG D 557     -25.447  -3.883 -14.148  1.00 35.49     0.174 HD
ATOM     11  HH  ARG D 557     -23.565  -1.349 -13.377  1.00 35.49     0.174 HD
ATOM     12  HH  ARG D 557     -23.789  -2.790 -13.091  1.00 35.49     0.174 HD
ATOM     13  HE  ARG D 557     -24.810  -0.254 -14.688  1.00 35.49     0.178 HD
ENDBRANCH   4   5
ENDBRANCH   3   4
ENDBRANCH   2   3
ENDBRANCH   1   2
END_RES ARG D 557
BEGIN_RES GLU D 570
REMARK  3 active torsions:
REMARK  status: ('A' for Active; 'I' for Inactive)
REMARK    5  A    between atoms: CA   and  CB  
REMARK    6  A    between atoms: CB   and  CG  
REMARK    7  A    between atoms: CG   and  CD  
ROOT
ATOM     14  CA  GLU D 570     -18.033  -6.348 -13.375  1.00 32.92     0.160 C 
ENDROOT
BRANCH  14  15
ATOM     15  CB  GLU D 570     -19.500  -6.345 -13.794  1.00 32.92     0.043 C 
BRANCH  15  16
ATOM     16  CG  GLU D 570     -20.453  -5.584 -12.945  1.00 32.92     0.100 C 
BRANCH  16  17
ATOM     17  CD  GLU D 570     -21.689  -5.145 -13.695  1.00 32.92     0.185 C 
ATOM     18  OE1 GLU D 570     -22.666  -4.716 -13.052  1.00 32.92    -0.647 OA
ATOM     19  OE2 GLU D 570     -21.687  -5.248 -14.937  1.00 32.92    -0.647 OA
ENDBRANCH  16  17
ENDBRANCH  15  16
ENDBRANCH  14  15
END_RES GLU D 570
ENDMDL
MODEL 9
REMARK VINA RESULT:      -8.3      3.261      4.789
REMARK  6 active torsions:
REMARK  status: ('A' for Active; 'I' for Inactive)
REMARK    1  A    between atoms: C_4  and  S_26 
REMARK    2  A    between atoms: C_5  and  N_8 
REMARK    3  A    between atoms: N_10  and  C_12 
REMARK    4  A    between atoms: C_14  and  C_22 
REMARK    5  A    between atoms: C_22  and  O_24 
REMARK    6  A    between atoms: S_26  and  O_27 
ROOT
HETATM    1  N   UNL     1     -23.064  -4.398 -11.752  1.00  0.00    -0.299 N 
ATOM      2  HN  UNL     1     -24.042  -4.173 -11.568  1.00  0.00     0.187 HD
HETATM    3  N   UNL     1     -22.648  -4.698 -12.897  1.00  0.00    -0.296 N 
ATOM      4  HN  UNL     1     -21.675  -4.912 -13.117  1.00  0.00     0.187 HD
ENDROOT
BRANCH   3   5
HETATM    5  C   UNL     1     -23.713  -4.704 -13.860  1.00  0.00     0.110 C 
HETATM    6  C   UNL     1     -24.125  -5.960 -14.408  1.00  0.00     0.217 C 
HETATM    7  C   UNL     1     -25.342  -5.897 -15.161  1.00  0.00     0.090 C 
HETATM    8  O   UNL     1     -23.431  -7.030 -14.237  1.00  0.00    -0.285 OA
HETATM    9  C   UNL     1     -26.006  -4.689 -15.428  1.00  0.00     0.034 C 
HETATM   10  C   UNL     1     -25.474  -3.465 -15.022  1.00  0.00    -0.022 A 
HETATM   11  C   UNL     1     -26.141  -2.268 -15.341  1.00  0.00     0.012 A 
HETATM   12  C   UNL     1     -24.279  -3.453 -14.286  1.00  0.00     0.006 A 
HETATM   13  C   UNL     1     -25.596  -1.032 -15.002  1.00  0.00     0.001 A 
HETATM   14  C   UNL     1     -24.360  -0.988 -14.380  1.00  0.00     0.001 A 
HETATM   15  C   UNL     1     -23.717  -2.179 -14.029  1.00  0.00     0.015 A 
BRANCH   7  16
HETATM   16  C   UNL     1     -26.054  -7.111 -15.735  1.00  0.00     0.180 C 
HETATM   17  O   UNL     1     -27.241  -7.353 -15.550  1.00  0.00    -0.646 OA
BRANCH  16  18
HETATM   18  O   UNL     1     -25.247  -7.923 -16.446  1.00  0.00    -0.773 OA
HETATM   19  H   UNL     1     -25.068  -8.738 -15.898  1.00  0.00     0.167 HD
ENDBRANCH  16  18
ENDBRANCH   7  16
ENDBRANCH   3   5
BRANCH   1  20
HETATM   20  C   UNL     1     -22.080  -4.394 -10.730  1.00  0.00     0.072 A 
HETATM   21  C   UNL     1     -22.344  -4.483  -9.349  1.00  0.00     0.117 A 
HETATM   22  C   UNL     1     -21.323  -4.608  -8.397  1.00  0.00     0.035 A 
HETATM   23  C   UNL     1     -19.986  -4.552  -8.780  1.00  0.00    -0.060 A 
HETATM   24  C   UNL     1     -18.911  -4.614  -7.734  1.00  0.00     0.048 C 
HETATM   25  C   UNL     1     -19.691  -4.415 -10.141  1.00  0.00     0.009 A 
HETATM   26  C   UNL     1     -20.724  -4.358 -11.099  1.00  0.00     0.033 A 
BRANCH  21  27
HETATM   27  S   UNL     1     -23.955  -4.004  -8.724  1.00  0.00     0.327 S 
HETATM   28  O   UNL     1     -23.832  -4.086  -7.294  1.00  0.00    -0.191 OA
HETATM   29  O   UNL     1     -24.211  -2.692  -9.298  1.00  0.00    -0.191 OA
BRANCH  27  30
HETATM   30  O   UNL     1     -24.739  -5.095  -9.364  1.00  0.00    -0.086 OA
HETATM   31 CA   UNL     2     -26.647  -6.016  -9.252  1.00  0.00     0.000 Ca
ENDBRANCH  27  30
ENDBRANCH  21  27
ENDBRANCH   1  20
TORSDOF 6
BEGIN_RES ARG D 557
REMARK  4 active torsions:
REMARK  status: ('A' for Active; 'I' for Inactive)
REMARK    1  A    between atoms: CA   and  CB  
REMARK    2  A    between atoms: CB   and  CG  
REMARK    3  A    between atoms: CG   and  CD  
REMARK    4  A    between atoms: CD   and  NE  
REMARK       I    between atoms: NE   and  CZ  
REMARK       I    between atoms: CZ   and  NH1 
REMARK       I    between atoms: CZ   and  NH2 
ROOT
ATOM      1  CA  ARG D 557     -26.217   2.705 -17.014  1.00 35.49     0.159 C 
ENDROOT
BRANCH   1   2
ATOM      2  CB  ARG D 557     -26.789   1.319 -17.183  1.00 35.49     0.034 C 
BRANCH   2   3
ATOM      3  CG  ARG D 557     -28.127   1.084 -16.627  1.00 35.49     0.027 C 
BRANCH   3   4
ATOM      4  CD  ARG D 557     -28.914   0.126 -17.436  1.00 35.49     0.116 C 
BRANCH   4   5
ATOM      5  NE  ARG D 557     -28.459  -1.229 -17.266  1.00 35.49    -0.212 N 
ATOM      6  CZ  ARG D 557     -29.212  -2.305 -17.325  1.00 35.49     0.666 C 
ATOM      7  NH1 ARG D 557     -30.513  -2.249 -17.539  1.00 35.49    -0.235 N 
ATOM      8  NH2 ARG D 557     -28.626  -3.457 -17.168  1.00 35.49    -0.235 N 
ATOM      9  HH  ARG D 557     -30.919  -1.503 -17.647  1.00 35.49     0.174 HD
ATOM     10  HH  ARG D 557     -30.952  -2.984 -17.569  1.00 35.49     0.174 HD
ATOM     11  HH  ARG D 557     -27.783  -3.462 -17.039  1.00 35.49     0.174 HD
ATOM     12  HH  ARG D 557     -29.078  -4.173 -17.203  1.00 35.49     0.174 HD
ATOM     13  HE  ARG D 557     -27.646  -1.353 -17.052  1.00 35.49     0.178 HD
ENDBRANCH   4   5
ENDBRANCH   3   4
ENDBRANCH   2   3
ENDBRANCH   1   2
END_RES ARG D 557
BEGIN_RES GLU D 570
REMARK  3 active torsions:
REMARK  status: ('A' for Active; 'I' for Inactive)
REMARK    5  A    between atoms: CA   and  CB  
REMARK    6  A    between atoms: CB   and  CG  
REMARK    7  A    between atoms: CG   and  CD  
ROOT
ATOM     14  CA  GLU D 570     -18.033  -6.348 -13.375  1.00 32.92     0.160 C 
ENDROOT
BRANCH  14  15
ATOM     15  CB  GLU D 570     -19.500  -6.345 -13.794  1.00 32.92     0.043 C 
BRANCH  15  16
ATOM     16  CG  GLU D 570     -19.826  -6.864 -15.148  1.00 32.92     0.100 C 
BRANCH  16  17
ATOM     17  CD  GLU D 570     -20.500  -5.835 -16.026  1.00 32.92     0.185 C 
ATOM     18  OE1 GLU D 570     -20.488  -5.994 -17.262  1.00 32.92    -0.647 OA
ATOM     19  OE2 GLU D 570     -21.031  -4.852 -15.473  1.00 32.92    -0.647 OA
ENDBRANCH  16  17
ENDBRANCH  15  16
ENDBRANCH  14  15
END_RES GLU D 570
ENDMDL
