MODEL 1
REMARK VINA RESULT:      -7.4      0.000      0.000
REMARK  19 active torsions:
REMARK  status: ('A' for Active; 'I' for Inactive)
REMARK    1  A    between atoms: C_2  and  C_4 
REMARK    2  A    between atoms: C_4  and  C_5 
REMARK    3  A    between atoms: C_5  and  C_6 
REMARK    4  A    between atoms: C_6  and  C_7 
REMARK    5  A    between atoms: C_7  and  C_8 
REMARK    6  A    between atoms: C_8  and  O_9 
REMARK    7  A    between atoms: O_9  and  C_10 
REMARK    8  A    between atoms: C_10  and  C_12 
REMARK    9  A    between atoms: C_12  and  C_13 
REMARK   10  A    between atoms: C_13  and  C_14 
REMARK   11  A    between atoms: C_14  and  C_15 
REMARK   12  A    between atoms: C_15  and  C_16 
REMARK   13  A    between atoms: C_16  and  O_18 
REMARK   14  A    between atoms: O_18  and  C_19 
REMARK   15  A    between atoms: C_19  and  C_20 
REMARK   16  A    between atoms: C_20  and  C_21 
REMARK   17  A    between atoms: C_21  and  C_22 
REMARK   18  A    between atoms: C_22  and  C_23 
REMARK   19  A    between atoms: C_23  and  C_24 
ROOT
HETATM    1  C   UNL     1     -23.025  -5.138 -14.520  1.00  0.00     0.010 C 
ENDROOT
BRANCH   1   2
HETATM    2  C   UNL     1     -24.126  -6.188 -14.460  1.00  0.00     0.111 C 
BRANCH   2   3
HETATM    3  C   UNL     1     -24.349  -6.864 -15.797  1.00  0.00     0.258 C 
HETATM    4  O   UNL     1     -23.700  -6.681 -16.808  1.00  0.00    -0.265 OA
BRANCH   3   5
HETATM    5  O   UNL     1     -25.489  -7.605 -15.719  1.00  0.00    -0.321 OA
BRANCH   5   6
HETATM    6  C   UNL     1     -26.681  -6.815 -15.723  1.00  0.00     0.178 C 
BRANCH   6   7
HETATM    7  C   UNL     1     -26.824  -5.985 -16.989  1.00  0.00     0.027 C 
BRANCH   7   8
HETATM    8  C   UNL     1     -28.117  -6.374 -17.712  1.00  0.00     0.002 C 
BRANCH   8   9
HETATM    9  C   UNL     1     -29.287  -6.521 -16.744  1.00  0.00     0.000 C 
BRANCH   9  10
HETATM   10  C   UNL     1     -29.809  -5.155 -16.285  1.00  0.00     0.004 C 
BRANCH  10  11
HETATM   11  C   UNL     1     -29.921  -4.130 -17.431  1.00  0.00    -0.023 C 
HETATM   12  C   UNL     1     -31.373  -3.662 -17.575  1.00  0.00     0.009 C 
HETATM   13  C   UNL     1     -29.012  -2.918 -17.224  1.00  0.00     0.009 C 
ENDBRANCH  10  11
ENDBRANCH   9  10
ENDBRANCH   8   9
ENDBRANCH   7   8
ENDBRANCH   6   7
ENDBRANCH   5   6
ENDBRANCH   3   5
ENDBRANCH   2   3
ENDBRANCH   1   2
BRANCH   1  14
HETATM   14  C   UNL     1     -22.563  -4.747 -13.117  1.00  0.00     0.010 C 
BRANCH  14  15
HETATM   15  C   UNL     1     -23.387  -5.458 -12.047  1.00  0.00     0.111 C 
BRANCH  15  16
HETATM   16  C   UNL     1     -23.870  -4.508 -10.977  1.00  0.00     0.258 C 
HETATM   17  O   UNL     1     -24.643  -3.577 -11.149  1.00  0.00    -0.265 OA
BRANCH  16  18
HETATM   18  O   UNL     1     -23.183  -4.762  -9.830  1.00  0.00    -0.321 OA
BRANCH  18  19
HETATM   19  C   UNL     1     -22.254  -3.735  -9.477  1.00  0.00     0.178 C 
BRANCH  19  20
HETATM   20  C   UNL     1     -20.812  -4.218  -9.501  1.00  0.00     0.027 C 
BRANCH  20  21
HETATM   21  C   UNL     1     -20.578  -5.175  -8.328  1.00  0.00     0.002 C 
BRANCH  21  22
HETATM   22  C   UNL     1     -19.851  -4.493  -7.175  1.00  0.00     0.000 C 
BRANCH  22  23
HETATM   23  C   UNL     1     -20.367  -4.984  -5.817  1.00  0.00     0.004 C 
BRANCH  23  24
HETATM   24  C   UNL     1     -20.989  -6.391  -5.879  1.00  0.00    -0.023 C 
HETATM   25  C   UNL     1     -20.027  -7.476  -5.393  1.00  0.00     0.009 C 
HETATM   26  C   UNL     1     -22.273  -6.435  -5.049  1.00  0.00     0.009 C 
ENDBRANCH  23  24
ENDBRANCH  22  23
ENDBRANCH  21  22
ENDBRANCH  20  21
ENDBRANCH  19  20
ENDBRANCH  18  19
ENDBRANCH  16  18
ENDBRANCH  15  16
ENDBRANCH  14  15
ENDBRANCH   1  14
TORSDOF 19
BEGIN_RES ARG D 557
REMARK  4 active torsions:
REMARK  status: ('A' for Active; 'I' for Inactive)
REMARK    1  A    between atoms: CA   and  CB  
REMARK    2  A    between atoms: CB   and  CG  
REMARK    3  A    between atoms: CG   and  CD  
REMARK    4  A    between atoms: CD   and  NE  
REMARK       I    between atoms: NE   and  CZ  
REMARK       I    between atoms: CZ   and  NH1 
REMARK       I    between atoms: CZ   and  NH2 
ROOT
ATOM      1  CA  ARG D 557     -26.217   2.705 -17.014  1.00 35.49     0.159 C 
ENDROOT
BRANCH   1   2
ATOM      2  CB  ARG D 557     -26.789   1.319 -17.183  1.00 35.49     0.034 C 
BRANCH   2   3
ATOM      3  CG  ARG D 557     -25.845   0.199 -17.087  1.00 35.49     0.027 C 
BRANCH   3   4
ATOM      4  CD  ARG D 557     -26.179  -0.727 -15.980  1.00 35.49     0.116 C 
BRANCH   4   5
ATOM      5  NE  ARG D 557     -25.097  -0.860 -15.040  1.00 35.49    -0.212 N 
ATOM      6  CZ  ARG D 557     -24.923  -1.860 -14.206  1.00 35.49     0.666 C 
ATOM      7  NH1 ARG D 557     -25.762  -2.877 -14.133  1.00 35.49    -0.235 N 
ATOM      8  NH2 ARG D 557     -23.872  -1.826 -13.439  1.00 35.49    -0.235 N 
ATOM      9  HH  ARG D 557     -26.458  -2.921 -14.630  1.00 35.49     0.174 HD
ATOM     10  HH  ARG D 557     -25.595  -3.502 -13.571  1.00 35.49     0.174 HD
ATOM     11  HH  ARG D 557     -23.343  -1.161 -13.513  1.00 35.49     0.174 HD
ATOM     12  HH  ARG D 557     -23.724  -2.455 -12.890  1.00 35.49     0.174 HD
ATOM     13  HE  ARG D 557     -24.548  -0.214 -14.969  1.00 35.49     0.178 HD
ENDBRANCH   4   5
ENDBRANCH   3   4
ENDBRANCH   2   3
ENDBRANCH   1   2
END_RES ARG D 557
BEGIN_RES GLU D 570
REMARK  3 active torsions:
REMARK  status: ('A' for Active; 'I' for Inactive)
REMARK    5  A    between atoms: CA   and  CB  
REMARK    6  A    between atoms: CB   and  CG  
REMARK    7  A    between atoms: CG   and  CD  
ROOT
ATOM     14  CA  GLU D 570     -18.033  -6.348 -13.375  1.00 32.92     0.160 C 
ENDROOT
BRANCH  14  15
ATOM     15  CB  GLU D 570     -19.500  -6.345 -13.794  1.00 32.92     0.043 C 
BRANCH  15  16
ATOM     16  CG  GLU D 570     -20.098  -7.643 -14.201  1.00 32.92     0.100 C 
BRANCH  16  17
ATOM     17  CD  GLU D 570     -20.582  -7.645 -15.633  1.00 32.92     0.185 C 
ATOM     18  OE1 GLU D 570     -20.415  -6.626 -16.330  1.00 32.92    -0.647 OA
ATOM     19  OE2 GLU D 570     -21.148  -8.672 -16.056  1.00 32.92    -0.647 OA
ENDBRANCH  16  17
ENDBRANCH  15  16
ENDBRANCH  14  15
END_RES GLU D 570
ENDMDL
MODEL 2
REMARK VINA RESULT:      -7.3      1.860      9.725
REMARK  19 active torsions:
REMARK  status: ('A' for Active; 'I' for Inactive)
REMARK    1  A    between atoms: C_2  and  C_4 
REMARK    2  A    between atoms: C_4  and  C_5 
REMARK    3  A    between atoms: C_5  and  C_6 
REMARK    4  A    between atoms: C_6  and  C_7 
REMARK    5  A    between atoms: C_7  and  C_8 
REMARK    6  A    between atoms: C_8  and  O_9 
REMARK    7  A    between atoms: O_9  and  C_10 
REMARK    8  A    between atoms: C_10  and  C_12 
REMARK    9  A    between atoms: C_12  and  C_13 
REMARK   10  A    between atoms: C_13  and  C_14 
REMARK   11  A    between atoms: C_14  and  C_15 
REMARK   12  A    between atoms: C_15  and  C_16 
REMARK   13  A    between atoms: C_16  and  O_18 
REMARK   14  A    between atoms: O_18  and  C_19 
REMARK   15  A    between atoms: C_19  and  C_20 
REMARK   16  A    between atoms: C_20  and  C_21 
REMARK   17  A    between atoms: C_21  and  C_22 
REMARK   18  A    between atoms: C_22  and  C_23 
REMARK   19  A    between atoms: C_23  and  C_24 
ROOT
HETATM    1  C   UNL     1     -21.447  -4.507 -11.162  1.00  0.00     0.010 C 
ENDROOT
BRANCH   1   2
HETATM    2  C   UNL     1     -21.748  -3.751  -9.875  1.00  0.00     0.111 C 
BRANCH   2   3
HETATM    3  C   UNL     1     -22.997  -4.262  -9.187  1.00  0.00     0.258 C 
HETATM    4  O   UNL     1     -24.114  -4.294  -9.666  1.00  0.00    -0.265 OA
BRANCH   3   5
HETATM    5  O   UNL     1     -22.688  -4.546  -7.891  1.00  0.00    -0.321 OA
BRANCH   5   6
HETATM    6  C   UNL     1     -21.533  -3.850  -7.417  1.00  0.00     0.178 C 
BRANCH   6   7
HETATM    7  C   UNL     1     -20.750  -4.653  -6.391  1.00  0.00     0.027 C 
BRANCH   7   8
HETATM    8  C   UNL     1     -21.095  -6.139  -6.533  1.00  0.00     0.002 C 
BRANCH   8   9
HETATM    9  C   UNL     1     -21.684  -6.711  -5.247  1.00  0.00     0.000 C 
BRANCH   9  10
HETATM   10  C   UNL     1     -21.200  -5.937  -4.016  1.00  0.00     0.004 C 
BRANCH  10  11
HETATM   11  C   UNL     1     -21.158  -6.794  -2.736  1.00  0.00    -0.023 C 
HETATM   12  C   UNL     1     -22.210  -6.298  -1.739  1.00  0.00     0.009 C 
HETATM   13  C   UNL     1     -21.383  -8.280  -3.019  1.00  0.00     0.009 C 
ENDBRANCH  10  11
ENDBRANCH   9  10
ENDBRANCH   8   9
ENDBRANCH   7   8
ENDBRANCH   6   7
ENDBRANCH   5   6
ENDBRANCH   3   5
ENDBRANCH   2   3
ENDBRANCH   1   2
BRANCH   1  14
HETATM   14  C   UNL     1     -22.097  -3.825 -12.365  1.00  0.00     0.010 C 
BRANCH  14  15
HETATM   15  C   UNL     1     -22.764  -4.847 -13.283  1.00  0.00     0.111 C 
BRANCH  15  16
HETATM   16  C   UNL     1     -23.405  -4.195 -14.486  1.00  0.00     0.258 C 
HETATM   17  O   UNL     1     -23.057  -3.139 -14.992  1.00  0.00    -0.265 OA
BRANCH  16  18
HETATM   18  O   UNL     1     -24.526  -4.895 -14.811  1.00  0.00    -0.321 OA
BRANCH  18  19
HETATM   19  C   UNL     1     -24.278  -6.273 -15.098  1.00  0.00     0.178 C 
BRANCH  19  20
HETATM   20  C   UNL     1     -25.423  -6.928 -15.855  1.00  0.00     0.027 C 
BRANCH  20  21
HETATM   21  C   UNL     1     -26.564  -5.919 -16.023  1.00  0.00     0.002 C 
BRANCH  21  22
HETATM   22  C   UNL     1     -27.879  -6.603 -16.379  1.00  0.00     0.000 C 
BRANCH  22  23
HETATM   23  C   UNL     1     -28.255  -6.367 -17.847  1.00  0.00     0.004 C 
BRANCH  23  24
HETATM   24  C   UNL     1     -29.776  -6.289 -18.076  1.00  0.00    -0.023 C 
HETATM   25  C   UNL     1     -30.382  -7.648 -18.431  1.00  0.00     0.009 C 
HETATM   26  C   UNL     1     -30.467  -5.728 -16.832  1.00  0.00     0.009 C 
ENDBRANCH  23  24
ENDBRANCH  22  23
ENDBRANCH  21  22
ENDBRANCH  20  21
ENDBRANCH  19  20
ENDBRANCH  18  19
ENDBRANCH  16  18
ENDBRANCH  15  16
ENDBRANCH  14  15
ENDBRANCH   1  14
TORSDOF 19
BEGIN_RES ARG D 557
REMARK  4 active torsions:
REMARK  status: ('A' for Active; 'I' for Inactive)
REMARK    1  A    between atoms: CA   and  CB  
REMARK    2  A    between atoms: CB   and  CG  
REMARK    3  A    between atoms: CG   and  CD  
REMARK    4  A    between atoms: CD   and  NE  
REMARK       I    between atoms: NE   and  CZ  
REMARK       I    between atoms: CZ   and  NH1 
REMARK       I    between atoms: CZ   and  NH2 
ROOT
ATOM      1  CA  ARG D 557     -26.217   2.705 -17.014  1.00 35.49     0.159 C 
ENDROOT
BRANCH   1   2
ATOM      2  CB  ARG D 557     -26.789   1.319 -17.183  1.00 35.49     0.034 C 
BRANCH   2   3
ATOM      3  CG  ARG D 557     -28.240   1.177 -17.010  1.00 35.49     0.027 C 
BRANCH   3   4
ATOM      4  CD  ARG D 557     -28.624  -0.177 -16.550  1.00 35.49     0.116 C 
BRANCH   4   5
ATOM      5  NE  ARG D 557     -27.545  -0.844 -15.870  1.00 35.49    -0.212 N 
ATOM      6  CZ  ARG D 557     -27.279  -2.130 -15.928  1.00 35.49     0.666 C 
ATOM      7  NH1 ARG D 557     -28.010  -2.974 -16.633  1.00 35.49    -0.235 N 
ATOM      8  NH2 ARG D 557     -26.246  -2.560 -15.263  1.00 35.49    -0.235 N 
ATOM      9  HH  ARG D 557     -28.693  -2.712 -17.080  1.00 35.49     0.174 HD
ATOM     10  HH  ARG D 557     -27.787  -3.801 -16.636  1.00 35.49     0.174 HD
ATOM     11  HH  ARG D 557     -25.788  -1.991 -14.823  1.00 35.49     0.174 HD
ATOM     12  HH  ARG D 557     -26.041  -3.383 -15.280  1.00 35.49     0.174 HD
ATOM     13  HE  ARG D 557     -27.067  -0.388 -15.335  1.00 35.49     0.178 HD
ENDBRANCH   4   5
ENDBRANCH   3   4
ENDBRANCH   2   3
ENDBRANCH   1   2
END_RES ARG D 557
BEGIN_RES GLU D 570
REMARK  3 active torsions:
REMARK  status: ('A' for Active; 'I' for Inactive)
REMARK    5  A    between atoms: CA   and  CB  
REMARK    6  A    between atoms: CB   and  CG  
REMARK    7  A    between atoms: CG   and  CD  
ROOT
ATOM     14  CA  GLU D 570     -18.033  -6.348 -13.375  1.00 32.92     0.160 C 
ENDROOT
BRANCH  14  15
ATOM     15  CB  GLU D 570     -19.500  -6.345 -13.794  1.00 32.92     0.043 C 
BRANCH  15  16
ATOM     16  CG  GLU D 570     -19.806  -6.031 -15.214  1.00 32.92     0.100 C 
BRANCH  16  17
ATOM     17  CD  GLU D 570     -20.692  -7.066 -15.868  1.00 32.92     0.185 C 
ATOM     18  OE1 GLU D 570     -21.372  -6.739 -16.860  1.00 32.92    -0.647 OA
ATOM     19  OE2 GLU D 570     -20.719  -8.210 -15.373  1.00 32.92    -0.647 OA
ENDBRANCH  16  17
ENDBRANCH  15  16
ENDBRANCH  14  15
END_RES GLU D 570
ENDMDL
MODEL 3
REMARK VINA RESULT:      -7.0      2.277      3.757
REMARK  19 active torsions:
REMARK  status: ('A' for Active; 'I' for Inactive)
REMARK    1  A    between atoms: C_2  and  C_4 
REMARK    2  A    between atoms: C_4  and  C_5 
REMARK    3  A    between atoms: C_5  and  C_6 
REMARK    4  A    between atoms: C_6  and  C_7 
REMARK    5  A    between atoms: C_7  and  C_8 
REMARK    6  A    between atoms: C_8  and  O_9 
REMARK    7  A    between atoms: O_9  and  C_10 
REMARK    8  A    between atoms: C_10  and  C_12 
REMARK    9  A    between atoms: C_12  and  C_13 
REMARK   10  A    between atoms: C_13  and  C_14 
REMARK   11  A    between atoms: C_14  and  C_15 
REMARK   12  A    between atoms: C_15  and  C_16 
REMARK   13  A    between atoms: C_16  and  O_18 
REMARK   14  A    between atoms: O_18  and  C_19 
REMARK   15  A    between atoms: C_19  and  C_20 
REMARK   16  A    between atoms: C_20  and  C_21 
REMARK   17  A    between atoms: C_21  and  C_22 
REMARK   18  A    between atoms: C_22  and  C_23 
REMARK   19  A    between atoms: C_23  and  C_24 
ROOT
HETATM    1  C   UNL     1     -24.986  -7.265 -16.179  1.00  0.00     0.010 C 
ENDROOT
BRANCH   1   2
HETATM    2  C   UNL     1     -26.281  -6.956 -15.440  1.00  0.00     0.111 C 
BRANCH   2   3
HETATM    3  C   UNL     1     -27.031  -5.793 -16.054  1.00  0.00     0.258 C 
HETATM    4  O   UNL     1     -26.531  -4.797 -16.540  1.00  0.00    -0.265 OA
BRANCH   3   5
HETATM    5  O   UNL     1     -28.363  -5.979 -15.843  1.00  0.00    -0.321 OA
BRANCH   5   6
HETATM    6  C   UNL     1     -28.858  -7.205 -16.388  1.00  0.00     0.178 C 
BRANCH   6   7
HETATM    7  C   UNL     1     -29.901  -6.981 -17.471  1.00  0.00     0.027 C 
BRANCH   7   8
HETATM    8  C   UNL     1     -29.258  -6.257 -18.658  1.00  0.00     0.002 C 
BRANCH   8   9
HETATM    9  C   UNL     1     -28.138  -7.082 -19.287  1.00  0.00     0.000 C 
BRANCH   9  10
HETATM   10  C   UNL     1     -26.991  -6.190 -19.774  1.00  0.00     0.004 C 
BRANCH  10  11
HETATM   11  C   UNL     1     -25.957  -6.943 -20.634  1.00  0.00    -0.023 C 
HETATM   12  C   UNL     1     -24.675  -7.173 -19.829  1.00  0.00     0.009 C 
HETATM   13  C   UNL     1     -26.487  -8.284 -21.145  1.00  0.00     0.009 C 
ENDBRANCH  10  11
ENDBRANCH   9  10
ENDBRANCH   8   9
ENDBRANCH   7   8
ENDBRANCH   6   7
ENDBRANCH   5   6
ENDBRANCH   3   5
ENDBRANCH   2   3
ENDBRANCH   1   2
BRANCH   1  14
HETATM   14  C   UNL     1     -23.898  -6.251 -15.826  1.00  0.00     0.010 C 
BRANCH  14  15
HETATM   15  C   UNL     1     -23.812  -6.039 -14.316  1.00  0.00     0.111 C 
BRANCH  15  16
HETATM   16  C   UNL     1     -23.941  -4.581 -13.940  1.00  0.00     0.258 C 
HETATM   17  O   UNL     1     -24.018  -3.649 -14.726  1.00  0.00    -0.265 OA
BRANCH  16  18
HETATM   18  O   UNL     1     -23.799  -4.468 -12.592  1.00  0.00    -0.321 OA
BRANCH  18  19
HETATM   19  C   UNL     1     -23.529  -3.135 -12.153  1.00  0.00     0.178 C 
BRANCH  19  20
HETATM   20  C   UNL     1     -22.397  -3.071 -11.140  1.00  0.00     0.027 C 
BRANCH  20  21
HETATM   21  C   UNL     1     -21.345  -4.129 -11.486  1.00  0.00     0.002 C 
BRANCH  21  22
HETATM   22  C   UNL     1     -20.121  -4.030 -10.581  1.00  0.00     0.000 C 
BRANCH  22  23
HETATM   23  C   UNL     1     -20.301  -4.856  -9.302  1.00  0.00     0.004 C 
BRANCH  23  24
HETATM   24  C   UNL     1     -20.182  -4.016  -8.018  1.00  0.00    -0.023 C 
HETATM   25  C   UNL     1     -21.546  -3.664  -7.422  1.00  0.00     0.009 C 
HETATM   26  C   UNL     1     -19.345  -4.762  -6.977  1.00  0.00     0.009 C 
ENDBRANCH  23  24
ENDBRANCH  22  23
ENDBRANCH  21  22
ENDBRANCH  20  21
ENDBRANCH  19  20
ENDBRANCH  18  19
ENDBRANCH  16  18
ENDBRANCH  15  16
ENDBRANCH  14  15
ENDBRANCH   1  14
TORSDOF 19
BEGIN_RES ARG D 557
REMARK  4 active torsions:
REMARK  status: ('A' for Active; 'I' for Inactive)
REMARK    1  A    between atoms: CA   and  CB  
REMARK    2  A    between atoms: CB   and  CG  
REMARK    3  A    between atoms: CG   and  CD  
REMARK    4  A    between atoms: CD   and  NE  
REMARK       I    between atoms: NE   and  CZ  
REMARK       I    between atoms: CZ   and  NH1 
REMARK       I    between atoms: CZ   and  NH2 
ROOT
ATOM      1  CA  ARG D 557     -26.217   2.705 -17.014  1.00 35.49     0.159 C 
ENDROOT
BRANCH   1   2
ATOM      2  CB  ARG D 557     -26.789   1.319 -17.183  1.00 35.49     0.034 C 
BRANCH   2   3
ATOM      3  CG  ARG D 557     -28.221   1.228 -17.492  1.00 35.49     0.027 C 
BRANCH   3   4
ATOM      4  CD  ARG D 557     -28.949   0.355 -16.543  1.00 35.49     0.116 C 
BRANCH   4   5
ATOM      5  NE  ARG D 557     -29.254  -0.931 -17.114  1.00 35.49    -0.212 N 
ATOM      6  CZ  ARG D 557     -28.558  -2.032 -16.941  1.00 35.49     0.666 C 
ATOM      7  NH1 ARG D 557     -27.460  -2.070 -16.209  1.00 35.49    -0.235 N 
ATOM      8  NH2 ARG D 557     -28.994  -3.114 -17.518  1.00 35.49    -0.235 N 
ATOM      9  HH  ARG D 557     -27.156  -1.371 -15.819  1.00 35.49     0.174 HD
ATOM     10  HH  ARG D 557     -27.049  -2.818 -16.130  1.00 35.49     0.174 HD
ATOM     11  HH  ARG D 557     -29.710  -3.062 -17.978  1.00 35.49     0.174 HD
ATOM     12  HH  ARG D 557     -28.575  -3.845 -17.426  1.00 35.49     0.174 HD
ATOM     13  HE  ARG D 557     -29.905  -0.981 -17.658  1.00 35.49     0.178 HD
ENDBRANCH   4   5
ENDBRANCH   3   4
ENDBRANCH   2   3
ENDBRANCH   1   2
END_RES ARG D 557
BEGIN_RES GLU D 570
REMARK  3 active torsions:
REMARK  status: ('A' for Active; 'I' for Inactive)
REMARK    5  A    between atoms: CA   and  CB  
REMARK    6  A    between atoms: CB   and  CG  
REMARK    7  A    between atoms: CG   and  CD  
ROOT
ATOM     14  CA  GLU D 570     -18.033  -6.348 -13.375  1.00 32.92     0.160 C 
ENDROOT
BRANCH  14  15
ATOM     15  CB  GLU D 570     -19.500  -6.345 -13.794  1.00 32.92     0.043 C 
BRANCH  15  16
ATOM     16  CG  GLU D 570     -20.089  -7.637 -14.232  1.00 32.92     0.100 C 
BRANCH  16  17
ATOM     17  CD  GLU D 570     -20.627  -7.590 -15.643  1.00 32.92     0.185 C 
ATOM     18  OE1 GLU D 570     -21.209  -8.592 -16.102  1.00 32.92    -0.647 OA
ATOM     19  OE2 GLU D 570     -20.449  -6.547 -16.303  1.00 32.92    -0.647 OA
ENDBRANCH  16  17
ENDBRANCH  15  16
ENDBRANCH  14  15
END_RES GLU D 570
ENDMDL
MODEL 4
REMARK VINA RESULT:      -6.9      3.997      8.309
REMARK  19 active torsions:
REMARK  status: ('A' for Active; 'I' for Inactive)
REMARK    1  A    between atoms: C_2  and  C_4 
REMARK    2  A    between atoms: C_4  and  C_5 
REMARK    3  A    between atoms: C_5  and  C_6 
REMARK    4  A    between atoms: C_6  and  C_7 
REMARK    5  A    between atoms: C_7  and  C_8 
REMARK    6  A    between atoms: C_8  and  O_9 
REMARK    7  A    between atoms: O_9  and  C_10 
REMARK    8  A    between atoms: C_10  and  C_12 
REMARK    9  A    between atoms: C_12  and  C_13 
REMARK   10  A    between atoms: C_13  and  C_14 
REMARK   11  A    between atoms: C_14  and  C_15 
REMARK   12  A    between atoms: C_15  and  C_16 
REMARK   13  A    between atoms: C_16  and  O_18 
REMARK   14  A    between atoms: O_18  and  C_19 
REMARK   15  A    between atoms: C_19  and  C_20 
REMARK   16  A    between atoms: C_20  and  C_21 
REMARK   17  A    between atoms: C_21  and  C_22 
REMARK   18  A    between atoms: C_22  and  C_23 
REMARK   19  A    between atoms: C_23  and  C_24 
ROOT
HETATM    1  C   UNL     1     -21.432  -8.107  -5.096  1.00  0.00     0.010 C 
ENDROOT
BRANCH   1   2
HETATM    2  C   UNL     1     -20.113  -7.426  -5.433  1.00  0.00     0.111 C 
BRANCH   2   3
HETATM    3  C   UNL     1     -20.311  -6.025  -5.975  1.00  0.00     0.258 C 
HETATM    4  O   UNL     1     -20.293  -4.998  -5.325  1.00  0.00    -0.265 OA
BRANCH   3   5
HETATM    5  O   UNL     1     -20.657  -6.118  -7.289  1.00  0.00    -0.321 OA
BRANCH   5   6
HETATM    6  C   UNL     1     -21.560  -5.094  -7.711  1.00  0.00     0.178 C 
BRANCH   6   7
HETATM    7  C   UNL     1     -20.903  -4.083  -8.637  1.00  0.00     0.027 C 
BRANCH   7   8
HETATM    8  C   UNL     1     -20.253  -4.816  -9.814  1.00  0.00     0.002 C 
BRANCH   8   9
HETATM    9  C   UNL     1     -20.816  -4.351 -11.154  1.00  0.00     0.000 C 
BRANCH   9  10
HETATM   10  C   UNL     1     -21.758  -3.155 -10.981  1.00  0.00     0.004 C 
BRANCH  10  11
HETATM   11  C   UNL     1     -23.212  -3.461 -11.391  1.00  0.00    -0.023 C 
HETATM   12  C   UNL     1     -23.294  -4.852 -12.029  1.00  0.00     0.009 C 
HETATM   13  C   UNL     1     -24.183  -3.382 -10.211  1.00  0.00     0.009 C 
ENDBRANCH  10  11
ENDBRANCH   9  10
ENDBRANCH   8   9
ENDBRANCH   7   8
ENDBRANCH   6   7
ENDBRANCH   5   6
ENDBRANCH   3   5
ENDBRANCH   2   3
ENDBRANCH   1   2
BRANCH   1  14
HETATM   14  C   UNL     1     -21.421  -8.650  -3.667  1.00  0.00     0.010 C 
BRANCH  14  15
HETATM   15  C   UNL     1     -20.907  -7.601  -2.684  1.00  0.00     0.111 C 
BRANCH  15  16
HETATM   16  C   UNL     1     -21.995  -6.647  -2.251  1.00  0.00     0.258 C 
HETATM   17  O   UNL     1     -22.671  -5.954  -2.997  1.00  0.00    -0.265 OA
BRANCH  16  18
HETATM   18  O   UNL     1     -21.991  -6.572  -0.893  1.00  0.00    -0.321 OA
BRANCH  18  19
HETATM   19  C   UNL     1     -22.573  -7.709  -0.253  1.00  0.00     0.178 C 
BRANCH  19  20
HETATM   20  C   UNL     1     -21.815  -8.129   0.997  1.00  0.00     0.027 C 
BRANCH  20  21
HETATM   21  C   UNL     1     -21.121  -9.470   0.743  1.00  0.00     0.002 C 
BRANCH  21  22
HETATM   22  C   UNL     1     -22.105 -10.541   0.284  1.00  0.00     0.000 C 
BRANCH  22  23
HETATM   23  C   UNL     1     -21.681 -11.155  -1.055  1.00  0.00     0.004 C 
BRANCH  23  24
HETATM   24  C   UNL     1     -22.872 -11.473  -1.978  1.00  0.00    -0.023 C 
HETATM   25  C   UNL     1     -22.629 -12.717  -2.835  1.00  0.00     0.009 C 
HETATM   26  C   UNL     1     -24.144 -11.661  -1.150  1.00  0.00     0.009 C 
ENDBRANCH  23  24
ENDBRANCH  22  23
ENDBRANCH  21  22
ENDBRANCH  20  21
ENDBRANCH  19  20
ENDBRANCH  18  19
ENDBRANCH  16  18
ENDBRANCH  15  16
ENDBRANCH  14  15
ENDBRANCH   1  14
TORSDOF 19
BEGIN_RES ARG D 557
REMARK  4 active torsions:
REMARK  status: ('A' for Active; 'I' for Inactive)
REMARK    1  A    between atoms: CA   and  CB  
REMARK    2  A    between atoms: CB   and  CG  
REMARK    3  A    between atoms: CG   and  CD  
REMARK    4  A    between atoms: CD   and  NE  
REMARK       I    between atoms: NE   and  CZ  
REMARK       I    between atoms: CZ   and  NH1 
REMARK       I    between atoms: CZ   and  NH2 
ROOT
ATOM      1  CA  ARG D 557     -26.217   2.705 -17.014  1.00 35.49     0.159 C 
ENDROOT
BRANCH   1   2
ATOM      2  CB  ARG D 557     -26.789   1.319 -17.183  1.00 35.49     0.034 C 
BRANCH   2   3
ATOM      3  CG  ARG D 557     -28.233   1.169 -16.964  1.00 35.49     0.027 C 
BRANCH   3   4
ATOM      4  CD  ARG D 557     -28.618  -0.233 -16.684  1.00 35.49     0.116 C 
BRANCH   4   5
ATOM      5  NE  ARG D 557     -27.599  -0.941 -15.956  1.00 35.49    -0.212 N 
ATOM      6  CZ  ARG D 557     -27.350  -2.229 -16.038  1.00 35.49     0.666 C 
ATOM      7  NH1 ARG D 557     -28.047  -3.038 -16.815  1.00 35.49    -0.235 N 
ATOM      8  NH2 ARG D 557     -26.372  -2.698 -15.320  1.00 35.49    -0.235 N 
ATOM      9  HH  ARG D 557     -28.694  -2.750 -17.298  1.00 35.49     0.174 HD
ATOM     10  HH  ARG D 557     -27.838  -3.868 -16.829  1.00 35.49     0.174 HD
ATOM     11  HH  ARG D 557     -25.934  -2.151 -14.833  1.00 35.49     0.174 HD
ATOM     12  HH  ARG D 557     -26.179  -3.524 -15.349  1.00 35.49     0.174 HD
ATOM     13  HE  ARG D 557     -27.149  -0.510 -15.377  1.00 35.49     0.178 HD
ENDBRANCH   4   5
ENDBRANCH   3   4
ENDBRANCH   2   3
ENDBRANCH   1   2
END_RES ARG D 557
BEGIN_RES GLU D 570
REMARK  3 active torsions:
REMARK  status: ('A' for Active; 'I' for Inactive)
REMARK    5  A    between atoms: CA   and  CB  
REMARK    6  A    between atoms: CB   and  CG  
REMARK    7  A    between atoms: CG   and  CD  
ROOT
ATOM     14  CA  GLU D 570     -18.033  -6.348 -13.375  1.00 32.92     0.160 C 
ENDROOT
BRANCH  14  15
ATOM     15  CB  GLU D 570     -19.500  -6.345 -13.794  1.00 32.92     0.043 C 
BRANCH  15  16
ATOM     16  CG  GLU D 570     -19.807  -6.653 -15.215  1.00 32.92     0.100 C 
BRANCH  16  17
ATOM     17  CD  GLU D 570     -20.749  -5.653 -15.844  1.00 32.92     0.185 C 
ATOM     18  OE1 GLU D 570     -20.821  -5.589 -17.087  1.00 32.92    -0.647 OA
ATOM     19  OE2 GLU D 570     -21.408  -4.914 -15.087  1.00 32.92    -0.647 OA
ENDBRANCH  16  17
ENDBRANCH  15  16
ENDBRANCH  14  15
END_RES GLU D 570
ENDMDL
MODEL 5
REMARK VINA RESULT:      -6.7      4.752      9.601
REMARK  19 active torsions:
REMARK  status: ('A' for Active; 'I' for Inactive)
REMARK    1  A    between atoms: C_2  and  C_4 
REMARK    2  A    between atoms: C_4  and  C_5 
REMARK    3  A    between atoms: C_5  and  C_6 
REMARK    4  A    between atoms: C_6  and  C_7 
REMARK    5  A    between atoms: C_7  and  C_8 
REMARK    6  A    between atoms: C_8  and  O_9 
REMARK    7  A    between atoms: O_9  and  C_10 
REMARK    8  A    between atoms: C_10  and  C_12 
REMARK    9  A    between atoms: C_12  and  C_13 
REMARK   10  A    between atoms: C_13  and  C_14 
REMARK   11  A    between atoms: C_14  and  C_15 
REMARK   12  A    between atoms: C_15  and  C_16 
REMARK   13  A    between atoms: C_16  and  O_18 
REMARK   14  A    between atoms: O_18  and  C_19 
REMARK   15  A    between atoms: C_19  and  C_20 
REMARK   16  A    between atoms: C_20  and  C_21 
REMARK   17  A    between atoms: C_21  and  C_22 
REMARK   18  A    between atoms: C_22  and  C_23 
REMARK   19  A    between atoms: C_23  and  C_24 
ROOT
HETATM    1  C   UNL     1     -19.996  -9.735  -3.026  1.00  0.00     0.010 C 
ENDROOT
BRANCH   1   2
HETATM    2  C   UNL     1     -18.901  -8.933  -3.716  1.00  0.00     0.111 C 
BRANCH   2   3
HETATM    3  C   UNL     1     -18.782  -9.269  -5.188  1.00  0.00     0.258 C 
HETATM    4  O   UNL     1     -17.828  -9.797  -5.725  1.00  0.00    -0.265 OA
BRANCH   3   5
HETATM    5  O   UNL     1     -19.861  -8.751  -5.837  1.00  0.00    -0.321 OA
BRANCH   5   6
HETATM    6  C   UNL     1     -19.904  -7.322  -5.816  1.00  0.00     0.178 C 
BRANCH   6   7
HETATM    7  C   UNL     1     -21.325  -6.782  -5.790  1.00  0.00     0.027 C 
BRANCH   7   8
HETATM    8  C   UNL     1     -21.385  -5.466  -6.570  1.00  0.00     0.002 C 
BRANCH   8   9
HETATM    9  C   UNL     1     -20.229  -5.336  -7.557  1.00  0.00     0.000 C 
BRANCH   9  10
HETATM   10  C   UNL     1     -20.290  -4.010  -8.322  1.00  0.00     0.004 C 
BRANCH  10  11
HETATM   11  C   UNL     1     -21.008  -4.124  -9.681  1.00  0.00    -0.023 C 
HETATM   12  C   UNL     1     -22.506  -3.856  -9.506  1.00  0.00     0.009 C 
HETATM   13  C   UNL     1     -20.436  -3.166 -10.728  1.00  0.00     0.009 C 
ENDBRANCH  10  11
ENDBRANCH   9  10
ENDBRANCH   8   9
ENDBRANCH   7   8
ENDBRANCH   6   7
ENDBRANCH   5   6
ENDBRANCH   3   5
ENDBRANCH   2   3
ENDBRANCH   1   2
BRANCH   1  14
HETATM   14  C   UNL     1     -21.243  -8.881  -2.802  1.00  0.00     0.010 C 
BRANCH  14  15
HETATM   15  C   UNL     1     -20.951  -7.716  -1.859  1.00  0.00     0.111 C 
BRANCH  15  16
HETATM   16  C   UNL     1     -22.064  -6.695  -1.857  1.00  0.00     0.258 C 
HETATM   17  O   UNL     1     -22.273  -5.870  -2.734  1.00  0.00    -0.265 OA
BRANCH  16  18
HETATM   18  O   UNL     1     -22.693  -6.743  -0.652  1.00  0.00    -0.321 OA
BRANCH  18  19
HETATM   19  C   UNL     1     -22.275  -7.833   0.172  1.00  0.00     0.178 C 
BRANCH  19  20
HETATM   20  C   UNL     1     -23.427  -8.742   0.569  1.00  0.00     0.027 C 
BRANCH  20  21
HETATM   21  C   UNL     1     -23.224 -10.125  -0.058  1.00  0.00     0.002 C 
BRANCH  21  22
HETATM   22  C   UNL     1     -21.876 -10.727   0.323  1.00  0.00     0.000 C 
BRANCH  22  23
HETATM   23  C   UNL     1     -21.922 -12.260   0.308  1.00  0.00     0.004 C 
BRANCH  23  24
HETATM   24  C   UNL     1     -23.324 -12.826   0.599  1.00  0.00    -0.023 C 
HETATM   25  C   UNL     1     -23.858 -13.681  -0.552  1.00  0.00     0.009 C 
HETATM   26  C   UNL     1     -23.301 -13.654   1.885  1.00  0.00     0.009 C 
ENDBRANCH  23  24
ENDBRANCH  22  23
ENDBRANCH  21  22
ENDBRANCH  20  21
ENDBRANCH  19  20
ENDBRANCH  18  19
ENDBRANCH  16  18
ENDBRANCH  15  16
ENDBRANCH  14  15
ENDBRANCH   1  14
TORSDOF 19
BEGIN_RES ARG D 557
REMARK  4 active torsions:
REMARK  status: ('A' for Active; 'I' for Inactive)
REMARK    1  A    between atoms: CA   and  CB  
REMARK    2  A    between atoms: CB   and  CG  
REMARK    3  A    between atoms: CG   and  CD  
REMARK    4  A    between atoms: CD   and  NE  
REMARK       I    between atoms: NE   and  CZ  
REMARK       I    between atoms: CZ   and  NH1 
REMARK       I    between atoms: CZ   and  NH2 
ROOT
ATOM      1  CA  ARG D 557     -26.217   2.705 -17.014  1.00 35.49     0.159 C 
ENDROOT
BRANCH   1   2
ATOM      2  CB  ARG D 557     -26.789   1.319 -17.183  1.00 35.49     0.034 C 
BRANCH   2   3
ATOM      3  CG  ARG D 557     -25.836   0.203 -17.151  1.00 35.49     0.027 C 
BRANCH   3   4
ATOM      4  CD  ARG D 557     -24.764   0.404 -16.150  1.00 35.49     0.116 C 
BRANCH   4   5
ATOM      5  NE  ARG D 557     -24.923  -0.455 -15.006  1.00 35.49    -0.212 N 
ATOM      6  CZ  ARG D 557     -24.115  -1.433 -14.662  1.00 35.49     0.666 C 
ATOM      7  NH1 ARG D 557     -23.043  -1.748 -15.365  1.00 35.49    -0.235 N 
ATOM      8  NH2 ARG D 557     -24.402  -2.096 -13.579  1.00 35.49    -0.235 N 
ATOM      9  HH  ARG D 557     -22.834  -1.324 -16.080  1.00 35.49     0.174 HD
ATOM     10  HH  ARG D 557     -22.552  -2.394 -15.091  1.00 35.49     0.174 HD
ATOM     11  HH  ARG D 557     -25.096  -1.865 -13.141  1.00 35.49     0.174 HD
ATOM     12  HH  ARG D 557     -23.902  -2.731 -13.323  1.00 35.49     0.174 HD
ATOM     13  HE  ARG D 557     -25.627  -0.369 -14.537  1.00 35.49     0.178 HD
ENDBRANCH   4   5
ENDBRANCH   3   4
ENDBRANCH   2   3
ENDBRANCH   1   2
END_RES ARG D 557
BEGIN_RES GLU D 570
REMARK  3 active torsions:
REMARK  status: ('A' for Active; 'I' for Inactive)
REMARK    5  A    between atoms: CA   and  CB  
REMARK    6  A    between atoms: CB   and  CG  
REMARK    7  A    between atoms: CG   and  CD  
ROOT
ATOM     14  CA  GLU D 570     -18.033  -6.348 -13.375  1.00 32.92     0.160 C 
ENDROOT
BRANCH  14  15
ATOM     15  CB  GLU D 570     -19.500  -6.345 -13.794  1.00 32.92     0.043 C 
BRANCH  15  16
ATOM     16  CG  GLU D 570     -20.443  -5.535 -12.980  1.00 32.92     0.100 C 
BRANCH  16  17
ATOM     17  CD  GLU D 570     -21.744  -5.252 -13.693  1.00 32.92     0.185 C 
ATOM     18  OE1 GLU D 570     -22.207  -6.108 -14.471  1.00 32.92    -0.647 OA
ATOM     19  OE2 GLU D 570     -22.299  -4.155 -13.484  1.00 32.92    -0.647 OA
ENDBRANCH  16  17
ENDBRANCH  15  16
ENDBRANCH  14  15
END_RES GLU D 570
ENDMDL
MODEL 6
REMARK VINA RESULT:      -6.7      5.829      9.924
REMARK  19 active torsions:
REMARK  status: ('A' for Active; 'I' for Inactive)
REMARK    1  A    between atoms: C_2  and  C_4 
REMARK    2  A    between atoms: C_4  and  C_5 
REMARK    3  A    between atoms: C_5  and  C_6 
REMARK    4  A    between atoms: C_6  and  C_7 
REMARK    5  A    between atoms: C_7  and  C_8 
REMARK    6  A    between atoms: C_8  and  O_9 
REMARK    7  A    between atoms: O_9  and  C_10 
REMARK    8  A    between atoms: C_10  and  C_12 
REMARK    9  A    between atoms: C_12  and  C_13 
REMARK   10  A    between atoms: C_13  and  C_14 
REMARK   11  A    between atoms: C_14  and  C_15 
REMARK   12  A    between atoms: C_15  and  C_16 
REMARK   13  A    between atoms: C_16  and  O_18 
REMARK   14  A    between atoms: O_18  and  C_19 
REMARK   15  A    between atoms: C_19  and  C_20 
REMARK   16  A    between atoms: C_20  and  C_21 
REMARK   17  A    between atoms: C_21  and  C_22 
REMARK   18  A    between atoms: C_22  and  C_23 
REMARK   19  A    between atoms: C_23  and  C_24 
ROOT
HETATM    1  C   UNL     1     -21.584  -6.220  -2.906  1.00  0.00     0.010 C 
ENDROOT
BRANCH   1   2
HETATM    2  C   UNL     1     -21.487  -7.445  -3.804  1.00  0.00     0.111 C 
BRANCH   2   3
HETATM    3  C   UNL     1     -20.593  -7.209  -5.004  1.00  0.00     0.258 C 
HETATM    4  O   UNL     1     -19.935  -8.052  -5.582  1.00  0.00    -0.265 OA
BRANCH   3   5
HETATM    5  O   UNL     1     -20.535  -5.869  -5.240  1.00  0.00    -0.321 OA
BRANCH   5   6
HETATM    6  C   UNL     1     -20.032  -5.542  -6.538  1.00  0.00     0.178 C 
BRANCH   6   7
HETATM    7  C   UNL     1     -21.123  -5.526  -7.597  1.00  0.00     0.027 C 
BRANCH   7   8
HETATM    8  C   UNL     1     -22.028  -4.309  -7.379  1.00  0.00     0.002 C 
BRANCH   8   9
HETATM    9  C   UNL     1     -22.381  -3.621  -8.695  1.00  0.00     0.000 C 
BRANCH   9  10
HETATM   10  C   UNL     1     -22.665  -4.642  -9.802  1.00  0.00     0.004 C 
BRANCH  10  11
HETATM   11  C   UNL     1     -21.983  -4.295 -11.140  1.00  0.00    -0.023 C 
HETATM   12  C   UNL     1     -22.584  -3.009 -11.716  1.00  0.00     0.009 C 
HETATM   13  C   UNL     1     -20.468  -4.133 -11.000  1.00  0.00     0.009 C 
ENDBRANCH  10  11
ENDBRANCH   9  10
ENDBRANCH   8   9
ENDBRANCH   7   8
ENDBRANCH   6   7
ENDBRANCH   5   6
ENDBRANCH   3   5
ENDBRANCH   2   3
ENDBRANCH   1   2
BRANCH   1  14
HETATM   14  C   UNL     1     -22.236  -6.571  -1.568  1.00  0.00     0.010 C 
BRANCH  14  15
HETATM   15  C   UNL     1     -21.617  -7.831  -0.968  1.00  0.00     0.111 C 
BRANCH  15  16
HETATM   16  C   UNL     1     -22.628  -8.649  -0.199  1.00  0.00     0.258 C 
HETATM   17  O   UNL     1     -23.433  -8.208   0.608  1.00  0.00    -0.265 OA
BRANCH  16  18
HETATM   18  O   UNL     1     -22.390  -9.968  -0.437  1.00  0.00    -0.321 OA
BRANCH  18  19
HETATM   19  C   UNL     1     -23.445 -10.625  -1.142  1.00  0.00     0.178 C 
BRANCH  19  20
HETATM   20  C   UNL     1     -23.561 -12.097  -0.780  1.00  0.00     0.027 C 
BRANCH  20  21
HETATM   21  C   UNL     1     -23.366 -12.266   0.730  1.00  0.00     0.002 C 
BRANCH  21  22
HETATM   22  C   UNL     1     -22.191 -13.183   1.051  1.00  0.00     0.000 C 
BRANCH  22  23
HETATM   23  C   UNL     1     -22.472 -14.046   2.287  1.00  0.00     0.004 C 
BRANCH  23  24
HETATM   24  C   UNL     1     -23.908 -14.602   2.321  1.00  0.00    -0.023 C 
HETATM   25  C   UNL     1     -24.099 -15.783   1.367  1.00  0.00     0.009 C 
HETATM   26  C   UNL     1     -24.272 -15.029   3.745  1.00  0.00     0.009 C 
ENDBRANCH  23  24
ENDBRANCH  22  23
ENDBRANCH  21  22
ENDBRANCH  20  21
ENDBRANCH  19  20
ENDBRANCH  18  19
ENDBRANCH  16  18
ENDBRANCH  15  16
ENDBRANCH  14  15
ENDBRANCH   1  14
TORSDOF 19
BEGIN_RES ARG D 557
REMARK  4 active torsions:
REMARK  status: ('A' for Active; 'I' for Inactive)
REMARK    1  A    between atoms: CA   and  CB  
REMARK    2  A    between atoms: CB   and  CG  
REMARK    3  A    between atoms: CG   and  CD  
REMARK    4  A    between atoms: CD   and  NE  
REMARK       I    between atoms: NE   and  CZ  
REMARK       I    between atoms: CZ   and  NH1 
REMARK       I    between atoms: CZ   and  NH2 
ROOT
ATOM      1  CA  ARG D 557     -26.217   2.705 -17.014  1.00 35.49     0.159 C 
ENDROOT
BRANCH   1   2
ATOM      2  CB  ARG D 557     -26.789   1.319 -17.183  1.00 35.49     0.034 C 
BRANCH   2   3
ATOM      3  CG  ARG D 557     -28.231   1.226 -17.440  1.00 35.49     0.027 C 
BRANCH   3   4
ATOM      4  CD  ARG D 557     -28.913   0.301 -16.506  1.00 35.49     0.116 C 
BRANCH   4   5
ATOM      5  NE  ARG D 557     -28.128  -0.876 -16.241  1.00 35.49    -0.212 N 
ATOM      6  CZ  ARG D 557     -28.364  -2.080 -16.712  1.00 35.49     0.666 C 
ATOM      7  NH1 ARG D 557     -29.393  -2.345 -17.496  1.00 35.49    -0.235 N 
ATOM      8  NH2 ARG D 557     -27.534  -3.027 -16.384  1.00 35.49    -0.235 N 
ATOM      9  HH  ARG D 557     -29.951  -1.736 -17.727  1.00 35.49     0.174 HD
ATOM     10  HH  ARG D 557     -29.495  -3.148 -17.776  1.00 35.49     0.174 HD
ATOM     11  HH  ARG D 557     -26.875  -2.825 -15.882  1.00 35.49     0.174 HD
ATOM     12  HH  ARG D 557     -27.652  -3.816 -16.672  1.00 35.49     0.174 HD
ATOM     13  HE  ARG D 557     -27.487  -0.812 -15.686  1.00 35.49     0.178 HD
ENDBRANCH   4   5
ENDBRANCH   3   4
ENDBRANCH   2   3
ENDBRANCH   1   2
END_RES ARG D 557
BEGIN_RES GLU D 570
REMARK  3 active torsions:
REMARK  status: ('A' for Active; 'I' for Inactive)
REMARK    5  A    between atoms: CA   and  CB  
REMARK    6  A    between atoms: CB   and  CG  
REMARK    7  A    between atoms: CG   and  CD  
ROOT
ATOM     14  CA  GLU D 570     -18.033  -6.348 -13.375  1.00 32.92     0.160 C 
ENDROOT
BRANCH  14  15
ATOM     15  CB  GLU D 570     -19.500  -6.345 -13.794  1.00 32.92     0.043 C 
BRANCH  15  16
ATOM     16  CG  GLU D 570     -19.810  -5.973 -15.199  1.00 32.92     0.100 C 
BRANCH  16  17
ATOM     17  CD  GLU D 570     -21.227  -5.480 -15.379  1.00 32.92     0.185 C 
ATOM     18  OE1 GLU D 570     -21.540  -4.913 -16.443  1.00 32.92    -0.647 OA
ATOM     19  OE2 GLU D 570     -22.028  -5.648 -14.438  1.00 32.92    -0.647 OA
ENDBRANCH  16  17
ENDBRANCH  15  16
ENDBRANCH  14  15
END_RES GLU D 570
ENDMDL
MODEL 7
REMARK VINA RESULT:      -6.7      4.679     11.184
REMARK  19 active torsions:
REMARK  status: ('A' for Active; 'I' for Inactive)
REMARK    1  A    between atoms: C_2  and  C_4 
REMARK    2  A    between atoms: C_4  and  C_5 
REMARK    3  A    between atoms: C_5  and  C_6 
REMARK    4  A    between atoms: C_6  and  C_7 
REMARK    5  A    between atoms: C_7  and  C_8 
REMARK    6  A    between atoms: C_8  and  O_9 
REMARK    7  A    between atoms: O_9  and  C_10 
REMARK    8  A    between atoms: C_10  and  C_12 
REMARK    9  A    between atoms: C_12  and  C_13 
REMARK   10  A    between atoms: C_13  and  C_14 
REMARK   11  A    between atoms: C_14  and  C_15 
REMARK   12  A    between atoms: C_15  and  C_16 
REMARK   13  A    between atoms: C_16  and  O_18 
REMARK   14  A    between atoms: O_18  and  C_19 
REMARK   15  A    between atoms: C_19  and  C_20 
REMARK   16  A    between atoms: C_20  and  C_21 
REMARK   17  A    between atoms: C_21  and  C_22 
REMARK   18  A    between atoms: C_22  and  C_23 
REMARK   19  A    between atoms: C_23  and  C_24 
ROOT
HETATM    1  C   UNL     1     -19.855  -9.712  -3.311  1.00  0.00     0.010 C 
ENDROOT
BRANCH   1   2
HETATM    2  C   UNL     1     -18.460  -9.858  -2.717  1.00  0.00     0.111 C 
BRANCH   2   3
HETATM    3  C   UNL     1     -18.386 -10.969  -1.691  1.00  0.00     0.258 C 
HETATM    4  O   UNL     1     -17.390 -11.596  -1.386  1.00  0.00    -0.265 OA
BRANCH   3   5
HETATM    5  O   UNL     1     -19.650 -11.249  -1.268  1.00  0.00    -0.321 OA
BRANCH   5   6
HETATM    6  C   UNL     1     -19.733 -11.516   0.134  1.00  0.00     0.178 C 
BRANCH   6   7
HETATM    7  C   UNL     1     -21.001 -10.957   0.760  1.00  0.00     0.027 C 
BRANCH   7   8
HETATM    8  C   UNL     1     -21.216  -9.519   0.278  1.00  0.00     0.002 C 
BRANCH   8   9
HETATM    9  C   UNL     1     -22.459  -9.393  -0.597  1.00  0.00     0.000 C 
BRANCH   9  10
HETATM   10  C   UNL     1     -23.561 -10.359  -0.148  1.00  0.00     0.004 C 
BRANCH  10  11
HETATM   11  C   UNL     1     -23.976 -11.361  -1.243  1.00  0.00    -0.023 C 
HETATM   12  C   UNL     1     -23.084 -11.188  -2.476  1.00  0.00     0.009 C 
HETATM   13  C   UNL     1     -23.912 -12.812  -0.765  1.00  0.00     0.009 C 
ENDBRANCH  10  11
ENDBRANCH   9  10
ENDBRANCH   8   9
ENDBRANCH   7   8
ENDBRANCH   6   7
ENDBRANCH   5   6
ENDBRANCH   3   5
ENDBRANCH   2   3
ENDBRANCH   1   2
BRANCH   1  14
HETATM   14  C   UNL     1     -20.094  -8.285  -3.805  1.00  0.00     0.010 C 
BRANCH  14  15
HETATM   15  C   UNL     1     -21.582  -8.015  -4.008  1.00  0.00     0.111 C 
BRANCH  15  16
HETATM   16  C   UNL     1     -21.939  -6.571  -3.742  1.00  0.00     0.258 C 
HETATM   17  O   UNL     1     -22.046  -6.057  -2.639  1.00  0.00    -0.265 OA
BRANCH  16  18
HETATM   18  O   UNL     1     -22.271  -5.983  -4.923  1.00  0.00    -0.321 OA
BRANCH  18  19
HETATM   19  C   UNL     1     -21.155  -5.431  -5.625  1.00  0.00     0.178 C 
BRANCH  19  20
HETATM   20  C   UNL     1     -21.032  -5.968  -7.042  1.00  0.00     0.027 C 
BRANCH  20  21
HETATM   21  C   UNL     1     -19.888  -5.246  -7.761  1.00  0.00     0.002 C 
BRANCH  21  22
HETATM   22  C   UNL     1     -20.361  -3.963  -8.434  1.00  0.00     0.000 C 
BRANCH  22  23
HETATM   23  C   UNL     1     -21.820  -4.074  -8.893  1.00  0.00     0.004 C 
BRANCH  23  24
HETATM   24  C   UNL     1     -22.009  -3.757 -10.388  1.00  0.00    -0.023 C 
HETATM   25  C   UNL     1     -20.714  -3.915 -11.186  1.00  0.00     0.009 C 
HETATM   26  C   UNL     1     -23.093  -4.658 -10.983  1.00  0.00     0.009 C 
ENDBRANCH  23  24
ENDBRANCH  22  23
ENDBRANCH  21  22
ENDBRANCH  20  21
ENDBRANCH  19  20
ENDBRANCH  18  19
ENDBRANCH  16  18
ENDBRANCH  15  16
ENDBRANCH  14  15
ENDBRANCH   1  14
TORSDOF 19
BEGIN_RES ARG D 557
REMARK  4 active torsions:
REMARK  status: ('A' for Active; 'I' for Inactive)
REMARK    1  A    between atoms: CA   and  CB  
REMARK    2  A    between atoms: CB   and  CG  
REMARK    3  A    between atoms: CG   and  CD  
REMARK    4  A    between atoms: CD   and  NE  
REMARK       I    between atoms: NE   and  CZ  
REMARK       I    between atoms: CZ   and  NH1 
REMARK       I    between atoms: CZ   and  NH2 
ROOT
ATOM      1  CA  ARG D 557     -26.217   2.705 -17.014  1.00 35.49     0.159 C 
ENDROOT
BRANCH   1   2
ATOM      2  CB  ARG D 557     -26.789   1.319 -17.183  1.00 35.49     0.034 C 
BRANCH   2   3
ATOM      3  CG  ARG D 557     -25.863   0.195 -16.999  1.00 35.49     0.027 C 
BRANCH   3   4
ATOM      4  CD  ARG D 557     -26.280  -0.706 -15.900  1.00 35.49     0.116 C 
BRANCH   4   5
ATOM      5  NE  ARG D 557     -25.230  -0.908 -14.937  1.00 35.49    -0.212 N 
ATOM      6  CZ  ARG D 557     -24.955  -2.040 -14.327  1.00 35.49     0.666 C 
ATOM      7  NH1 ARG D 557     -25.649  -3.144 -14.534  1.00 35.49    -0.235 N 
ATOM      8  NH2 ARG D 557     -23.952  -2.046 -13.498  1.00 35.49    -0.235 N 
ATOM      9  HH  ARG D 557     -26.312  -3.163 -15.077  1.00 35.49     0.174 HD
ATOM     10  HH  ARG D 557     -25.422  -3.853 -14.110  1.00 35.49     0.174 HD
ATOM     11  HH  ARG D 557     -23.517  -1.320 -13.390  1.00 35.49     0.174 HD
ATOM     12  HH  ARG D 557     -23.742  -2.758 -13.089  1.00 35.49     0.174 HD
ATOM     13  HE  ARG D 557     -24.779  -0.231 -14.689  1.00 35.49     0.178 HD
ENDBRANCH   4   5
ENDBRANCH   3   4
ENDBRANCH   2   3
ENDBRANCH   1   2
END_RES ARG D 557
BEGIN_RES GLU D 570
REMARK  3 active torsions:
REMARK  status: ('A' for Active; 'I' for Inactive)
REMARK    5  A    between atoms: CA   and  CB  
REMARK    6  A    between atoms: CB   and  CG  
REMARK    7  A    between atoms: CG   and  CD  
ROOT
ATOM     14  CA  GLU D 570     -18.033  -6.348 -13.375  1.00 32.92     0.160 C 
ENDROOT
BRANCH  14  15
ATOM     15  CB  GLU D 570     -19.500  -6.345 -13.794  1.00 32.92     0.043 C 
BRANCH  15  16
ATOM     16  CG  GLU D 570     -19.805  -6.047 -15.217  1.00 32.92     0.100 C 
BRANCH  16  17
ATOM     17  CD  GLU D 570     -21.272  -5.784 -15.463  1.00 32.92     0.185 C 
ATOM     18  OE1 GLU D 570     -22.115  -6.582 -15.010  1.00 32.92    -0.647 OA
ATOM     19  OE2 GLU D 570     -21.581  -4.777 -16.131  1.00 32.92    -0.647 OA
ENDBRANCH  16  17
ENDBRANCH  15  16
ENDBRANCH  14  15
END_RES GLU D 570
ENDMDL
MODEL 8
REMARK VINA RESULT:      -6.6      5.941     12.317
REMARK  19 active torsions:
REMARK  status: ('A' for Active; 'I' for Inactive)
REMARK    1  A    between atoms: C_2  and  C_4 
REMARK    2  A    between atoms: C_4  and  C_5 
REMARK    3  A    between atoms: C_5  and  C_6 
REMARK    4  A    between atoms: C_6  and  C_7 
REMARK    5  A    between atoms: C_7  and  C_8 
REMARK    6  A    between atoms: C_8  and  O_9 
REMARK    7  A    between atoms: O_9  and  C_10 
REMARK    8  A    between atoms: C_10  and  C_12 
REMARK    9  A    between atoms: C_12  and  C_13 
REMARK   10  A    between atoms: C_13  and  C_14 
REMARK   11  A    between atoms: C_14  and  C_15 
REMARK   12  A    between atoms: C_15  and  C_16 
REMARK   13  A    between atoms: C_16  and  O_18 
REMARK   14  A    between atoms: O_18  and  C_19 
REMARK   15  A    between atoms: C_19  and  C_20 
REMARK   16  A    between atoms: C_20  and  C_21 
REMARK   17  A    between atoms: C_21  and  C_22 
REMARK   18  A    between atoms: C_22  and  C_23 
REMARK   19  A    between atoms: C_23  and  C_24 
ROOT
HETATM    1  C   UNL     1     -22.409  -6.969  -0.828  1.00  0.00     0.010 C 
ENDROOT
BRANCH   1   2
HETATM    2  C   UNL     1     -21.398  -8.101  -0.705  1.00  0.00     0.111 C 
BRANCH   2   3
HETATM    3  C   UNL     1     -21.805  -9.125   0.334  1.00  0.00     0.258 C 
HETATM    4  O   UNL     1     -21.058  -9.701   1.101  1.00  0.00    -0.265 OA
BRANCH   3   5
HETATM    5  O   UNL     1     -23.129  -9.402   0.169  1.00  0.00    -0.321 OA
BRANCH   5   6
HETATM    6  C   UNL     1     -23.372 -10.532  -0.672  1.00  0.00     0.178 C 
BRANCH   6   7
HETATM    7  C   UNL     1     -23.729 -11.780   0.119  1.00  0.00     0.027 C 
BRANCH   7   8
HETATM    8  C   UNL     1     -22.552 -12.760   0.085  1.00  0.00     0.002 C 
BRANCH   8   9
HETATM    9  C   UNL     1     -22.273 -13.360   1.460  1.00  0.00     0.000 C 
BRANCH   9  10
HETATM   10  C   UNL     1     -22.237 -14.891   1.407  1.00  0.00     0.004 C 
BRANCH  10  11
HETATM   11  C   UNL     1     -23.463 -15.552   2.068  1.00  0.00    -0.023 C 
HETATM   12  C   UNL     1     -24.087 -14.594   3.088  1.00  0.00     0.009 C 
HETATM   13  C   UNL     1     -24.522 -15.974   1.049  1.00  0.00     0.009 C 
ENDBRANCH  10  11
ENDBRANCH   9  10
ENDBRANCH   8   9
ENDBRANCH   7   8
ENDBRANCH   6   7
ENDBRANCH   5   6
ENDBRANCH   3   5
ENDBRANCH   2   3
ENDBRANCH   1   2
BRANCH   1  14
HETATM   14  C   UNL     1     -22.062  -6.048  -1.998  1.00  0.00     0.010 C 
BRANCH  14  15
HETATM   15  C   UNL     1     -21.296  -6.801  -3.083  1.00  0.00     0.111 C 
BRANCH  15  16
HETATM   16  C   UNL     1     -21.644  -6.309  -4.468  1.00  0.00     0.258 C 
HETATM   17  O   UNL     1     -22.774  -6.184  -4.915  1.00  0.00    -0.265 OA
BRANCH  16  18
HETATM   18  O   UNL     1     -20.493  -6.178  -5.183  1.00  0.00    -0.321 OA
BRANCH  18  19
HETATM   19  C   UNL     1     -20.525  -5.112  -6.133  1.00  0.00     0.178 C 
BRANCH  19  20
HETATM   20  C   UNL     1     -20.677  -5.607  -7.563  1.00  0.00     0.027 C 
BRANCH  20  21
HETATM   21  C   UNL     1     -19.951  -4.650  -8.513  1.00  0.00     0.002 C 
BRANCH  21  22
HETATM   22  C   UNL     1     -20.874  -4.132  -9.610  1.00  0.00     0.000 C 
BRANCH  22  23
HETATM   23  C   UNL     1     -22.339  -4.124  -9.155  1.00  0.00     0.004 C 
BRANCH  23  24
HETATM   24  C   UNL     1     -23.313  -3.676 -10.260  1.00  0.00    -0.023 C 
HETATM   25  C   UNL     1     -23.494  -4.739 -11.345  1.00  0.00     0.009 C 
HETATM   26  C   UNL     1     -24.673  -3.327  -9.651  1.00  0.00     0.009 C 
ENDBRANCH  23  24
ENDBRANCH  22  23
ENDBRANCH  21  22
ENDBRANCH  20  21
ENDBRANCH  19  20
ENDBRANCH  18  19
ENDBRANCH  16  18
ENDBRANCH  15  16
ENDBRANCH  14  15
ENDBRANCH   1  14
TORSDOF 19
BEGIN_RES ARG D 557
REMARK  4 active torsions:
REMARK  status: ('A' for Active; 'I' for Inactive)
REMARK    1  A    between atoms: CA   and  CB  
REMARK    2  A    between atoms: CB   and  CG  
REMARK    3  A    between atoms: CG   and  CD  
REMARK    4  A    between atoms: CD   and  NE  
REMARK       I    between atoms: NE   and  CZ  
REMARK       I    between atoms: CZ   and  NH1 
REMARK       I    between atoms: CZ   and  NH2 
ROOT
ATOM      1  CA  ARG D 557     -26.217   2.705 -17.014  1.00 35.49     0.159 C 
ENDROOT
BRANCH   1   2
ATOM      2  CB  ARG D 557     -26.789   1.319 -17.183  1.00 35.49     0.034 C 
BRANCH   2   3
ATOM      3  CG  ARG D 557     -28.231   1.226 -17.440  1.00 35.49     0.027 C 
BRANCH   3   4
ATOM      4  CD  ARG D 557     -28.914   0.305 -16.503  1.00 35.49     0.116 C 
BRANCH   4   5
ATOM      5  NE  ARG D 557     -29.296  -0.929 -17.137  1.00 35.49    -0.212 N 
ATOM      6  CZ  ARG D 557     -28.660  -2.074 -17.035  1.00 35.49     0.666 C 
ATOM      7  NH1 ARG D 557     -27.555  -2.211 -16.325  1.00 35.49    -0.235 N 
ATOM      8  NH2 ARG D 557     -29.163  -3.098 -17.663  1.00 35.49    -0.235 N 
ATOM      9  HH  ARG D 557     -27.208  -1.552 -15.903  1.00 35.49     0.174 HD
ATOM     10  HH  ARG D 557     -27.185  -2.984 -16.294  1.00 35.49     0.174 HD
ATOM     11  HH  ARG D 557     -29.881  -2.981 -18.108  1.00 35.49     0.174 HD
ATOM     12  HH  ARG D 557     -28.782  -3.854 -17.618  1.00 35.49     0.174 HD
ATOM     13  HE  ARG D 557     -29.957  -0.914 -17.673  1.00 35.49     0.178 HD
ENDBRANCH   4   5
ENDBRANCH   3   4
ENDBRANCH   2   3
ENDBRANCH   1   2
END_RES ARG D 557
BEGIN_RES GLU D 570
REMARK  3 active torsions:
REMARK  status: ('A' for Active; 'I' for Inactive)
REMARK    5  A    between atoms: CA   and  CB  
REMARK    6  A    between atoms: CB   and  CG  
REMARK    7  A    between atoms: CG   and  CD  
ROOT
ATOM     14  CA  GLU D 570     -18.033  -6.348 -13.375  1.00 32.92     0.160 C 
ENDROOT
BRANCH  14  15
ATOM     15  CB  GLU D 570     -19.500  -6.345 -13.794  1.00 32.92     0.043 C 
BRANCH  15  16
ATOM     16  CG  GLU D 570     -19.800  -6.142 -15.235  1.00 32.92     0.100 C 
BRANCH  16  17
ATOM     17  CD  GLU D 570     -21.087  -5.386 -15.468  1.00 32.92     0.185 C 
ATOM     18  OE1 GLU D 570     -21.470  -5.190 -16.638  1.00 32.92    -0.647 OA
ATOM     19  OE2 GLU D 570     -21.709  -4.970 -14.472  1.00 32.92    -0.647 OA
ENDBRANCH  16  17
ENDBRANCH  15  16
ENDBRANCH  14  15
END_RES GLU D 570
ENDMDL
MODEL 9
REMARK VINA RESULT:      -6.6      4.133     11.136
REMARK  19 active torsions:
REMARK  status: ('A' for Active; 'I' for Inactive)
REMARK    1  A    between atoms: C_2  and  C_4 
REMARK    2  A    between atoms: C_4  and  C_5 
REMARK    3  A    between atoms: C_5  and  C_6 
REMARK    4  A    between atoms: C_6  and  C_7 
REMARK    5  A    between atoms: C_7  and  C_8 
REMARK    6  A    between atoms: C_8  and  O_9 
REMARK    7  A    between atoms: O_9  and  C_10 
REMARK    8  A    between atoms: C_10  and  C_12 
REMARK    9  A    between atoms: C_12  and  C_13 
REMARK   10  A    between atoms: C_13  and  C_14 
REMARK   11  A    between atoms: C_14  and  C_15 
REMARK   12  A    between atoms: C_15  and  C_16 
REMARK   13  A    between atoms: C_16  and  O_18 
REMARK   14  A    between atoms: O_18  and  C_19 
REMARK   15  A    between atoms: C_19  and  C_20 
REMARK   16  A    between atoms: C_20  and  C_21 
REMARK   17  A    between atoms: C_21  and  C_22 
REMARK   18  A    between atoms: C_22  and  C_23 
REMARK   19  A    between atoms: C_23  and  C_24 
ROOT
HETATM    1  C   UNL     1     -21.908  -6.235  -2.300  1.00  0.00     0.010 C 
ENDROOT
BRANCH   1   2
HETATM    2  C   UNL     1     -21.290  -7.299  -1.404  1.00  0.00     0.111 C 
BRANCH   2   3
HETATM    3  C   UNL     1     -22.282  -7.857  -0.405  1.00  0.00     0.258 C 
HETATM    4  O   UNL     1     -23.328  -7.336  -0.069  1.00  0.00    -0.265 OA
BRANCH   3   5
HETATM    5  O   UNL     1     -21.742  -8.971   0.162  1.00  0.00    -0.321 OA
BRANCH   5   6
HETATM    6  C   UNL     1     -22.055 -10.176  -0.541  1.00  0.00     0.178 C 
BRANCH   6   7
HETATM    7  C   UNL     1     -20.957 -11.220  -0.425  1.00  0.00     0.027 C 
BRANCH   7   8
HETATM    8  C   UNL     1     -19.738 -10.773  -1.238  1.00  0.00     0.002 C 
BRANCH   8   9
HETATM    9  C   UNL     1     -20.098 -10.494  -2.694  1.00  0.00     0.000 C 
BRANCH   9  10
HETATM   10  C   UNL     1     -19.173  -9.438  -3.308  1.00  0.00     0.004 C 
BRANCH  10  11
HETATM   11  C   UNL     1     -17.882 -10.033  -3.905  1.00  0.00    -0.023 C 
HETATM   12  C   UNL     1     -17.782  -9.679  -5.392  1.00  0.00     0.009 C 
HETATM   13  C   UNL     1     -16.625  -9.552  -3.179  1.00  0.00     0.009 C 
ENDBRANCH  10  11
ENDBRANCH   9  10
ENDBRANCH   8   9
ENDBRANCH   7   8
ENDBRANCH   6   7
ENDBRANCH   5   6
ENDBRANCH   3   5
ENDBRANCH   2   3
ENDBRANCH   1   2
BRANCH   1  14
HETATM   14  C   UNL     1     -22.126  -6.768  -3.716  1.00  0.00     0.010 C 
BRANCH  14  15
HETATM   15  C   UNL     1     -21.103  -6.184  -4.687  1.00  0.00     0.111 C 
BRANCH  15  16
HETATM   16  C   UNL     1     -20.766  -7.146  -5.802  1.00  0.00     0.258 C 
HETATM   17  O   UNL     1     -21.219  -8.274  -5.929  1.00  0.00    -0.265 OA
BRANCH  16  18
HETATM   18  O   UNL     1     -19.761  -6.611  -6.547  1.00  0.00    -0.321 OA
BRANCH  18  19
HETATM   19  C   UNL     1     -19.821  -5.187  -6.653  1.00  0.00     0.178 C 
BRANCH  19  20
HETATM   20  C   UNL     1     -19.973  -4.713  -8.090  1.00  0.00     0.027 C 
BRANCH  20  21
HETATM   21  C   UNL     1     -21.380  -4.142  -8.291  1.00  0.00     0.002 C 
BRANCH  21  22
HETATM   22  C   UNL     1     -21.693  -3.913  -9.766  1.00  0.00     0.000 C 
BRANCH  22  23
HETATM   23  C   UNL     1     -22.879  -4.769 -10.228  1.00  0.00     0.004 C 
BRANCH  23  24
HETATM   24  C   UNL     1     -24.072  -3.931 -10.723  1.00  0.00    -0.023 C 
HETATM   25  C   UNL     1     -24.815  -3.240  -9.578  1.00  0.00     0.009 C 
HETATM   26  C   UNL     1     -23.597  -2.884 -11.732  1.00  0.00     0.009 C 
ENDBRANCH  23  24
ENDBRANCH  22  23
ENDBRANCH  21  22
ENDBRANCH  20  21
ENDBRANCH  19  20
ENDBRANCH  18  19
ENDBRANCH  16  18
ENDBRANCH  15  16
ENDBRANCH  14  15
ENDBRANCH   1  14
TORSDOF 19
BEGIN_RES ARG D 557
REMARK  4 active torsions:
REMARK  status: ('A' for Active; 'I' for Inactive)
REMARK    1  A    between atoms: CA   and  CB  
REMARK    2  A    between atoms: CB   and  CG  
REMARK    3  A    between atoms: CG   and  CD  
REMARK    4  A    between atoms: CD   and  NE  
REMARK       I    between atoms: NE   and  CZ  
REMARK       I    between atoms: CZ   and  NH1 
REMARK       I    between atoms: CZ   and  NH2 
ROOT
ATOM      1  CA  ARG D 557     -26.217   2.705 -17.014  1.00 35.49     0.159 C 
ENDROOT
BRANCH   1   2
ATOM      2  CB  ARG D 557     -26.789   1.319 -17.183  1.00 35.49     0.034 C 
BRANCH   2   3
ATOM      3  CG  ARG D 557     -28.234   1.225 -17.423  1.00 35.49     0.027 C 
BRANCH   3   4
ATOM      4  CD  ARG D 557     -28.903   0.296 -16.483  1.00 35.49     0.116 C 
BRANCH   4   5
ATOM      5  NE  ARG D 557     -29.312  -0.924 -17.127  1.00 35.49    -0.212 N 
ATOM      6  CZ  ARG D 557     -28.693  -2.081 -17.044  1.00 35.49     0.666 C 
ATOM      7  NH1 ARG D 557     -27.583  -2.243 -16.347  1.00 35.49    -0.235 N 
ATOM      8  NH2 ARG D 557     -29.218  -3.089 -17.677  1.00 35.49    -0.235 N 
ATOM      9  HH  ARG D 557     -27.221  -1.593 -15.921  1.00 35.49     0.174 HD
ATOM     10  HH  ARG D 557     -27.225  -3.021 -16.327  1.00 35.49     0.174 HD
ATOM     11  HH  ARG D 557     -29.939  -2.957 -18.113  1.00 35.49     0.174 HD
ATOM     12  HH  ARG D 557     -28.849  -3.852 -17.644  1.00 35.49     0.174 HD
ATOM     13  HE  ARG D 557     -29.977  -0.894 -17.655  1.00 35.49     0.178 HD
ENDBRANCH   4   5
ENDBRANCH   3   4
ENDBRANCH   2   3
ENDBRANCH   1   2
END_RES ARG D 557
BEGIN_RES GLU D 570
REMARK  3 active torsions:
REMARK  status: ('A' for Active; 'I' for Inactive)
REMARK    5  A    between atoms: CA   and  CB  
REMARK    6  A    between atoms: CB   and  CG  
REMARK    7  A    between atoms: CG   and  CD  
ROOT
ATOM     14  CA  GLU D 570     -18.033  -6.348 -13.375  1.00 32.92     0.160 C 
ENDROOT
BRANCH  14  15
ATOM     15  CB  GLU D 570     -19.500  -6.345 -13.794  1.00 32.92     0.043 C 
BRANCH  15  16
ATOM     16  CG  GLU D 570     -20.426  -5.461 -13.040  1.00 32.92     0.100 C 
BRANCH  16  17
ATOM     17  CD  GLU D 570     -21.722  -5.202 -13.772  1.00 32.92     0.185 C 
ATOM     18  OE1 GLU D 570     -21.766  -4.291 -14.620  1.00 32.92    -0.647 OA
ATOM     19  OE2 GLU D 570     -22.708  -5.909 -13.482  1.00 32.92    -0.647 OA
ENDBRANCH  16  17
ENDBRANCH  15  16
ENDBRANCH  14  15
END_RES GLU D 570
ENDMDL
