MODEL 1
REMARK VINA RESULT:      -6.0      0.000      0.000
REMARK  9 active torsions:
REMARK  status: ('A' for Active; 'I' for Inactive)
REMARK    1  A    between atoms: C_2  and  C_4 
REMARK    2  A    between atoms: C_2  and  C_6 
REMARK    3  A    between atoms: C_4  and  O_5 
REMARK    4  A    between atoms: C_6  and  C_7 
REMARK    5  A    between atoms: C_6  and  O_14 
REMARK       I    between atoms: C_7  and  N_9 
REMARK    6  A    between atoms: N_9  and  C_10 
REMARK    7  A    between atoms: C_10  and  C_11 
REMARK    8  A    between atoms: C_11  and  C_12 
REMARK    9  A    between atoms: C_12  and  O_13 
ROOT
HETATM    1  C   UNL     1     -23.187  -2.651 -12.335  1.00  0.00     0.219 C 
ENDROOT
BRANCH   1   2
HETATM    2  C   UNL     1     -23.707  -3.365 -13.616  1.00  0.00     0.008 C 
HETATM    3  C   UNL     1     -25.178  -3.001 -13.895  1.00  0.00     0.020 C 
HETATM    4  C   UNL     1     -23.600  -4.899 -13.478  1.00  0.00     0.020 C 
BRANCH   2   5
HETATM    5  C   UNL     1     -22.837  -2.899 -14.810  1.00  0.00     0.175 C 
BRANCH   5   6
HETATM    6  O   UNL     1     -21.919  -3.908 -15.224  1.00  0.00    -0.400 OA
HETATM    7  H   UNL     1     -21.283  -4.037 -14.501  1.00  0.00     0.209 HD
ENDBRANCH   5   6
ENDBRANCH   2   5
ENDBRANCH   1   2
BRANCH   1   8
HETATM    8  C   UNL     1     -23.792  -3.201 -11.028  1.00  0.00     0.247 C 
HETATM    9  O   UNL     1     -25.009  -3.177 -10.839  1.00  0.00    -0.271 OA
HETATM   10  N   UNL     1     -22.891  -3.712 -10.124  1.00  0.00    -0.359 N 
HETATM   11  H   UNL     1     -21.909  -3.762 -10.364  1.00  0.00     0.162 HD
BRANCH  10  12
HETATM   12  C   UNL     1     -23.314  -4.234  -8.836  1.00  0.00     0.125 C 
BRANCH  12  13
HETATM   13  C   UNL     1     -22.206  -4.099  -7.794  1.00  0.00     0.046 C 
BRANCH  13  14
HETATM   14  C   UNL     1     -21.081  -5.097  -8.032  1.00  0.00     0.165 C 
BRANCH  14  15
HETATM   15  O   UNL     1     -20.251  -4.683  -9.106  1.00  0.00    -0.401 OA
HETATM   16  H   UNL     1     -20.709  -3.967  -9.580  1.00  0.00     0.209 HD
ENDBRANCH  14  15
ENDBRANCH  13  14
ENDBRANCH  12  13
ENDBRANCH  10  12
ENDBRANCH   1   8
BRANCH   1  17
HETATM   17  O   UNL     1     -21.763  -2.776 -12.251  1.00  0.00    -0.385 OA
HETATM   18  H   UNL     1     -21.570  -3.732 -12.351  1.00  0.00     0.210 HD
ENDBRANCH   1  17
TORSDOF 9
BEGIN_RES ARG D 557
REMARK  4 active torsions:
REMARK  status: ('A' for Active; 'I' for Inactive)
REMARK    1  A    between atoms: CA   and  CB  
REMARK    2  A    between atoms: CB   and  CG  
REMARK    3  A    between atoms: CG   and  CD  
REMARK    4  A    between atoms: CD   and  NE  
REMARK       I    between atoms: NE   and  CZ  
REMARK       I    between atoms: CZ   and  NH1 
REMARK       I    between atoms: CZ   and  NH2 
ROOT
ATOM      1  CA  ARG D 557     -26.217   2.705 -17.014  1.00 35.49     0.159 C 
ENDROOT
BRANCH   1   2
ATOM      2  CB  ARG D 557     -26.789   1.319 -17.183  1.00 35.49     0.034 C 
BRANCH   2   3
ATOM      3  CG  ARG D 557     -28.156   1.104 -16.694  1.00 35.49     0.027 C 
BRANCH   3   4
ATOM      4  CD  ARG D 557     -28.787  -0.096 -17.290  1.00 35.49     0.116 C 
BRANCH   4   5
ATOM      5  NE  ARG D 557     -28.167  -1.314 -16.841  1.00 35.49    -0.212 N 
ATOM      6  CZ  ARG D 557     -28.638  -2.528 -17.020  1.00 35.49     0.666 C 
ATOM      7  NH1 ARG D 557     -29.779  -2.760 -17.642  1.00 35.49    -0.235 N 
ATOM      8  NH2 ARG D 557     -27.931  -3.520 -16.564  1.00 35.49    -0.235 N 
ATOM      9  HH  ARG D 557     -30.260  -2.122 -17.952  1.00 35.49     0.174 HD
ATOM     10  HH  ARG D 557     -30.036  -3.573 -17.732  1.00 35.49     0.174 HD
ATOM     11  HH  ARG D 557     -27.194  -3.340 -16.173  1.00 35.49     0.174 HD
ATOM     12  HH  ARG D 557     -28.201  -4.318 -16.664  1.00 35.49     0.174 HD
ATOM     13  HE  ARG D 557     -27.463  -1.253 -16.367  1.00 35.49     0.178 HD
ENDBRANCH   4   5
ENDBRANCH   3   4
ENDBRANCH   2   3
ENDBRANCH   1   2
END_RES ARG D 557
BEGIN_RES GLU D 570
REMARK  3 active torsions:
REMARK  status: ('A' for Active; 'I' for Inactive)
REMARK    5  A    between atoms: CA   and  CB  
REMARK    6  A    between atoms: CB   and  CG  
REMARK    7  A    between atoms: CG   and  CD  
ROOT
ATOM     14  CA  GLU D 570     -18.033  -6.348 -13.375  1.00 32.92     0.160 C 
ENDROOT
BRANCH  14  15
ATOM     15  CB  GLU D 570     -19.500  -6.345 -13.794  1.00 32.92     0.043 C 
BRANCH  15  16
ATOM     16  CG  GLU D 570     -20.071  -7.621 -14.296  1.00 32.92     0.100 C 
BRANCH  16  17
ATOM     17  CD  GLU D 570     -20.758  -7.474 -15.634  1.00 32.92     0.185 C 
ATOM     18  OE1 GLU D 570     -20.663  -6.394 -16.247  1.00 32.92    -0.647 OA
ATOM     19  OE2 GLU D 570     -21.412  -8.444 -16.065  1.00 32.92    -0.647 OA
ENDBRANCH  16  17
ENDBRANCH  15  16
ENDBRANCH  14  15
END_RES GLU D 570
ENDMDL
MODEL 2
REMARK VINA RESULT:      -5.9      1.680      4.028
REMARK  9 active torsions:
REMARK  status: ('A' for Active; 'I' for Inactive)
REMARK    1  A    between atoms: C_2  and  C_4 
REMARK    2  A    between atoms: C_2  and  C_6 
REMARK    3  A    between atoms: C_4  and  O_5 
REMARK    4  A    between atoms: C_6  and  C_7 
REMARK    5  A    between atoms: C_6  and  O_14 
REMARK       I    between atoms: C_7  and  N_9 
REMARK    6  A    between atoms: N_9  and  C_10 
REMARK    7  A    between atoms: C_10  and  C_11 
REMARK    8  A    between atoms: C_11  and  C_12 
REMARK    9  A    between atoms: C_12  and  O_13 
ROOT
HETATM    1  C   UNL     1     -22.068  -4.509 -11.850  1.00  0.00     0.219 C 
ENDROOT
BRANCH   1   2
HETATM    2  C   UNL     1     -22.861  -4.239 -10.539  1.00  0.00     0.008 C 
HETATM    3  C   UNL     1     -21.909  -4.083  -9.336  1.00  0.00     0.020 C 
HETATM    4  C   UNL     1     -23.844  -5.392 -10.238  1.00  0.00     0.020 C 
BRANCH   2   5
HETATM    5  C   UNL     1     -23.659  -2.924 -10.725  1.00  0.00     0.175 C 
BRANCH   5   6
HETATM    6  O   UNL     1     -25.040  -3.173 -10.980  1.00  0.00    -0.400 OA
HETATM    7  H   UNL     1     -25.135  -3.328 -11.934  1.00  0.00     0.209 HD
ENDBRANCH   5   6
ENDBRANCH   2   5
ENDBRANCH   1   2
BRANCH   1   8
HETATM    8  C   UNL     1     -22.835  -4.123 -13.131  1.00  0.00     0.247 C 
HETATM    9  O   UNL     1     -23.794  -4.792 -13.516  1.00  0.00    -0.271 OA
HETATM   10  N   UNL     1     -22.380  -3.000 -13.781  1.00  0.00    -0.359 N 
HETATM   11  H   UNL     1     -21.627  -2.456 -13.380  1.00  0.00     0.162 HD
BRANCH  10  12
HETATM   12  C   UNL     1     -22.985  -2.537 -15.018  1.00  0.00     0.125 C 
BRANCH  12  13
HETATM   13  C   UNL     1     -23.953  -1.384 -14.761  1.00  0.00     0.046 C 
BRANCH  13  14
HETATM   14  C   UNL     1     -25.401  -1.852 -14.755  1.00  0.00     0.165 C 
BRANCH  14  15
HETATM   15  O   UNL     1     -25.493  -3.232 -15.073  1.00  0.00    -0.401 OA
HETATM   16  H   UNL     1     -24.985  -3.727 -14.406  1.00  0.00     0.209 HD
ENDBRANCH  14  15
ENDBRANCH  13  14
ENDBRANCH  12  13
ENDBRANCH  10  12
ENDBRANCH   1   8
BRANCH   1  17
HETATM   17  O   UNL     1     -20.836  -3.778 -11.833  1.00  0.00    -0.385 OA
HETATM   18  H   UNL     1     -20.157  -4.388 -12.189  1.00  0.00     0.210 HD
ENDBRANCH   1  17
TORSDOF 9
BEGIN_RES ARG D 557
REMARK  4 active torsions:
REMARK  status: ('A' for Active; 'I' for Inactive)
REMARK    1  A    between atoms: CA   and  CB  
REMARK    2  A    between atoms: CB   and  CG  
REMARK    3  A    between atoms: CG   and  CD  
REMARK    4  A    between atoms: CD   and  NE  
REMARK       I    between atoms: NE   and  CZ  
REMARK       I    between atoms: CZ   and  NH1 
REMARK       I    between atoms: CZ   and  NH2 
ROOT
ATOM      1  CA  ARG D 557     -26.217   2.705 -17.014  1.00 35.49     0.159 C 
ENDROOT
BRANCH   1   2
ATOM      2  CB  ARG D 557     -26.789   1.319 -17.183  1.00 35.49     0.034 C 
BRANCH   2   3
ATOM      3  CG  ARG D 557     -28.155   1.103 -16.690  1.00 35.49     0.027 C 
BRANCH   3   4
ATOM      4  CD  ARG D 557     -28.804  -0.068 -17.322  1.00 35.49     0.116 C 
BRANCH   4   5
ATOM      5  NE  ARG D 557     -28.214  -1.310 -16.898  1.00 35.49    -0.212 N 
ATOM      6  CZ  ARG D 557     -28.734  -2.505 -17.067  1.00 35.49     0.666 C 
ATOM      7  NH1 ARG D 557     -29.901  -2.694 -17.654  1.00 35.49    -0.235 N 
ATOM      8  NH2 ARG D 557     -28.048  -3.524 -16.638  1.00 35.49    -0.235 N 
ATOM      9  HH  ARG D 557     -30.369  -2.037 -17.946  1.00 35.49     0.174 HD
ATOM     10  HH  ARG D 557     -30.189  -3.496 -17.739  1.00 35.49     0.174 HD
ATOM     11  HH  ARG D 557     -27.294  -3.373 -16.270  1.00 35.49     0.174 HD
ATOM     12  HH  ARG D 557     -28.349  -4.311 -16.733  1.00 35.49     0.174 HD
ATOM     13  HE  ARG D 557     -27.494  -1.276 -16.446  1.00 35.49     0.178 HD
ENDBRANCH   4   5
ENDBRANCH   3   4
ENDBRANCH   2   3
ENDBRANCH   1   2
END_RES ARG D 557
BEGIN_RES GLU D 570
REMARK  3 active torsions:
REMARK  status: ('A' for Active; 'I' for Inactive)
REMARK    5  A    between atoms: CA   and  CB  
REMARK    6  A    between atoms: CB   and  CG  
REMARK    7  A    between atoms: CG   and  CD  
ROOT
ATOM     14  CA  GLU D 570     -18.033  -6.348 -13.375  1.00 32.92     0.160 C 
ENDROOT
BRANCH  14  15
ATOM     15  CB  GLU D 570     -19.500  -6.345 -13.794  1.00 32.92     0.043 C 
BRANCH  15  16
ATOM     16  CG  GLU D 570     -19.814  -5.920 -15.183  1.00 32.92     0.100 C 
BRANCH  16  17
ATOM     17  CD  GLU D 570     -21.249  -6.192 -15.571  1.00 32.92     0.185 C 
ATOM     18  OE1 GLU D 570     -21.775  -5.500 -16.464  1.00 32.92    -0.647 OA
ATOM     19  OE2 GLU D 570     -21.858  -7.095 -14.965  1.00 32.92    -0.647 OA
ENDBRANCH  16  17
ENDBRANCH  15  16
ENDBRANCH  14  15
END_RES GLU D 570
ENDMDL
MODEL 3
REMARK VINA RESULT:      -5.9      1.757      3.045
REMARK  9 active torsions:
REMARK  status: ('A' for Active; 'I' for Inactive)
REMARK    1  A    between atoms: C_2  and  C_4 
REMARK    2  A    between atoms: C_2  and  C_6 
REMARK    3  A    between atoms: C_4  and  O_5 
REMARK    4  A    between atoms: C_6  and  C_7 
REMARK    5  A    between atoms: C_6  and  O_14 
REMARK       I    between atoms: C_7  and  N_9 
REMARK    6  A    between atoms: N_9  and  C_10 
REMARK    7  A    between atoms: C_10  and  C_11 
REMARK    8  A    between atoms: C_11  and  C_12 
REMARK    9  A    between atoms: C_12  and  O_13 
ROOT
HETATM    1  C   UNL     1     -22.168  -3.143 -10.915  1.00  0.00     0.219 C 
ENDROOT
BRANCH   1   2
HETATM    2  C   UNL     1     -23.624  -3.690 -10.907  1.00  0.00     0.008 C 
HETATM    3  C   UNL     1     -23.638  -5.229 -10.819  1.00  0.00     0.020 C 
HETATM    4  C   UNL     1     -24.383  -3.267 -12.184  1.00  0.00     0.020 C 
BRANCH   2   5
HETATM    5  C   UNL     1     -24.347  -3.107  -9.667  1.00  0.00     0.175 C 
BRANCH   5   6
HETATM    6  O   UNL     1     -24.183  -3.937  -8.519  1.00  0.00    -0.400 OA
HETATM    7  H   UNL     1     -24.746  -3.573  -7.816  1.00  0.00     0.209 HD
ENDBRANCH   5   6
ENDBRANCH   2   5
ENDBRANCH   1   2
BRANCH   1   8
HETATM    8  C   UNL     1     -21.148  -4.080 -10.237  1.00  0.00     0.247 C 
HETATM    9  O   UNL     1     -20.384  -4.772 -10.911  1.00  0.00    -0.271 OA
HETATM   10  N   UNL     1     -21.156  -4.072  -8.862  1.00  0.00    -0.359 N 
HETATM   11  H   UNL     1     -21.764  -3.434  -8.365  1.00  0.00     0.162 HD
BRANCH  10  12
HETATM   12  C   UNL     1     -20.273  -4.928  -8.089  1.00  0.00     0.125 C 
BRANCH  12  13
HETATM   13  C   UNL     1     -20.500  -4.746  -6.589  1.00  0.00     0.046 C 
BRANCH  13  14
HETATM   14  C   UNL     1     -21.664  -5.588  -6.087  1.00  0.00     0.165 C 
BRANCH  14  15
HETATM   15  O   UNL     1     -22.906  -4.949  -6.342  1.00  0.00    -0.401 OA
HETATM   16  H   UNL     1     -23.593  -5.638  -6.387  1.00  0.00     0.209 HD
ENDBRANCH  14  15
ENDBRANCH  13  14
ENDBRANCH  12  13
ENDBRANCH  10  12
ENDBRANCH   1   8
BRANCH   1  17
HETATM   17  O   UNL     1     -21.737  -2.921 -12.263  1.00  0.00    -0.385 OA
HETATM   18  H   UNL     1     -20.898  -2.419 -12.198  1.00  0.00     0.210 HD
ENDBRANCH   1  17
TORSDOF 9
BEGIN_RES ARG D 557
REMARK  4 active torsions:
REMARK  status: ('A' for Active; 'I' for Inactive)
REMARK    1  A    between atoms: CA   and  CB  
REMARK    2  A    between atoms: CB   and  CG  
REMARK    3  A    between atoms: CG   and  CD  
REMARK    4  A    between atoms: CD   and  NE  
REMARK       I    between atoms: NE   and  CZ  
REMARK       I    between atoms: CZ   and  NH1 
REMARK       I    between atoms: CZ   and  NH2 
ROOT
ATOM      1  CA  ARG D 557     -26.217   2.705 -17.014  1.00 35.49     0.159 C 
ENDROOT
BRANCH   1   2
ATOM      2  CB  ARG D 557     -26.789   1.319 -17.183  1.00 35.49     0.034 C 
BRANCH   2   3
ATOM      3  CG  ARG D 557     -28.229   1.227 -17.452  1.00 35.49     0.027 C 
BRANCH   3   4
ATOM      4  CD  ARG D 557     -28.922   0.316 -16.512  1.00 35.49     0.116 C 
BRANCH   4   5
ATOM      5  NE  ARG D 557     -29.306  -0.921 -17.139  1.00 35.49    -0.212 N 
ATOM      6  CZ  ARG D 557     -28.670  -2.066 -17.031  1.00 35.49     0.666 C 
ATOM      7  NH1 ARG D 557     -27.565  -2.200 -16.322  1.00 35.49    -0.235 N 
ATOM      8  NH2 ARG D 557     -29.174  -3.093 -17.652  1.00 35.49    -0.235 N 
ATOM      9  HH  ARG D 557     -27.217  -1.538 -15.903  1.00 35.49     0.174 HD
ATOM     10  HH  ARG D 557     -27.195  -2.972 -16.286  1.00 35.49     0.174 HD
ATOM     11  HH  ARG D 557     -29.893  -2.978 -18.097  1.00 35.49     0.174 HD
ATOM     12  HH  ARG D 557     -28.794  -3.849 -17.603  1.00 35.49     0.174 HD
ATOM     13  HE  ARG D 557     -29.967  -0.909 -17.674  1.00 35.49     0.178 HD
ENDBRANCH   4   5
ENDBRANCH   3   4
ENDBRANCH   2   3
ENDBRANCH   1   2
END_RES ARG D 557
BEGIN_RES GLU D 570
REMARK  3 active torsions:
REMARK  status: ('A' for Active; 'I' for Inactive)
REMARK    5  A    between atoms: CA   and  CB  
REMARK    6  A    between atoms: CB   and  CG  
REMARK    7  A    between atoms: CG   and  CD  
ROOT
ATOM     14  CA  GLU D 570     -18.033  -6.348 -13.375  1.00 32.92     0.160 C 
ENDROOT
BRANCH  14  15
ATOM     15  CB  GLU D 570     -19.500  -6.345 -13.794  1.00 32.92     0.043 C 
BRANCH  15  16
ATOM     16  CG  GLU D 570     -19.812  -5.943 -15.190  1.00 32.92     0.100 C 
BRANCH  16  17
ATOM     17  CD  GLU D 570     -21.162  -5.277 -15.324  1.00 32.92     0.185 C 
ATOM     18  OE1 GLU D 570     -21.604  -5.028 -16.462  1.00 32.92    -0.647 OA
ATOM     19  OE2 GLU D 570     -21.776  -4.986 -14.278  1.00 32.92    -0.647 OA
ENDBRANCH  16  17
ENDBRANCH  15  16
ENDBRANCH  14  15
END_RES GLU D 570
ENDMDL
MODEL 4
REMARK VINA RESULT:      -5.8      2.149      4.413
REMARK  9 active torsions:
REMARK  status: ('A' for Active; 'I' for Inactive)
REMARK    1  A    between atoms: C_2  and  C_4 
REMARK    2  A    between atoms: C_2  and  C_6 
REMARK    3  A    between atoms: C_4  and  O_5 
REMARK    4  A    between atoms: C_6  and  C_7 
REMARK    5  A    between atoms: C_6  and  O_14 
REMARK       I    between atoms: C_7  and  N_9 
REMARK    6  A    between atoms: N_9  and  C_10 
REMARK    7  A    between atoms: C_10  and  C_11 
REMARK    8  A    between atoms: C_11  and  C_12 
REMARK    9  A    between atoms: C_12  and  O_13 
ROOT
HETATM    1  C   UNL     1     -23.036  -4.514 -13.641  1.00  0.00     0.219 C 
ENDROOT
BRANCH   1   2
HETATM    2  C   UNL     1     -23.239  -3.890 -12.230  1.00  0.00     0.008 C 
HETATM    3  C   UNL     1     -23.308  -4.984 -11.145  1.00  0.00     0.020 C 
HETATM    4  C   UNL     1     -24.540  -3.061 -12.171  1.00  0.00     0.020 C 
BRANCH   2   5
HETATM    5  C   UNL     1     -22.030  -2.966 -11.937  1.00  0.00     0.175 C 
BRANCH   5   6
HETATM    6  O   UNL     1     -20.823  -3.706 -11.776  1.00  0.00    -0.400 OA
HETATM    7  H   UNL     1     -20.945  -4.300 -11.017  1.00  0.00     0.209 HD
ENDBRANCH   5   6
ENDBRANCH   2   5
ENDBRANCH   1   2
BRANCH   1   8
HETATM    8  C   UNL     1     -24.285  -4.429 -14.542  1.00  0.00     0.247 C 
HETATM    9  O   UNL     1     -24.714  -3.340 -14.922  1.00  0.00    -0.271 OA
HETATM   10  N   UNL     1     -24.854  -5.634 -14.883  1.00  0.00    -0.359 N 
HETATM   11  H   UNL     1     -24.417  -6.499 -14.592  1.00  0.00     0.162 HD
BRANCH  10  12
HETATM   12  C   UNL     1     -26.053  -5.706 -15.699  1.00  0.00     0.125 C 
BRANCH  12  13
HETATM   13  C   UNL     1     -25.887  -6.712 -16.837  1.00  0.00     0.046 C 
BRANCH  13  14
HETATM   14  C   UNL     1     -24.442  -7.167 -16.983  1.00  0.00     0.165 C 
BRANCH  14  15
HETATM   15  O   UNL     1     -24.235  -8.421 -16.352  1.00  0.00    -0.401 OA
HETATM   16  H   UNL     1     -23.291  -8.646 -16.435  1.00  0.00     0.209 HD
ENDBRANCH  14  15
ENDBRANCH  13  14
ENDBRANCH  12  13
ENDBRANCH  10  12
ENDBRANCH   1   8
BRANCH   1  17
HETATM   17  O   UNL     1     -21.958  -3.855 -14.314  1.00  0.00    -0.385 OA
HETATM   18  H   UNL     1     -22.081  -2.897 -14.147  1.00  0.00     0.210 HD
ENDBRANCH   1  17
TORSDOF 9
BEGIN_RES ARG D 557
REMARK  4 active torsions:
REMARK  status: ('A' for Active; 'I' for Inactive)
REMARK    1  A    between atoms: CA   and  CB  
REMARK    2  A    between atoms: CB   and  CG  
REMARK    3  A    between atoms: CG   and  CD  
REMARK    4  A    between atoms: CD   and  NE  
REMARK       I    between atoms: NE   and  CZ  
REMARK       I    between atoms: CZ   and  NH1 
REMARK       I    between atoms: CZ   and  NH2 
ROOT
ATOM      1  CA  ARG D 557     -26.217   2.705 -17.014  1.00 35.49     0.159 C 
ENDROOT
BRANCH   1   2
ATOM      2  CB  ARG D 557     -26.789   1.319 -17.183  1.00 35.49     0.034 C 
BRANCH   2   3
ATOM      3  CG  ARG D 557     -28.240   1.223 -17.384  1.00 35.49     0.027 C 
BRANCH   3   4
ATOM      4  CD  ARG D 557     -28.876   0.263 -16.453  1.00 35.49     0.116 C 
BRANCH   4   5
ATOM      5  NE  ARG D 557     -29.222  -0.974 -17.102  1.00 35.49    -0.212 N 
ATOM      6  CZ  ARG D 557     -28.566  -2.107 -16.994  1.00 35.49     0.666 C 
ATOM      7  NH1 ARG D 557     -27.473  -2.227 -16.263  1.00 35.49    -0.235 N 
ATOM      8  NH2 ARG D 557     -29.035  -3.136 -17.638  1.00 35.49    -0.235 N 
ATOM      9  HH  ARG D 557     -27.147  -1.564 -15.830  1.00 35.49     0.174 HD
ATOM     10  HH  ARG D 557     -27.088  -2.992 -16.228  1.00 35.49     0.174 HD
ATOM     11  HH  ARG D 557     -29.747  -3.031 -18.096  1.00 35.49     0.174 HD
ATOM     12  HH  ARG D 557     -28.641  -3.886 -17.589  1.00 35.49     0.174 HD
ATOM     13  HE  ARG D 557     -29.872  -0.969 -17.650  1.00 35.49     0.178 HD
ENDBRANCH   4   5
ENDBRANCH   3   4
ENDBRANCH   2   3
ENDBRANCH   1   2
END_RES ARG D 557
BEGIN_RES GLU D 570
REMARK  3 active torsions:
REMARK  status: ('A' for Active; 'I' for Inactive)
REMARK    5  A    between atoms: CA   and  CB  
REMARK    6  A    between atoms: CB   and  CG  
REMARK    7  A    between atoms: CG   and  CD  
ROOT
ATOM     14  CA  GLU D 570     -18.033  -6.348 -13.375  1.00 32.92     0.160 C 
ENDROOT
BRANCH  14  15
ATOM     15  CB  GLU D 570     -19.500  -6.345 -13.794  1.00 32.92     0.043 C 
BRANCH  15  16
ATOM     16  CG  GLU D 570     -20.080  -7.629 -14.265  1.00 32.92     0.100 C 
BRANCH  16  17
ATOM     17  CD  GLU D 570     -20.875  -7.484 -15.542  1.00 32.92     0.185 C 
ATOM     18  OE1 GLU D 570     -21.170  -6.342 -15.944  1.00 32.92    -0.647 OA
ATOM     19  OE2 GLU D 570     -21.220  -8.523 -16.138  1.00 32.92    -0.647 OA
ENDBRANCH  16  17
ENDBRANCH  15  16
ENDBRANCH  14  15
END_RES GLU D 570
ENDMDL
MODEL 5
REMARK VINA RESULT:      -5.7      1.957      4.400
REMARK  9 active torsions:
REMARK  status: ('A' for Active; 'I' for Inactive)
REMARK    1  A    between atoms: C_2  and  C_4 
REMARK    2  A    between atoms: C_2  and  C_6 
REMARK    3  A    between atoms: C_4  and  O_5 
REMARK    4  A    between atoms: C_6  and  C_7 
REMARK    5  A    between atoms: C_6  and  O_14 
REMARK       I    between atoms: C_7  and  N_9 
REMARK    6  A    between atoms: N_9  and  C_10 
REMARK    7  A    between atoms: C_10  and  C_11 
REMARK    8  A    between atoms: C_11  and  C_12 
REMARK    9  A    between atoms: C_12  and  O_13 
ROOT
HETATM    1  C   UNL     1     -23.846  -3.122 -12.030  1.00  0.00     0.219 C 
ENDROOT
BRANCH   1   2
HETATM    2  C   UNL     1     -23.528  -3.767 -10.650  1.00  0.00     0.008 C 
HETATM    3  C   UNL     1     -22.026  -3.664 -10.321  1.00  0.00     0.020 C 
HETATM    4  C   UNL     1     -23.932  -5.257 -10.628  1.00  0.00     0.020 C 
BRANCH   2   5
HETATM    5  C   UNL     1     -24.334  -3.003  -9.569  1.00  0.00     0.175 C 
BRANCH   5   6
HETATM    6  O   UNL     1     -25.708  -3.384  -9.564  1.00  0.00    -0.400 OA
HETATM    7  H   UNL     1     -26.229  -2.594  -9.786  1.00  0.00     0.209 HD
ENDBRANCH   5   6
ENDBRANCH   2   5
ENDBRANCH   1   2
BRANCH   1   8
HETATM    8  C   UNL     1     -23.307  -3.926 -13.230  1.00  0.00     0.247 C 
HETATM    9  O   UNL     1     -22.411  -3.471 -13.941  1.00  0.00    -0.271 OA
HETATM   10  N   UNL     1     -23.885  -5.159 -13.428  1.00  0.00    -0.359 N 
HETATM   11  H   UNL     1     -24.572  -5.504 -12.770  1.00  0.00     0.162 HD
BRANCH  10  12
HETATM   12  C   UNL     1     -23.500  -6.012 -14.538  1.00  0.00     0.125 C 
BRANCH  12  13
HETATM   13  C   UNL     1     -24.714  -6.406 -15.378  1.00  0.00     0.046 C 
BRANCH  13  14
HETATM   14  C   UNL     1     -24.311  -7.169 -16.631  1.00  0.00     0.165 C 
BRANCH  14  15
HETATM   15  O   UNL     1     -24.124  -8.548 -16.352  1.00  0.00    -0.401 OA
HETATM   16  H   UNL     1     -23.867  -8.989 -17.181  1.00  0.00     0.209 HD
ENDBRANCH  14  15
ENDBRANCH  13  14
ENDBRANCH  12  13
ENDBRANCH  10  12
ENDBRANCH   1   8
BRANCH   1  17
HETATM   17  O   UNL     1     -25.262  -2.983 -12.189  1.00  0.00    -0.385 OA
HETATM   18  H   UNL     1     -25.452  -3.211 -13.123  1.00  0.00     0.210 HD
ENDBRANCH   1  17
TORSDOF 9
BEGIN_RES ARG D 557
REMARK  4 active torsions:
REMARK  status: ('A' for Active; 'I' for Inactive)
REMARK    1  A    between atoms: CA   and  CB  
REMARK    2  A    between atoms: CB   and  CG  
REMARK    3  A    between atoms: CG   and  CD  
REMARK    4  A    between atoms: CD   and  NE  
REMARK       I    between atoms: NE   and  CZ  
REMARK       I    between atoms: CZ   and  NH1 
REMARK       I    between atoms: CZ   and  NH2 
ROOT
ATOM      1  CA  ARG D 557     -26.217   2.705 -17.014  1.00 35.49     0.159 C 
ENDROOT
BRANCH   1   2
ATOM      2  CB  ARG D 557     -26.789   1.319 -17.183  1.00 35.49     0.034 C 
BRANCH   2   3
ATOM      3  CG  ARG D 557     -25.962   0.201 -16.714  1.00 35.49     0.027 C 
BRANCH   3   4
ATOM      4  CD  ARG D 557     -26.760  -0.849 -16.042  1.00 35.49     0.116 C 
BRANCH   4   5
ATOM      5  NE  ARG D 557     -28.010  -1.092 -16.712  1.00 35.49    -0.212 N 
ATOM      6  CZ  ARG D 557     -28.532  -2.273 -16.961  1.00 35.49     0.666 C 
ATOM      7  NH1 ARG D 557     -27.932  -3.399 -16.621  1.00 35.49    -0.235 N 
ATOM      8  NH2 ARG D 557     -29.686  -2.305 -17.561  1.00 35.49    -0.235 N 
ATOM      9  HH  ARG D 557     -27.173  -3.401 -16.224  1.00 35.49     0.174 HD
ATOM     10  HH  ARG D 557     -28.321  -4.139 -16.807  1.00 35.49     0.174 HD
ATOM     11  HH  ARG D 557     -30.053  -1.562 -17.763  1.00 35.49     0.174 HD
ATOM     12  HH  ARG D 557     -30.056  -3.048 -17.735  1.00 35.49     0.174 HD
ATOM     13  HE  ARG D 557     -28.429  -0.424 -17.031  1.00 35.49     0.178 HD
ENDBRANCH   4   5
ENDBRANCH   3   4
ENDBRANCH   2   3
ENDBRANCH   1   2
END_RES ARG D 557
BEGIN_RES GLU D 570
REMARK  3 active torsions:
REMARK  status: ('A' for Active; 'I' for Inactive)
REMARK    5  A    between atoms: CA   and  CB  
REMARK    6  A    between atoms: CB   and  CG  
REMARK    7  A    between atoms: CG   and  CD  
ROOT
ATOM     14  CA  GLU D 570     -18.033  -6.348 -13.375  1.00 32.92     0.160 C 
ENDROOT
BRANCH  14  15
ATOM     15  CB  GLU D 570     -19.500  -6.345 -13.794  1.00 32.92     0.043 C 
BRANCH  15  16
ATOM     16  CG  GLU D 570     -20.093  -7.639 -14.219  1.00 32.92     0.100 C 
BRANCH  16  17
ATOM     17  CD  GLU D 570     -20.602  -7.615 -15.642  1.00 32.92     0.185 C 
ATOM     18  OE1 GLU D 570     -20.503  -6.563 -16.302  1.00 32.92    -0.647 OA
ATOM     19  OE2 GLU D 570     -21.121  -8.654 -16.095  1.00 32.92    -0.647 OA
ENDBRANCH  16  17
ENDBRANCH  15  16
ENDBRANCH  14  15
END_RES GLU D 570
ENDMDL
MODEL 6
REMARK VINA RESULT:      -5.5      2.312      4.439
REMARK  9 active torsions:
REMARK  status: ('A' for Active; 'I' for Inactive)
REMARK    1  A    between atoms: C_2  and  C_4 
REMARK    2  A    between atoms: C_2  and  C_6 
REMARK    3  A    between atoms: C_4  and  O_5 
REMARK    4  A    between atoms: C_6  and  C_7 
REMARK    5  A    between atoms: C_6  and  O_14 
REMARK       I    between atoms: C_7  and  N_9 
REMARK    6  A    between atoms: N_9  and  C_10 
REMARK    7  A    between atoms: C_10  and  C_11 
REMARK    8  A    between atoms: C_11  and  C_12 
REMARK    9  A    between atoms: C_12  and  O_13 
ROOT
HETATM    1  C   UNL     1     -23.221  -4.752 -12.555  1.00  0.00     0.219 C 
ENDROOT
BRANCH   1   2
HETATM    2  C   UNL     1     -23.790  -3.365 -12.141  1.00  0.00     0.008 C 
HETATM    3  C   UNL     1     -22.688  -2.287 -12.149  1.00  0.00     0.020 C 
HETATM    4  C   UNL     1     -24.410  -3.419 -10.728  1.00  0.00     0.020 C 
BRANCH   2   5
HETATM    5  C   UNL     1     -24.886  -2.974 -13.164  1.00  0.00     0.175 C 
BRANCH   5   6
HETATM    6  O   UNL     1     -24.536  -1.800 -13.893  1.00  0.00    -0.400 OA
HETATM    7  H   UNL     1     -24.833  -1.928 -14.809  1.00  0.00     0.209 HD
ENDBRANCH   5   6
ENDBRANCH   2   5
ENDBRANCH   1   2
BRANCH   1   8
HETATM    8  C   UNL     1     -23.407  -5.079 -14.051  1.00  0.00     0.247 C 
HETATM    9  O   UNL     1     -22.916  -4.356 -14.918  1.00  0.00    -0.271 OA
HETATM   10  N   UNL     1     -24.135  -6.213 -14.326  1.00  0.00    -0.359 N 
HETATM   11  H   UNL     1     -24.459  -6.800 -13.568  1.00  0.00     0.162 HD
BRANCH  10  12
HETATM   12  C   UNL     1     -24.418  -6.625 -15.689  1.00  0.00     0.125 C 
BRANCH  12  13
HETATM   13  C   UNL     1     -25.896  -6.970 -15.866  1.00  0.00     0.046 C 
BRANCH  13  14
HETATM   14  C   UNL     1     -26.642  -5.884 -16.628  1.00  0.00     0.165 C 
BRANCH  14  15
HETATM   15  O   UNL     1     -27.449  -5.110 -15.755  1.00  0.00    -0.401 OA
HETATM   16  H   UNL     1     -27.301  -5.430 -14.848  1.00  0.00     0.209 HD
ENDBRANCH  14  15
ENDBRANCH  13  14
ENDBRANCH  12  13
ENDBRANCH  10  12
ENDBRANCH   1   8
BRANCH   1  17
HETATM   17  O   UNL     1     -21.821  -4.813 -12.259  1.00  0.00    -0.385 OA
HETATM   18  H   UNL     1     -21.727  -5.466 -11.534  1.00  0.00     0.210 HD
ENDBRANCH   1  17
TORSDOF 9
BEGIN_RES ARG D 557
REMARK  4 active torsions:
REMARK  status: ('A' for Active; 'I' for Inactive)
REMARK    1  A    between atoms: CA   and  CB  
REMARK    2  A    between atoms: CB   and  CG  
REMARK    3  A    between atoms: CG   and  CD  
REMARK    4  A    between atoms: CD   and  NE  
REMARK       I    between atoms: NE   and  CZ  
REMARK       I    between atoms: CZ   and  NH1 
REMARK       I    between atoms: CZ   and  NH2 
ROOT
ATOM      1  CA  ARG D 557     -26.217   2.705 -17.014  1.00 35.49     0.159 C 
ENDROOT
BRANCH   1   2
ATOM      2  CB  ARG D 557     -26.789   1.319 -17.183  1.00 35.49     0.034 C 
BRANCH   2   3
ATOM      3  CG  ARG D 557     -28.228   1.227 -17.459  1.00 35.49     0.027 C 
BRANCH   3   4
ATOM      4  CD  ARG D 557     -28.926   0.318 -16.521  1.00 35.49     0.116 C 
BRANCH   4   5
ATOM      5  NE  ARG D 557     -29.257  -0.942 -17.133  1.00 35.49    -0.212 N 
ATOM      6  CZ  ARG D 557     -28.586  -2.063 -16.995  1.00 35.49     0.666 C 
ATOM      7  NH1 ARG D 557     -27.490  -2.148 -16.264  1.00 35.49    -0.235 N 
ATOM      8  NH2 ARG D 557     -29.044  -3.116 -17.607  1.00 35.49    -0.235 N 
ATOM      9  HH  ARG D 557     -27.171  -1.468 -15.851  1.00 35.49     0.174 HD
ATOM     10  HH  ARG D 557     -27.095  -2.906 -16.209  1.00 35.49     0.174 HD
ATOM     11  HH  ARG D 557     -29.758  -3.034 -18.065  1.00 35.49     0.174 HD
ATOM     12  HH  ARG D 557     -28.640  -3.859 -17.538  1.00 35.49     0.174 HD
ATOM     13  HE  ARG D 557     -29.909  -0.961 -17.680  1.00 35.49     0.178 HD
ENDBRANCH   4   5
ENDBRANCH   3   4
ENDBRANCH   2   3
ENDBRANCH   1   2
END_RES ARG D 557
BEGIN_RES GLU D 570
REMARK  3 active torsions:
REMARK  status: ('A' for Active; 'I' for Inactive)
REMARK    5  A    between atoms: CA   and  CB  
REMARK    6  A    between atoms: CB   and  CG  
REMARK    7  A    between atoms: CG   and  CD  
ROOT
ATOM     14  CA  GLU D 570     -18.033  -6.348 -13.375  1.00 32.92     0.160 C 
ENDROOT
BRANCH  14  15
ATOM     15  CB  GLU D 570     -19.500  -6.345 -13.794  1.00 32.92     0.043 C 
BRANCH  15  16
ATOM     16  CG  GLU D 570     -19.807  -6.013 -15.209  1.00 32.92     0.100 C 
BRANCH  16  17
ATOM     17  CD  GLU D 570     -20.668  -7.054 -15.885  1.00 32.92     0.185 C 
ATOM     18  OE1 GLU D 570     -21.206  -6.780 -16.975  1.00 32.92    -0.647 OA
ATOM     19  OE2 GLU D 570     -20.820  -8.150 -15.311  1.00 32.92    -0.647 OA
ENDBRANCH  16  17
ENDBRANCH  15  16
ENDBRANCH  14  15
END_RES GLU D 570
ENDMDL
MODEL 7
REMARK VINA RESULT:      -5.5      1.511      4.351
REMARK  9 active torsions:
REMARK  status: ('A' for Active; 'I' for Inactive)
REMARK    1  A    between atoms: C_2  and  C_4 
REMARK    2  A    between atoms: C_2  and  C_6 
REMARK    3  A    between atoms: C_4  and  O_5 
REMARK    4  A    between atoms: C_6  and  C_7 
REMARK    5  A    between atoms: C_6  and  O_14 
REMARK       I    between atoms: C_7  and  N_9 
REMARK    6  A    between atoms: N_9  and  C_10 
REMARK    7  A    between atoms: C_10  and  C_11 
REMARK    8  A    between atoms: C_11  and  C_12 
REMARK    9  A    between atoms: C_12  and  O_13 
ROOT
HETATM    1  C   UNL     1     -23.105  -3.678  -8.785  1.00  0.00     0.219 C 
ENDROOT
BRANCH   1   2
HETATM    2  C   UNL     1     -21.676  -4.207  -8.473  1.00  0.00     0.008 C 
HETATM    3  C   UNL     1     -20.745  -4.043  -9.690  1.00  0.00     0.020 C 
HETATM    4  C   UNL     1     -21.710  -5.700  -8.081  1.00  0.00     0.020 C 
BRANCH   2   5
HETATM    5  C   UNL     1     -21.109  -3.382  -7.290  1.00  0.00     0.175 C 
BRANCH   5   6
HETATM    6  O   UNL     1     -20.598  -4.220  -6.255  1.00  0.00    -0.400 OA
HETATM    7  H   UNL     1     -21.037  -3.961  -5.428  1.00  0.00     0.209 HD
ENDBRANCH   5   6
ENDBRANCH   2   5
ENDBRANCH   1   2
BRANCH   1   8
HETATM    8  C   UNL     1     -23.613  -4.055 -10.192  1.00  0.00     0.247 C 
HETATM    9  O   UNL     1     -23.819  -5.231 -10.492  1.00  0.00    -0.271 OA
HETATM   10  N   UNL     1     -23.820  -3.001 -11.051  1.00  0.00    -0.359 N 
HETATM   11  H   UNL     1     -23.694  -2.052 -10.724  1.00  0.00     0.162 HD
BRANCH  10  12
HETATM   12  C   UNL     1     -24.266  -3.208 -12.417  1.00  0.00     0.125 C 
BRANCH  12  13
HETATM   13  C   UNL     1     -23.162  -2.867 -13.416  1.00  0.00     0.046 C 
BRANCH  13  14
HETATM   14  C   UNL     1     -22.775  -4.070 -14.264  1.00  0.00     0.165 C 
BRANCH  14  15
HETATM   15  O   UNL     1     -22.081  -3.668 -15.435  1.00  0.00    -0.401 OA
HETATM   16  H   UNL     1     -21.134  -3.848 -15.297  1.00  0.00     0.209 HD
ENDBRANCH  14  15
ENDBRANCH  13  14
ENDBRANCH  12  13
ENDBRANCH  10  12
ENDBRANCH   1   8
BRANCH   1  17
HETATM   17  O   UNL     1     -24.036  -4.191  -7.825  1.00  0.00    -0.385 OA
HETATM   18  H   UNL     1     -23.513  -4.758  -7.220  1.00  0.00     0.210 HD
ENDBRANCH   1  17
TORSDOF 9
BEGIN_RES ARG D 557
REMARK  4 active torsions:
REMARK  status: ('A' for Active; 'I' for Inactive)
REMARK    1  A    between atoms: CA   and  CB  
REMARK    2  A    between atoms: CB   and  CG  
REMARK    3  A    between atoms: CG   and  CD  
REMARK    4  A    between atoms: CD   and  NE  
REMARK       I    between atoms: NE   and  CZ  
REMARK       I    between atoms: CZ   and  NH1 
REMARK       I    between atoms: CZ   and  NH2 
ROOT
ATOM      1  CA  ARG D 557     -26.217   2.705 -17.014  1.00 35.49     0.159 C 
ENDROOT
BRANCH   1   2
ATOM      2  CB  ARG D 557     -26.789   1.319 -17.183  1.00 35.49     0.034 C 
BRANCH   2   3
ATOM      3  CG  ARG D 557     -28.228   1.164 -16.939  1.00 35.49     0.027 C 
BRANCH   3   4
ATOM      4  CD  ARG D 557     -28.609  -0.245 -16.688  1.00 35.49     0.116 C 
BRANCH   4   5
ATOM      5  NE  ARG D 557     -27.585  -0.966 -15.981  1.00 35.49    -0.212 N 
ATOM      6  CZ  ARG D 557     -27.370  -2.261 -16.049  1.00 35.49     0.666 C 
ATOM      7  NH1 ARG D 557     -28.110  -3.064 -16.792  1.00 35.49    -0.235 N 
ATOM      8  NH2 ARG D 557     -26.381  -2.744 -15.355  1.00 35.49    -0.235 N 
ATOM      9  HH  ARG D 557     -28.765  -2.768 -17.259  1.00 35.49     0.174 HD
ATOM     10  HH  ARG D 557     -27.921  -3.900 -16.799  1.00 35.49     0.174 HD
ATOM     11  HH  ARG D 557     -25.916  -2.200 -14.890  1.00 35.49     0.174 HD
ATOM     12  HH  ARG D 557     -26.209  -3.574 -15.377  1.00 35.49     0.174 HD
ATOM     13  HE  ARG D 557     -27.107  -0.538 -15.423  1.00 35.49     0.178 HD
ENDBRANCH   4   5
ENDBRANCH   3   4
ENDBRANCH   2   3
ENDBRANCH   1   2
END_RES ARG D 557
BEGIN_RES GLU D 570
REMARK  3 active torsions:
REMARK  status: ('A' for Active; 'I' for Inactive)
REMARK    5  A    between atoms: CA   and  CB  
REMARK    6  A    between atoms: CB   and  CG  
REMARK    7  A    between atoms: CG   and  CD  
ROOT
ATOM     14  CA  GLU D 570     -18.033  -6.348 -13.375  1.00 32.92     0.160 C 
ENDROOT
BRANCH  14  15
ATOM     15  CB  GLU D 570     -19.500  -6.345 -13.794  1.00 32.92     0.043 C 
BRANCH  15  16
ATOM     16  CG  GLU D 570     -19.799  -6.174 -15.239  1.00 32.92     0.100 C 
BRANCH  16  17
ATOM     17  CD  GLU D 570     -20.849  -7.136 -15.742  1.00 32.92     0.185 C 
ATOM     18  OE1 GLU D 570     -20.730  -8.350 -15.486  1.00 32.92    -0.647 OA
ATOM     19  OE2 GLU D 570     -21.793  -6.674 -16.414  1.00 32.92    -0.647 OA
ENDBRANCH  16  17
ENDBRANCH  15  16
ENDBRANCH  14  15
END_RES GLU D 570
ENDMDL
MODEL 8
REMARK VINA RESULT:      -5.4      1.403      1.774
REMARK  9 active torsions:
REMARK  status: ('A' for Active; 'I' for Inactive)
REMARK    1  A    between atoms: C_2  and  C_4 
REMARK    2  A    between atoms: C_2  and  C_6 
REMARK    3  A    between atoms: C_4  and  O_5 
REMARK    4  A    between atoms: C_6  and  C_7 
REMARK    5  A    between atoms: C_6  and  O_14 
REMARK       I    between atoms: C_7  and  N_9 
REMARK    6  A    between atoms: N_9  and  C_10 
REMARK    7  A    between atoms: C_10  and  C_11 
REMARK    8  A    between atoms: C_11  and  C_12 
REMARK    9  A    between atoms: C_12  and  O_13 
ROOT
HETATM    1  C   UNL     1     -24.278  -3.718 -11.851  1.00  0.00     0.219 C 
ENDROOT
BRANCH   1   2
HETATM    2  C   UNL     1     -22.975  -3.301 -12.591  1.00  0.00     0.008 C 
HETATM    3  C   UNL     1     -21.973  -2.642 -11.623  1.00  0.00     0.020 C 
HETATM    4  C   UNL     1     -23.279  -2.307 -13.733  1.00  0.00     0.020 C 
BRANCH   2   5
HETATM    5  C   UNL     1     -22.334  -4.580 -13.187  1.00  0.00     0.175 C 
BRANCH   5   6
HETATM    6  O   UNL     1     -23.301  -5.603 -13.415  1.00  0.00    -0.400 OA
HETATM    7  H   UNL     1     -22.994  -6.400 -12.953  1.00  0.00     0.209 HD
ENDBRANCH   5   6
ENDBRANCH   2   5
ENDBRANCH   1   2
BRANCH   1   8
HETATM    8  C   UNL     1     -24.196  -3.568 -10.318  1.00  0.00     0.247 C 
HETATM    9  O   UNL     1     -24.912  -2.760  -9.726  1.00  0.00    -0.271 OA
HETATM   10  N   UNL     1     -23.294  -4.392  -9.687  1.00  0.00    -0.359 N 
HETATM   11  H   UNL     1     -22.780  -5.081 -10.222  1.00  0.00     0.162 HD
BRANCH  10  12
HETATM   12  C   UNL     1     -23.086  -4.338  -8.251  1.00  0.00     0.125 C 
BRANCH  12  13
HETATM   13  C   UNL     1     -21.686  -3.828  -7.914  1.00  0.00     0.046 C 
BRANCH  13  14
HETATM   14  C   UNL     1     -20.617  -4.867  -8.220  1.00  0.00     0.165 C 
BRANCH  14  15
HETATM   15  O   UNL     1     -20.175  -4.766  -9.565  1.00  0.00    -0.401 OA
HETATM   16  H   UNL     1     -20.871  -5.135 -10.137  1.00  0.00     0.209 HD
ENDBRANCH  14  15
ENDBRANCH  13  14
ENDBRANCH  12  13
ENDBRANCH  10  12
ENDBRANCH   1   8
BRANCH   1  17
HETATM   17  O   UNL     1     -25.377  -2.927 -12.316  1.00  0.00    -0.385 OA
HETATM   18  H   UNL     1     -25.196  -2.011 -12.016  1.00  0.00     0.210 HD
ENDBRANCH   1  17
TORSDOF 9
BEGIN_RES ARG D 557
REMARK  4 active torsions:
REMARK  status: ('A' for Active; 'I' for Inactive)
REMARK    1  A    between atoms: CA   and  CB  
REMARK    2  A    between atoms: CB   and  CG  
REMARK    3  A    between atoms: CG   and  CD  
REMARK    4  A    between atoms: CD   and  NE  
REMARK       I    between atoms: NE   and  CZ  
REMARK       I    between atoms: CZ   and  NH1 
REMARK       I    between atoms: CZ   and  NH2 
ROOT
ATOM      1  CA  ARG D 557     -26.217   2.705 -17.014  1.00 35.49     0.159 C 
ENDROOT
BRANCH   1   2
ATOM      2  CB  ARG D 557     -26.789   1.319 -17.183  1.00 35.49     0.034 C 
BRANCH   2   3
ATOM      3  CG  ARG D 557     -28.217   1.153 -16.886  1.00 35.49     0.027 C 
BRANCH   3   4
ATOM      4  CD  ARG D 557     -28.596  -0.268 -16.712  1.00 35.49     0.116 C 
BRANCH   4   5
ATOM      5  NE  ARG D 557     -27.599  -1.009 -15.984  1.00 35.49    -0.212 N 
ATOM      6  CZ  ARG D 557     -27.406  -2.307 -16.052  1.00 35.49     0.666 C 
ATOM      7  NH1 ARG D 557     -28.142  -3.095 -16.813  1.00 35.49    -0.235 N 
ATOM      8  NH2 ARG D 557     -26.441  -2.808 -15.337  1.00 35.49    -0.235 N 
ATOM      9  HH  ARG D 557     -28.781  -2.787 -17.294  1.00 35.49     0.174 HD
ATOM     10  HH  ARG D 557     -27.968  -3.934 -16.819  1.00 35.49     0.174 HD
ATOM     11  HH  ARG D 557     -25.977  -2.274 -14.860  1.00 35.49     0.174 HD
ATOM     12  HH  ARG D 557     -26.283  -3.641 -15.357  1.00 35.49     0.174 HD
ATOM     13  HE  ARG D 557     -27.127  -0.590 -15.414  1.00 35.49     0.178 HD
ENDBRANCH   4   5
ENDBRANCH   3   4
ENDBRANCH   2   3
ENDBRANCH   1   2
END_RES ARG D 557
BEGIN_RES GLU D 570
REMARK  3 active torsions:
REMARK  status: ('A' for Active; 'I' for Inactive)
REMARK    5  A    between atoms: CA   and  CB  
REMARK    6  A    between atoms: CB   and  CG  
REMARK    7  A    between atoms: CG   and  CD  
ROOT
ATOM     14  CA  GLU D 570     -18.033  -6.348 -13.375  1.00 32.92     0.160 C 
ENDROOT
BRANCH  14  15
ATOM     15  CB  GLU D 570     -19.500  -6.345 -13.794  1.00 32.92     0.043 C 
BRANCH  15  16
ATOM     16  CG  GLU D 570     -19.797  -6.403 -15.249  1.00 32.92     0.100 C 
BRANCH  16  17
ATOM     17  CD  GLU D 570     -20.886  -7.393 -15.589  1.00 32.92     0.185 C 
ATOM     18  OE1 GLU D 570     -22.055  -6.984 -15.723  1.00 32.92    -0.647 OA
ATOM     19  OE2 GLU D 570     -20.570  -8.594 -15.706  1.00 32.92    -0.647 OA
ENDBRANCH  16  17
ENDBRANCH  15  16
ENDBRANCH  14  15
END_RES GLU D 570
ENDMDL
MODEL 9
REMARK VINA RESULT:      -5.4      1.579      2.270
REMARK  9 active torsions:
REMARK  status: ('A' for Active; 'I' for Inactive)
REMARK    1  A    between atoms: C_2  and  C_4 
REMARK    2  A    between atoms: C_2  and  C_6 
REMARK    3  A    between atoms: C_4  and  O_5 
REMARK    4  A    between atoms: C_6  and  C_7 
REMARK    5  A    between atoms: C_6  and  O_14 
REMARK       I    between atoms: C_7  and  N_9 
REMARK    6  A    between atoms: N_9  and  C_10 
REMARK    7  A    between atoms: C_10  and  C_11 
REMARK    8  A    between atoms: C_11  and  C_12 
REMARK    9  A    between atoms: C_12  and  O_13 
ROOT
HETATM    1  C   UNL     1     -23.799  -4.082 -10.453  1.00  0.00     0.219 C 
ENDROOT
BRANCH   1   2
HETATM    2  C   UNL     1     -23.408  -3.687 -11.906  1.00  0.00     0.008 C 
HETATM    3  C   UNL     1     -23.067  -4.933 -12.747  1.00  0.00     0.020 C 
HETATM    4  C   UNL     1     -22.187  -2.742 -11.915  1.00  0.00     0.020 C 
BRANCH   2   5
HETATM    5  C   UNL     1     -24.618  -2.962 -12.547  1.00  0.00     0.175 C 
BRANCH   5   6
HETATM    6  O   UNL     1     -24.207  -1.948 -13.461  1.00  0.00    -0.400 OA
HETATM    7  H   UNL     1     -23.533  -2.338 -14.042  1.00  0.00     0.209 HD
ENDBRANCH   5   6
ENDBRANCH   2   5
ENDBRANCH   1   2
BRANCH   1   8
HETATM    8  C   UNL     1     -22.590  -4.281  -9.516  1.00  0.00     0.247 C 
HETATM    9  O   UNL     1     -21.590  -4.890  -9.900  1.00  0.00    -0.271 OA
HETATM   10  N   UNL     1     -22.713  -3.732  -8.261  1.00  0.00    -0.359 N 
HETATM   11  H   UNL     1     -23.533  -3.188  -8.027  1.00  0.00     0.162 HD
BRANCH  10  12
HETATM   12  C   UNL     1     -21.667  -3.870  -7.263  1.00  0.00     0.125 C 
BRANCH  12  13
HETATM   13  C   UNL     1     -21.874  -5.123  -6.415  1.00  0.00     0.046 C 
BRANCH  13  14
HETATM   14  C   UNL     1     -20.652  -6.029  -6.437  1.00  0.00     0.165 C 
BRANCH  14  15
HETATM   15  O   UNL     1     -20.036  -6.027  -7.716  1.00  0.00    -0.401 OA
HETATM   16  H   UNL     1     -20.496  -5.369  -8.267  1.00  0.00     0.209 HD
ENDBRANCH  14  15
ENDBRANCH  13  14
ENDBRANCH  12  13
ENDBRANCH  10  12
ENDBRANCH   1   8
BRANCH   1  17
HETATM   17  O   UNL     1     -24.639  -3.072  -9.883  1.00  0.00    -0.385 OA
HETATM   18  H   UNL     1     -25.414  -3.544  -9.512  1.00  0.00     0.210 HD
ENDBRANCH   1  17
TORSDOF 9
BEGIN_RES ARG D 557
REMARK  4 active torsions:
REMARK  status: ('A' for Active; 'I' for Inactive)
REMARK    1  A    between atoms: CA   and  CB  
REMARK    2  A    between atoms: CB   and  CG  
REMARK    3  A    between atoms: CG   and  CD  
REMARK    4  A    between atoms: CD   and  NE  
REMARK       I    between atoms: NE   and  CZ  
REMARK       I    between atoms: CZ   and  NH1 
REMARK       I    between atoms: CZ   and  NH2 
ROOT
ATOM      1  CA  ARG D 557     -26.217   2.705 -17.014  1.00 35.49     0.159 C 
ENDROOT
BRANCH   1   2
ATOM      2  CB  ARG D 557     -26.789   1.319 -17.183  1.00 35.49     0.034 C 
BRANCH   2   3
ATOM      3  CG  ARG D 557     -28.248   1.189 -17.082  1.00 35.49     0.027 C 
BRANCH   3   4
ATOM      4  CD  ARG D 557     -28.669  -0.188 -16.738  1.00 35.49     0.116 C 
BRANCH   4   5
ATOM      5  NE  ARG D 557     -27.632  -0.920 -16.061  1.00 35.49    -0.212 N 
ATOM      6  CZ  ARG D 557     -27.437  -2.218 -16.130  1.00 35.49     0.666 C 
ATOM      7  NH1 ARG D 557     -28.211  -3.014 -16.844  1.00 35.49    -0.235 N 
ATOM      8  NH2 ARG D 557     -26.432  -2.710 -15.466  1.00 35.49    -0.235 N 
ATOM      9  HH  ARG D 557     -28.876  -2.712 -17.291  1.00 35.49     0.174 HD
ATOM     10  HH  ARG D 557     -28.034  -3.852 -16.853  1.00 35.49     0.174 HD
ATOM     11  HH  ARG D 557     -25.944  -2.171 -15.019  1.00 35.49     0.174 HD
ATOM     12  HH  ARG D 557     -26.272  -3.542 -15.489  1.00 35.49     0.174 HD
ATOM     13  HE  ARG D 557     -27.131  -0.495 -15.521  1.00 35.49     0.178 HD
ENDBRANCH   4   5
ENDBRANCH   3   4
ENDBRANCH   2   3
ENDBRANCH   1   2
END_RES ARG D 557
BEGIN_RES GLU D 570
REMARK  3 active torsions:
REMARK  status: ('A' for Active; 'I' for Inactive)
REMARK    5  A    between atoms: CA   and  CB  
REMARK    6  A    between atoms: CB   and  CG  
REMARK    7  A    between atoms: CG   and  CD  
ROOT
ATOM     14  CA  GLU D 570     -18.033  -6.348 -13.375  1.00 32.92     0.160 C 
ENDROOT
BRANCH  14  15
ATOM     15  CB  GLU D 570     -19.500  -6.345 -13.794  1.00 32.92     0.043 C 
BRANCH  15  16
ATOM     16  CG  GLU D 570     -19.799  -6.180 -15.240  1.00 32.92     0.100 C 
BRANCH  16  17
ATOM     17  CD  GLU D 570     -20.637  -7.304 -15.801  1.00 32.92     0.185 C 
ATOM     18  OE1 GLU D 570     -20.613  -8.416 -15.239  1.00 32.92    -0.647 OA
ATOM     19  OE2 GLU D 570     -21.313  -7.076 -16.824  1.00 32.92    -0.647 OA
ENDBRANCH  16  17
ENDBRANCH  15  16
ENDBRANCH  14  15
END_RES GLU D 570
ENDMDL
