MODEL 1
REMARK VINA RESULT:      -7.1      0.000      0.000
REMARK  14 active torsions:
REMARK  status: ('A' for Active; 'I' for Inactive)
REMARK    1  A    between atoms: C_2  and  C_3 
REMARK    2  A    between atoms: C_3  and  C_4 
REMARK    3  A    between atoms: C_4  and  C_5 
REMARK    4  A    between atoms: C_5  and  C_6 
REMARK    5  A    between atoms: C_6  and  C_7 
REMARK    6  A    between atoms: C_7  and  C_8 
REMARK    7  A    between atoms: C_8  and  C_9 
REMARK    8  A    between atoms: C_9  and  C_10 
REMARK    9  A    between atoms: C_10  and  C_11 
REMARK   10  A    between atoms: C_11  and  C_12 
REMARK   11  A    between atoms: C_12  and  O_13 
REMARK   12  A    between atoms: O_13  and  C_14 
REMARK   13  A    between atoms: C_14  and  C_16 
REMARK   14  A    between atoms: C_16  and  O_18 
ROOT
HETATM    1  C   UNL     1     -21.534  -3.796  -7.449  1.00  0.00     0.002 C 
ENDROOT
BRANCH   1   2
HETATM    2  C   UNL     1     -20.675  -4.638  -6.512  1.00  0.00     0.000 C 
BRANCH   2   3
HETATM    3  C   UNL     1     -20.989  -6.123  -6.665  1.00  0.00     0.000 C 
BRANCH   3   4
HETATM    4  C   UNL     1     -20.732  -6.870  -5.366  1.00  0.00     0.000 C 
BRANCH   4   5
HETATM    5  C   UNL     1     -21.851  -6.607  -4.369  1.00  0.00     0.000 C 
BRANCH   5   6
HETATM    6  C   UNL     1     -21.294  -6.001  -3.087  1.00  0.00     0.000 C 
BRANCH   6   7
HETATM    7  C   UNL     1     -22.229  -6.267  -1.916  1.00  0.00     0.000 C 
BRANCH   7   8
HETATM    8  C   UNL     1     -21.792  -7.516  -1.158  1.00  0.00    -0.000 C 
BRANCH   8   9
HETATM    9  C   UNL     1     -22.730  -7.801   0.009  1.00  0.00    -0.005 C 
HETATM   10  C   UNL     1     -23.029  -9.285   0.112  1.00  0.00     0.005 C 
ENDBRANCH   8   9
ENDBRANCH   7   8
ENDBRANCH   6   7
ENDBRANCH   5   6
ENDBRANCH   4   5
ENDBRANCH   3   4
ENDBRANCH   2   3
ENDBRANCH   1   2
BRANCH   1  11
HETATM   11  C   UNL     1     -22.875  -4.468  -7.726  1.00  0.00     0.027 C 
BRANCH  11  12
HETATM   12  C   UNL     1     -23.646  -3.727  -8.805  1.00  0.00     0.178 C 
BRANCH  12  13
HETATM   13  O   UNL     1     -23.296  -4.252 -10.094  1.00  0.00    -0.319 OA
BRANCH  13  14
HETATM   14  C   UNL     1     -23.471  -3.356 -11.112  1.00  0.00     0.287 C 
HETATM   15  O   UNL     1     -24.550  -2.965 -11.526  1.00  0.00    -0.262 OA
BRANCH  14  16
HETATM   16  C   UNL     1     -22.126  -2.907 -11.696  1.00  0.00     0.213 C 
HETATM   17  C   UNL     1     -21.008  -3.849 -11.293  1.00  0.00     0.050 C 
BRANCH  16  18
HETATM   18  O   UNL     1     -22.166  -2.862 -13.124  1.00  0.00    -0.386 OA
HETATM   19  H   UNL     1     -21.514  -2.191 -13.403  1.00  0.00     0.210 HD
ENDBRANCH  16  18
ENDBRANCH  14  16
ENDBRANCH  13  14
ENDBRANCH  12  13
ENDBRANCH  11  12
ENDBRANCH   1  11
TORSDOF 14
BEGIN_RES ARG D 557
REMARK  4 active torsions:
REMARK  status: ('A' for Active; 'I' for Inactive)
REMARK    1  A    between atoms: CA   and  CB  
REMARK    2  A    between atoms: CB   and  CG  
REMARK    3  A    between atoms: CG   and  CD  
REMARK    4  A    between atoms: CD   and  NE  
REMARK       I    between atoms: NE   and  CZ  
REMARK       I    between atoms: CZ   and  NH1 
REMARK       I    between atoms: CZ   and  NH2 
ROOT
ATOM      1  CA  ARG D 557     -26.217   2.705 -17.014  1.00 35.49     0.159 C 
ENDROOT
BRANCH   1   2
ATOM      2  CB  ARG D 557     -26.789   1.319 -17.183  1.00 35.49     0.034 C 
BRANCH   2   3
ATOM      3  CG  ARG D 557     -26.018   0.211 -16.606  1.00 35.49     0.027 C 
BRANCH   3   4
ATOM      4  CD  ARG D 557     -26.878  -0.773 -15.911  1.00 35.49     0.116 C 
BRANCH   4   5
ATOM      5  NE  ARG D 557     -26.174  -1.993 -15.612  1.00 35.49    -0.212 N 
ATOM      6  CZ  ARG D 557     -25.147  -2.107 -14.799  1.00 35.49     0.666 C 
ATOM      7  NH1 ARG D 557     -24.628  -1.074 -14.162  1.00 35.49    -0.235 N 
ATOM      8  NH2 ARG D 557     -24.646  -3.296 -14.630  1.00 35.49    -0.235 N 
ATOM      9  HH  ARG D 557     -24.944  -0.283 -14.258  1.00 35.49     0.174 HD
ATOM     10  HH  ARG D 557     -23.960  -1.209 -13.643  1.00 35.49     0.174 HD
ATOM     11  HH  ARG D 557     -25.006  -3.946 -15.048  1.00 35.49     0.174 HD
ATOM     12  HH  ARG D 557     -23.985  -3.410 -14.110  1.00 35.49     0.174 HD
ATOM     13  HE  ARG D 557     -26.396  -2.696 -16.035  1.00 35.49     0.178 HD
ENDBRANCH   4   5
ENDBRANCH   3   4
ENDBRANCH   2   3
ENDBRANCH   1   2
END_RES ARG D 557
BEGIN_RES GLU D 570
REMARK  3 active torsions:
REMARK  status: ('A' for Active; 'I' for Inactive)
REMARK    5  A    between atoms: CA   and  CB  
REMARK    6  A    between atoms: CB   and  CG  
REMARK    7  A    between atoms: CG   and  CD  
ROOT
ATOM     14  CA  GLU D 570     -18.033  -6.348 -13.375  1.00 32.92     0.160 C 
ENDROOT
BRANCH  14  15
ATOM     15  CB  GLU D 570     -19.500  -6.345 -13.794  1.00 32.92     0.043 C 
BRANCH  15  16
ATOM     16  CG  GLU D 570     -19.846  -5.671 -15.072  1.00 32.92     0.100 C 
BRANCH  16  17
ATOM     17  CD  GLU D 570     -21.336  -5.571 -15.302  1.00 32.92     0.185 C 
ATOM     18  OE1 GLU D 570     -21.781  -5.719 -16.456  1.00 32.92    -0.647 OA
ATOM     19  OE2 GLU D 570     -22.064  -5.327 -14.320  1.00 32.92    -0.647 OA
ENDBRANCH  16  17
ENDBRANCH  15  16
ENDBRANCH  14  15
END_RES GLU D 570
ENDMDL
MODEL 2
REMARK VINA RESULT:      -7.1      1.962      3.297
REMARK  14 active torsions:
REMARK  status: ('A' for Active; 'I' for Inactive)
REMARK    1  A    between atoms: C_2  and  C_3 
REMARK    2  A    between atoms: C_3  and  C_4 
REMARK    3  A    between atoms: C_4  and  C_5 
REMARK    4  A    between atoms: C_5  and  C_6 
REMARK    5  A    between atoms: C_6  and  C_7 
REMARK    6  A    between atoms: C_7  and  C_8 
REMARK    7  A    between atoms: C_8  and  C_9 
REMARK    8  A    between atoms: C_9  and  C_10 
REMARK    9  A    between atoms: C_10  and  C_11 
REMARK   10  A    between atoms: C_11  and  C_12 
REMARK   11  A    between atoms: C_12  and  O_13 
REMARK   12  A    between atoms: O_13  and  C_14 
REMARK   13  A    between atoms: C_14  and  C_16 
REMARK   14  A    between atoms: C_16  and  O_18 
ROOT
HETATM    1  C   UNL     1     -22.714  -4.036  -9.584  1.00  0.00     0.002 C 
ENDROOT
BRANCH   1   2
HETATM    2  C   UNL     1     -21.493  -4.318 -10.453  1.00  0.00     0.000 C 
BRANCH   2   3
HETATM    3  C   UNL     1     -20.206  -4.223  -9.641  1.00  0.00     0.000 C 
BRANCH   3   4
HETATM    4  C   UNL     1     -20.497  -4.280  -8.150  1.00  0.00     0.000 C 
BRANCH   4   5
HETATM    5  C   UNL     1     -20.031  -5.605  -7.565  1.00  0.00     0.000 C 
BRANCH   5   6
HETATM    6  C   UNL     1     -21.094  -6.186  -6.643  1.00  0.00     0.000 C 
BRANCH   6   7
HETATM    7  C   UNL     1     -21.016  -5.549  -5.262  1.00  0.00     0.000 C 
BRANCH   7   8
HETATM    8  C   UNL     1     -21.694  -6.438  -4.225  1.00  0.00    -0.000 C 
BRANCH   8   9
HETATM    9  C   UNL     1     -21.228  -6.087  -2.818  1.00  0.00    -0.005 C 
HETATM   10  C   UNL     1     -22.290  -6.440  -1.793  1.00  0.00     0.005 C 
ENDBRANCH   8   9
ENDBRANCH   7   8
ENDBRANCH   6   7
ENDBRANCH   5   6
ENDBRANCH   4   5
ENDBRANCH   3   4
ENDBRANCH   2   3
ENDBRANCH   1   2
BRANCH   1  11
HETATM   11  C   UNL     1     -23.868  -3.479 -10.412  1.00  0.00     0.027 C 
BRANCH  11  12
HETATM   12  C   UNL     1     -23.383  -2.988 -11.766  1.00  0.00     0.178 C 
BRANCH  12  13
HETATM   13  O   UNL     1     -24.486  -2.930 -12.681  1.00  0.00    -0.319 OA
BRANCH  13  14
HETATM   14  C   UNL     1     -24.139  -3.221 -13.970  1.00  0.00     0.287 C 
HETATM   15  O   UNL     1     -24.698  -2.787 -14.963  1.00  0.00    -0.262 OA
BRANCH  14  16
HETATM   16  C   UNL     1     -22.954  -4.194 -14.021  1.00  0.00     0.213 C 
HETATM   17  C   UNL     1     -23.423  -5.635 -14.068  1.00  0.00     0.050 C 
BRANCH  16  18
HETATM   18  O   UNL     1     -22.138  -3.962 -15.172  1.00  0.00    -0.386 OA
HETATM   19  H   UNL     1     -22.370  -3.076 -15.509  1.00  0.00     0.210 HD
ENDBRANCH  16  18
ENDBRANCH  14  16
ENDBRANCH  13  14
ENDBRANCH  12  13
ENDBRANCH  11  12
ENDBRANCH   1  11
TORSDOF 14
BEGIN_RES ARG D 557
REMARK  4 active torsions:
REMARK  status: ('A' for Active; 'I' for Inactive)
REMARK    1  A    between atoms: CA   and  CB  
REMARK    2  A    between atoms: CB   and  CG  
REMARK    3  A    between atoms: CG   and  CD  
REMARK    4  A    between atoms: CD   and  NE  
REMARK       I    between atoms: NE   and  CZ  
REMARK       I    between atoms: CZ   and  NH1 
REMARK       I    between atoms: CZ   and  NH2 
ROOT
ATOM      1  CA  ARG D 557     -26.217   2.705 -17.014  1.00 35.49     0.159 C 
ENDROOT
BRANCH   1   2
ATOM      2  CB  ARG D 557     -26.789   1.319 -17.183  1.00 35.49     0.034 C 
BRANCH   2   3
ATOM      3  CG  ARG D 557     -28.217   1.152 -16.884  1.00 35.49     0.027 C 
BRANCH   3   4
ATOM      4  CD  ARG D 557     -28.716  -0.193 -17.248  1.00 35.49     0.116 C 
BRANCH   4   5
ATOM      5  NE  ARG D 557     -27.958  -1.242 -16.617  1.00 35.49    -0.212 N 
ATOM      6  CZ  ARG D 557     -28.166  -2.532 -16.759  1.00 35.49     0.666 C 
ATOM      7  NH1 ARG D 557     -29.137  -3.015 -17.512  1.00 35.49    -0.235 N 
ATOM      8  NH2 ARG D 557     -27.366  -3.341 -16.128  1.00 35.49    -0.235 N 
ATOM      9  HH  ARG D 557     -29.673  -2.500 -17.938  1.00 35.49     0.174 HD
ATOM     10  HH  ARG D 557     -29.223  -3.866 -17.569  1.00 35.49     0.174 HD
ATOM     11  HH  ARG D 557     -26.743  -3.001 -15.655  1.00 35.49     0.174 HD
ATOM     12  HH  ARG D 557     -27.466  -4.180 -16.198  1.00 35.49     0.174 HD
ATOM     13  HE  ARG D 557     -27.358  -1.019 -16.057  1.00 35.49     0.178 HD
ENDBRANCH   4   5
ENDBRANCH   3   4
ENDBRANCH   2   3
ENDBRANCH   1   2
END_RES ARG D 557
BEGIN_RES GLU D 570
REMARK  3 active torsions:
REMARK  status: ('A' for Active; 'I' for Inactive)
REMARK    5  A    between atoms: CA   and  CB  
REMARK    6  A    between atoms: CB   and  CG  
REMARK    7  A    between atoms: CG   and  CD  
ROOT
ATOM     14  CA  GLU D 570     -18.033  -6.348 -13.375  1.00 32.92     0.160 C 
ENDROOT
BRANCH  14  15
ATOM     15  CB  GLU D 570     -19.500  -6.345 -13.794  1.00 32.92     0.043 C 
BRANCH  15  16
ATOM     16  CG  GLU D 570     -20.079  -7.628 -14.270  1.00 32.92     0.100 C 
BRANCH  16  17
ATOM     17  CD  GLU D 570     -20.702  -7.520 -15.642  1.00 32.92     0.185 C 
ATOM     18  OE1 GLU D 570     -20.717  -6.413 -16.215  1.00 32.92    -0.647 OA
ATOM     19  OE2 GLU D 570     -21.196  -8.550 -16.143  1.00 32.92    -0.647 OA
ENDBRANCH  16  17
ENDBRANCH  15  16
ENDBRANCH  14  15
END_RES GLU D 570
ENDMDL
MODEL 3
REMARK VINA RESULT:      -7.0      1.764      2.914
REMARK  14 active torsions:
REMARK  status: ('A' for Active; 'I' for Inactive)
REMARK    1  A    between atoms: C_2  and  C_3 
REMARK    2  A    between atoms: C_3  and  C_4 
REMARK    3  A    between atoms: C_4  and  C_5 
REMARK    4  A    between atoms: C_5  and  C_6 
REMARK    5  A    between atoms: C_6  and  C_7 
REMARK    6  A    between atoms: C_7  and  C_8 
REMARK    7  A    between atoms: C_8  and  C_9 
REMARK    8  A    between atoms: C_9  and  C_10 
REMARK    9  A    between atoms: C_10  and  C_11 
REMARK   10  A    between atoms: C_11  and  C_12 
REMARK   11  A    between atoms: C_12  and  O_13 
REMARK   12  A    between atoms: O_13  and  C_14 
REMARK   13  A    between atoms: C_14  and  C_16 
REMARK   14  A    between atoms: C_16  and  O_18 
ROOT
HETATM    1  C   UNL     1     -23.423  -3.910  -9.207  1.00  0.00     0.002 C 
ENDROOT
BRANCH   1   2
HETATM    2  C   UNL     1     -21.964  -4.313  -9.023  1.00  0.00     0.000 C 
BRANCH   2   3
HETATM    3  C   UNL     1     -21.362  -3.649  -7.788  1.00  0.00     0.000 C 
BRANCH   3   4
HETATM    4  C   UNL     1     -20.683  -4.675  -6.895  1.00  0.00     0.000 C 
BRANCH   4   5
HETATM    5  C   UNL     1     -21.714  -5.424  -6.064  1.00  0.00     0.000 C 
BRANCH   5   6
HETATM    6  C   UNL     1     -21.116  -6.705  -5.497  1.00  0.00     0.000 C 
BRANCH   6   7
HETATM    7  C   UNL     1     -21.888  -7.162  -4.267  1.00  0.00     0.000 C 
BRANCH   7   8
HETATM    8  C   UNL     1     -21.236  -6.624  -2.998  1.00  0.00    -0.000 C 
BRANCH   8   9
HETATM    9  C   UNL     1     -22.290  -6.219  -1.974  1.00  0.00    -0.005 C 
HETATM   10  C   UNL     1     -22.235  -7.122  -0.755  1.00  0.00     0.005 C 
ENDBRANCH   8   9
ENDBRANCH   7   8
ENDBRANCH   6   7
ENDBRANCH   5   6
ENDBRANCH   4   5
ENDBRANCH   3   4
ENDBRANCH   2   3
ENDBRANCH   1   2
BRANCH   1  11
HETATM   11  C   UNL     1     -23.966  -4.390 -10.549  1.00  0.00     0.027 C 
BRANCH  11  12
HETATM   12  C   UNL     1     -23.761  -3.341 -11.629  1.00  0.00     0.178 C 
BRANCH  12  13
HETATM   13  O   UNL     1     -25.022  -3.015 -12.231  1.00  0.00    -0.319 OA
BRANCH  13  14
HETATM   14  C   UNL     1     -24.965  -2.916 -13.593  1.00  0.00     0.287 C 
HETATM   15  O   UNL     1     -25.474  -3.700 -14.376  1.00  0.00    -0.262 OA
BRANCH  14  16
HETATM   16  C   UNL     1     -24.154  -1.689 -14.028  1.00  0.00     0.213 C 
HETATM   17  C   UNL     1     -23.077  -2.065 -15.028  1.00  0.00     0.050 C 
BRANCH  16  18
HETATM   18  O   UNL     1     -24.989  -0.701 -14.637  1.00  0.00    -0.386 OA
HETATM   19  H   UNL     1     -24.440  -0.234 -15.295  1.00  0.00     0.210 HD
ENDBRANCH  16  18
ENDBRANCH  14  16
ENDBRANCH  13  14
ENDBRANCH  12  13
ENDBRANCH  11  12
ENDBRANCH   1  11
TORSDOF 14
BEGIN_RES ARG D 557
REMARK  4 active torsions:
REMARK  status: ('A' for Active; 'I' for Inactive)
REMARK    1  A    between atoms: CA   and  CB  
REMARK    2  A    between atoms: CB   and  CG  
REMARK    3  A    between atoms: CG   and  CD  
REMARK    4  A    between atoms: CD   and  NE  
REMARK       I    between atoms: NE   and  CZ  
REMARK       I    between atoms: CZ   and  NH1 
REMARK       I    between atoms: CZ   and  NH2 
ROOT
ATOM      1  CA  ARG D 557     -26.217   2.705 -17.014  1.00 35.49     0.159 C 
ENDROOT
BRANCH   1   2
ATOM      2  CB  ARG D 557     -26.789   1.319 -17.183  1.00 35.49     0.034 C 
BRANCH   2   3
ATOM      3  CG  ARG D 557     -28.241   1.222 -17.373  1.00 35.49     0.027 C 
BRANCH   3   4
ATOM      4  CD  ARG D 557     -28.869   0.255 -16.444  1.00 35.49     0.116 C 
BRANCH   4   5
ATOM      5  NE  ARG D 557     -29.194  -0.987 -17.092  1.00 35.49    -0.212 N 
ATOM      6  CZ  ARG D 557     -28.527  -2.113 -16.974  1.00 35.49     0.666 C 
ATOM      7  NH1 ARG D 557     -27.441  -2.219 -16.231  1.00 35.49    -0.235 N 
ATOM      8  NH2 ARG D 557     -28.979  -3.150 -17.619  1.00 35.49    -0.235 N 
ATOM      9  HH  ARG D 557     -27.127  -1.551 -15.796  1.00 35.49     0.174 HD
ATOM     10  HH  ARG D 557     -27.049  -2.980 -16.190  1.00 35.49     0.174 HD
ATOM     11  HH  ARG D 557     -29.687  -3.054 -18.085  1.00 35.49     0.174 HD
ATOM     12  HH  ARG D 557     -28.577  -3.894 -17.564  1.00 35.49     0.174 HD
ATOM     13  HE  ARG D 557     -29.838  -0.991 -17.648  1.00 35.49     0.178 HD
ENDBRANCH   4   5
ENDBRANCH   3   4
ENDBRANCH   2   3
ENDBRANCH   1   2
END_RES ARG D 557
BEGIN_RES GLU D 570
REMARK  3 active torsions:
REMARK  status: ('A' for Active; 'I' for Inactive)
REMARK    5  A    between atoms: CA   and  CB  
REMARK    6  A    between atoms: CB   and  CG  
REMARK    7  A    between atoms: CG   and  CD  
ROOT
ATOM     14  CA  GLU D 570     -18.033  -6.348 -13.375  1.00 32.92     0.160 C 
ENDROOT
BRANCH  14  15
ATOM     15  CB  GLU D 570     -19.500  -6.345 -13.794  1.00 32.92     0.043 C 
BRANCH  15  16
ATOM     16  CG  GLU D 570     -19.808  -5.995 -15.205  1.00 32.92     0.100 C 
BRANCH  16  17
ATOM     17  CD  GLU D 570     -21.198  -5.428 -15.381  1.00 32.92     0.185 C 
ATOM     18  OE1 GLU D 570     -21.560  -5.055 -16.514  1.00 32.92    -0.647 OA
ATOM     19  OE2 GLU D 570     -21.926  -5.341 -14.373  1.00 32.92    -0.647 OA
ENDBRANCH  16  17
ENDBRANCH  15  16
ENDBRANCH  14  15
END_RES GLU D 570
ENDMDL
MODEL 4
REMARK VINA RESULT:      -7.0      1.574      2.881
REMARK  14 active torsions:
REMARK  status: ('A' for Active; 'I' for Inactive)
REMARK    1  A    between atoms: C_2  and  C_3 
REMARK    2  A    between atoms: C_3  and  C_4 
REMARK    3  A    between atoms: C_4  and  C_5 
REMARK    4  A    between atoms: C_5  and  C_6 
REMARK    5  A    between atoms: C_6  and  C_7 
REMARK    6  A    between atoms: C_7  and  C_8 
REMARK    7  A    between atoms: C_8  and  C_9 
REMARK    8  A    between atoms: C_9  and  C_10 
REMARK    9  A    between atoms: C_10  and  C_11 
REMARK   10  A    between atoms: C_11  and  C_12 
REMARK   11  A    between atoms: C_12  and  O_13 
REMARK   12  A    between atoms: O_13  and  C_14 
REMARK   13  A    between atoms: C_14  and  C_16 
REMARK   14  A    between atoms: C_16  and  O_18 
ROOT
HETATM    1  C   UNL     1     -20.495  -6.570  -5.877  1.00  0.00     0.002 C 
ENDROOT
BRANCH   1   2
HETATM    2  C   UNL     1     -21.099  -7.434  -4.775  1.00  0.00     0.000 C 
BRANCH   2   3
HETATM    3  C   UNL     1     -21.578  -6.579  -3.606  1.00  0.00     0.000 C 
BRANCH   3   4
HETATM    4  C   UNL     1     -21.457  -7.335  -2.293  1.00  0.00     0.000 C 
BRANCH   4   5
HETATM    5  C   UNL     1     -22.294  -6.666  -1.213  1.00  0.00     0.000 C 
BRANCH   5   6
HETATM    6  C   UNL     1     -22.626  -7.656  -0.103  1.00  0.00     0.000 C 
BRANCH   6   7
HETATM    7  C   UNL     1     -21.468  -8.617   0.125  1.00  0.00     0.000 C 
BRANCH   7   8
HETATM    8  C   UNL     1     -21.979 -10.049   0.240  1.00  0.00    -0.000 C 
BRANCH   8   9
HETATM    9  C   UNL     1     -23.446 -10.139  -0.160  1.00  0.00    -0.005 C 
HETATM   10  C   UNL     1     -23.631 -11.094  -1.325  1.00  0.00     0.005 C 
ENDBRANCH   8   9
ENDBRANCH   7   8
ENDBRANCH   6   7
ENDBRANCH   5   6
ENDBRANCH   4   5
ENDBRANCH   3   4
ENDBRANCH   2   3
ENDBRANCH   1   2
BRANCH   1  11
HETATM   11  C   UNL     1     -21.467  -5.483  -6.325  1.00  0.00     0.027 C 
BRANCH  11  12
HETATM   12  C   UNL     1     -20.727  -4.309  -6.944  1.00  0.00     0.178 C 
BRANCH  12  13
HETATM   13  O   UNL     1     -21.649  -3.491  -7.678  1.00  0.00    -0.319 OA
BRANCH  13  14
HETATM   14  C   UNL     1     -21.827  -3.898  -8.971  1.00  0.00     0.287 C 
HETATM   15  O   UNL     1     -20.940  -4.288  -9.712  1.00  0.00    -0.262 OA
BRANCH  14  16
HETATM   16  C   UNL     1     -23.297  -3.784  -9.394  1.00  0.00     0.213 C 
HETATM   17  C   UNL     1     -23.678  -4.881 -10.369  1.00  0.00     0.050 C 
BRANCH  16  18
HETATM   18  O   UNL     1     -24.172  -3.877  -8.267  1.00  0.00    -0.386 OA
HETATM   19  H   UNL     1     -23.906  -4.673  -7.769  1.00  0.00     0.210 HD
ENDBRANCH  16  18
ENDBRANCH  14  16
ENDBRANCH  13  14
ENDBRANCH  12  13
ENDBRANCH  11  12
ENDBRANCH   1  11
TORSDOF 14
BEGIN_RES ARG D 557
REMARK  4 active torsions:
REMARK  status: ('A' for Active; 'I' for Inactive)
REMARK    1  A    between atoms: CA   and  CB  
REMARK    2  A    between atoms: CB   and  CG  
REMARK    3  A    between atoms: CG   and  CD  
REMARK    4  A    between atoms: CD   and  NE  
REMARK       I    between atoms: NE   and  CZ  
REMARK       I    between atoms: CZ   and  NH1 
REMARK       I    between atoms: CZ   and  NH2 
ROOT
ATOM      1  CA  ARG D 557     -26.217   2.705 -17.014  1.00 35.49     0.159 C 
ENDROOT
BRANCH   1   2
ATOM      2  CB  ARG D 557     -26.789   1.319 -17.183  1.00 35.49     0.034 C 
BRANCH   2   3
ATOM      3  CG  ARG D 557     -25.837   0.202 -17.148  1.00 35.49     0.027 C 
BRANCH   3   4
ATOM      4  CD  ARG D 557     -24.765   0.406 -16.146  1.00 35.49     0.116 C 
BRANCH   4   5
ATOM      5  NE  ARG D 557     -24.916  -0.461 -15.007  1.00 35.49    -0.212 N 
ATOM      6  CZ  ARG D 557     -24.090  -1.423 -14.659  1.00 35.49     0.666 C 
ATOM      7  NH1 ARG D 557     -23.004  -1.710 -15.353  1.00 35.49    -0.235 N 
ATOM      8  NH2 ARG D 557     -24.373  -2.096 -13.582  1.00 35.49    -0.235 N 
ATOM      9  HH  ARG D 557     -22.797  -1.278 -16.063  1.00 35.49     0.174 HD
ATOM     10  HH  ARG D 557     -22.501  -2.346 -15.076  1.00 35.49     0.174 HD
ATOM     11  HH  ARG D 557     -25.077  -1.884 -13.150  1.00 35.49     0.174 HD
ATOM     12  HH  ARG D 557     -23.862  -2.721 -13.324  1.00 35.49     0.174 HD
ATOM     13  HE  ARG D 557     -25.627  -0.394 -14.545  1.00 35.49     0.178 HD
ENDBRANCH   4   5
ENDBRANCH   3   4
ENDBRANCH   2   3
ENDBRANCH   1   2
END_RES ARG D 557
BEGIN_RES GLU D 570
REMARK  3 active torsions:
REMARK  status: ('A' for Active; 'I' for Inactive)
REMARK    5  A    between atoms: CA   and  CB  
REMARK    6  A    between atoms: CB   and  CG  
REMARK    7  A    between atoms: CG   and  CD  
ROOT
ATOM     14  CA  GLU D 570     -18.033  -6.348 -13.375  1.00 32.92     0.160 C 
ENDROOT
BRANCH  14  15
ATOM     15  CB  GLU D 570     -19.500  -6.345 -13.794  1.00 32.92     0.043 C 
BRANCH  15  16
ATOM     16  CG  GLU D 570     -20.445  -5.545 -12.973  1.00 32.92     0.100 C 
BRANCH  16  17
ATOM     17  CD  GLU D 570     -21.740  -5.243 -13.690  1.00 32.92     0.185 C 
ATOM     18  OE1 GLU D 570     -22.281  -4.134 -13.521  1.00 32.92    -0.647 OA
ATOM     19  OE2 GLU D 570     -22.227  -6.132 -14.416  1.00 32.92    -0.647 OA
ENDBRANCH  16  17
ENDBRANCH  15  16
ENDBRANCH  14  15
END_RES GLU D 570
ENDMDL
MODEL 5
REMARK VINA RESULT:      -6.8      1.462      2.459
REMARK  14 active torsions:
REMARK  status: ('A' for Active; 'I' for Inactive)
REMARK    1  A    between atoms: C_2  and  C_3 
REMARK    2  A    between atoms: C_3  and  C_4 
REMARK    3  A    between atoms: C_4  and  C_5 
REMARK    4  A    between atoms: C_5  and  C_6 
REMARK    5  A    between atoms: C_6  and  C_7 
REMARK    6  A    between atoms: C_7  and  C_8 
REMARK    7  A    between atoms: C_8  and  C_9 
REMARK    8  A    between atoms: C_9  and  C_10 
REMARK    9  A    between atoms: C_10  and  C_11 
REMARK   10  A    between atoms: C_11  and  C_12 
REMARK   11  A    between atoms: C_12  and  O_13 
REMARK   12  A    between atoms: O_13  and  C_14 
REMARK   13  A    between atoms: C_14  and  C_16 
REMARK   14  A    between atoms: C_16  and  O_18 
ROOT
HETATM    1  C   UNL     1     -20.167  -4.670  -5.621  1.00  0.00     0.002 C 
ENDROOT
BRANCH   1   2
HETATM    2  C   UNL     1     -21.136  -5.765  -5.188  1.00  0.00     0.000 C 
BRANCH   2   3
HETATM    3  C   UNL     1     -20.753  -7.110  -5.796  1.00  0.00     0.000 C 
BRANCH   3   4
HETATM    4  C   UNL     1     -20.238  -8.064  -4.730  1.00  0.00     0.000 C 
BRANCH   4   5
HETATM    5  C   UNL     1     -21.294  -9.105  -4.391  1.00  0.00     0.000 C 
BRANCH   5   6
HETATM    6  C   UNL     1     -21.338  -9.352  -2.888  1.00  0.00     0.000 C 
BRANCH   6   7
HETATM    7  C   UNL     1     -20.556  -8.279  -2.143  1.00  0.00     0.000 C 
BRANCH   7   8
HETATM    8  C   UNL     1     -21.114  -8.092  -0.736  1.00  0.00    -0.000 C 
BRANCH   8   9
HETATM    9  C   UNL     1     -22.333  -7.177  -0.751  1.00  0.00    -0.005 C 
HETATM   10  C   UNL     1     -22.210  -6.132  -1.845  1.00  0.00     0.005 C 
ENDBRANCH   8   9
ENDBRANCH   7   8
ENDBRANCH   6   7
ENDBRANCH   5   6
ENDBRANCH   4   5
ENDBRANCH   3   4
ENDBRANCH   2   3
ENDBRANCH   1   2
BRANCH   1  11
HETATM   11  C   UNL     1     -19.707  -4.874  -7.061  1.00  0.00     0.027 C 
BRANCH  11  12
HETATM   12  C   UNL     1     -20.433  -3.933  -8.007  1.00  0.00     0.178 C 
BRANCH  12  13
HETATM   13  O   UNL     1     -21.352  -4.678  -8.818  1.00  0.00    -0.319 OA
BRANCH  13  14
HETATM   14  C   UNL     1     -22.660  -4.338  -8.613  1.00  0.00     0.287 C 
HETATM   15  O   UNL     1     -23.204  -4.267  -7.524  1.00  0.00    -0.262 OA
BRANCH  14  16
HETATM   16  C   UNL     1     -23.380  -4.070  -9.940  1.00  0.00     0.213 C 
HETATM   17  C   UNL     1     -24.702  -3.361  -9.718  1.00  0.00     0.050 C 
BRANCH  16  18
HETATM   18  O   UNL     1     -22.589  -3.256 -10.808  1.00  0.00    -0.386 OA
HETATM   19  H   UNL     1     -21.827  -2.943 -10.285  1.00  0.00     0.210 HD
ENDBRANCH  16  18
ENDBRANCH  14  16
ENDBRANCH  13  14
ENDBRANCH  12  13
ENDBRANCH  11  12
ENDBRANCH   1  11
TORSDOF 14
BEGIN_RES ARG D 557
REMARK  4 active torsions:
REMARK  status: ('A' for Active; 'I' for Inactive)
REMARK    1  A    between atoms: CA   and  CB  
REMARK    2  A    between atoms: CB   and  CG  
REMARK    3  A    between atoms: CG   and  CD  
REMARK    4  A    between atoms: CD   and  NE  
REMARK       I    between atoms: NE   and  CZ  
REMARK       I    between atoms: CZ   and  NH1 
REMARK       I    between atoms: CZ   and  NH2 
ROOT
ATOM      1  CA  ARG D 557     -26.217   2.705 -17.014  1.00 35.49     0.159 C 
ENDROOT
BRANCH   1   2
ATOM      2  CB  ARG D 557     -26.789   1.319 -17.183  1.00 35.49     0.034 C 
BRANCH   2   3
ATOM      3  CG  ARG D 557     -25.867   0.195 -16.982  1.00 35.49     0.027 C 
BRANCH   3   4
ATOM      4  CD  ARG D 557     -26.309  -0.710 -15.896  1.00 35.49     0.116 C 
BRANCH   4   5
ATOM      5  NE  ARG D 557     -25.267  -0.949 -14.932  1.00 35.49    -0.212 N 
ATOM      6  CZ  ARG D 557     -25.023  -2.092 -14.332  1.00 35.49     0.666 C 
ATOM      7  NH1 ARG D 557     -25.745  -3.176 -14.550  1.00 35.49    -0.235 N 
ATOM      8  NH2 ARG D 557     -24.023  -2.133 -13.500  1.00 35.49    -0.235 N 
ATOM      9  HH  ARG D 557     -26.407  -3.173 -15.095  1.00 35.49     0.174 HD
ATOM     10  HH  ARG D 557     -25.538  -3.894 -14.132  1.00 35.49     0.174 HD
ATOM     11  HH  ARG D 557     -23.570  -1.420 -13.384  1.00 35.49     0.174 HD
ATOM     12  HH  ARG D 557     -23.833  -2.854 -13.097  1.00 35.49     0.174 HD
ATOM     13  HE  ARG D 557     -24.799  -0.286 -14.677  1.00 35.49     0.178 HD
ENDBRANCH   4   5
ENDBRANCH   3   4
ENDBRANCH   2   3
ENDBRANCH   1   2
END_RES ARG D 557
BEGIN_RES GLU D 570
REMARK  3 active torsions:
REMARK  status: ('A' for Active; 'I' for Inactive)
REMARK    5  A    between atoms: CA   and  CB  
REMARK    6  A    between atoms: CB   and  CG  
REMARK    7  A    between atoms: CG   and  CD  
ROOT
ATOM     14  CA  GLU D 570     -18.033  -6.348 -13.375  1.00 32.92     0.160 C 
ENDROOT
BRANCH  14  15
ATOM     15  CB  GLU D 570     -19.500  -6.345 -13.794  1.00 32.92     0.043 C 
BRANCH  15  16
ATOM     16  CG  GLU D 570     -20.434  -5.495 -13.011  1.00 32.92     0.100 C 
BRANCH  16  17
ATOM     17  CD  GLU D 570     -21.672  -5.110 -13.787  1.00 32.92     0.185 C 
ATOM     18  OE1 GLU D 570     -22.751  -4.980 -13.179  1.00 32.92    -0.647 OA
ATOM     19  OE2 GLU D 570     -21.564  -4.953 -15.019  1.00 32.92    -0.647 OA
ENDBRANCH  16  17
ENDBRANCH  15  16
ENDBRANCH  14  15
END_RES GLU D 570
ENDMDL
MODEL 6
REMARK VINA RESULT:      -6.7      1.604      2.232
REMARK  14 active torsions:
REMARK  status: ('A' for Active; 'I' for Inactive)
REMARK    1  A    between atoms: C_2  and  C_3 
REMARK    2  A    between atoms: C_3  and  C_4 
REMARK    3  A    between atoms: C_4  and  C_5 
REMARK    4  A    between atoms: C_5  and  C_6 
REMARK    5  A    between atoms: C_6  and  C_7 
REMARK    6  A    between atoms: C_7  and  C_8 
REMARK    7  A    between atoms: C_8  and  C_9 
REMARK    8  A    between atoms: C_9  and  C_10 
REMARK    9  A    between atoms: C_10  and  C_11 
REMARK   10  A    between atoms: C_11  and  C_12 
REMARK   11  A    between atoms: C_12  and  O_13 
REMARK   12  A    between atoms: O_13  and  C_14 
REMARK   13  A    between atoms: C_14  and  C_16 
REMARK   14  A    between atoms: C_16  and  O_18 
ROOT
HETATM    1  C   UNL     1     -21.920  -3.692  -8.919  1.00  0.00     0.002 C 
ENDROOT
BRANCH   1   2
HETATM    2  C   UNL     1     -21.943  -4.265  -7.506  1.00  0.00     0.000 C 
BRANCH   2   3
HETATM    3  C   UNL     1     -21.359  -5.674  -7.474  1.00  0.00     0.000 C 
BRANCH   3   4
HETATM    4  C   UNL     1     -20.122  -5.731  -6.592  1.00  0.00     0.000 C 
BRANCH   4   5
HETATM    5  C   UNL     1     -20.362  -6.637  -5.394  1.00  0.00     0.000 C 
BRANCH   5   6
HETATM    6  C   UNL     1     -21.385  -6.017  -4.451  1.00  0.00     0.000 C 
BRANCH   6   7
HETATM    7  C   UNL     1     -21.675  -6.950  -3.283  1.00  0.00     0.000 C 
BRANCH   7   8
HETATM    8  C   UNL     1     -22.001  -6.148  -2.028  1.00  0.00    -0.000 C 
BRANCH   8   9
HETATM    9  C   UNL     1     -22.397  -7.069  -0.880  1.00  0.00    -0.005 C 
HETATM   10  C   UNL     1     -21.260  -8.011  -0.527  1.00  0.00     0.005 C 
ENDBRANCH   8   9
ENDBRANCH   7   8
ENDBRANCH   6   7
ENDBRANCH   5   6
ENDBRANCH   4   5
ENDBRANCH   3   4
ENDBRANCH   2   3
ENDBRANCH   1   2
BRANCH   1  11
HETATM   11  C   UNL     1     -22.877  -4.445  -9.838  1.00  0.00     0.027 C 
BRANCH  11  12
HETATM   12  C   UNL     1     -23.754  -3.483 -10.621  1.00  0.00     0.178 C 
BRANCH  12  13
HETATM   13  O   UNL     1     -22.981  -2.859 -11.656  1.00  0.00    -0.319 OA
BRANCH  13  14
HETATM   14  C   UNL     1     -23.499  -3.043 -12.908  1.00  0.00     0.287 C 
HETATM   15  O   UNL     1     -24.531  -2.543 -13.321  1.00  0.00    -0.262 OA
BRANCH  14  16
HETATM   16  C   UNL     1     -22.623  -3.988 -13.740  1.00  0.00     0.213 C 
HETATM   17  C   UNL     1     -23.319  -5.312 -13.988  1.00  0.00     0.050 C 
BRANCH  16  18
HETATM   18  O   UNL     1     -22.301  -3.418 -15.010  1.00  0.00    -0.386 OA
HETATM   19  H   UNL     1     -21.849  -4.114 -15.526  1.00  0.00     0.210 HD
ENDBRANCH  16  18
ENDBRANCH  14  16
ENDBRANCH  13  14
ENDBRANCH  12  13
ENDBRANCH  11  12
ENDBRANCH   1  11
TORSDOF 14
BEGIN_RES ARG D 557
REMARK  4 active torsions:
REMARK  status: ('A' for Active; 'I' for Inactive)
REMARK    1  A    between atoms: CA   and  CB  
REMARK    2  A    between atoms: CB   and  CG  
REMARK    3  A    between atoms: CG   and  CD  
REMARK    4  A    between atoms: CD   and  NE  
REMARK       I    between atoms: NE   and  CZ  
REMARK       I    between atoms: CZ   and  NH1 
REMARK       I    between atoms: CZ   and  NH2 
ROOT
ATOM      1  CA  ARG D 557     -26.217   2.705 -17.014  1.00 35.49     0.159 C 
ENDROOT
BRANCH   1   2
ATOM      2  CB  ARG D 557     -26.789   1.319 -17.183  1.00 35.49     0.034 C 
BRANCH   2   3
ATOM      3  CG  ARG D 557     -28.223   1.158 -16.912  1.00 35.49     0.027 C 
BRANCH   3   4
ATOM      4  CD  ARG D 557     -28.611  -0.261 -16.749  1.00 35.49     0.116 C 
BRANCH   4   5
ATOM      5  NE  ARG D 557     -27.601  -1.024 -16.064  1.00 35.49    -0.212 N 
ATOM      6  CZ  ARG D 557     -27.444  -2.327 -16.132  1.00 35.49     0.666 C 
ATOM      7  NH1 ARG D 557     -28.236  -3.100 -16.853  1.00 35.49    -0.235 N 
ATOM      8  NH2 ARG D 557     -26.459  -2.850 -15.460  1.00 35.49    -0.235 N 
ATOM      9  HH  ARG D 557     -28.888  -2.777 -17.304  1.00 35.49     0.174 HD
ATOM     10  HH  ARG D 557     -28.084  -3.943 -16.861  1.00 35.49     0.174 HD
ATOM     11  HH  ARG D 557     -25.960  -2.326 -15.010  1.00 35.49     0.174 HD
ATOM     12  HH  ARG D 557     -26.324  -3.687 -15.483  1.00 35.49     0.174 HD
ATOM     13  HE  ARG D 557     -27.091  -0.615 -15.520  1.00 35.49     0.178 HD
ENDBRANCH   4   5
ENDBRANCH   3   4
ENDBRANCH   2   3
ENDBRANCH   1   2
END_RES ARG D 557
BEGIN_RES GLU D 570
REMARK  3 active torsions:
REMARK  status: ('A' for Active; 'I' for Inactive)
REMARK    5  A    between atoms: CA   and  CB  
REMARK    6  A    between atoms: CB   and  CG  
REMARK    7  A    between atoms: CG   and  CD  
ROOT
ATOM     14  CA  GLU D 570     -18.033  -6.348 -13.375  1.00 32.92     0.160 C 
ENDROOT
BRANCH  14  15
ATOM     15  CB  GLU D 570     -19.500  -6.345 -13.794  1.00 32.92     0.043 C 
BRANCH  15  16
ATOM     16  CG  GLU D 570     -19.807  -6.021 -15.211  1.00 32.92     0.100 C 
BRANCH  16  17
ATOM     17  CD  GLU D 570     -20.662  -7.069 -15.884  1.00 32.92     0.185 C 
ATOM     18  OE1 GLU D 570     -20.764  -8.194 -15.360  1.00 32.92    -0.647 OA
ATOM     19  OE2 GLU D 570     -21.222  -6.766 -16.956  1.00 32.92    -0.647 OA
ENDBRANCH  16  17
ENDBRANCH  15  16
ENDBRANCH  14  15
END_RES GLU D 570
ENDMDL
MODEL 7
REMARK VINA RESULT:      -6.6      2.192      3.418
REMARK  14 active torsions:
REMARK  status: ('A' for Active; 'I' for Inactive)
REMARK    1  A    between atoms: C_2  and  C_3 
REMARK    2  A    between atoms: C_3  and  C_4 
REMARK    3  A    between atoms: C_4  and  C_5 
REMARK    4  A    between atoms: C_5  and  C_6 
REMARK    5  A    between atoms: C_6  and  C_7 
REMARK    6  A    between atoms: C_7  and  C_8 
REMARK    7  A    between atoms: C_8  and  C_9 
REMARK    8  A    between atoms: C_9  and  C_10 
REMARK    9  A    between atoms: C_10  and  C_11 
REMARK   10  A    between atoms: C_11  and  C_12 
REMARK   11  A    between atoms: C_12  and  O_13 
REMARK   12  A    between atoms: O_13  and  C_14 
REMARK   13  A    between atoms: C_14  and  C_16 
REMARK   14  A    between atoms: C_16  and  O_18 
ROOT
HETATM    1  C   UNL     1     -20.421  -6.740  -5.347  1.00  0.00     0.002 C 
ENDROOT
BRANCH   1   2
HETATM    2  C   UNL     1     -21.595  -6.443  -4.420  1.00  0.00     0.000 C 
BRANCH   2   3
HETATM    3  C   UNL     1     -21.249  -6.773  -2.972  1.00  0.00     0.000 C 
BRANCH   3   4
HETATM    4  C   UNL     1     -22.228  -6.112  -2.014  1.00  0.00     0.000 C 
BRANCH   4   5
HETATM    5  C   UNL     1     -22.337  -6.914  -0.726  1.00  0.00     0.000 C 
BRANCH   5   6
HETATM    6  C   UNL     1     -21.446  -8.148  -0.786  1.00  0.00     0.000 C 
BRANCH   6   7
HETATM    7  C   UNL     1     -21.421  -8.860   0.559  1.00  0.00     0.000 C 
BRANCH   7   8
HETATM    8  C   UNL     1     -21.623 -10.360   0.372  1.00  0.00    -0.000 C 
BRANCH   8   9
HETATM    9  C   UNL     1     -22.630 -10.640  -0.737  1.00  0.00    -0.005 C 
HETATM   10  C   UNL     1     -23.980 -11.021  -0.157  1.00  0.00     0.005 C 
ENDBRANCH   8   9
ENDBRANCH   7   8
ENDBRANCH   6   7
ENDBRANCH   5   6
ENDBRANCH   4   5
ENDBRANCH   3   4
ENDBRANCH   2   3
ENDBRANCH   1   2
BRANCH   1  11
HETATM   11  C   UNL     1     -20.157  -5.577  -6.298  1.00  0.00     0.027 C 
BRANCH  11  12
HETATM   12  C   UNL     1     -21.071  -5.641  -7.509  1.00  0.00     0.178 C 
BRANCH  12  13
HETATM   13  O   UNL     1     -21.684  -4.361  -7.720  1.00  0.00    -0.319 OA
BRANCH  13  14
HETATM   14  C   UNL     1     -21.833  -4.040  -9.041  1.00  0.00     0.287 C 
HETATM   15  O   UNL     1     -20.920  -3.918  -9.840  1.00  0.00    -0.262 OA
BRANCH  14  16
HETATM   16  C   UNL     1     -23.309  -3.828  -9.399  1.00  0.00     0.213 C 
HETATM   17  C   UNL     1     -23.804  -4.895 -10.356  1.00  0.00     0.050 C 
BRANCH  16  18
HETATM   18  O   UNL     1     -24.139  -3.867  -8.235  1.00  0.00    -0.386 OA
HETATM   19  H   UNL     1     -24.123  -2.971  -7.848  1.00  0.00     0.210 HD
ENDBRANCH  16  18
ENDBRANCH  14  16
ENDBRANCH  13  14
ENDBRANCH  12  13
ENDBRANCH  11  12
ENDBRANCH   1  11
TORSDOF 14
BEGIN_RES ARG D 557
REMARK  4 active torsions:
REMARK  status: ('A' for Active; 'I' for Inactive)
REMARK    1  A    between atoms: CA   and  CB  
REMARK    2  A    between atoms: CB   and  CG  
REMARK    3  A    between atoms: CG   and  CD  
REMARK    4  A    between atoms: CD   and  NE  
REMARK       I    between atoms: NE   and  CZ  
REMARK       I    between atoms: CZ   and  NH1 
REMARK       I    between atoms: CZ   and  NH2 
ROOT
ATOM      1  CA  ARG D 557     -26.217   2.705 -17.014  1.00 35.49     0.159 C 
ENDROOT
BRANCH   1   2
ATOM      2  CB  ARG D 557     -26.789   1.319 -17.183  1.00 35.49     0.034 C 
BRANCH   2   3
ATOM      3  CG  ARG D 557     -28.231   1.226 -17.440  1.00 35.49     0.027 C 
BRANCH   3   4
ATOM      4  CD  ARG D 557     -28.913   0.301 -16.505  1.00 35.49     0.116 C 
BRANCH   4   5
ATOM      5  NE  ARG D 557     -29.284  -0.935 -17.141  1.00 35.49    -0.212 N 
ATOM      6  CZ  ARG D 557     -28.646  -2.079 -17.029  1.00 35.49     0.666 C 
ATOM      7  NH1 ARG D 557     -27.549  -2.211 -16.306  1.00 35.49    -0.235 N 
ATOM      8  NH2 ARG D 557     -29.138  -3.105 -17.660  1.00 35.49    -0.235 N 
ATOM      9  HH  ARG D 557     -27.209  -1.549 -15.881  1.00 35.49     0.174 HD
ATOM     10  HH  ARG D 557     -27.177  -2.982 -16.268  1.00 35.49     0.174 HD
ATOM     11  HH  ARG D 557     -29.852  -2.992 -18.113  1.00 35.49     0.174 HD
ATOM     12  HH  ARG D 557     -28.757  -3.860 -17.608  1.00 35.49     0.174 HD
ATOM     13  HE  ARG D 557     -29.939  -0.924 -17.684  1.00 35.49     0.178 HD
ENDBRANCH   4   5
ENDBRANCH   3   4
ENDBRANCH   2   3
ENDBRANCH   1   2
END_RES ARG D 557
BEGIN_RES GLU D 570
REMARK  3 active torsions:
REMARK  status: ('A' for Active; 'I' for Inactive)
REMARK    5  A    between atoms: CA   and  CB  
REMARK    6  A    between atoms: CB   and  CG  
REMARK    7  A    between atoms: CG   and  CD  
ROOT
ATOM     14  CA  GLU D 570     -18.033  -6.348 -13.375  1.00 32.92     0.160 C 
ENDROOT
BRANCH  14  15
ATOM     15  CB  GLU D 570     -19.500  -6.345 -13.794  1.00 32.92     0.043 C 
BRANCH  15  16
ATOM     16  CG  GLU D 570     -20.135  -7.659 -14.072  1.00 32.92     0.100 C 
BRANCH  16  17
ATOM     17  CD  GLU D 570     -20.837  -7.704 -15.409  1.00 32.92     0.185 C 
ATOM     18  OE1 GLU D 570     -21.603  -6.772 -15.722  1.00 32.92    -0.647 OA
ATOM     19  OE2 GLU D 570     -20.631  -8.689 -16.145  1.00 32.92    -0.647 OA
ENDBRANCH  16  17
ENDBRANCH  15  16
ENDBRANCH  14  15
END_RES GLU D 570
ENDMDL
MODEL 8
REMARK VINA RESULT:      -6.5      2.386      4.466
REMARK  14 active torsions:
REMARK  status: ('A' for Active; 'I' for Inactive)
REMARK    1  A    between atoms: C_2  and  C_3 
REMARK    2  A    between atoms: C_3  and  C_4 
REMARK    3  A    between atoms: C_4  and  C_5 
REMARK    4  A    between atoms: C_5  and  C_6 
REMARK    5  A    between atoms: C_6  and  C_7 
REMARK    6  A    between atoms: C_7  and  C_8 
REMARK    7  A    between atoms: C_8  and  C_9 
REMARK    8  A    between atoms: C_9  and  C_10 
REMARK    9  A    between atoms: C_10  and  C_11 
REMARK   10  A    between atoms: C_11  and  C_12 
REMARK   11  A    between atoms: C_12  and  O_13 
REMARK   12  A    between atoms: O_13  and  C_14 
REMARK   13  A    between atoms: C_14  and  C_16 
REMARK   14  A    between atoms: C_16  and  O_18 
ROOT
HETATM    1  C   UNL     1     -21.181  -7.560  -3.074  1.00  0.00     0.002 C 
ENDROOT
BRANCH   1   2
HETATM    2  C   UNL     1     -22.074  -6.442  -2.547  1.00  0.00     0.000 C 
BRANCH   2   3
HETATM    3  C   UNL     1     -22.120  -6.448  -1.022  1.00  0.00     0.000 C 
BRANCH   3   4
HETATM    4  C   UNL     1     -22.531  -7.813  -0.495  1.00  0.00     0.000 C 
BRANCH   4   5
HETATM    5  C   UNL     1     -21.963  -8.041   0.898  1.00  0.00     0.000 C 
BRANCH   5   6
HETATM    6  C   UNL     1     -21.134  -9.318   0.935  1.00  0.00     0.000 C 
BRANCH   6   7
HETATM    7  C   UNL     1     -21.435 -10.191  -0.275  1.00  0.00     0.000 C 
BRANCH   7   8
HETATM    8  C   UNL     1     -21.632 -11.642   0.150  1.00  0.00    -0.000 C 
BRANCH   8   9
HETATM    9  C   UNL     1     -23.108 -11.947   0.378  1.00  0.00    -0.005 C 
HETATM   10  C   UNL     1     -23.974 -11.200  -0.621  1.00  0.00     0.005 C 
ENDBRANCH   8   9
ENDBRANCH   7   8
ENDBRANCH   6   7
ENDBRANCH   5   6
ENDBRANCH   4   5
ENDBRANCH   3   4
ENDBRANCH   2   3
ENDBRANCH   1   2
BRANCH   1  11
HETATM   11  C   UNL     1     -21.394  -7.781  -4.569  1.00  0.00     0.027 C 
BRANCH  11  12
HETATM   12  C   UNL     1     -22.129  -6.609  -5.196  1.00  0.00     0.178 C 
BRANCH  12  13
HETATM   13  O   UNL     1     -21.391  -6.128  -6.329  1.00  0.00    -0.319 OA
BRANCH  13  14
HETATM   14  C   UNL     1     -20.855  -4.885  -6.141  1.00  0.00     0.287 C 
HETATM   15  O   UNL     1     -20.141  -4.562  -5.207  1.00  0.00    -0.262 OA
BRANCH  14  16
HETATM   16  C   UNL     1     -21.283  -3.920  -7.254  1.00  0.00     0.213 C 
HETATM   17  C   UNL     1     -20.635  -4.281  -8.577  1.00  0.00     0.050 C 
BRANCH  16  18
HETATM   18  O   UNL     1     -22.699  -3.937  -7.443  1.00  0.00    -0.386 OA
HETATM   19  H   UNL     1     -22.935  -3.101  -7.889  1.00  0.00     0.210 HD
ENDBRANCH  16  18
ENDBRANCH  14  16
ENDBRANCH  13  14
ENDBRANCH  12  13
ENDBRANCH  11  12
ENDBRANCH   1  11
TORSDOF 14
BEGIN_RES ARG D 557
REMARK  4 active torsions:
REMARK  status: ('A' for Active; 'I' for Inactive)
REMARK    1  A    between atoms: CA   and  CB  
REMARK    2  A    between atoms: CB   and  CG  
REMARK    3  A    between atoms: CG   and  CD  
REMARK    4  A    between atoms: CD   and  NE  
REMARK       I    between atoms: NE   and  CZ  
REMARK       I    between atoms: CZ   and  NH1 
REMARK       I    between atoms: CZ   and  NH2 
ROOT
ATOM      1  CA  ARG D 557     -26.217   2.705 -17.014  1.00 35.49     0.159 C 
ENDROOT
BRANCH   1   2
ATOM      2  CB  ARG D 557     -26.789   1.319 -17.183  1.00 35.49     0.034 C 
BRANCH   2   3
ATOM      3  CG  ARG D 557     -28.233   1.226 -17.432  1.00 35.49     0.027 C 
BRANCH   3   4
ATOM      4  CD  ARG D 557     -28.909   0.301 -16.494  1.00 35.49     0.116 C 
BRANCH   4   5
ATOM      5  NE  ARG D 557     -29.287  -0.934 -17.129  1.00 35.49    -0.212 N 
ATOM      6  CZ  ARG D 557     -28.645  -2.077 -17.030  1.00 35.49     0.666 C 
ATOM      7  NH1 ARG D 557     -27.537  -2.209 -16.324  1.00 35.49    -0.235 N 
ATOM      8  NH2 ARG D 557     -29.144  -3.102 -17.657  1.00 35.49    -0.235 N 
ATOM      9  HH  ARG D 557     -27.192  -1.548 -15.902  1.00 35.49     0.174 HD
ATOM     10  HH  ARG D 557     -27.163  -2.979 -16.294  1.00 35.49     0.174 HD
ATOM     11  HH  ARG D 557     -29.865  -2.989 -18.100  1.00 35.49     0.174 HD
ATOM     12  HH  ARG D 557     -28.760  -3.857 -17.614  1.00 35.49     0.174 HD
ATOM     13  HE  ARG D 557     -29.949  -0.923 -17.662  1.00 35.49     0.178 HD
ENDBRANCH   4   5
ENDBRANCH   3   4
ENDBRANCH   2   3
ENDBRANCH   1   2
END_RES ARG D 557
BEGIN_RES GLU D 570
REMARK  3 active torsions:
REMARK  status: ('A' for Active; 'I' for Inactive)
REMARK    5  A    between atoms: CA   and  CB  
REMARK    6  A    between atoms: CB   and  CG  
REMARK    7  A    between atoms: CG   and  CD  
ROOT
ATOM     14  CA  GLU D 570     -18.033  -6.348 -13.375  1.00 32.92     0.160 C 
ENDROOT
BRANCH  14  15
ATOM     15  CB  GLU D 570     -19.500  -6.345 -13.794  1.00 32.92     0.043 C 
BRANCH  15  16
ATOM     16  CG  GLU D 570     -20.447  -5.557 -12.964  1.00 32.92     0.100 C 
BRANCH  16  17
ATOM     17  CD  GLU D 570     -21.705  -5.173 -13.708  1.00 32.92     0.185 C 
ATOM     18  OE1 GLU D 570     -21.645  -4.981 -14.938  1.00 32.92    -0.647 OA
ATOM     19  OE2 GLU D 570     -22.757  -5.046 -13.052  1.00 32.92    -0.647 OA
ENDBRANCH  16  17
ENDBRANCH  15  16
ENDBRANCH  14  15
END_RES GLU D 570
ENDMDL
MODEL 9
REMARK VINA RESULT:      -6.3      2.916      6.723
REMARK  14 active torsions:
REMARK  status: ('A' for Active; 'I' for Inactive)
REMARK    1  A    between atoms: C_2  and  C_3 
REMARK    2  A    between atoms: C_3  and  C_4 
REMARK    3  A    between atoms: C_4  and  C_5 
REMARK    4  A    between atoms: C_5  and  C_6 
REMARK    5  A    between atoms: C_6  and  C_7 
REMARK    6  A    between atoms: C_7  and  C_8 
REMARK    7  A    between atoms: C_8  and  C_9 
REMARK    8  A    between atoms: C_9  and  C_10 
REMARK    9  A    between atoms: C_10  and  C_11 
REMARK   10  A    between atoms: C_11  and  C_12 
REMARK   11  A    between atoms: C_12  and  O_13 
REMARK   12  A    between atoms: O_13  and  C_14 
REMARK   13  A    between atoms: C_14  and  C_16 
REMARK   14  A    between atoms: C_16  and  O_18 
ROOT
HETATM    1  C   UNL     1     -19.959  -5.793  -6.682  1.00  0.00     0.002 C 
ENDROOT
BRANCH   1   2
HETATM    2  C   UNL     1     -19.106  -4.733  -7.371  1.00  0.00     0.000 C 
BRANCH   2   3
HETATM    3  C   UNL     1     -19.943  -3.891  -8.329  1.00  0.00     0.000 C 
BRANCH   3   4
HETATM    4  C   UNL     1     -20.203  -4.639  -9.627  1.00  0.00     0.000 C 
BRANCH   4   5
HETATM    5  C   UNL     1     -20.252  -3.671 -10.799  1.00  0.00     0.000 C 
BRANCH   5   6
HETATM    6  C   UNL     1     -21.656  -3.615 -11.388  1.00  0.00     0.000 C 
BRANCH   6   7
HETATM    7  C   UNL     1     -22.542  -4.688 -10.771  1.00  0.00     0.000 C 
BRANCH   7   8
HETATM    8  C   UNL     1     -23.993  -4.222 -10.727  1.00  0.00    -0.000 C 
BRANCH   8   9
HETATM    9  C   UNL     1     -24.284  -3.469  -9.434  1.00  0.00    -0.005 C 
HETATM   10  C   UNL     1     -23.575  -4.118  -8.260  1.00  0.00     0.005 C 
ENDBRANCH   8   9
ENDBRANCH   7   8
ENDBRANCH   6   7
ENDBRANCH   5   6
ENDBRANCH   4   5
ENDBRANCH   3   4
ENDBRANCH   2   3
ENDBRANCH   1   2
BRANCH   1  11
HETATM   11  C   UNL     1     -20.743  -5.201  -5.514  1.00  0.00     0.027 C 
BRANCH  11  12
HETATM   12  C   UNL     1     -21.692  -6.226  -4.916  1.00  0.00     0.178 C 
BRANCH  12  13
HETATM   13  O   UNL     1     -21.030  -6.938  -3.861  1.00  0.00    -0.319 OA
BRANCH  13  14
HETATM   14  C   UNL     1     -21.593  -6.737  -2.632  1.00  0.00     0.287 C 
HETATM   15  O   UNL     1     -22.446  -5.903  -2.379  1.00  0.00    -0.262 OA
BRANCH  14  16
HETATM   16  C   UNL     1     -21.001  -7.690  -1.586  1.00  0.00     0.213 C 
HETATM   17  C   UNL     1     -22.078  -8.538  -0.939  1.00  0.00     0.050 C 
BRANCH  16  18
HETATM   18  O   UNL     1     -20.040  -8.573  -2.169  1.00  0.00    -0.386 OA
HETATM   19  H   UNL     1     -20.084  -9.409  -1.668  1.00  0.00     0.210 HD
ENDBRANCH  16  18
ENDBRANCH  14  16
ENDBRANCH  13  14
ENDBRANCH  12  13
ENDBRANCH  11  12
ENDBRANCH   1  11
TORSDOF 14
BEGIN_RES ARG D 557
REMARK  4 active torsions:
REMARK  status: ('A' for Active; 'I' for Inactive)
REMARK    1  A    between atoms: CA   and  CB  
REMARK    2  A    between atoms: CB   and  CG  
REMARK    3  A    between atoms: CG   and  CD  
REMARK    4  A    between atoms: CD   and  NE  
REMARK       I    between atoms: NE   and  CZ  
REMARK       I    between atoms: CZ   and  NH1 
REMARK       I    between atoms: CZ   and  NH2 
ROOT
ATOM      1  CA  ARG D 557     -26.217   2.705 -17.014  1.00 35.49     0.159 C 
ENDROOT
BRANCH   1   2
ATOM      2  CB  ARG D 557     -26.789   1.319 -17.183  1.00 35.49     0.034 C 
BRANCH   2   3
ATOM      3  CG  ARG D 557     -25.862   0.195 -17.001  1.00 35.49     0.027 C 
BRANCH   3   4
ATOM      4  CD  ARG D 557     -26.274  -0.703 -15.898  1.00 35.49     0.116 C 
BRANCH   4   5
ATOM      5  NE  ARG D 557     -25.221  -0.899 -14.937  1.00 35.49    -0.212 N 
ATOM      6  CZ  ARG D 557     -24.925  -2.033 -14.343  1.00 35.49     0.666 C 
ATOM      7  NH1 ARG D 557     -25.598  -3.147 -14.565  1.00 35.49    -0.235 N 
ATOM      8  NH2 ARG D 557     -23.922  -2.032 -13.513  1.00 35.49    -0.235 N 
ATOM      9  HH  ARG D 557     -26.260  -3.171 -15.108  1.00 35.49     0.174 HD
ATOM     10  HH  ARG D 557     -25.357  -3.857 -14.150  1.00 35.49     0.174 HD
ATOM     11  HH  ARG D 557     -23.501  -1.300 -13.395  1.00 35.49     0.174 HD
ATOM     12  HH  ARG D 557     -23.698  -2.746 -13.114  1.00 35.49     0.174 HD
ATOM     13  HE  ARG D 557     -24.782  -0.217 -14.680  1.00 35.49     0.178 HD
ENDBRANCH   4   5
ENDBRANCH   3   4
ENDBRANCH   2   3
ENDBRANCH   1   2
END_RES ARG D 557
BEGIN_RES GLU D 570
REMARK  3 active torsions:
REMARK  status: ('A' for Active; 'I' for Inactive)
REMARK    5  A    between atoms: CA   and  CB  
REMARK    6  A    between atoms: CB   and  CG  
REMARK    7  A    between atoms: CG   and  CD  
ROOT
ATOM     14  CA  GLU D 570     -18.033  -6.348 -13.375  1.00 32.92     0.160 C 
ENDROOT
BRANCH  14  15
ATOM     15  CB  GLU D 570     -19.500  -6.345 -13.794  1.00 32.92     0.043 C 
BRANCH  15  16
ATOM     16  CG  GLU D 570     -19.815  -5.915 -15.181  1.00 32.92     0.100 C 
BRANCH  16  17
ATOM     17  CD  GLU D 570     -21.292  -5.690 -15.407  1.00 32.92     0.185 C 
ATOM     18  OE1 GLU D 570     -21.682  -4.570 -15.790  1.00 32.92    -0.647 OA
ATOM     19  OE2 GLU D 570     -22.069  -6.639 -15.184  1.00 32.92    -0.647 OA
ENDBRANCH  16  17
ENDBRANCH  15  16
ENDBRANCH  14  15
END_RES GLU D 570
ENDMDL
