MODEL 1
REMARK VINA RESULT:      -7.3      0.000      0.000
REMARK  16 active torsions:
REMARK  status: ('A' for Active; 'I' for Inactive)
REMARK    1  A    between atoms: C_2  and  C_3 
REMARK    2  A    between atoms: C_3  and  C_4 
REMARK    3  A    between atoms: C_4  and  C_5 
REMARK    4  A    between atoms: C_5  and  C_6 
REMARK    5  A    between atoms: C_6  and  C_7 
REMARK    6  A    between atoms: C_7  and  C_8 
REMARK    7  A    between atoms: C_8  and  C_9 
REMARK    8  A    between atoms: C_9  and  C_10 
REMARK    9  A    between atoms: C_10  and  C_11 
REMARK   10  A    between atoms: C_11  and  C_12 
REMARK       I    between atoms: C_12  and  N_14 
REMARK   11  A    between atoms: N_14  and  C_15 
REMARK   12  A    between atoms: C_15  and  C_16 
REMARK   13  A    between atoms: C_16  and  C_17 
REMARK   14  A    between atoms: C_17  and  N_18 
REMARK   15  A    between atoms: N_18  and  C_21 
REMARK   16  A    between atoms: C_21  and  C_22 
ROOT
HETATM    1  C   UNL     1     -22.203  -4.382  -7.273  1.00  0.00     0.217 C 
HETATM    2  O   UNL     1     -23.061  -4.724  -6.466  1.00  0.00    -0.274 OA
HETATM    3  N   UNL     1     -22.501  -3.959  -8.548  1.00  0.00    -0.361 N 
HETATM    4  H   UNL     1     -21.747  -3.765  -9.198  1.00  0.00     0.162 HD
ENDROOT
BRANCH   1   5
HETATM    5  C   UNL     1     -20.726  -4.334  -6.951  1.00  0.00     0.103 C 
BRANCH   5   6
HETATM    6  C   UNL     1     -20.475  -5.002  -5.607  1.00  0.00     0.009 C 
BRANCH   6   7
HETATM    7  C   UNL     1     -20.378  -6.515  -5.724  1.00  0.00     0.000 C 
BRANCH   7   8
HETATM    8  C   UNL     1     -20.691  -7.148  -4.370  1.00  0.00     0.000 C 
BRANCH   8   9
HETATM    9  C   UNL     1     -22.026  -6.658  -3.830  1.00  0.00     0.000 C 
BRANCH   9  10
HETATM   10  C   UNL     1     -21.883  -6.210  -2.379  1.00  0.00     0.000 C 
BRANCH  10  11
HETATM   11  C   UNL     1     -21.520  -7.394  -1.489  1.00  0.00     0.000 C 
BRANCH  11  12
HETATM   12  C   UNL     1     -22.464  -7.493  -0.295  1.00  0.00     0.000 C 
BRANCH  12  13
HETATM   13  C   UNL     1     -22.343  -8.858   0.376  1.00  0.00    -0.000 C 
BRANCH  13  14
HETATM   14  C   UNL     1     -22.685  -9.986  -0.593  1.00  0.00    -0.005 C 
HETATM   15  C   UNL     1     -23.968 -10.685  -0.193  1.00  0.00     0.005 C 
ENDBRANCH  13  14
ENDBRANCH  12  13
ENDBRANCH  11  12
ENDBRANCH  10  11
ENDBRANCH   9  10
ENDBRANCH   8   9
ENDBRANCH   7   8
ENDBRANCH   6   7
ENDBRANCH   5   6
ENDBRANCH   1   5
BRANCH   3  16
HETATM   16  C   UNL     1     -23.865  -3.938  -9.027  1.00  0.00     0.124 C 
BRANCH  16  17
HETATM   17  C   UNL     1     -23.997  -3.327 -10.422  1.00  0.00     0.048 C 
BRANCH  17  18
HETATM   18  C   UNL     1     -23.944  -4.387 -11.523  1.00  0.00     0.238 C 
BRANCH  18  19
HETATM   19  N   UNL     1     -22.891  -4.060 -12.597  1.00  0.00    -0.065 N 
HETATM   20  C   UNL     1     -21.496  -4.020 -11.989  1.00  0.00     0.272 C 
HETATM   21  C   UNL     1     -22.960  -4.995 -13.778  1.00  0.00     0.272 C 
BRANCH  19  22
HETATM   22  C   UNL     1     -23.202  -2.591 -13.139  1.00  0.00     0.349 C 
BRANCH  22  23
HETATM   23  C   UNL     1     -23.601  -2.454 -14.633  1.00  0.00     0.199 C 
HETATM   24  O   UNL     1     -22.624  -2.320 -15.419  1.00  0.00    -0.647 OA
HETATM   25  O   UNL     1     -24.832  -2.624 -14.855  1.00  0.00    -0.647 OA
ENDBRANCH  22  23
ENDBRANCH  19  22
ENDBRANCH  18  19
ENDBRANCH  17  18
ENDBRANCH  16  17
ENDBRANCH   3  16
TORSDOF 16
BEGIN_RES ARG D 557
REMARK  4 active torsions:
REMARK  status: ('A' for Active; 'I' for Inactive)
REMARK    1  A    between atoms: CA   and  CB  
REMARK    2  A    between atoms: CB   and  CG  
REMARK    3  A    between atoms: CG   and  CD  
REMARK    4  A    between atoms: CD   and  NE  
REMARK       I    between atoms: NE   and  CZ  
REMARK       I    between atoms: CZ   and  NH1 
REMARK       I    between atoms: CZ   and  NH2 
ROOT
ATOM      1  CA  ARG D 557     -26.217   2.705 -17.014  1.00 35.49     0.159 C 
ENDROOT
BRANCH   1   2
ATOM      2  CB  ARG D 557     -26.789   1.319 -17.183  1.00 35.49     0.034 C 
BRANCH   2   3
ATOM      3  CG  ARG D 557     -28.230   1.227 -17.448  1.00 35.49     0.027 C 
BRANCH   3   4
ATOM      4  CD  ARG D 557     -28.918   0.305 -16.515  1.00 35.49     0.116 C 
BRANCH   4   5
ATOM      5  NE  ARG D 557     -29.279  -0.936 -17.146  1.00 35.49    -0.212 N 
ATOM      6  CZ  ARG D 557     -28.631  -2.074 -17.031  1.00 35.49     0.666 C 
ATOM      7  NH1 ARG D 557     -27.533  -2.194 -16.309  1.00 35.49    -0.235 N 
ATOM      8  NH2 ARG D 557     -29.115  -3.106 -17.659  1.00 35.49    -0.235 N 
ATOM      9  HH  ARG D 557     -27.198  -1.528 -15.886  1.00 35.49     0.174 HD
ATOM     10  HH  ARG D 557     -27.154  -2.962 -16.268  1.00 35.49     0.174 HD
ATOM     11  HH  ARG D 557     -29.829  -3.001 -18.112  1.00 35.49     0.174 HD
ATOM     12  HH  ARG D 557     -28.726  -3.858 -17.605  1.00 35.49     0.174 HD
ATOM     13  HE  ARG D 557     -29.934  -0.932 -17.689  1.00 35.49     0.178 HD
ENDBRANCH   4   5
ENDBRANCH   3   4
ENDBRANCH   2   3
ENDBRANCH   1   2
END_RES ARG D 557
BEGIN_RES GLU D 570
REMARK  3 active torsions:
REMARK  status: ('A' for Active; 'I' for Inactive)
REMARK    5  A    between atoms: CA   and  CB  
REMARK    6  A    between atoms: CB   and  CG  
REMARK    7  A    between atoms: CG   and  CD  
ROOT
ATOM     14  CA  GLU D 570     -18.033  -6.348 -13.375  1.00 32.92     0.160 C 
ENDROOT
BRANCH  14  15
ATOM     15  CB  GLU D 570     -19.500  -6.345 -13.794  1.00 32.92     0.043 C 
BRANCH  15  16
ATOM     16  CG  GLU D 570     -20.091  -7.638 -14.225  1.00 32.92     0.100 C 
BRANCH  16  17
ATOM     17  CD  GLU D 570     -20.664  -7.588 -15.622  1.00 32.92     0.185 C 
ATOM     18  OE1 GLU D 570     -20.609  -6.519 -16.261  1.00 32.92    -0.647 OA
ATOM     19  OE2 GLU D 570     -21.189  -8.623 -16.076  1.00 32.92    -0.647 OA
ENDBRANCH  16  17
ENDBRANCH  15  16
ENDBRANCH  14  15
END_RES GLU D 570
ENDMDL
MODEL 2
REMARK VINA RESULT:      -7.2      1.405      1.906
REMARK  16 active torsions:
REMARK  status: ('A' for Active; 'I' for Inactive)
REMARK    1  A    between atoms: C_2  and  C_3 
REMARK    2  A    between atoms: C_3  and  C_4 
REMARK    3  A    between atoms: C_4  and  C_5 
REMARK    4  A    between atoms: C_5  and  C_6 
REMARK    5  A    between atoms: C_6  and  C_7 
REMARK    6  A    between atoms: C_7  and  C_8 
REMARK    7  A    between atoms: C_8  and  C_9 
REMARK    8  A    between atoms: C_9  and  C_10 
REMARK    9  A    between atoms: C_10  and  C_11 
REMARK   10  A    between atoms: C_11  and  C_12 
REMARK       I    between atoms: C_12  and  N_14 
REMARK   11  A    between atoms: N_14  and  C_15 
REMARK   12  A    between atoms: C_15  and  C_16 
REMARK   13  A    between atoms: C_16  and  C_17 
REMARK   14  A    between atoms: C_17  and  N_18 
REMARK   15  A    between atoms: N_18  and  C_21 
REMARK   16  A    between atoms: C_21  and  C_22 
ROOT
HETATM    1  C   UNL     1     -22.210  -3.987  -8.445  1.00  0.00     0.217 C 
HETATM    2  O   UNL     1     -23.393  -4.207  -8.206  1.00  0.00    -0.274 OA
HETATM    3  N   UNL     1     -21.691  -3.990  -9.719  1.00  0.00    -0.361 N 
HETATM    4  H   UNL     1     -20.691  -3.882  -9.851  1.00  0.00     0.162 HD
ENDROOT
BRANCH   1   5
HETATM    5  C   UNL     1     -21.195  -3.637  -7.381  1.00  0.00     0.103 C 
BRANCH   5   6
HETATM    6  C   UNL     1     -20.205  -4.782  -7.221  1.00  0.00     0.009 C 
BRANCH   6   7
HETATM    7  C   UNL     1     -20.800  -5.956  -6.461  1.00  0.00     0.000 C 
BRANCH   7   8
HETATM    8  C   UNL     1     -20.893  -5.604  -4.978  1.00  0.00     0.000 C 
BRANCH   8   9
HETATM    9  C   UNL     1     -21.298  -6.815  -4.151  1.00  0.00     0.000 C 
BRANCH   9  10
HETATM   10  C   UNL     1     -21.925  -6.375  -2.832  1.00  0.00     0.000 C 
BRANCH  10  11
HETATM   11  C   UNL     1     -21.407  -7.233  -1.683  1.00  0.00     0.000 C 
BRANCH  11  12
HETATM   12  C   UNL     1     -22.426  -7.304  -0.550  1.00  0.00     0.000 C 
BRANCH  12  13
HETATM   13  C   UNL     1     -21.945  -8.248   0.549  1.00  0.00    -0.000 C 
BRANCH  13  14
HETATM   14  C   UNL     1     -22.048  -9.707   0.112  1.00  0.00    -0.005 C 
HETATM   15  C   UNL     1     -23.475 -10.077  -0.235  1.00  0.00     0.005 C 
ENDBRANCH  13  14
ENDBRANCH  12  13
ENDBRANCH  11  12
ENDBRANCH  10  11
ENDBRANCH   9  10
ENDBRANCH   8   9
ENDBRANCH   7   8
ENDBRANCH   6   7
ENDBRANCH   5   6
ENDBRANCH   1   5
BRANCH   3  16
HETATM   16  C   UNL     1     -22.520  -4.304 -10.862  1.00  0.00     0.124 C 
BRANCH  16  17
HETATM   17  C   UNL     1     -22.530  -3.194 -11.914  1.00  0.00     0.048 C 
BRANCH  17  18
HETATM   18  C   UNL     1     -23.939  -2.902 -12.430  1.00  0.00     0.238 C 
BRANCH  18  19
HETATM   19  N   UNL     1     -24.027  -2.992 -13.964  1.00  0.00    -0.065 N 
HETATM   20  C   UNL     1     -24.785  -1.801 -14.531  1.00  0.00     0.272 C 
HETATM   21  C   UNL     1     -22.674  -3.155 -14.611  1.00  0.00     0.272 C 
BRANCH  19  22
HETATM   22  C   UNL     1     -24.880  -4.295 -14.317  1.00  0.00     0.349 C 
BRANCH  22  23
HETATM   23  C   UNL     1     -24.094  -5.606 -14.591  1.00  0.00     0.199 C 
HETATM   24  O   UNL     1     -23.676  -6.185 -13.552  1.00  0.00    -0.647 OA
HETATM   25  O   UNL     1     -24.097  -5.965 -15.801  1.00  0.00    -0.647 OA
ENDBRANCH  22  23
ENDBRANCH  19  22
ENDBRANCH  18  19
ENDBRANCH  17  18
ENDBRANCH  16  17
ENDBRANCH   3  16
TORSDOF 16
BEGIN_RES ARG D 557
REMARK  4 active torsions:
REMARK  status: ('A' for Active; 'I' for Inactive)
REMARK    1  A    between atoms: CA   and  CB  
REMARK    2  A    between atoms: CB   and  CG  
REMARK    3  A    between atoms: CG   and  CD  
REMARK    4  A    between atoms: CD   and  NE  
REMARK       I    between atoms: NE   and  CZ  
REMARK       I    between atoms: CZ   and  NH1 
REMARK       I    between atoms: CZ   and  NH2 
ROOT
ATOM      1  CA  ARG D 557     -26.217   2.705 -17.014  1.00 35.49     0.159 C 
ENDROOT
BRANCH   1   2
ATOM      2  CB  ARG D 557     -26.789   1.319 -17.183  1.00 35.49     0.034 C 
BRANCH   2   3
ATOM      3  CG  ARG D 557     -28.139   1.092 -16.653  1.00 35.49     0.027 C 
BRANCH   3   4
ATOM      4  CD  ARG D 557     -28.794  -0.088 -17.262  1.00 35.49     0.116 C 
BRANCH   4   5
ATOM      5  NE  ARG D 557     -28.179  -1.322 -16.851  1.00 35.49    -0.212 N 
ATOM      6  CZ  ARG D 557     -28.672  -2.526 -17.041  1.00 35.49     0.666 C 
ATOM      7  NH1 ARG D 557     -29.830  -2.732 -17.639  1.00 35.49    -0.235 N 
ATOM      8  NH2 ARG D 557     -27.967  -3.536 -16.620  1.00 35.49    -0.235 N 
ATOM      9  HH  ARG D 557     -30.310  -2.082 -17.926  1.00 35.49     0.174 HD
ATOM     10  HH  ARG D 557     -30.100  -3.539 -17.738  1.00 35.49     0.174 HD
ATOM     11  HH  ARG D 557     -27.219  -3.373 -16.244  1.00 35.49     0.174 HD
ATOM     12  HH  ARG D 557     -28.250  -4.328 -16.728  1.00 35.49     0.174 HD
ATOM     13  HE  ARG D 557     -27.464  -1.279 -16.393  1.00 35.49     0.178 HD
ENDBRANCH   4   5
ENDBRANCH   3   4
ENDBRANCH   2   3
ENDBRANCH   1   2
END_RES ARG D 557
BEGIN_RES GLU D 570
REMARK  3 active torsions:
REMARK  status: ('A' for Active; 'I' for Inactive)
REMARK    5  A    between atoms: CA   and  CB  
REMARK    6  A    between atoms: CB   and  CG  
REMARK    7  A    between atoms: CG   and  CD  
ROOT
ATOM     14  CA  GLU D 570     -18.033  -6.348 -13.375  1.00 32.92     0.160 C 
ENDROOT
BRANCH  14  15
ATOM     15  CB  GLU D 570     -19.500  -6.345 -13.794  1.00 32.92     0.043 C 
BRANCH  15  16
ATOM     16  CG  GLU D 570     -20.085  -7.633 -14.247  1.00 32.92     0.100 C 
BRANCH  16  17
ATOM     17  CD  GLU D 570     -20.756  -7.534 -15.597  1.00 32.92     0.185 C 
ATOM     18  OE1 GLU D 570     -20.882  -6.414 -16.129  1.00 32.92    -0.647 OA
ATOM     19  OE2 GLU D 570     -21.176  -8.585 -16.120  1.00 32.92    -0.647 OA
ENDBRANCH  16  17
ENDBRANCH  15  16
ENDBRANCH  14  15
END_RES GLU D 570
ENDMDL
MODEL 3
REMARK VINA RESULT:      -7.1      1.337      2.134
REMARK  16 active torsions:
REMARK  status: ('A' for Active; 'I' for Inactive)
REMARK    1  A    between atoms: C_2  and  C_3 
REMARK    2  A    between atoms: C_3  and  C_4 
REMARK    3  A    between atoms: C_4  and  C_5 
REMARK    4  A    between atoms: C_5  and  C_6 
REMARK    5  A    between atoms: C_6  and  C_7 
REMARK    6  A    between atoms: C_7  and  C_8 
REMARK    7  A    between atoms: C_8  and  C_9 
REMARK    8  A    between atoms: C_9  and  C_10 
REMARK    9  A    between atoms: C_10  and  C_11 
REMARK   10  A    between atoms: C_11  and  C_12 
REMARK       I    between atoms: C_12  and  N_14 
REMARK   11  A    between atoms: N_14  and  C_15 
REMARK   12  A    between atoms: C_15  and  C_16 
REMARK   13  A    between atoms: C_16  and  C_17 
REMARK   14  A    between atoms: C_17  and  N_18 
REMARK   15  A    between atoms: N_18  and  C_21 
REMARK   16  A    between atoms: C_21  and  C_22 
ROOT
HETATM    1  C   UNL     1     -20.719  -5.088  -7.320  1.00  0.00     0.217 C 
HETATM    2  O   UNL     1     -19.625  -5.643  -7.341  1.00  0.00    -0.274 OA
HETATM    3  N   UNL     1     -21.175  -4.295  -8.347  1.00  0.00    -0.361 N 
HETATM    4  H   UNL     1     -22.052  -3.797  -8.241  1.00  0.00     0.162 HD
ENDROOT
BRANCH   1   5
HETATM    5  C   UNL     1     -21.716  -5.251  -6.195  1.00  0.00     0.103 C 
BRANCH   5   6
HETATM    6  C   UNL     1     -21.009  -5.786  -4.959  1.00  0.00     0.009 C 
BRANCH   6   7
HETATM    7  C   UNL     1     -21.853  -6.802  -4.206  1.00  0.00     0.000 C 
BRANCH   7   8
HETATM    8  C   UNL     1     -21.852  -6.458  -2.718  1.00  0.00     0.000 C 
BRANCH   8   9
HETATM    9  C   UNL     1     -21.746  -7.712  -1.865  1.00  0.00     0.000 C 
BRANCH   9  10
HETATM   10  C   UNL     1     -21.983  -7.380  -0.395  1.00  0.00     0.000 C 
BRANCH  10  11
HETATM   11  C   UNL     1     -23.084  -8.263   0.180  1.00  0.00     0.000 C 
BRANCH  11  12
HETATM   12  C   UNL     1     -22.731  -9.741   0.041  1.00  0.00     0.000 C 
BRANCH  12  13
HETATM   13  C   UNL     1     -23.995 -10.592  -0.037  1.00  0.00    -0.000 C 
BRANCH  13  14
HETATM   14  C   UNL     1     -23.873 -11.670  -1.110  1.00  0.00    -0.005 C 
HETATM   15  C   UNL     1     -23.142 -11.151  -2.331  1.00  0.00     0.005 C 
ENDBRANCH  13  14
ENDBRANCH  12  13
ENDBRANCH  11  12
ENDBRANCH  10  11
ENDBRANCH   9  10
ENDBRANCH   8   9
ENDBRANCH   7   8
ENDBRANCH   6   7
ENDBRANCH   5   6
ENDBRANCH   1   5
BRANCH   3  16
HETATM   16  C   UNL     1     -20.353  -4.030  -9.507  1.00  0.00     0.124 C 
BRANCH  16  17
HETATM   17  C   UNL     1     -20.983  -4.524 -10.810  1.00  0.00     0.048 C 
BRANCH  17  18
HETATM   18  C   UNL     1     -21.943  -3.497 -11.411  1.00  0.00     0.238 C 
BRANCH  18  19
HETATM   19  N   UNL     1     -23.304  -4.117 -11.777  1.00  0.00    -0.065 N 
HETATM   20  C   UNL     1     -23.840  -4.956 -10.626  1.00  0.00     0.272 C 
HETATM   21  C   UNL     1     -24.305  -3.084 -12.231  1.00  0.00     0.272 C 
BRANCH  19  22
HETATM   22  C   UNL     1     -23.062  -5.111 -13.002  1.00  0.00     0.349 C 
BRANCH  22  23
HETATM   23  C   UNL     1     -23.306  -4.552 -14.430  1.00  0.00     0.199 C 
HETATM   24  O   UNL     1     -22.344  -3.883 -14.895  1.00  0.00    -0.647 OA
HETATM   25  O   UNL     1     -24.377  -4.954 -14.964  1.00  0.00    -0.647 OA
ENDBRANCH  22  23
ENDBRANCH  19  22
ENDBRANCH  18  19
ENDBRANCH  17  18
ENDBRANCH  16  17
ENDBRANCH   3  16
TORSDOF 16
BEGIN_RES ARG D 557
REMARK  4 active torsions:
REMARK  status: ('A' for Active; 'I' for Inactive)
REMARK    1  A    between atoms: CA   and  CB  
REMARK    2  A    between atoms: CB   and  CG  
REMARK    3  A    between atoms: CG   and  CD  
REMARK    4  A    between atoms: CD   and  NE  
REMARK       I    between atoms: NE   and  CZ  
REMARK       I    between atoms: CZ   and  NH1 
REMARK       I    between atoms: CZ   and  NH2 
ROOT
ATOM      1  CA  ARG D 557     -26.217   2.705 -17.014  1.00 35.49     0.159 C 
ENDROOT
BRANCH   1   2
ATOM      2  CB  ARG D 557     -26.789   1.319 -17.183  1.00 35.49     0.034 C 
BRANCH   2   3
ATOM      3  CG  ARG D 557     -28.213   1.149 -16.868  1.00 35.49     0.027 C 
BRANCH   3   4
ATOM      4  CD  ARG D 557     -28.583  -0.272 -16.678  1.00 35.49     0.116 C 
BRANCH   4   5
ATOM      5  NE  ARG D 557     -27.572  -1.005 -15.962  1.00 35.49    -0.212 N 
ATOM      6  CZ  ARG D 557     -27.374  -2.303 -16.026  1.00 35.49     0.666 C 
ATOM      7  NH1 ARG D 557     -28.119  -3.098 -16.771  1.00 35.49    -0.235 N 
ATOM      8  NH2 ARG D 557     -26.396  -2.796 -15.323  1.00 35.49    -0.235 N 
ATOM      9  HH  ARG D 557     -28.767  -2.795 -17.243  1.00 35.49     0.174 HD
ATOM     10  HH  ARG D 557     -27.941  -3.936 -16.775  1.00 35.49     0.174 HD
ATOM     11  HH  ARG D 557     -25.926  -2.257 -14.857  1.00 35.49     0.174 HD
ATOM     12  HH  ARG D 557     -26.235  -3.628 -15.342  1.00 35.49     0.174 HD
ATOM     13  HE  ARG D 557     -27.093  -0.581 -15.402  1.00 35.49     0.178 HD
ENDBRANCH   4   5
ENDBRANCH   3   4
ENDBRANCH   2   3
ENDBRANCH   1   2
END_RES ARG D 557
BEGIN_RES GLU D 570
REMARK  3 active torsions:
REMARK  status: ('A' for Active; 'I' for Inactive)
REMARK    5  A    between atoms: CA   and  CB  
REMARK    6  A    between atoms: CB   and  CG  
REMARK    7  A    between atoms: CG   and  CD  
ROOT
ATOM     14  CA  GLU D 570     -18.033  -6.348 -13.375  1.00 32.92     0.160 C 
ENDROOT
BRANCH  14  15
ATOM     15  CB  GLU D 570     -19.500  -6.345 -13.794  1.00 32.92     0.043 C 
BRANCH  15  16
ATOM     16  CG  GLU D 570     -20.090  -7.637 -14.230  1.00 32.92     0.100 C 
BRANCH  16  17
ATOM     17  CD  GLU D 570     -20.731  -7.561 -15.596  1.00 32.92     0.185 C 
ATOM     18  OE1 GLU D 570     -20.711  -6.480 -16.215  1.00 32.92    -0.647 OA
ATOM     19  OE2 GLU D 570     -21.275  -8.590 -16.044  1.00 32.92    -0.647 OA
ENDBRANCH  16  17
ENDBRANCH  15  16
ENDBRANCH  14  15
END_RES GLU D 570
ENDMDL
MODEL 4
REMARK VINA RESULT:      -7.1      6.843     11.878
REMARK  16 active torsions:
REMARK  status: ('A' for Active; 'I' for Inactive)
REMARK    1  A    between atoms: C_2  and  C_3 
REMARK    2  A    between atoms: C_3  and  C_4 
REMARK    3  A    between atoms: C_4  and  C_5 
REMARK    4  A    between atoms: C_5  and  C_6 
REMARK    5  A    between atoms: C_6  and  C_7 
REMARK    6  A    between atoms: C_7  and  C_8 
REMARK    7  A    between atoms: C_8  and  C_9 
REMARK    8  A    between atoms: C_9  and  C_10 
REMARK    9  A    between atoms: C_10  and  C_11 
REMARK   10  A    between atoms: C_11  and  C_12 
REMARK       I    between atoms: C_12  and  N_14 
REMARK   11  A    between atoms: N_14  and  C_15 
REMARK   12  A    between atoms: C_15  and  C_16 
REMARK   13  A    between atoms: C_16  and  C_17 
REMARK   14  A    between atoms: C_17  and  N_18 
REMARK   15  A    between atoms: N_18  and  C_21 
REMARK   16  A    between atoms: C_21  and  C_22 
ROOT
HETATM    1  C   UNL     1     -34.103  -3.890 -15.069  1.00  0.00     0.217 C 
HETATM    2  O   UNL     1     -34.798  -3.044 -15.622  1.00  0.00    -0.274 OA
HETATM    3  N   UNL     1     -32.981  -4.433 -15.651  1.00  0.00    -0.361 N 
HETATM    4  H   UNL     1     -32.492  -5.187 -15.182  1.00  0.00     0.162 HD
ENDROOT
BRANCH   1   5
HETATM    5  C   UNL     1     -34.362  -4.398 -13.668  1.00  0.00     0.103 C 
BRANCH   5   6
HETATM    6  C   UNL     1     -33.127  -4.175 -12.808  1.00  0.00     0.009 C 
BRANCH   6   7
HETATM    7  C   UNL     1     -33.473  -3.983 -11.340  1.00  0.00     0.000 C 
BRANCH   7   8
HETATM    8  C   UNL     1     -33.208  -2.534 -10.942  1.00  0.00     0.000 C 
BRANCH   8   9
HETATM    9  C   UNL     1     -34.366  -1.964 -10.136  1.00  0.00     0.000 C 
BRANCH   9  10
HETATM   10  C   UNL     1     -35.690  -2.230 -10.844  1.00  0.00     0.000 C 
BRANCH  10  11
HETATM   11  C   UNL     1     -36.582  -0.995 -10.789  1.00  0.00     0.000 C 
BRANCH  11  12
HETATM   12  C   UNL     1     -36.224  -0.011 -11.897  1.00  0.00     0.000 C 
BRANCH  12  13
HETATM   13  C   UNL     1     -36.189  -0.714 -13.251  1.00  0.00    -0.000 C 
BRANCH  13  14
HETATM   14  C   UNL     1     -35.310   0.039 -14.246  1.00  0.00    -0.005 C 
HETATM   15  C   UNL     1     -34.553   1.164 -13.568  1.00  0.00     0.005 C 
ENDBRANCH  13  14
ENDBRANCH  12  13
ENDBRANCH  11  12
ENDBRANCH  10  11
ENDBRANCH   9  10
ENDBRANCH   8   9
ENDBRANCH   7   8
ENDBRANCH   6   7
ENDBRANCH   5   6
ENDBRANCH   1   5
BRANCH   3  16
HETATM   16  C   UNL     1     -32.581  -4.062 -16.990  1.00  0.00     0.124 C 
BRANCH  16  17
HETATM   17  C   UNL     1     -31.078  -4.206 -17.224  1.00  0.00     0.048 C 
BRANCH  17  18
HETATM   18  C   UNL     1     -30.454  -5.275 -16.326  1.00  0.00     0.238 C 
BRANCH  18  19
HETATM   19  N   UNL     1     -29.144  -5.834 -16.911  1.00  0.00    -0.065 N 
HETATM   20  C   UNL     1     -29.252  -7.336 -17.133  1.00  0.00     0.272 C 
HETATM   21  C   UNL     1     -28.717  -5.111 -18.163  1.00  0.00     0.272 C 
BRANCH  19  22
HETATM   22  C   UNL     1     -28.000  -5.608 -15.821  1.00  0.00     0.349 C 
BRANCH  22  23
HETATM   23  C   UNL     1     -26.655  -6.353 -16.038  1.00  0.00     0.199 C 
HETATM   24  O   UNL     1     -25.808  -5.706 -16.712  1.00  0.00    -0.647 OA
HETATM   25  O   UNL     1     -26.560  -7.440 -15.404  1.00  0.00    -0.647 OA
ENDBRANCH  22  23
ENDBRANCH  19  22
ENDBRANCH  18  19
ENDBRANCH  17  18
ENDBRANCH  16  17
ENDBRANCH   3  16
TORSDOF 16
BEGIN_RES ARG D 557
REMARK  4 active torsions:
REMARK  status: ('A' for Active; 'I' for Inactive)
REMARK    1  A    between atoms: CA   and  CB  
REMARK    2  A    between atoms: CB   and  CG  
REMARK    3  A    between atoms: CG   and  CD  
REMARK    4  A    between atoms: CD   and  NE  
REMARK       I    between atoms: NE   and  CZ  
REMARK       I    between atoms: CZ   and  NH1 
REMARK       I    between atoms: CZ   and  NH2 
ROOT
ATOM      1  CA  ARG D 557     -26.217   2.705 -17.014  1.00 35.49     0.159 C 
ENDROOT
BRANCH   1   2
ATOM      2  CB  ARG D 557     -26.789   1.319 -17.183  1.00 35.49     0.034 C 
BRANCH   2   3
ATOM      3  CG  ARG D 557     -25.862   0.195 -17.003  1.00 35.49     0.027 C 
BRANCH   3   4
ATOM      4  CD  ARG D 557     -26.279  -0.710 -15.908  1.00 35.49     0.116 C 
BRANCH   4   5
ATOM      5  NE  ARG D 557     -25.233  -0.908 -14.939  1.00 35.49    -0.212 N 
ATOM      6  CZ  ARG D 557     -24.907  -2.054 -14.385  1.00 35.49     0.666 C 
ATOM      7  NH1 ARG D 557     -25.539  -3.180 -14.659  1.00 35.49    -0.235 N 
ATOM      8  NH2 ARG D 557     -23.916  -2.052 -13.541  1.00 35.49    -0.235 N 
ATOM      9  HH  ARG D 557     -26.192  -3.206 -15.213  1.00 35.49     0.174 HD
ATOM     10  HH  ARG D 557     -25.280  -3.898 -14.269  1.00 35.49     0.174 HD
ATOM     11  HH  ARG D 557     -23.522  -1.311 -13.389  1.00 35.49     0.174 HD
ATOM     12  HH  ARG D 557     -23.674  -2.773 -13.166  1.00 35.49     0.174 HD
ATOM     13  HE  ARG D 557     -24.822  -0.223 -14.650  1.00 35.49     0.178 HD
ENDBRANCH   4   5
ENDBRANCH   3   4
ENDBRANCH   2   3
ENDBRANCH   1   2
END_RES ARG D 557
BEGIN_RES GLU D 570
REMARK  3 active torsions:
REMARK  status: ('A' for Active; 'I' for Inactive)
REMARK    5  A    between atoms: CA   and  CB  
REMARK    6  A    between atoms: CB   and  CG  
REMARK    7  A    between atoms: CG   and  CD  
ROOT
ATOM     14  CA  GLU D 570     -18.033  -6.348 -13.375  1.00 32.92     0.160 C 
ENDROOT
BRANCH  14  15
ATOM     15  CB  GLU D 570     -19.500  -6.345 -13.794  1.00 32.92     0.043 C 
BRANCH  15  16
ATOM     16  CG  GLU D 570     -20.457  -5.607 -12.930  1.00 32.92     0.100 C 
BRANCH  16  17
ATOM     17  CD  GLU D 570     -21.696  -5.160 -13.671  1.00 32.92     0.185 C 
ATOM     18  OE1 GLU D 570     -21.721  -5.244 -14.913  1.00 32.92    -0.647 OA
ATOM     19  OE2 GLU D 570     -22.645  -4.706 -13.002  1.00 32.92    -0.647 OA
ENDBRANCH  16  17
ENDBRANCH  15  16
ENDBRANCH  14  15
END_RES GLU D 570
ENDMDL
MODEL 5
REMARK VINA RESULT:      -7.1      8.031     11.848
REMARK  16 active torsions:
REMARK  status: ('A' for Active; 'I' for Inactive)
REMARK    1  A    between atoms: C_2  and  C_3 
REMARK    2  A    between atoms: C_3  and  C_4 
REMARK    3  A    between atoms: C_4  and  C_5 
REMARK    4  A    between atoms: C_5  and  C_6 
REMARK    5  A    between atoms: C_6  and  C_7 
REMARK    6  A    between atoms: C_7  and  C_8 
REMARK    7  A    between atoms: C_8  and  C_9 
REMARK    8  A    between atoms: C_9  and  C_10 
REMARK    9  A    between atoms: C_10  and  C_11 
REMARK   10  A    between atoms: C_11  and  C_12 
REMARK       I    between atoms: C_12  and  N_14 
REMARK   11  A    between atoms: N_14  and  C_15 
REMARK   12  A    between atoms: C_15  and  C_16 
REMARK   13  A    between atoms: C_16  and  C_17 
REMARK   14  A    between atoms: C_17  and  N_18 
REMARK   15  A    between atoms: N_18  and  C_21 
REMARK   16  A    between atoms: C_21  and  C_22 
ROOT
HETATM    1  C   UNL     1     -34.407  -2.891 -16.298  1.00  0.00     0.217 C 
HETATM    2  O   UNL     1     -34.480  -3.361 -15.167  1.00  0.00    -0.274 OA
HETATM    3  N   UNL     1     -33.489  -3.318 -17.228  1.00  0.00    -0.361 N 
HETATM    4  H   UNL     1     -33.421  -2.838 -18.119  1.00  0.00     0.162 HD
ENDROOT
BRANCH   1   5
HETATM    5  C   UNL     1     -35.347  -1.828 -16.822  1.00  0.00     0.103 C 
BRANCH   5   6
HETATM    6  C   UNL     1     -35.162  -0.545 -16.025  1.00  0.00     0.009 C 
BRANCH   6   7
HETATM    7  C   UNL     1     -36.262  -0.341 -14.996  1.00  0.00     0.000 C 
BRANCH   7   8
HETATM    8  C   UNL     1     -35.636  -0.025 -13.640  1.00  0.00     0.000 C 
BRANCH   8   9
HETATM    9  C   UNL     1     -36.545  -0.460 -12.500  1.00  0.00     0.000 C 
BRANCH   9  10
HETATM   10  C   UNL     1     -35.722  -1.010 -11.340  1.00  0.00     0.000 C 
BRANCH  10  11
HETATM   11  C   UNL     1     -34.397  -1.571 -11.845  1.00  0.00     0.000 C 
BRANCH  11  12
HETATM   12  C   UNL     1     -33.654  -2.306 -10.734  1.00  0.00     0.000 C 
BRANCH  12  13
HETATM   13  C   UNL     1     -33.192  -3.680 -11.212  1.00  0.00    -0.000 C 
BRANCH  13  14
HETATM   14  C   UNL     1     -34.371  -4.632 -11.389  1.00  0.00    -0.005 C 
HETATM   15  C   UNL     1     -34.128  -5.947 -10.678  1.00  0.00     0.005 C 
ENDBRANCH  13  14
ENDBRANCH  12  13
ENDBRANCH  11  12
ENDBRANCH  10  11
ENDBRANCH   9  10
ENDBRANCH   8   9
ENDBRANCH   7   8
ENDBRANCH   6   7
ENDBRANCH   5   6
ENDBRANCH   1   5
BRANCH   3  16
HETATM   16  C   UNL     1     -32.511  -4.332 -16.901  1.00  0.00     0.124 C 
BRANCH  16  17
HETATM   17  C   UNL     1     -31.108  -3.992 -17.406  1.00  0.00     0.048 C 
BRANCH  17  18
HETATM   18  C   UNL     1     -30.211  -5.228 -17.489  1.00  0.00     0.238 C 
BRANCH  18  19
HETATM   19  N   UNL     1     -28.985  -5.120 -16.565  1.00  0.00    -0.065 N 
HETATM   20  C   UNL     1     -28.319  -3.759 -16.709  1.00  0.00     0.272 C 
HETATM   21  C   UNL     1     -29.318  -5.430 -15.127  1.00  0.00     0.272 C 
BRANCH  19  22
HETATM   22  C   UNL     1     -27.924  -6.209 -17.049  1.00  0.00     0.349 C 
BRANCH  22  23
HETATM   23  C   UNL     1     -26.675  -6.432 -16.154  1.00  0.00     0.199 C 
HETATM   24  O   UNL     1     -26.744  -7.452 -15.415  1.00  0.00    -0.647 OA
HETATM   25  O   UNL     1     -25.725  -5.635 -16.387  1.00  0.00    -0.647 OA
ENDBRANCH  22  23
ENDBRANCH  19  22
ENDBRANCH  18  19
ENDBRANCH  17  18
ENDBRANCH  16  17
ENDBRANCH   3  16
TORSDOF 16
BEGIN_RES ARG D 557
REMARK  4 active torsions:
REMARK  status: ('A' for Active; 'I' for Inactive)
REMARK    1  A    between atoms: CA   and  CB  
REMARK    2  A    between atoms: CB   and  CG  
REMARK    3  A    between atoms: CG   and  CD  
REMARK    4  A    between atoms: CD   and  NE  
REMARK       I    between atoms: NE   and  CZ  
REMARK       I    between atoms: CZ   and  NH1 
REMARK       I    between atoms: CZ   and  NH2 
ROOT
ATOM      1  CA  ARG D 557     -26.217   2.705 -17.014  1.00 35.49     0.159 C 
ENDROOT
BRANCH   1   2
ATOM      2  CB  ARG D 557     -26.789   1.319 -17.183  1.00 35.49     0.034 C 
BRANCH   2   3
ATOM      3  CG  ARG D 557     -25.862   0.195 -17.003  1.00 35.49     0.027 C 
BRANCH   3   4
ATOM      4  CD  ARG D 557     -26.258  -0.690 -15.884  1.00 35.49     0.116 C 
BRANCH   4   5
ATOM      5  NE  ARG D 557     -25.197  -0.863 -14.927  1.00 35.49    -0.212 N 
ATOM      6  CZ  ARG D 557     -24.859  -1.994 -14.352  1.00 35.49     0.666 C 
ATOM      7  NH1 ARG D 557     -25.491  -3.129 -14.591  1.00 35.49    -0.235 N 
ATOM      8  NH2 ARG D 557     -23.855  -1.970 -13.523  1.00 35.49    -0.235 N 
ATOM      9  HH  ARG D 557     -26.152  -3.168 -15.134  1.00 35.49     0.174 HD
ATOM     10  HH  ARG D 557     -25.224  -3.836 -14.188  1.00 35.49     0.174 HD
ATOM     11  HH  ARG D 557     -23.461  -1.225 -13.394  1.00 35.49     0.174 HD
ATOM     12  HH  ARG D 557     -23.605  -2.681 -13.136  1.00 35.49     0.174 HD
ATOM     13  HE  ARG D 557     -24.784  -0.169 -14.660  1.00 35.49     0.178 HD
ENDBRANCH   4   5
ENDBRANCH   3   4
ENDBRANCH   2   3
ENDBRANCH   1   2
END_RES ARG D 557
BEGIN_RES GLU D 570
REMARK  3 active torsions:
REMARK  status: ('A' for Active; 'I' for Inactive)
REMARK    5  A    between atoms: CA   and  CB  
REMARK    6  A    between atoms: CB   and  CG  
REMARK    7  A    between atoms: CG   and  CD  
ROOT
ATOM     14  CA  GLU D 570     -18.033  -6.348 -13.375  1.00 32.92     0.160 C 
ENDROOT
BRANCH  14  15
ATOM     15  CB  GLU D 570     -19.500  -6.345 -13.794  1.00 32.92     0.043 C 
BRANCH  15  16
ATOM     16  CG  GLU D 570     -19.797  -6.260 -15.247  1.00 32.92     0.100 C 
BRANCH  16  17
ATOM     17  CD  GLU D 570     -21.030  -5.442 -15.551  1.00 32.92     0.185 C 
ATOM     18  OE1 GLU D 570     -21.743  -5.049 -14.607  1.00 32.92    -0.647 OA
ATOM     19  OE2 GLU D 570     -21.296  -5.206 -16.746  1.00 32.92    -0.647 OA
ENDBRANCH  16  17
ENDBRANCH  15  16
ENDBRANCH  14  15
END_RES GLU D 570
ENDMDL
MODEL 6
REMARK VINA RESULT:      -6.9      1.970      3.071
REMARK  16 active torsions:
REMARK  status: ('A' for Active; 'I' for Inactive)
REMARK    1  A    between atoms: C_2  and  C_3 
REMARK    2  A    between atoms: C_3  and  C_4 
REMARK    3  A    between atoms: C_4  and  C_5 
REMARK    4  A    between atoms: C_5  and  C_6 
REMARK    5  A    between atoms: C_6  and  C_7 
REMARK    6  A    between atoms: C_7  and  C_8 
REMARK    7  A    between atoms: C_8  and  C_9 
REMARK    8  A    between atoms: C_9  and  C_10 
REMARK    9  A    between atoms: C_10  and  C_11 
REMARK   10  A    between atoms: C_11  and  C_12 
REMARK       I    between atoms: C_12  and  N_14 
REMARK   11  A    between atoms: N_14  and  C_15 
REMARK   12  A    between atoms: C_15  and  C_16 
REMARK   13  A    between atoms: C_16  and  C_17 
REMARK   14  A    between atoms: C_17  and  N_18 
REMARK   15  A    between atoms: N_18  and  C_21 
REMARK   16  A    between atoms: C_21  and  C_22 
ROOT
HETATM    1  C   UNL     1     -21.025  -5.998  -6.719  1.00  0.00     0.217 C 
HETATM    2  O   UNL     1     -20.105  -6.809  -6.696  1.00  0.00    -0.274 OA
HETATM    3  N   UNL     1     -21.190  -5.082  -7.732  1.00  0.00    -0.361 N 
HETATM    4  H   UNL     1     -21.921  -4.384  -7.659  1.00  0.00     0.162 HD
ENDROOT
BRANCH   1   5
HETATM    5  C   UNL     1     -22.115  -5.942  -5.672  1.00  0.00     0.103 C 
BRANCH   5   6
HETATM    6  C   UNL     1     -21.779  -6.895  -4.534  1.00  0.00     0.009 C 
BRANCH   6   7
HETATM    7  C   UNL     1     -21.475  -6.161  -3.238  1.00  0.00     0.000 C 
BRANCH   7   8
HETATM    8  C   UNL     1     -21.280  -7.176  -2.114  1.00  0.00     0.000 C 
BRANCH   8   9
HETATM    9  C   UNL     1     -22.256  -6.927  -0.974  1.00  0.00     0.000 C 
BRANCH   9  10
HETATM   10  C   UNL     1     -22.140  -8.026   0.077  1.00  0.00     0.000 C 
BRANCH  10  11
HETATM   11  C   UNL     1     -23.478  -8.733   0.259  1.00  0.00     0.000 C 
BRANCH  11  12
HETATM   12  C   UNL     1     -23.339 -10.236   0.038  1.00  0.00     0.000 C 
BRANCH  12  13
HETATM   13  C   UNL     1     -22.807 -10.528  -1.362  1.00  0.00    -0.000 C 
BRANCH  13  14
HETATM   14  C   UNL     1     -21.812 -11.685  -1.349  1.00  0.00    -0.005 C 
HETATM   15  C   UNL     1     -20.518 -11.290  -0.668  1.00  0.00     0.005 C 
ENDBRANCH  13  14
ENDBRANCH  12  13
ENDBRANCH  11  12
ENDBRANCH  10  11
ENDBRANCH   9  10
ENDBRANCH   8   9
ENDBRANCH   7   8
ENDBRANCH   6   7
ENDBRANCH   5   6
ENDBRANCH   1   5
BRANCH   3  16
HETATM   16  C   UNL     1     -20.241  -4.995  -8.820  1.00  0.00     0.124 C 
BRANCH  16  17
HETATM   17  C   UNL     1     -20.618  -3.935  -9.855  1.00  0.00     0.048 C 
BRANCH  17  18
HETATM   18  C   UNL     1     -20.905  -4.545 -11.227  1.00  0.00     0.238 C 
BRANCH  18  19
HETATM   19  N   UNL     1     -22.244  -4.058 -11.811  1.00  0.00    -0.065 N 
HETATM   20  C   UNL     1     -22.394  -2.554 -11.634  1.00  0.00     0.272 C 
HETATM   21  C   UNL     1     -22.431  -4.474 -13.249  1.00  0.00     0.272 C 
BRANCH  19  22
HETATM   22  C   UNL     1     -23.411  -4.743 -10.966  1.00  0.00     0.349 C 
BRANCH  22  23
HETATM   23  C   UNL     1     -24.256  -3.822 -10.044  1.00  0.00     0.199 C 
HETATM   24  O   UNL     1     -25.226  -3.261 -10.621  1.00  0.00    -0.647 OA
HETATM   25  O   UNL     1     -23.925  -3.869  -8.827  1.00  0.00    -0.647 OA
ENDBRANCH  22  23
ENDBRANCH  19  22
ENDBRANCH  18  19
ENDBRANCH  17  18
ENDBRANCH  16  17
ENDBRANCH   3  16
TORSDOF 16
BEGIN_RES ARG D 557
REMARK  4 active torsions:
REMARK  status: ('A' for Active; 'I' for Inactive)
REMARK    1  A    between atoms: CA   and  CB  
REMARK    2  A    between atoms: CB   and  CG  
REMARK    3  A    between atoms: CG   and  CD  
REMARK    4  A    between atoms: CD   and  NE  
REMARK       I    between atoms: NE   and  CZ  
REMARK       I    between atoms: CZ   and  NH1 
REMARK       I    between atoms: CZ   and  NH2 
ROOT
ATOM      1  CA  ARG D 557     -26.217   2.705 -17.014  1.00 35.49     0.159 C 
ENDROOT
BRANCH   1   2
ATOM      2  CB  ARG D 557     -26.789   1.319 -17.183  1.00 35.49     0.034 C 
BRANCH   2   3
ATOM      3  CG  ARG D 557     -25.967   0.202 -16.703  1.00 35.49     0.027 C 
BRANCH   3   4
ATOM      4  CD  ARG D 557     -26.785  -0.919 -16.185  1.00 35.49     0.116 C 
BRANCH   4   5
ATOM      5  NE  ARG D 557     -26.204  -1.517 -15.012  1.00 35.49    -0.212 N 
ATOM      6  CZ  ARG D 557     -26.222  -2.797 -14.713  1.00 35.49     0.666 C 
ATOM      7  NH1 ARG D 557     -26.809  -3.696 -15.481  1.00 35.49    -0.235 N 
ATOM      8  NH2 ARG D 557     -25.627  -3.165 -13.616  1.00 35.49    -0.235 N 
ATOM      9  HH  ARG D 557     -27.205  -3.476 -16.208  1.00 35.49     0.174 HD
ATOM     10  HH  ARG D 557     -26.786  -4.517 -15.236  1.00 35.49     0.174 HD
ATOM     11  HH  ARG D 557     -25.250  -2.564 -13.143  1.00 35.49     0.174 HD
ATOM     12  HH  ARG D 557     -25.614  -3.983 -13.392  1.00 35.49     0.174 HD
ATOM     13  HE  ARG D 557     -25.869  -1.001 -14.425  1.00 35.49     0.178 HD
ENDBRANCH   4   5
ENDBRANCH   3   4
ENDBRANCH   2   3
ENDBRANCH   1   2
END_RES ARG D 557
BEGIN_RES GLU D 570
REMARK  3 active torsions:
REMARK  status: ('A' for Active; 'I' for Inactive)
REMARK    5  A    between atoms: CA   and  CB  
REMARK    6  A    between atoms: CB   and  CG  
REMARK    7  A    between atoms: CG   and  CD  
ROOT
ATOM     14  CA  GLU D 570     -18.033  -6.348 -13.375  1.00 32.92     0.160 C 
ENDROOT
BRANCH  14  15
ATOM     15  CB  GLU D 570     -19.500  -6.345 -13.794  1.00 32.92     0.043 C 
BRANCH  15  16
ATOM     16  CG  GLU D 570     -19.967  -7.460 -14.658  1.00 32.92     0.100 C 
BRANCH  16  17
ATOM     17  CD  GLU D 570     -20.801  -6.990 -15.827  1.00 32.92     0.185 C 
ATOM     18  OE1 GLU D 570     -20.364  -6.077 -16.554  1.00 32.92    -0.647 OA
ATOM     19  OE2 GLU D 570     -21.911  -7.528 -16.008  1.00 32.92    -0.647 OA
ENDBRANCH  16  17
ENDBRANCH  15  16
ENDBRANCH  14  15
END_RES GLU D 570
ENDMDL
MODEL 7
REMARK VINA RESULT:      -6.8      6.902     12.232
REMARK  16 active torsions:
REMARK  status: ('A' for Active; 'I' for Inactive)
REMARK    1  A    between atoms: C_2  and  C_3 
REMARK    2  A    between atoms: C_3  and  C_4 
REMARK    3  A    between atoms: C_4  and  C_5 
REMARK    4  A    between atoms: C_5  and  C_6 
REMARK    5  A    between atoms: C_6  and  C_7 
REMARK    6  A    between atoms: C_7  and  C_8 
REMARK    7  A    between atoms: C_8  and  C_9 
REMARK    8  A    between atoms: C_9  and  C_10 
REMARK    9  A    between atoms: C_10  and  C_11 
REMARK   10  A    between atoms: C_11  and  C_12 
REMARK       I    between atoms: C_12  and  N_14 
REMARK   11  A    between atoms: N_14  and  C_15 
REMARK   12  A    between atoms: C_15  and  C_16 
REMARK   13  A    between atoms: C_16  and  C_17 
REMARK   14  A    between atoms: C_17  and  N_18 
REMARK   15  A    between atoms: N_18  and  C_21 
REMARK   16  A    between atoms: C_21  and  C_22 
ROOT
HETATM    1  C   UNL     1     -33.948  -4.000 -15.359  1.00  0.00     0.217 C 
HETATM    2  O   UNL     1     -34.708  -3.311 -16.032  1.00  0.00    -0.274 OA
HETATM    3  N   UNL     1     -32.721  -4.424 -15.814  1.00  0.00    -0.361 N 
HETATM    4  H   UNL     1     -32.170  -5.058 -15.245  1.00  0.00     0.162 HD
ENDROOT
BRANCH   1   5
HETATM    5  C   UNL     1     -34.243  -4.421 -13.936  1.00  0.00     0.103 C 
BRANCH   5   6
HETATM    6  C   UNL     1     -34.140  -3.214 -13.015  1.00  0.00     0.009 C 
BRANCH   6   7
HETATM    7  C   UNL     1     -33.313  -3.506 -11.773  1.00  0.00     0.000 C 
BRANCH   7   8
HETATM    8  C   UNL     1     -34.080  -3.049 -10.535  1.00  0.00     0.000 C 
BRANCH   8   9
HETATM    9  C   UNL     1     -35.514  -2.678 -10.883  1.00  0.00     0.000 C 
BRANCH   9  10
HETATM   10  C   UNL     1     -35.843  -1.280 -10.370  1.00  0.00     0.000 C 
BRANCH  10  11
HETATM   11  C   UNL     1     -36.858  -0.602 -11.283  1.00  0.00     0.000 C 
BRANCH  11  12
HETATM   12  C   UNL     1     -36.311  -0.459 -12.700  1.00  0.00     0.000 C 
BRANCH  12  13
HETATM   13  C   UNL     1     -35.051   0.401 -12.707  1.00  0.00    -0.000 C 
BRANCH  13  14
HETATM   14  C   UNL     1     -34.750   0.935 -14.104  1.00  0.00    -0.005 C 
HETATM   15  C   UNL     1     -35.413   0.088 -15.171  1.00  0.00     0.005 C 
ENDBRANCH  13  14
ENDBRANCH  12  13
ENDBRANCH  11  12
ENDBRANCH  10  11
ENDBRANCH   9  10
ENDBRANCH   8   9
ENDBRANCH   7   8
ENDBRANCH   6   7
ENDBRANCH   5   6
ENDBRANCH   1   5
BRANCH   3  16
HETATM   16  C   UNL     1     -32.273  -4.112 -17.153  1.00  0.00     0.124 C 
BRANCH  16  17
HETATM   17  C   UNL     1     -30.797  -4.439 -17.379  1.00  0.00     0.048 C 
BRANCH  17  18
HETATM   18  C   UNL     1     -30.292  -5.515 -16.418  1.00  0.00     0.238 C 
BRANCH  18  19
HETATM   19  N   UNL     1     -29.115  -6.315 -17.007  1.00  0.00    -0.065 N 
HETATM   20  C   UNL     1     -28.677  -5.726 -18.340  1.00  0.00     0.272 C 
HETATM   21  C   UNL     1     -27.962  -6.438 -16.043  1.00  0.00     0.272 C 
BRANCH  19  22
HETATM   22  C   UNL     1     -29.643  -7.792 -17.304  1.00  0.00     0.349 C 
BRANCH  22  23
HETATM   23  C   UNL     1     -30.268  -8.056 -18.701  1.00  0.00     0.199 C 
HETATM   24  O   UNL     1     -29.565  -8.782 -19.454  1.00  0.00    -0.647 OA
HETATM   25  O   UNL     1     -31.442  -7.611 -18.832  1.00  0.00    -0.647 OA
ENDBRANCH  22  23
ENDBRANCH  19  22
ENDBRANCH  18  19
ENDBRANCH  17  18
ENDBRANCH  16  17
ENDBRANCH   3  16
TORSDOF 16
BEGIN_RES ARG D 557
REMARK  4 active torsions:
REMARK  status: ('A' for Active; 'I' for Inactive)
REMARK    1  A    between atoms: CA   and  CB  
REMARK    2  A    between atoms: CB   and  CG  
REMARK    3  A    between atoms: CG   and  CD  
REMARK    4  A    between atoms: CD   and  NE  
REMARK       I    between atoms: NE   and  CZ  
REMARK       I    between atoms: CZ   and  NH1 
REMARK       I    between atoms: CZ   and  NH2 
ROOT
ATOM      1  CA  ARG D 557     -26.217   2.705 -17.014  1.00 35.49     0.159 C 
ENDROOT
BRANCH   1   2
ATOM      2  CB  ARG D 557     -26.789   1.319 -17.183  1.00 35.49     0.034 C 
BRANCH   2   3
ATOM      3  CG  ARG D 557     -28.224   1.160 -16.919  1.00 35.49     0.027 C 
BRANCH   3   4
ATOM      4  CD  ARG D 557     -28.569  -0.213 -16.483  1.00 35.49     0.116 C 
BRANCH   4   5
ATOM      5  NE  ARG D 557     -27.489  -0.842 -15.770  1.00 35.49    -0.212 N 
ATOM      6  CZ  ARG D 557     -27.146  -2.108 -15.856  1.00 35.49     0.666 C 
ATOM      7  NH1 ARG D 557     -27.792  -2.967 -16.625  1.00 35.49    -0.235 N 
ATOM      8  NH2 ARG D 557     -26.125  -2.503 -15.153  1.00 35.49    -0.235 N 
ATOM      9  HH  ARG D 557     -28.465  -2.728 -17.098  1.00 35.49     0.174 HD
ATOM     10  HH  ARG D 557     -27.521  -3.779 -16.643  1.00 35.49     0.174 HD
ATOM     11  HH  ARG D 557     -25.723  -1.925 -14.672  1.00 35.49     0.174 HD
ATOM     12  HH  ARG D 557     -25.872  -3.312 -15.186  1.00 35.49     0.174 HD
ATOM     13  HE  ARG D 557     -27.065  -0.379 -15.197  1.00 35.49     0.178 HD
ENDBRANCH   4   5
ENDBRANCH   3   4
ENDBRANCH   2   3
ENDBRANCH   1   2
END_RES ARG D 557
BEGIN_RES GLU D 570
REMARK  3 active torsions:
REMARK  status: ('A' for Active; 'I' for Inactive)
REMARK    5  A    between atoms: CA   and  CB  
REMARK    6  A    between atoms: CB   and  CG  
REMARK    7  A    between atoms: CG   and  CD  
ROOT
ATOM     14  CA  GLU D 570     -18.033  -6.348 -13.375  1.00 32.92     0.160 C 
ENDROOT
BRANCH  14  15
ATOM     15  CB  GLU D 570     -19.500  -6.345 -13.794  1.00 32.92     0.043 C 
BRANCH  15  16
ATOM     16  CG  GLU D 570     -20.442  -5.533 -12.981  1.00 32.92     0.100 C 
BRANCH  16  17
ATOM     17  CD  GLU D 570     -21.747  -5.258 -13.692  1.00 32.92     0.185 C 
ATOM     18  OE1 GLU D 570     -22.233  -6.138 -14.428  1.00 32.92    -0.647 OA
ATOM     19  OE2 GLU D 570     -22.280  -4.143 -13.524  1.00 32.92    -0.647 OA
ENDBRANCH  16  17
ENDBRANCH  15  16
ENDBRANCH  14  15
END_RES GLU D 570
ENDMDL
MODEL 8
REMARK VINA RESULT:      -6.6      1.418      2.083
REMARK  16 active torsions:
REMARK  status: ('A' for Active; 'I' for Inactive)
REMARK    1  A    between atoms: C_2  and  C_3 
REMARK    2  A    between atoms: C_3  and  C_4 
REMARK    3  A    between atoms: C_4  and  C_5 
REMARK    4  A    between atoms: C_5  and  C_6 
REMARK    5  A    between atoms: C_6  and  C_7 
REMARK    6  A    between atoms: C_7  and  C_8 
REMARK    7  A    between atoms: C_8  and  C_9 
REMARK    8  A    between atoms: C_9  and  C_10 
REMARK    9  A    between atoms: C_10  and  C_11 
REMARK   10  A    between atoms: C_11  and  C_12 
REMARK       I    between atoms: C_12  and  N_14 
REMARK   11  A    between atoms: N_14  and  C_15 
REMARK   12  A    between atoms: C_15  and  C_16 
REMARK   13  A    between atoms: C_16  and  C_17 
REMARK   14  A    between atoms: C_17  and  N_18 
REMARK   15  A    between atoms: N_18  and  C_21 
REMARK   16  A    between atoms: C_21  and  C_22 
ROOT
HETATM    1  C   UNL     1     -22.390  -5.261  -6.331  1.00  0.00     0.217 C 
HETATM    2  O   UNL     1     -23.577  -5.135  -6.047  1.00  0.00    -0.274 OA
HETATM    3  N   UNL     1     -21.840  -4.756  -7.486  1.00  0.00    -0.361 N 
HETATM    4  H   UNL     1     -20.871  -4.959  -7.707  1.00  0.00     0.162 HD
ENDROOT
BRANCH   1   5
HETATM    5  C   UNL     1     -21.383  -5.935  -5.427  1.00  0.00     0.103 C 
BRANCH   5   6
HETATM    6  C   UNL     1     -22.109  -6.662  -4.305  1.00  0.00     0.009 C 
BRANCH   6   7
HETATM    7  C   UNL     1     -21.282  -6.730  -3.032  1.00  0.00     0.000 C 
BRANCH   7   8
HETATM    8  C   UNL     1     -22.205  -6.619  -1.821  1.00  0.00     0.000 C 
BRANCH   8   9
HETATM    9  C   UNL     1     -21.726  -7.504  -0.681  1.00  0.00     0.000 C 
BRANCH   9  10
HETATM   10  C   UNL     1     -22.862  -7.776   0.300  1.00  0.00     0.000 C 
BRANCH  10  11
HETATM   11  C   UNL     1     -23.398  -9.191   0.117  1.00  0.00     0.000 C 
BRANCH  11  12
HETATM   12  C   UNL     1     -22.320 -10.118  -0.438  1.00  0.00     0.000 C 
BRANCH  12  13
HETATM   13  C   UNL     1     -22.831 -10.861  -1.669  1.00  0.00    -0.000 C 
BRANCH  13  14
HETATM   14  C   UNL     1     -22.144 -10.369  -2.940  1.00  0.00    -0.005 C 
HETATM   15  C   UNL     1     -22.387 -11.314  -4.098  1.00  0.00     0.005 C 
ENDBRANCH  13  14
ENDBRANCH  12  13
ENDBRANCH  11  12
ENDBRANCH  10  11
ENDBRANCH   9  10
ENDBRANCH   8   9
ENDBRANCH   7   8
ENDBRANCH   6   7
ENDBRANCH   5   6
ENDBRANCH   1   5
BRANCH   3  16
HETATM   16  C   UNL     1     -22.657  -4.077  -8.467  1.00  0.00     0.124 C 
BRANCH  16  17
HETATM   17  C   UNL     1     -22.249  -4.397  -9.906  1.00  0.00     0.048 C 
BRANCH  17  18
HETATM   18  C   UNL     1     -23.457  -4.697 -10.794  1.00  0.00     0.238 C 
BRANCH  18  19
HETATM   19  N   UNL     1     -23.205  -4.319 -12.265  1.00  0.00    -0.065 N 
HETATM   20  C   UNL     1     -21.850  -3.646 -12.425  1.00  0.00     0.272 C 
HETATM   21  C   UNL     1     -23.359  -5.496 -13.197  1.00  0.00     0.272 C 
BRANCH  19  22
HETATM   22  C   UNL     1     -24.309  -3.243 -12.678  1.00  0.00     0.349 C 
BRANCH  22  23
HETATM   23  C   UNL     1     -24.484  -2.949 -14.193  1.00  0.00     0.199 C 
HETATM   24  O   UNL     1     -23.694  -2.077 -14.645  1.00  0.00    -0.647 OA
HETATM   25  O   UNL     1     -25.304  -3.713 -14.774  1.00  0.00    -0.647 OA
ENDBRANCH  22  23
ENDBRANCH  19  22
ENDBRANCH  18  19
ENDBRANCH  17  18
ENDBRANCH  16  17
ENDBRANCH   3  16
TORSDOF 16
BEGIN_RES ARG D 557
REMARK  4 active torsions:
REMARK  status: ('A' for Active; 'I' for Inactive)
REMARK    1  A    between atoms: CA   and  CB  
REMARK    2  A    between atoms: CB   and  CG  
REMARK    3  A    between atoms: CG   and  CD  
REMARK    4  A    between atoms: CD   and  NE  
REMARK       I    between atoms: NE   and  CZ  
REMARK       I    between atoms: CZ   and  NH1 
REMARK       I    between atoms: CZ   and  NH2 
ROOT
ATOM      1  CA  ARG D 557     -26.217   2.705 -17.014  1.00 35.49     0.159 C 
ENDROOT
BRANCH   1   2
ATOM      2  CB  ARG D 557     -26.789   1.319 -17.183  1.00 35.49     0.034 C 
BRANCH   2   3
ATOM      3  CG  ARG D 557     -25.969   0.202 -16.699  1.00 35.49     0.027 C 
BRANCH   3   4
ATOM      4  CD  ARG D 557     -26.774  -0.832 -16.009  1.00 35.49     0.116 C 
BRANCH   4   5
ATOM      5  NE  ARG D 557     -27.995  -1.126 -16.712  1.00 35.49    -0.212 N 
ATOM      6  CZ  ARG D 557     -28.479  -2.327 -16.941  1.00 35.49     0.666 C 
ATOM      7  NH1 ARG D 557     -27.865  -3.426 -16.546  1.00 35.49    -0.235 N 
ATOM      8  NH2 ARG D 557     -29.612  -2.406 -17.576  1.00 35.49    -0.235 N 
ATOM      9  HH  ARG D 557     -27.119  -3.398 -16.124  1.00 35.49     0.174 HD
ATOM     10  HH  ARG D 557     -28.230  -4.182 -16.721  1.00 35.49     0.174 HD
ATOM     11  HH  ARG D 557     -29.990  -1.678 -17.812  1.00 35.49     0.174 HD
ATOM     12  HH  ARG D 557     -29.958  -3.162 -17.738  1.00 35.49     0.174 HD
ATOM     13  HE  ARG D 557     -28.419  -0.479 -17.065  1.00 35.49     0.178 HD
ENDBRANCH   4   5
ENDBRANCH   3   4
ENDBRANCH   2   3
ENDBRANCH   1   2
END_RES ARG D 557
BEGIN_RES GLU D 570
REMARK  3 active torsions:
REMARK  status: ('A' for Active; 'I' for Inactive)
REMARK    5  A    between atoms: CA   and  CB  
REMARK    6  A    between atoms: CB   and  CG  
REMARK    7  A    between atoms: CG   and  CD  
ROOT
ATOM     14  CA  GLU D 570     -18.033  -6.348 -13.375  1.00 32.92     0.160 C 
ENDROOT
BRANCH  14  15
ATOM     15  CB  GLU D 570     -19.500  -6.345 -13.794  1.00 32.92     0.043 C 
BRANCH  15  16
ATOM     16  CG  GLU D 570     -19.796  -6.293 -15.249  1.00 32.92     0.100 C 
BRANCH  16  17
ATOM     17  CD  GLU D 570     -20.848  -7.291 -15.673  1.00 32.92     0.185 C 
ATOM     18  OE1 GLU D 570     -20.607  -8.509 -15.559  1.00 32.92    -0.647 OA
ATOM     19  OE2 GLU D 570     -21.918  -6.852 -16.138  1.00 32.92    -0.647 OA
ENDBRANCH  16  17
ENDBRANCH  15  16
ENDBRANCH  14  15
END_RES GLU D 570
ENDMDL
MODEL 9
REMARK VINA RESULT:      -6.6      2.239      3.738
REMARK  16 active torsions:
REMARK  status: ('A' for Active; 'I' for Inactive)
REMARK    1  A    between atoms: C_2  and  C_3 
REMARK    2  A    between atoms: C_3  and  C_4 
REMARK    3  A    between atoms: C_4  and  C_5 
REMARK    4  A    between atoms: C_5  and  C_6 
REMARK    5  A    between atoms: C_6  and  C_7 
REMARK    6  A    between atoms: C_7  and  C_8 
REMARK    7  A    between atoms: C_8  and  C_9 
REMARK    8  A    between atoms: C_9  and  C_10 
REMARK    9  A    between atoms: C_10  and  C_11 
REMARK   10  A    between atoms: C_11  and  C_12 
REMARK       I    between atoms: C_12  and  N_14 
REMARK   11  A    between atoms: N_14  and  C_15 
REMARK   12  A    between atoms: C_15  and  C_16 
REMARK   13  A    between atoms: C_16  and  C_17 
REMARK   14  A    between atoms: C_17  and  N_18 
REMARK   15  A    between atoms: N_18  and  C_21 
REMARK   16  A    between atoms: C_21  and  C_22 
ROOT
HETATM    1  C   UNL     1     -20.642  -6.903  -5.584  1.00  0.00     0.217 C 
HETATM    2  O   UNL     1     -19.830  -7.785  -5.847  1.00  0.00    -0.274 OA
HETATM    3  N   UNL     1     -20.561  -5.632  -6.105  1.00  0.00    -0.361 N 
HETATM    4  H   UNL     1     -21.213  -4.922  -5.790  1.00  0.00     0.162 HD
ENDROOT
BRANCH   1   5
HETATM    5  C   UNL     1     -21.852  -7.119  -4.704  1.00  0.00     0.103 C 
BRANCH   5   6
HETATM    6  C   UNL     1     -21.408  -7.283  -3.257  1.00  0.00     0.009 C 
BRANCH   6   7
HETATM    7  C   UNL     1     -21.947  -6.181  -2.360  1.00  0.00     0.000 C 
BRANCH   7   8
HETATM    8  C   UNL     1     -22.365  -6.778  -1.019  1.00  0.00     0.000 C 
BRANCH   8   9
HETATM    9  C   UNL     1     -21.825  -8.190  -0.854  1.00  0.00     0.000 C 
BRANCH   9  10
HETATM   10  C   UNL     1     -22.808  -9.050  -0.066  1.00  0.00     0.000 C 
BRANCH  10  11
HETATM   11  C   UNL     1     -22.152 -10.360   0.356  1.00  0.00     0.000 C 
BRANCH  11  12
HETATM   12  C   UNL     1     -23.076 -11.545   0.095  1.00  0.00     0.000 C 
BRANCH  12  13
HETATM   13  C   UNL     1     -23.841 -11.354  -1.212  1.00  0.00    -0.000 C 
BRANCH  13  14
HETATM   14  C   UNL     1     -23.094 -11.976  -2.388  1.00  0.00    -0.005 C 
HETATM   15  C   UNL     1     -22.649 -10.919  -3.378  1.00  0.00     0.005 C 
ENDBRANCH  13  14
ENDBRANCH  12  13
ENDBRANCH  11  12
ENDBRANCH  10  11
ENDBRANCH   9  10
ENDBRANCH   8   9
ENDBRANCH   7   8
ENDBRANCH   6   7
ENDBRANCH   5   6
ENDBRANCH   1   5
BRANCH   3  16
HETATM   16  C   UNL     1     -19.468  -5.248  -6.970  1.00  0.00     0.124 C 
BRANCH  16  17
HETATM   17  C   UNL     1     -19.930  -4.838  -8.368  1.00  0.00     0.048 C 
BRANCH  17  18
HETATM   18  C   UNL     1     -21.346  -5.328  -8.674  1.00  0.00     0.238 C 
BRANCH  18  19
HETATM   19  N   UNL     1     -22.190  -4.257  -9.389  1.00  0.00    -0.065 N 
HETATM   20  C   UNL     1     -22.879  -3.351  -8.380  1.00  0.00     0.272 C 
HETATM   21  C   UNL     1     -21.389  -3.468 -10.395  1.00  0.00     0.272 C 
BRANCH  19  22
HETATM   22  C   UNL     1     -23.342  -5.015 -10.193  1.00  0.00     0.349 C 
BRANCH  22  23
HETATM   23  C   UNL     1     -23.968  -4.275 -11.406  1.00  0.00     0.199 C 
HETATM   24  O   UNL     1     -23.621  -4.736 -12.528  1.00  0.00    -0.647 OA
HETATM   25  O   UNL     1     -24.826  -3.405 -11.092  1.00  0.00    -0.647 OA
ENDBRANCH  22  23
ENDBRANCH  19  22
ENDBRANCH  18  19
ENDBRANCH  17  18
ENDBRANCH  16  17
ENDBRANCH   3  16
TORSDOF 16
BEGIN_RES ARG D 557
REMARK  4 active torsions:
REMARK  status: ('A' for Active; 'I' for Inactive)
REMARK    1  A    between atoms: CA   and  CB  
REMARK    2  A    between atoms: CB   and  CG  
REMARK    3  A    between atoms: CG   and  CD  
REMARK    4  A    between atoms: CD   and  NE  
REMARK       I    between atoms: NE   and  CZ  
REMARK       I    between atoms: CZ   and  NH1 
REMARK       I    between atoms: CZ   and  NH2 
ROOT
ATOM      1  CA  ARG D 557     -26.217   2.705 -17.014  1.00 35.49     0.159 C 
ENDROOT
BRANCH   1   2
ATOM      2  CB  ARG D 557     -26.789   1.319 -17.183  1.00 35.49     0.034 C 
BRANCH   2   3
ATOM      3  CG  ARG D 557     -25.856   0.196 -17.031  1.00 35.49     0.027 C 
BRANCH   3   4
ATOM      4  CD  ARG D 557     -26.185  -0.658 -15.867  1.00 35.49     0.116 C 
BRANCH   4   5
ATOM      5  NE  ARG D 557     -25.071  -0.802 -14.968  1.00 35.49    -0.212 N 
ATOM      6  CZ  ARG D 557     -24.752  -1.894 -14.310  1.00 35.49     0.666 C 
ATOM      7  NH1 ARG D 557     -25.456  -3.007 -14.399  1.00 35.49    -0.235 N 
ATOM      8  NH2 ARG D 557     -23.693  -1.851 -13.553  1.00 35.49    -0.235 N 
ATOM      9  HH  ARG D 557     -26.155  -3.059 -14.892  1.00 35.49     0.174 HD
ATOM     10  HH  ARG D 557     -25.198  -3.689 -13.948  1.00 35.49     0.174 HD
ATOM     11  HH  ARG D 557     -23.254  -1.121 -13.521  1.00 35.49     0.174 HD
ATOM     12  HH  ARG D 557     -23.454  -2.537 -13.116  1.00 35.49     0.174 HD
ATOM     13  HE  ARG D 557     -24.605  -0.112 -14.795  1.00 35.49     0.178 HD
ENDBRANCH   4   5
ENDBRANCH   3   4
ENDBRANCH   2   3
ENDBRANCH   1   2
END_RES ARG D 557
BEGIN_RES GLU D 570
REMARK  3 active torsions:
REMARK  status: ('A' for Active; 'I' for Inactive)
REMARK    5  A    between atoms: CA   and  CB  
REMARK    6  A    between atoms: CB   and  CG  
REMARK    7  A    between atoms: CG   and  CD  
ROOT
ATOM     14  CA  GLU D 570     -18.033  -6.348 -13.375  1.00 32.92     0.160 C 
ENDROOT
BRANCH  14  15
ATOM     15  CB  GLU D 570     -19.500  -6.345 -13.794  1.00 32.92     0.043 C 
BRANCH  15  16
ATOM     16  CG  GLU D 570     -20.043  -7.590 -14.396  1.00 32.92     0.100 C 
BRANCH  16  17
ATOM     17  CD  GLU D 570     -20.738  -7.353 -15.716  1.00 32.92     0.185 C 
ATOM     18  OE1 GLU D 570     -21.569  -8.188 -16.121  1.00 32.92    -0.647 OA
ATOM     19  OE2 GLU D 570     -20.435  -6.330 -16.360  1.00 32.92    -0.647 OA
ENDBRANCH  16  17
ENDBRANCH  15  16
ENDBRANCH  14  15
END_RES GLU D 570
ENDMDL
