MODEL 1
REMARK VINA RESULT:      -6.6      0.000      0.000
REMARK  7 active torsions:
REMARK  status: ('A' for Active; 'I' for Inactive)
REMARK    1  A    between atoms: N_3  and  C_10 
REMARK    2  A    between atoms: N_6  and  C_7 
REMARK    3  A    between atoms: C_7  and  C_8 
REMARK    4  A    between atoms: C_8  and  O_9 
REMARK    5  A    between atoms: C_10  and  C_11 
REMARK    6  A    between atoms: C_11  and  S_12 
REMARK    7  A    between atoms: S_12  and  O_15 
ROOT
HETATM    1  C   UNL     1     -23.764  -3.894  -8.923  1.00  0.00     0.302 C 
HETATM    2  C   UNL     1     -24.255  -4.763 -10.117  1.00  0.00     0.302 C 
HETATM    3  N   UNL     1     -23.643  -4.415 -11.424  1.00  0.00     0.092 N 
HETATM    4  C   UNL     1     -22.175  -4.371 -11.248  1.00  0.00     0.302 C 
HETATM    5  C   UNL     1     -21.701  -3.471 -10.082  1.00  0.00     0.302 C 
HETATM    6  N   UNL     1     -22.287  -3.824  -8.771  1.00  0.00     0.093 N 
ENDROOT
BRANCH   3   7
HETATM    7  C   UNL     1     -24.205  -3.145 -11.938  1.00  0.00     0.289 C 
BRANCH   7   8
HETATM    8  C   UNL     1     -23.318  -2.484 -12.986  1.00  0.00     0.185 C 
BRANCH   8   9
HETATM    9  S   UNL     1     -24.147  -2.436 -14.558  1.00  0.00     0.095 S 
HETATM   10  O   UNL     1     -24.837  -3.680 -14.794  1.00  0.00    -0.601 OA
HETATM   11  O   UNL     1     -24.778  -1.145 -14.732  1.00  0.00    -0.601 OA
BRANCH   9  12
HETATM   12  O   UNL     1     -22.835  -2.485 -15.492  1.00  0.00    -0.296 OA
HETATM   13  H   UNL     1     -22.876  -1.730 -16.116  1.00  0.00     0.232 HD
ENDBRANCH   9  12
ENDBRANCH   8   9
ENDBRANCH   7   8
ENDBRANCH   3   7
BRANCH   6  14
HETATM   14  C   UNL     1     -21.772  -5.104  -8.234  1.00  0.00     0.298 C 
BRANCH  14  15
HETATM   15  C   UNL     1     -20.239  -5.157  -8.102  1.00  0.00     0.194 C 
BRANCH  15  16
HETATM   16  O   UNL     1     -19.831  -6.298  -7.357  1.00  0.00    -0.399 OA
HETATM   17  H   UNL     1     -18.932  -6.510  -7.673  1.00  0.00     0.209 HD
ENDBRANCH  15  16
ENDBRANCH  14  15
ENDBRANCH   6  14
TORSDOF 7
BEGIN_RES ARG D 557
REMARK  4 active torsions:
REMARK  status: ('A' for Active; 'I' for Inactive)
REMARK    1  A    between atoms: CA   and  CB  
REMARK    2  A    between atoms: CB   and  CG  
REMARK    3  A    between atoms: CG   and  CD  
REMARK    4  A    between atoms: CD   and  NE  
REMARK       I    between atoms: NE   and  CZ  
REMARK       I    between atoms: CZ   and  NH1 
REMARK       I    between atoms: CZ   and  NH2 
ROOT
ATOM      1  CA  ARG D 557     -26.217   2.705 -17.014  1.00 35.49     0.159 C 
ENDROOT
BRANCH   1   2
ATOM      2  CB  ARG D 557     -26.789   1.319 -17.183  1.00 35.49     0.034 C 
BRANCH   2   3
ATOM      3  CG  ARG D 557     -28.234   1.225 -17.423  1.00 35.49     0.027 C 
BRANCH   3   4
ATOM      4  CD  ARG D 557     -28.901   0.285 -16.494  1.00 35.49     0.116 C 
BRANCH   4   5
ATOM      5  NE  ARG D 557     -29.207  -0.973 -17.123  1.00 35.49    -0.212 N 
ATOM      6  CZ  ARG D 557     -28.526  -2.089 -16.980  1.00 35.49     0.666 C 
ATOM      7  NH1 ARG D 557     -27.444  -2.168 -16.228  1.00 35.49    -0.235 N 
ATOM      8  NH2 ARG D 557     -28.961  -3.142 -17.609  1.00 35.49    -0.235 N 
ATOM      9  HH  ARG D 557     -27.141  -1.488 -15.803  1.00 35.49     0.174 HD
ATOM     10  HH  ARG D 557     -27.043  -2.923 -16.171  1.00 35.49     0.174 HD
ATOM     11  HH  ARG D 557     -29.667  -3.063 -18.082  1.00 35.49     0.174 HD
ATOM     12  HH  ARG D 557     -28.551  -3.880 -17.538  1.00 35.49     0.174 HD
ATOM     13  HE  ARG D 557     -29.847  -0.995 -17.682  1.00 35.49     0.178 HD
ENDBRANCH   4   5
ENDBRANCH   3   4
ENDBRANCH   2   3
ENDBRANCH   1   2
END_RES ARG D 557
BEGIN_RES GLU D 570
REMARK  3 active torsions:
REMARK  status: ('A' for Active; 'I' for Inactive)
REMARK    5  A    between atoms: CA   and  CB  
REMARK    6  A    between atoms: CB   and  CG  
REMARK    7  A    between atoms: CG   and  CD  
ROOT
ATOM     14  CA  GLU D 570     -18.033  -6.348 -13.375  1.00 32.92     0.160 C 
ENDROOT
BRANCH  14  15
ATOM     15  CB  GLU D 570     -19.500  -6.345 -13.794  1.00 32.92     0.043 C 
BRANCH  15  16
ATOM     16  CG  GLU D 570     -19.801  -6.128 -15.233  1.00 32.92     0.100 C 
BRANCH  16  17
ATOM     17  CD  GLU D 570     -21.133  -5.454 -15.462  1.00 32.92     0.185 C 
ATOM     18  OE1 GLU D 570     -21.410  -5.031 -16.600  1.00 32.92    -0.647 OA
ATOM     19  OE2 GLU D 570     -21.902  -5.333 -14.487  1.00 32.92    -0.647 OA
ENDBRANCH  16  17
ENDBRANCH  15  16
ENDBRANCH  14  15
END_RES GLU D 570
ENDMDL
MODEL 2
REMARK VINA RESULT:      -6.2      2.183      5.180
REMARK  7 active torsions:
REMARK  status: ('A' for Active; 'I' for Inactive)
REMARK    1  A    between atoms: N_3  and  C_10 
REMARK    2  A    between atoms: N_6  and  C_7 
REMARK    3  A    between atoms: C_7  and  C_8 
REMARK    4  A    between atoms: C_8  and  O_9 
REMARK    5  A    between atoms: C_10  and  C_11 
REMARK    6  A    between atoms: C_11  and  S_12 
REMARK    7  A    between atoms: S_12  and  O_15 
ROOT
HETATM    1  C   UNL     1     -22.012  -2.885 -11.663  1.00  0.00     0.302 C 
HETATM    2  C   UNL     1     -21.537  -4.264 -11.121  1.00  0.00     0.302 C 
HETATM    3  N   UNL     1     -22.273  -4.741  -9.924  1.00  0.00     0.092 N 
HETATM    4  C   UNL     1     -23.722  -4.649 -10.207  1.00  0.00     0.302 C 
HETATM    5  C   UNL     1     -24.185  -3.260 -10.706  1.00  0.00     0.302 C 
HETATM    6  N   UNL     1     -23.474  -2.785 -11.912  1.00  0.00     0.093 N 
ENDROOT
BRANCH   3   7
HETATM    7  C   UNL     1     -21.865  -3.974  -8.724  1.00  0.00     0.289 C 
BRANCH   7   8
HETATM    8  C   UNL     1     -22.552  -4.453  -7.452  1.00  0.00     0.185 C 
BRANCH   8   9
HETATM    9  S   UNL     1     -21.412  -5.364  -6.437  1.00  0.00     0.095 S 
HETATM   10  O   UNL     1     -20.957  -6.541  -7.135  1.00  0.00    -0.601 OA
HETATM   11  O   UNL     1     -20.508  -4.445  -5.780  1.00  0.00    -0.601 OA
BRANCH   9  12
HETATM   12  O   UNL     1     -22.475  -5.893  -5.346  1.00  0.00    -0.296 OA
HETATM   13  H   UNL     1     -22.726  -5.137  -4.774  1.00  0.00     0.232 HD
ENDBRANCH   9  12
ENDBRANCH   8   9
ENDBRANCH   7   8
ENDBRANCH   3   7
BRANCH   6  14
HETATM   14  C   UNL     1     -23.833  -3.545 -13.131  1.00  0.00     0.298 C 
BRANCH  14  15
HETATM   15  C   UNL     1     -24.076  -2.665 -14.370  1.00  0.00     0.194 C 
BRANCH  15  16
HETATM   16  O   UNL     1     -22.890  -2.537 -15.145  1.00  0.00    -0.399 OA
HETATM   17  H   UNL     1     -22.171  -2.883 -14.582  1.00  0.00     0.209 HD
ENDBRANCH  15  16
ENDBRANCH  14  15
ENDBRANCH   6  14
TORSDOF 7
BEGIN_RES ARG D 557
REMARK  4 active torsions:
REMARK  status: ('A' for Active; 'I' for Inactive)
REMARK    1  A    between atoms: CA   and  CB  
REMARK    2  A    between atoms: CB   and  CG  
REMARK    3  A    between atoms: CG   and  CD  
REMARK    4  A    between atoms: CD   and  NE  
REMARK       I    between atoms: NE   and  CZ  
REMARK       I    between atoms: CZ   and  NH1 
REMARK       I    between atoms: CZ   and  NH2 
ROOT
ATOM      1  CA  ARG D 557     -26.217   2.705 -17.014  1.00 35.49     0.159 C 
ENDROOT
BRANCH   1   2
ATOM      2  CB  ARG D 557     -26.789   1.319 -17.183  1.00 35.49     0.034 C 
BRANCH   2   3
ATOM      3  CG  ARG D 557     -28.233   1.226 -17.429  1.00 35.49     0.027 C 
BRANCH   3   4
ATOM      4  CD  ARG D 557     -28.907   0.302 -16.487  1.00 35.49     0.116 C 
BRANCH   4   5
ATOM      5  NE  ARG D 557     -29.289  -0.933 -17.119  1.00 35.49    -0.212 N 
ATOM      6  CZ  ARG D 557     -28.648  -2.076 -17.022  1.00 35.49     0.666 C 
ATOM      7  NH1 ARG D 557     -27.539  -2.209 -16.318  1.00 35.49    -0.235 N 
ATOM      8  NH2 ARG D 557     -29.150  -3.101 -17.646  1.00 35.49    -0.235 N 
ATOM      9  HH  ARG D 557     -27.191  -1.548 -15.898  1.00 35.49     0.174 HD
ATOM     10  HH  ARG D 557     -27.165  -2.980 -16.289  1.00 35.49     0.174 HD
ATOM     11  HH  ARG D 557     -29.872  -2.988 -18.087  1.00 35.49     0.174 HD
ATOM     12  HH  ARG D 557     -28.767  -3.857 -17.603  1.00 35.49     0.174 HD
ATOM     13  HE  ARG D 557     -29.953  -0.921 -17.651  1.00 35.49     0.178 HD
ENDBRANCH   4   5
ENDBRANCH   3   4
ENDBRANCH   2   3
ENDBRANCH   1   2
END_RES ARG D 557
BEGIN_RES GLU D 570
REMARK  3 active torsions:
REMARK  status: ('A' for Active; 'I' for Inactive)
REMARK    5  A    between atoms: CA   and  CB  
REMARK    6  A    between atoms: CB   and  CG  
REMARK    7  A    between atoms: CG   and  CD  
ROOT
ATOM     14  CA  GLU D 570     -18.033  -6.348 -13.375  1.00 32.92     0.160 C 
ENDROOT
BRANCH  14  15
ATOM     15  CB  GLU D 570     -19.500  -6.345 -13.794  1.00 32.92     0.043 C 
BRANCH  15  16
ATOM     16  CG  GLU D 570     -19.811  -5.956 -15.194  1.00 32.92     0.100 C 
BRANCH  16  17
ATOM     17  CD  GLU D 570     -21.274  -5.645 -15.407  1.00 32.92     0.185 C 
ATOM     18  OE1 GLU D 570     -22.123  -6.202 -14.686  1.00 32.92    -0.647 OA
ATOM     19  OE2 GLU D 570     -21.576  -4.847 -16.317  1.00 32.92    -0.647 OA
ENDBRANCH  16  17
ENDBRANCH  15  16
ENDBRANCH  14  15
END_RES GLU D 570
ENDMDL
MODEL 3
REMARK VINA RESULT:      -6.2      1.992      2.525
REMARK  7 active torsions:
REMARK  status: ('A' for Active; 'I' for Inactive)
REMARK    1  A    between atoms: N_3  and  C_10 
REMARK    2  A    between atoms: N_6  and  C_7 
REMARK    3  A    between atoms: C_7  and  C_8 
REMARK    4  A    between atoms: C_8  and  O_9 
REMARK    5  A    between atoms: C_10  and  C_11 
REMARK    6  A    between atoms: C_11  and  S_12 
REMARK    7  A    between atoms: S_12  and  O_15 
ROOT
HETATM    1  C   UNL     1     -21.193  -4.205 -10.671  1.00  0.00     0.302 C 
HETATM    2  C   UNL     1     -21.483  -2.860 -11.397  1.00  0.00     0.302 C 
HETATM    3  N   UNL     1     -22.803  -2.798 -12.074  1.00  0.00     0.092 N 
HETATM    4  C   UNL     1     -23.838  -3.217 -11.104  1.00  0.00     0.302 C 
HETATM    5  C   UNL     1     -23.555  -4.576 -10.420  1.00  0.00     0.302 C 
HETATM    6  N   UNL     1     -22.252  -4.641  -9.723  1.00  0.00     0.093 N 
ENDROOT
BRANCH   3   7
HETATM    7  C   UNL     1     -22.793  -3.621 -13.305  1.00  0.00     0.289 C 
BRANCH   7   8
HETATM    8  C   UNL     1     -24.187  -3.858 -13.871  1.00  0.00     0.185 C 
BRANCH   8   9
HETATM    9  S   UNL     1     -24.235  -5.387 -14.778  1.00  0.00     0.095 S 
HETATM   10  O   UNL     1     -23.988  -6.498 -13.893  1.00  0.00    -0.601 OA
HETATM   11  O   UNL     1     -25.341  -5.360 -15.712  1.00  0.00    -0.601 OA
BRANCH   9  12
HETATM   12  O   UNL     1     -22.869  -5.184 -15.609  1.00  0.00    -0.296 OA
HETATM   13  H   UNL     1     -22.980  -5.607 -16.486  1.00  0.00     0.232 HD
ENDBRANCH   9  12
ENDBRANCH   8   9
ENDBRANCH   7   8
ENDBRANCH   3   7
BRANCH   6  14
HETATM   14  C   UNL     1     -22.210  -3.809  -8.499  1.00  0.00     0.298 C 
BRANCH  14  15
HETATM   15  C   UNL     1     -22.594  -4.564  -7.213  1.00  0.00     0.194 C 
BRANCH  15  16
HETATM   16  O   UNL     1     -23.962  -4.351  -6.887  1.00  0.00    -0.399 OA
HETATM   17  H   UNL     1     -24.051  -3.389  -6.746  1.00  0.00     0.209 HD
ENDBRANCH  15  16
ENDBRANCH  14  15
ENDBRANCH   6  14
TORSDOF 7
BEGIN_RES ARG D 557
REMARK  4 active torsions:
REMARK  status: ('A' for Active; 'I' for Inactive)
REMARK    1  A    between atoms: CA   and  CB  
REMARK    2  A    between atoms: CB   and  CG  
REMARK    3  A    between atoms: CG   and  CD  
REMARK    4  A    between atoms: CD   and  NE  
REMARK       I    between atoms: NE   and  CZ  
REMARK       I    between atoms: CZ   and  NH1 
REMARK       I    between atoms: CZ   and  NH2 
ROOT
ATOM      1  CA  ARG D 557     -26.217   2.705 -17.014  1.00 35.49     0.159 C 
ENDROOT
BRANCH   1   2
ATOM      2  CB  ARG D 557     -26.789   1.319 -17.183  1.00 35.49     0.034 C 
BRANCH   2   3
ATOM      3  CG  ARG D 557     -28.232   1.226 -17.437  1.00 35.49     0.027 C 
BRANCH   3   4
ATOM      4  CD  ARG D 557     -28.893   0.220 -16.575  1.00 35.49     0.116 C 
BRANCH   4   5
ATOM      5  NE  ARG D 557     -27.991  -0.826 -16.173  1.00 35.49    -0.212 N 
ATOM      6  CZ  ARG D 557     -28.054  -2.083 -16.553  1.00 35.49     0.666 C 
ATOM      7  NH1 ARG D 557     -28.994  -2.532 -17.363  1.00 35.49    -0.235 N 
ATOM      8  NH2 ARG D 557     -27.138  -2.892 -16.106  1.00 35.49    -0.235 N 
ATOM      9  HH  ARG D 557     -29.606  -2.017 -17.671  1.00 35.49     0.174 HD
ATOM     10  HH  ARG D 557     -28.983  -3.361 -17.579  1.00 35.49     0.174 HD
ATOM     11  HH  ARG D 557     -26.538  -2.572 -15.590  1.00 35.49     0.174 HD
ATOM     12  HH  ARG D 557     -27.143  -3.709 -16.332  1.00 35.49     0.174 HD
ATOM     13  HE  ARG D 557     -27.397  -0.640 -15.593  1.00 35.49     0.178 HD
ENDBRANCH   4   5
ENDBRANCH   3   4
ENDBRANCH   2   3
ENDBRANCH   1   2
END_RES ARG D 557
BEGIN_RES GLU D 570
REMARK  3 active torsions:
REMARK  status: ('A' for Active; 'I' for Inactive)
REMARK    5  A    between atoms: CA   and  CB  
REMARK    6  A    between atoms: CB   and  CG  
REMARK    7  A    between atoms: CG   and  CD  
ROOT
ATOM     14  CA  GLU D 570     -18.033  -6.348 -13.375  1.00 32.92     0.160 C 
ENDROOT
BRANCH  14  15
ATOM     15  CB  GLU D 570     -19.500  -6.345 -13.794  1.00 32.92     0.043 C 
BRANCH  15  16
ATOM     16  CG  GLU D 570     -20.103  -7.646 -14.184  1.00 32.92     0.100 C 
BRANCH  16  17
ATOM     17  CD  GLU D 570     -20.514  -7.692 -15.637  1.00 32.92     0.185 C 
ATOM     18  OE1 GLU D 570     -20.658  -6.623 -16.260  1.00 32.92    -0.647 OA
ATOM     19  OE2 GLU D 570     -20.711  -8.810 -16.154  1.00 32.92    -0.647 OA
ENDBRANCH  16  17
ENDBRANCH  15  16
ENDBRANCH  14  15
END_RES GLU D 570
ENDMDL
MODEL 4
REMARK VINA RESULT:      -5.7      7.728      9.931
REMARK  7 active torsions:
REMARK  status: ('A' for Active; 'I' for Inactive)
REMARK    1  A    between atoms: N_3  and  C_10 
REMARK    2  A    between atoms: N_6  and  C_7 
REMARK    3  A    between atoms: C_7  and  C_8 
REMARK    4  A    between atoms: C_8  and  O_9 
REMARK    5  A    between atoms: C_10  and  C_11 
REMARK    6  A    between atoms: C_11  and  S_12 
REMARK    7  A    between atoms: S_12  and  O_15 
ROOT
HETATM    1  C   UNL     1     -32.833  -3.899 -11.823  1.00  0.00     0.302 C 
HETATM    2  C   UNL     1     -33.119  -2.734 -10.832  1.00  0.00     0.302 C 
HETATM    3  N   UNL     1     -34.460  -2.114 -10.982  1.00  0.00     0.092 N 
HETATM    4  C   UNL     1     -35.470  -3.195 -10.981  1.00  0.00     0.302 C 
HETATM    5  C   UNL     1     -35.192  -4.325 -12.000  1.00  0.00     0.302 C 
HETATM    6  N   UNL     1     -33.867  -4.965 -11.845  1.00  0.00     0.093 N 
ENDROOT
BRANCH   3   7
HETATM    7  C   UNL     1     -34.509  -1.274 -12.200  1.00  0.00     0.289 C 
BRANCH   7   8
HETATM    8  C   UNL     1     -35.828  -0.527 -12.353  1.00  0.00     0.185 C 
BRANCH   8   9
HETATM    9  S   UNL     1     -36.350  -0.533 -14.053  1.00  0.00     0.095 S 
HETATM   10  O   UNL     1     -35.434  -1.310 -14.851  1.00  0.00    -0.601 OA
HETATM   11  O   UNL     1     -37.785  -0.707 -14.117  1.00  0.00    -0.601 OA
BRANCH   9  12
HETATM   12  O   UNL     1     -36.013   1.008 -14.384  1.00  0.00    -0.296 OA
HETATM   13  H   UNL     1     -35.072   1.168 -14.161  1.00  0.00     0.232 HD
ENDBRANCH   9  12
ENDBRANCH   8   9
ENDBRANCH   7   8
ENDBRANCH   3   7
BRANCH   6  14
HETATM   14  C   UNL     1     -33.767  -5.795 -10.622  1.00  0.00     0.298 C 
BRANCH  14  15
HETATM   15  C   UNL     1     -34.578  -7.102 -10.682  1.00  0.00     0.194 C 
BRANCH  15  16
HETATM   16  O   UNL     1     -35.219  -7.361  -9.439  1.00  0.00    -0.399 OA
HETATM   17  H   UNL     1     -34.514  -7.678  -8.842  1.00  0.00     0.209 HD
ENDBRANCH  15  16
ENDBRANCH  14  15
ENDBRANCH   6  14
TORSDOF 7
BEGIN_RES ARG D 557
REMARK  4 active torsions:
REMARK  status: ('A' for Active; 'I' for Inactive)
REMARK    1  A    between atoms: CA   and  CB  
REMARK    2  A    between atoms: CB   and  CG  
REMARK    3  A    between atoms: CG   and  CD  
REMARK    4  A    between atoms: CD   and  NE  
REMARK       I    between atoms: NE   and  CZ  
REMARK       I    between atoms: CZ   and  NH1 
REMARK       I    between atoms: CZ   and  NH2 
ROOT
ATOM      1  CA  ARG D 557     -26.217   2.705 -17.014  1.00 35.49     0.159 C 
ENDROOT
BRANCH   1   2
ATOM      2  CB  ARG D 557     -26.789   1.319 -17.183  1.00 35.49     0.034 C 
BRANCH   2   3
ATOM      3  CG  ARG D 557     -25.836   0.203 -17.155  1.00 35.49     0.027 C 
BRANCH   3   4
ATOM      4  CD  ARG D 557     -24.751   0.412 -16.169  1.00 35.49     0.116 C 
BRANCH   4   5
ATOM      5  NE  ARG D 557     -24.896  -0.435 -15.015  1.00 35.49    -0.212 N 
ATOM      6  CZ  ARG D 557     -24.081  -1.404 -14.666  1.00 35.49     0.666 C 
ATOM      7  NH1 ARG D 557     -23.012  -1.722 -15.373  1.00 35.49    -0.235 N 
ATOM      8  NH2 ARG D 557     -24.356  -2.057 -13.574  1.00 35.49    -0.235 N 
ATOM      9  HH  ARG D 557     -22.811  -1.304 -16.094  1.00 35.49     0.174 HD
ATOM     10  HH  ARG D 557     -22.515  -2.362 -15.095  1.00 35.49     0.174 HD
ATOM     11  HH  ARG D 557     -25.049  -1.825 -13.133  1.00 35.49     0.174 HD
ATOM     12  HH  ARG D 557     -23.851  -2.687 -13.314  1.00 35.49     0.174 HD
ATOM     13  HE  ARG D 557     -25.597  -0.348 -14.541  1.00 35.49     0.178 HD
ENDBRANCH   4   5
ENDBRANCH   3   4
ENDBRANCH   2   3
ENDBRANCH   1   2
END_RES ARG D 557
BEGIN_RES GLU D 570
REMARK  3 active torsions:
REMARK  status: ('A' for Active; 'I' for Inactive)
REMARK    5  A    between atoms: CA   and  CB  
REMARK    6  A    between atoms: CB   and  CG  
REMARK    7  A    between atoms: CG   and  CD  
ROOT
ATOM     14  CA  GLU D 570     -18.033  -6.348 -13.375  1.00 32.92     0.160 C 
ENDROOT
BRANCH  14  15
ATOM     15  CB  GLU D 570     -19.500  -6.345 -13.794  1.00 32.92     0.043 C 
BRANCH  15  16
ATOM     16  CG  GLU D 570     -20.441  -5.528 -12.985  1.00 32.92     0.100 C 
BRANCH  16  17
ATOM     17  CD  GLU D 570     -21.751  -5.265 -13.692  1.00 32.92     0.185 C 
ATOM     18  OE1 GLU D 570     -22.334  -4.181 -13.502  1.00 32.92    -0.647 OA
ATOM     19  OE2 GLU D 570     -22.206  -6.160 -14.431  1.00 32.92    -0.647 OA
ENDBRANCH  16  17
ENDBRANCH  15  16
ENDBRANCH  14  15
END_RES GLU D 570
ENDMDL
MODEL 5
REMARK VINA RESULT:      -5.6      2.408      5.337
REMARK  7 active torsions:
REMARK  status: ('A' for Active; 'I' for Inactive)
REMARK    1  A    between atoms: N_3  and  C_10 
REMARK    2  A    between atoms: N_6  and  C_7 
REMARK    3  A    between atoms: C_7  and  C_8 
REMARK    4  A    between atoms: C_8  and  O_9 
REMARK    5  A    between atoms: C_10  and  C_11 
REMARK    6  A    between atoms: C_11  and  S_12 
REMARK    7  A    between atoms: S_12  and  O_15 
ROOT
HETATM    1  C   UNL     1     -24.154  -4.511 -10.466  1.00  0.00     0.302 C 
HETATM    2  C   UNL     1     -23.577  -3.500  -9.433  1.00  0.00     0.302 C 
HETATM    3  N   UNL     1     -22.106  -3.579  -9.250  1.00  0.00     0.092 N 
HETATM    4  C   UNL     1     -21.473  -3.533 -10.586  1.00  0.00     0.302 C 
HETATM    5  C   UNL     1     -22.029  -4.571 -11.589  1.00  0.00     0.302 C 
HETATM    6  N   UNL     1     -23.491  -4.487 -11.796  1.00  0.00     0.093 N 
ENDROOT
BRANCH   3   7
HETATM    7  C   UNL     1     -21.744  -4.788  -8.477  1.00  0.00     0.289 C 
BRANCH   7   8
HETATM    8  C   UNL     1     -22.262  -4.753  -7.044  1.00  0.00     0.185 C 
BRANCH   8   9
HETATM    9  S   UNL     1     -21.189  -5.684  -5.975  1.00  0.00     0.095 S 
HETATM   10  O   UNL     1     -20.847  -6.944  -6.588  1.00  0.00    -0.601 OA
HETATM   11  O   UNL     1     -20.199  -4.801  -5.395  1.00  0.00    -0.601 OA
BRANCH   9  12
HETATM   12  O   UNL     1     -22.276  -6.038  -4.839  1.00  0.00    -0.296 OA
HETATM   13  H   UNL     1     -22.609  -5.195  -4.463  1.00  0.00     0.232 HD
ENDBRANCH   9  12
ENDBRANCH   8   9
ENDBRANCH   7   8
ENDBRANCH   3   7
BRANCH   6  14
HETATM   14  C   UNL     1     -23.899  -3.275 -12.544  1.00  0.00     0.298 C 
BRANCH  14  15
HETATM   15  C   UNL     1     -23.203  -3.115 -13.907  1.00  0.00     0.194 C 
BRANCH  15  16
HETATM   16  O   UNL     1     -23.672  -4.084 -14.836  1.00  0.00    -0.399 OA
HETATM   17  H   UNL     1     -22.963  -4.753 -14.897  1.00  0.00     0.209 HD
ENDBRANCH  15  16
ENDBRANCH  14  15
ENDBRANCH   6  14
TORSDOF 7
BEGIN_RES ARG D 557
REMARK  4 active torsions:
REMARK  status: ('A' for Active; 'I' for Inactive)
REMARK    1  A    between atoms: CA   and  CB  
REMARK    2  A    between atoms: CB   and  CG  
REMARK    3  A    between atoms: CG   and  CD  
REMARK    4  A    between atoms: CD   and  NE  
REMARK       I    between atoms: NE   and  CZ  
REMARK       I    between atoms: CZ   and  NH1 
REMARK       I    between atoms: CZ   and  NH2 
ROOT
ATOM      1  CA  ARG D 557     -26.217   2.705 -17.014  1.00 35.49     0.159 C 
ENDROOT
BRANCH   1   2
ATOM      2  CB  ARG D 557     -26.789   1.319 -17.183  1.00 35.49     0.034 C 
BRANCH   2   3
ATOM      3  CG  ARG D 557     -28.226   1.162 -16.930  1.00 35.49     0.027 C 
BRANCH   3   4
ATOM      4  CD  ARG D 557     -28.615  -0.254 -16.740  1.00 35.49     0.116 C 
BRANCH   4   5
ATOM      5  NE  ARG D 557     -27.607  -1.003 -16.035  1.00 35.49    -0.212 N 
ATOM      6  CZ  ARG D 557     -27.424  -2.302 -16.109  1.00 35.49     0.666 C 
ATOM      7  NH1 ARG D 557     -28.183  -3.084 -16.855  1.00 35.49    -0.235 N 
ATOM      8  NH2 ARG D 557     -26.447  -2.811 -15.416  1.00 35.49    -0.235 N 
ATOM      9  HH  ARG D 557     -28.830  -2.771 -17.320  1.00 35.49     0.174 HD
ATOM     10  HH  ARG D 557     -28.014  -3.924 -16.866  1.00 35.49     0.174 HD
ATOM     11  HH  ARG D 557     -25.968  -2.280 -14.950  1.00 35.49     0.174 HD
ATOM     12  HH  ARG D 557     -26.295  -3.644 -15.442  1.00 35.49     0.174 HD
ATOM     13  HE  ARG D 557     -27.120  -0.588 -15.476  1.00 35.49     0.178 HD
ENDBRANCH   4   5
ENDBRANCH   3   4
ENDBRANCH   2   3
ENDBRANCH   1   2
END_RES ARG D 557
BEGIN_RES GLU D 570
REMARK  3 active torsions:
REMARK  status: ('A' for Active; 'I' for Inactive)
REMARK    5  A    between atoms: CA   and  CB  
REMARK    6  A    between atoms: CB   and  CG  
REMARK    7  A    between atoms: CG   and  CD  
ROOT
ATOM     14  CA  GLU D 570     -18.033  -6.348 -13.375  1.00 32.92     0.160 C 
ENDROOT
BRANCH  14  15
ATOM     15  CB  GLU D 570     -19.500  -6.345 -13.794  1.00 32.92     0.043 C 
BRANCH  15  16
ATOM     16  CG  GLU D 570     -20.055  -7.606 -14.351  1.00 32.92     0.100 C 
BRANCH  16  17
ATOM     17  CD  GLU D 570     -21.211  -7.373 -15.296  1.00 32.92     0.185 C 
ATOM     18  OE1 GLU D 570     -21.252  -8.006 -16.369  1.00 32.92    -0.647 OA
ATOM     19  OE2 GLU D 570     -22.076  -6.538 -14.968  1.00 32.92    -0.647 OA
ENDBRANCH  16  17
ENDBRANCH  15  16
ENDBRANCH  14  15
END_RES GLU D 570
ENDMDL
MODEL 6
REMARK VINA RESULT:      -5.1      1.600      1.879
REMARK  7 active torsions:
REMARK  status: ('A' for Active; 'I' for Inactive)
REMARK    1  A    between atoms: N_3  and  C_10 
REMARK    2  A    between atoms: N_6  and  C_7 
REMARK    3  A    between atoms: C_7  and  C_8 
REMARK    4  A    between atoms: C_8  and  O_9 
REMARK    5  A    between atoms: C_10  and  C_11 
REMARK    6  A    between atoms: C_11  and  S_12 
REMARK    7  A    between atoms: S_12  and  O_15 
ROOT
HETATM    1  C   UNL     1     -22.401  -4.322  -8.194  1.00  0.00     0.302 C 
HETATM    2  C   UNL     1     -22.791  -4.908  -9.582  1.00  0.00     0.302 C 
HETATM    3  N   UNL     1     -21.983  -4.393 -10.716  1.00  0.00     0.092 N 
HETATM    4  C   UNL     1     -20.553  -4.529 -10.361  1.00  0.00     0.302 C 
HETATM    5  C   UNL     1     -20.174  -3.906  -8.997  1.00  0.00     0.302 C 
HETATM    6  N   UNL     1     -20.958  -4.428  -7.857  1.00  0.00     0.093 N 
ENDROOT
BRANCH   3   7
HETATM    7  C   UNL     1     -22.372  -3.002 -11.040  1.00  0.00     0.289 C 
BRANCH   7   8
HETATM    8  C   UNL     1     -22.537  -2.765 -12.536  1.00  0.00     0.185 C 
BRANCH   8   9
HETATM    9  S   UNL     1     -24.224  -3.043 -13.024  1.00  0.00     0.095 S 
HETATM   10  O   UNL     1     -24.284  -4.054 -14.052  1.00  0.00    -0.601 OA
HETATM   11  O   UNL     1     -25.069  -3.070 -11.850  1.00  0.00    -0.601 OA
BRANCH   9  12
HETATM   12  O   UNL     1     -24.459  -1.641 -13.783  1.00  0.00    -0.296 OA
HETATM   13  H   UNL     1     -23.605  -1.160 -13.806  1.00  0.00     0.232 HD
ENDBRANCH   9  12
ENDBRANCH   8   9
ENDBRANCH   7   8
ENDBRANCH   3   7
BRANCH   6  14
HETATM   14  C   UNL     1     -20.618  -5.829  -7.517  1.00  0.00     0.298 C 
BRANCH  14  15
HETATM   15  C   UNL     1     -21.180  -6.300  -6.163  1.00  0.00     0.194 C 
BRANCH  15  16
HETATM   16  O   UNL     1     -20.657  -7.575  -5.810  1.00  0.00    -0.399 OA
HETATM   17  H   UNL     1     -20.018  -7.800  -6.513  1.00  0.00     0.209 HD
ENDBRANCH  15  16
ENDBRANCH  14  15
ENDBRANCH   6  14
TORSDOF 7
BEGIN_RES ARG D 557
REMARK  4 active torsions:
REMARK  status: ('A' for Active; 'I' for Inactive)
REMARK    1  A    between atoms: CA   and  CB  
REMARK    2  A    between atoms: CB   and  CG  
REMARK    3  A    between atoms: CG   and  CD  
REMARK    4  A    between atoms: CD   and  NE  
REMARK       I    between atoms: NE   and  CZ  
REMARK       I    between atoms: CZ   and  NH1 
REMARK       I    between atoms: CZ   and  NH2 
ROOT
ATOM      1  CA  ARG D 557     -26.217   2.705 -17.014  1.00 35.49     0.159 C 
ENDROOT
BRANCH   1   2
ATOM      2  CB  ARG D 557     -26.789   1.319 -17.183  1.00 35.49     0.034 C 
BRANCH   2   3
ATOM      3  CG  ARG D 557     -28.231   1.226 -17.441  1.00 35.49     0.027 C 
BRANCH   3   4
ATOM      4  CD  ARG D 557     -28.914   0.303 -16.507  1.00 35.49     0.116 C 
BRANCH   4   5
ATOM      5  NE  ARG D 557     -28.131  -0.875 -16.240  1.00 35.49    -0.212 N 
ATOM      6  CZ  ARG D 557     -28.369  -2.078 -16.713  1.00 35.49     0.666 C 
ATOM      7  NH1 ARG D 557     -29.396  -2.341 -17.500  1.00 35.49    -0.235 N 
ATOM      8  NH2 ARG D 557     -27.541  -3.027 -16.384  1.00 35.49    -0.235 N 
ATOM      9  HH  ARG D 557     -29.952  -1.731 -17.731  1.00 35.49     0.174 HD
ATOM     10  HH  ARG D 557     -29.499  -3.144 -17.781  1.00 35.49     0.174 HD
ATOM     11  HH  ARG D 557     -26.882  -2.826 -15.881  1.00 35.49     0.174 HD
ATOM     12  HH  ARG D 557     -27.659  -3.815 -16.673  1.00 35.49     0.174 HD
ATOM     13  HE  ARG D 557     -27.491  -0.812 -15.684  1.00 35.49     0.178 HD
ENDBRANCH   4   5
ENDBRANCH   3   4
ENDBRANCH   2   3
ENDBRANCH   1   2
END_RES ARG D 557
BEGIN_RES GLU D 570
REMARK  3 active torsions:
REMARK  status: ('A' for Active; 'I' for Inactive)
REMARK    5  A    between atoms: CA   and  CB  
REMARK    6  A    between atoms: CB   and  CG  
REMARK    7  A    between atoms: CG   and  CD  
ROOT
ATOM     14  CA  GLU D 570     -18.033  -6.348 -13.375  1.00 32.92     0.160 C 
ENDROOT
BRANCH  14  15
ATOM     15  CB  GLU D 570     -19.500  -6.345 -13.794  1.00 32.92     0.043 C 
BRANCH  15  16
ATOM     16  CG  GLU D 570     -19.797  -6.232 -15.245  1.00 32.92     0.100 C 
BRANCH  16  17
ATOM     17  CD  GLU D 570     -20.788  -7.267 -15.726  1.00 32.92     0.185 C 
ATOM     18  OE1 GLU D 570     -21.644  -6.939 -16.570  1.00 32.92    -0.647 OA
ATOM     19  OE2 GLU D 570     -20.717  -8.413 -15.241  1.00 32.92    -0.647 OA
ENDBRANCH  16  17
ENDBRANCH  15  16
ENDBRANCH  14  15
END_RES GLU D 570
ENDMDL
MODEL 7
REMARK VINA RESULT:      -5.0      2.538      3.368
REMARK  7 active torsions:
REMARK  status: ('A' for Active; 'I' for Inactive)
REMARK    1  A    between atoms: N_3  and  C_10 
REMARK    2  A    between atoms: N_6  and  C_7 
REMARK    3  A    between atoms: C_7  and  C_8 
REMARK    4  A    between atoms: C_8  and  O_9 
REMARK    5  A    between atoms: C_10  and  C_11 
REMARK    6  A    between atoms: C_11  and  S_12 
REMARK    7  A    between atoms: S_12  and  O_15 
ROOT
HETATM    1  C   UNL     1     -20.668  -6.261  -7.221  1.00  0.00     0.302 C 
HETATM    2  C   UNL     1     -19.926  -5.085  -7.919  1.00  0.00     0.302 C 
HETATM    3  N   UNL     1     -20.817  -4.014  -8.432  1.00  0.00     0.092 N 
HETATM    4  C   UNL     1     -21.732  -3.614  -7.341  1.00  0.00     0.302 C 
HETATM    5  C   UNL     1     -22.492  -4.790  -6.686  1.00  0.00     0.302 C 
HETATM    6  N   UNL     1     -21.614  -5.853  -6.150  1.00  0.00     0.093 N 
ENDROOT
BRANCH   3   7
HETATM    7  C   UNL     1     -21.527  -4.469  -9.649  1.00  0.00     0.289 C 
BRANCH   7   8
HETATM    8  C   UNL     1     -22.183  -3.328 -10.416  1.00  0.00     0.185 C 
BRANCH   8   9
HETATM    9  S   UNL     1     -23.935  -3.597 -10.548  1.00  0.00     0.095 S 
HETATM   10  O   UNL     1     -24.560  -3.451  -9.257  1.00  0.00    -0.601 OA
HETATM   11  O   UNL     1     -24.436  -2.943 -11.739  1.00  0.00    -0.601 OA
BRANCH   9  12
HETATM   12  O   UNL     1     -23.886  -5.184 -10.827  1.00  0.00    -0.296 OA
HETATM   13  H   UNL     1     -24.059  -5.331 -11.781  1.00  0.00     0.232 HD
ENDBRANCH   9  12
ENDBRANCH   8   9
ENDBRANCH   7   8
ENDBRANCH   3   7
BRANCH   6  14
HETATM   14  C   UNL     1     -20.863  -5.428  -4.946  1.00  0.00     0.298 C 
BRANCH  14  15
HETATM   15  C   UNL     1     -21.348  -6.083  -3.641  1.00  0.00     0.194 C 
BRANCH  15  16
HETATM   16  O   UNL     1     -21.401  -7.499  -3.769  1.00  0.00    -0.399 OA
HETATM   17  H   UNL     1     -22.348  -7.732  -3.721  1.00  0.00     0.209 HD
ENDBRANCH  15  16
ENDBRANCH  14  15
ENDBRANCH   6  14
TORSDOF 7
BEGIN_RES ARG D 557
REMARK  4 active torsions:
REMARK  status: ('A' for Active; 'I' for Inactive)
REMARK    1  A    between atoms: CA   and  CB  
REMARK    2  A    between atoms: CB   and  CG  
REMARK    3  A    between atoms: CG   and  CD  
REMARK    4  A    between atoms: CD   and  NE  
REMARK       I    between atoms: NE   and  CZ  
REMARK       I    between atoms: CZ   and  NH1 
REMARK       I    between atoms: CZ   and  NH2 
ROOT
ATOM      1  CA  ARG D 557     -26.217   2.705 -17.014  1.00 35.49     0.159 C 
ENDROOT
BRANCH   1   2
ATOM      2  CB  ARG D 557     -26.789   1.319 -17.183  1.00 35.49     0.034 C 
BRANCH   2   3
ATOM      3  CG  ARG D 557     -28.228   1.227 -17.457  1.00 35.49     0.027 C 
BRANCH   3   4
ATOM      4  CD  ARG D 557     -28.925   0.318 -16.518  1.00 35.49     0.116 C 
BRANCH   4   5
ATOM      5  NE  ARG D 557     -29.316  -0.915 -17.147  1.00 35.49    -0.212 N 
ATOM      6  CZ  ARG D 557     -28.685  -2.064 -17.045  1.00 35.49     0.666 C 
ATOM      7  NH1 ARG D 557     -27.578  -2.204 -16.339  1.00 35.49    -0.235 N 
ATOM      8  NH2 ARG D 557     -29.195  -3.087 -17.667  1.00 35.49    -0.235 N 
ATOM      9  HH  ARG D 557     -27.226  -1.545 -15.920  1.00 35.49     0.174 HD
ATOM     10  HH  ARG D 557     -27.212  -2.978 -16.307  1.00 35.49     0.174 HD
ATOM     11  HH  ARG D 557     -29.915  -2.968 -18.109  1.00 35.49     0.174 HD
ATOM     12  HH  ARG D 557     -28.819  -3.845 -17.621  1.00 35.49     0.174 HD
ATOM     13  HE  ARG D 557     -29.979  -0.899 -17.679  1.00 35.49     0.178 HD
ENDBRANCH   4   5
ENDBRANCH   3   4
ENDBRANCH   2   3
ENDBRANCH   1   2
END_RES ARG D 557
BEGIN_RES GLU D 570
REMARK  3 active torsions:
REMARK  status: ('A' for Active; 'I' for Inactive)
REMARK    5  A    between atoms: CA   and  CB  
REMARK    6  A    between atoms: CB   and  CG  
REMARK    7  A    between atoms: CG   and  CD  
ROOT
ATOM     14  CA  GLU D 570     -18.033  -6.348 -13.375  1.00 32.92     0.160 C 
ENDROOT
BRANCH  14  15
ATOM     15  CB  GLU D 570     -19.500  -6.345 -13.794  1.00 32.92     0.043 C 
BRANCH  15  16
ATOM     16  CG  GLU D 570     -20.434  -5.495 -13.011  1.00 32.92     0.100 C 
BRANCH  16  17
ATOM     17  CD  GLU D 570     -21.738  -5.235 -13.729  1.00 32.92     0.185 C 
ATOM     18  OE1 GLU D 570     -22.357  -6.196 -14.226  1.00 32.92    -0.647 OA
ATOM     19  OE2 GLU D 570     -22.136  -4.057 -13.811  1.00 32.92    -0.647 OA
ENDBRANCH  16  17
ENDBRANCH  15  16
ENDBRANCH  14  15
END_RES GLU D 570
ENDMDL
MODEL 8
REMARK VINA RESULT:      -5.0      2.942      3.778
REMARK  7 active torsions:
REMARK  status: ('A' for Active; 'I' for Inactive)
REMARK    1  A    between atoms: N_3  and  C_10 
REMARK    2  A    between atoms: N_6  and  C_7 
REMARK    3  A    between atoms: C_7  and  C_8 
REMARK    4  A    between atoms: C_8  and  O_9 
REMARK    5  A    between atoms: C_10  and  C_11 
REMARK    6  A    between atoms: C_11  and  S_12 
REMARK    7  A    between atoms: S_12  and  O_15 
ROOT
HETATM    1  C   UNL     1     -23.894  -2.490 -14.118  1.00  0.00     0.302 C 
HETATM    2  C   UNL     1     -25.112  -3.376 -13.727  1.00  0.00     0.302 C 
HETATM    3  N   UNL     1     -24.932  -4.824 -13.999  1.00  0.00     0.092 N 
HETATM    4  C   UNL     1     -23.641  -5.247 -13.413  1.00  0.00     0.302 C 
HETATM    5  C   UNL     1     -22.434  -4.381 -13.843  1.00  0.00     0.302 C 
HETATM    6  N   UNL     1     -22.593  -2.939 -13.556  1.00  0.00     0.093 N 
ENDROOT
BRANCH   3   7
HETATM    7  C   UNL     1     -25.026  -5.094 -15.452  1.00  0.00     0.289 C 
BRANCH   7   8
HETATM    8  C   UNL     1     -25.751  -6.396 -15.768  1.00  0.00     0.185 C 
BRANCH   8   9
HETATM    9  S   UNL     1     -27.388  -6.062 -16.377  1.00  0.00     0.095 S 
HETATM   10  O   UNL     1     -28.079  -5.168 -15.480  1.00  0.00    -0.601 OA
HETATM   11  O   UNL     1     -27.337  -5.851 -17.808  1.00  0.00    -0.601 OA
BRANCH   9  12
HETATM   12  O   UNL     1     -28.018  -7.520 -16.105  1.00  0.00    -0.296 OA
HETATM   13  H   UNL     1     -28.926  -7.399 -15.755  1.00  0.00     0.232 HD
ENDBRANCH   9  12
ENDBRANCH   8   9
ENDBRANCH   7   8
ENDBRANCH   3   7
BRANCH   6  14
HETATM   14  C   UNL     1     -22.532  -2.628 -12.109  1.00  0.00     0.298 C 
BRANCH  14  15
HETATM   15  C   UNL     1     -21.303  -3.216 -11.392  1.00  0.00     0.194 C 
BRANCH  15  16
HETATM   16  O   UNL     1     -21.696  -4.100 -10.349  1.00  0.00    -0.399 OA
HETATM   17  H   UNL     1     -22.530  -3.734  -9.995  1.00  0.00     0.209 HD
ENDBRANCH  15  16
ENDBRANCH  14  15
ENDBRANCH   6  14
TORSDOF 7
BEGIN_RES ARG D 557
REMARK  4 active torsions:
REMARK  status: ('A' for Active; 'I' for Inactive)
REMARK    1  A    between atoms: CA   and  CB  
REMARK    2  A    between atoms: CB   and  CG  
REMARK    3  A    between atoms: CG   and  CD  
REMARK    4  A    between atoms: CD   and  NE  
REMARK       I    between atoms: NE   and  CZ  
REMARK       I    between atoms: CZ   and  NH1 
REMARK       I    between atoms: CZ   and  NH2 
ROOT
ATOM      1  CA  ARG D 557     -26.217   2.705 -17.014  1.00 35.49     0.159 C 
ENDROOT
BRANCH   1   2
ATOM      2  CB  ARG D 557     -26.789   1.319 -17.183  1.00 35.49     0.034 C 
BRANCH   2   3
ATOM      3  CG  ARG D 557     -28.236   1.225 -17.412  1.00 35.49     0.027 C 
BRANCH   3   4
ATOM      4  CD  ARG D 557     -28.894   0.277 -16.484  1.00 35.49     0.116 C 
BRANCH   4   5
ATOM      5  NE  ARG D 557     -29.256  -0.955 -17.134  1.00 35.49    -0.212 N 
ATOM      6  CZ  ARG D 557     -28.618  -2.099 -17.022  1.00 35.49     0.666 C 
ATOM      7  NH1 ARG D 557     -27.531  -2.236 -16.286  1.00 35.49    -0.235 N 
ATOM      8  NH2 ARG D 557     -29.100  -3.121 -17.667  1.00 35.49    -0.235 N 
ATOM      9  HH  ARG D 557     -27.197  -1.577 -15.851  1.00 35.49     0.174 HD
ATOM     10  HH  ARG D 557     -27.158  -3.006 -16.249  1.00 35.49     0.174 HD
ATOM     11  HH  ARG D 557     -29.808  -3.005 -18.129  1.00 35.49     0.174 HD
ATOM     12  HH  ARG D 557     -28.718  -3.876 -17.617  1.00 35.49     0.174 HD
ATOM     13  HE  ARG D 557     -29.902  -0.941 -17.686  1.00 35.49     0.178 HD
ENDBRANCH   4   5
ENDBRANCH   3   4
ENDBRANCH   2   3
ENDBRANCH   1   2
END_RES ARG D 557
BEGIN_RES GLU D 570
REMARK  3 active torsions:
REMARK  status: ('A' for Active; 'I' for Inactive)
REMARK    5  A    between atoms: CA   and  CB  
REMARK    6  A    between atoms: CB   and  CG  
REMARK    7  A    between atoms: CG   and  CD  
ROOT
ATOM     14  CA  GLU D 570     -18.033  -6.348 -13.375  1.00 32.92     0.160 C 
ENDROOT
BRANCH  14  15
ATOM     15  CB  GLU D 570     -19.500  -6.345 -13.794  1.00 32.92     0.043 C 
BRANCH  15  16
ATOM     16  CG  GLU D 570     -20.092  -7.638 -14.224  1.00 32.92     0.100 C 
BRANCH  16  17
ATOM     17  CD  GLU D 570     -20.661  -7.590 -15.623  1.00 32.92     0.185 C 
ATOM     18  OE1 GLU D 570     -20.707  -6.498 -16.220  1.00 32.92    -0.647 OA
ATOM     19  OE2 GLU D 570     -21.081  -8.654 -16.120  1.00 32.92    -0.647 OA
ENDBRANCH  16  17
ENDBRANCH  15  16
ENDBRANCH  14  15
END_RES GLU D 570
ENDMDL
MODEL 9
REMARK VINA RESULT:      -5.0      2.697      3.708
REMARK  7 active torsions:
REMARK  status: ('A' for Active; 'I' for Inactive)
REMARK    1  A    between atoms: N_3  and  C_10 
REMARK    2  A    between atoms: N_6  and  C_7 
REMARK    3  A    between atoms: C_7  and  C_8 
REMARK    4  A    between atoms: C_8  and  O_9 
REMARK    5  A    between atoms: C_10  and  C_11 
REMARK    6  A    between atoms: C_11  and  S_12 
REMARK    7  A    between atoms: S_12  and  O_15 
ROOT
HETATM    1  C   UNL     1     -20.014  -6.186  -6.822  1.00  0.00     0.302 C 
HETATM    2  C   UNL     1     -19.339  -4.841  -7.219  1.00  0.00     0.302 C 
HETATM    3  N   UNL     1     -20.237  -3.881  -7.909  1.00  0.00     0.092 N 
HETATM    4  C   UNL     1     -21.471  -3.745  -7.104  1.00  0.00     0.302 C 
HETATM    5  C   UNL     1     -22.152  -5.089  -6.754  1.00  0.00     0.302 C 
HETATM    6  N   UNL     1     -21.273  -6.044  -6.045  1.00  0.00     0.093 N 
ENDROOT
BRANCH   3   7
HETATM    7  C   UNL     1     -20.495  -4.321  -9.299  1.00  0.00     0.289 C 
BRANCH   7   8
HETATM    8  C   UNL     1     -21.828  -3.821  -9.842  1.00  0.00     0.185 C 
BRANCH   8   9
HETATM    9  S   UNL     1     -21.748  -3.639 -11.609  1.00  0.00     0.095 S 
HETATM   10  O   UNL     1     -22.223  -4.838 -12.254  1.00  0.00    -0.601 OA
HETATM   11  O   UNL     1     -22.205  -2.317 -11.979  1.00  0.00    -0.601 OA
BRANCH   9  12
HETATM   12  O   UNL     1     -20.143  -3.676 -11.754  1.00  0.00    -0.296 OA
HETATM   13  H   UNL     1     -19.806  -2.762 -11.647  1.00  0.00     0.232 HD
ENDBRANCH   9  12
ENDBRANCH   8   9
ENDBRANCH   7   8
ENDBRANCH   3   7
BRANCH   6  14
HETATM   14  C   UNL     1     -20.968  -5.627  -4.657  1.00  0.00     0.298 C 
BRANCH  14  15
HETATM   15  C   UNL     1     -21.489  -6.597  -3.582  1.00  0.00     0.194 C 
BRANCH  15  16
HETATM   16  O   UNL     1     -22.383  -5.939  -2.692  1.00  0.00    -0.399 OA
HETATM   17  H   UNL     1     -22.288  -4.986  -2.883  1.00  0.00     0.209 HD
ENDBRANCH  15  16
ENDBRANCH  14  15
ENDBRANCH   6  14
TORSDOF 7
BEGIN_RES ARG D 557
REMARK  4 active torsions:
REMARK  status: ('A' for Active; 'I' for Inactive)
REMARK    1  A    between atoms: CA   and  CB  
REMARK    2  A    between atoms: CB   and  CG  
REMARK    3  A    between atoms: CG   and  CD  
REMARK    4  A    between atoms: CD   and  NE  
REMARK       I    between atoms: NE   and  CZ  
REMARK       I    between atoms: CZ   and  NH1 
REMARK       I    between atoms: CZ   and  NH2 
ROOT
ATOM      1  CA  ARG D 557     -26.217   2.705 -17.014  1.00 35.49     0.159 C 
ENDROOT
BRANCH   1   2
ATOM      2  CB  ARG D 557     -26.789   1.319 -17.183  1.00 35.49     0.034 C 
BRANCH   2   3
ATOM      3  CG  ARG D 557     -28.215   1.151 -16.877  1.00 35.49     0.027 C 
BRANCH   3   4
ATOM      4  CD  ARG D 557     -28.596  -0.272 -16.729  1.00 35.49     0.116 C 
BRANCH   4   5
ATOM      5  NE  ARG D 557     -27.594  -1.032 -16.029  1.00 35.49    -0.212 N 
ATOM      6  CZ  ARG D 557     -27.424  -2.333 -16.107  1.00 35.49     0.666 C 
ATOM      7  NH1 ARG D 557     -28.192  -3.106 -16.851  1.00 35.49    -0.235 N 
ATOM      8  NH2 ARG D 557     -26.449  -2.853 -15.418  1.00 35.49    -0.235 N 
ATOM      9  HH  ARG D 557     -28.838  -2.785 -17.314  1.00 35.49     0.174 HD
ATOM     10  HH  ARG D 557     -28.032  -3.948 -16.865  1.00 35.49     0.174 HD
ATOM     11  HH  ARG D 557     -25.964  -2.329 -14.952  1.00 35.49     0.174 HD
ATOM     12  HH  ARG D 557     -26.306  -3.688 -15.446  1.00 35.49     0.174 HD
ATOM     13  HE  ARG D 557     -27.101  -0.624 -15.470  1.00 35.49     0.178 HD
ENDBRANCH   4   5
ENDBRANCH   3   4
ENDBRANCH   2   3
ENDBRANCH   1   2
END_RES ARG D 557
BEGIN_RES GLU D 570
REMARK  3 active torsions:
REMARK  status: ('A' for Active; 'I' for Inactive)
REMARK    5  A    between atoms: CA   and  CB  
REMARK    6  A    between atoms: CB   and  CG  
REMARK    7  A    between atoms: CG   and  CD  
ROOT
ATOM     14  CA  GLU D 570     -18.033  -6.348 -13.375  1.00 32.92     0.160 C 
ENDROOT
BRANCH  14  15
ATOM     15  CB  GLU D 570     -19.500  -6.345 -13.794  1.00 32.92     0.043 C 
BRANCH  15  16
ATOM     16  CG  GLU D 570     -20.088  -7.635 -14.238  1.00 32.92     0.100 C 
BRANCH  16  17
ATOM     17  CD  GLU D 570     -20.655  -7.574 -15.637  1.00 32.92     0.185 C 
ATOM     18  OE1 GLU D 570     -21.132  -8.608 -16.142  1.00 32.92    -0.647 OA
ATOM     19  OE2 GLU D 570     -20.607  -6.484 -16.240  1.00 32.92    -0.647 OA
ENDBRANCH  16  17
ENDBRANCH  15  16
ENDBRANCH  14  15
END_RES GLU D 570
ENDMDL
