MODEL 1
REMARK VINA RESULT:      -6.0      0.000      0.000
REMARK  10 active torsions:
REMARK  status: ('A' for Active; 'I' for Inactive)
REMARK    1  A    between atoms: C_2  and  C_3 
REMARK    2  A    between atoms: C_3  and  C_4 
REMARK    3  A    between atoms: C_4  and  C_5 
REMARK    4  A    between atoms: C_5  and  C_6 
REMARK    5  A    between atoms: C_6  and  C_7 
REMARK    6  A    between atoms: C_7  and  C_8 
REMARK    7  A    between atoms: C_8  and  C_9 
REMARK    8  A    between atoms: C_9  and  C_10 
REMARK    9  A    between atoms: C_10  and  C_11 
REMARK   10  A    between atoms: C_11  and  O_13 
ROOT
HETATM    1  C   UNL     1     -21.570  -3.732  -7.619  1.00  0.00     0.000 C 
ENDROOT
BRANCH   1   2
HETATM    2  C   UNL     1     -20.797  -4.413  -6.493  1.00  0.00     0.000 C 
BRANCH   2   3
HETATM    3  C   UNL     1     -20.479  -5.862  -6.853  1.00  0.00     0.000 C 
BRANCH   3   4
HETATM    4  C   UNL     1     -20.810  -6.797  -5.692  1.00  0.00     0.000 C 
BRANCH   4   5
HETATM    5  C   UNL     1     -21.187  -6.004  -4.444  1.00  0.00    -0.000 C 
BRANCH   5   6
HETATM    6  C   UNL     1     -21.673  -6.927  -3.330  1.00  0.00    -0.005 C 
HETATM    7  C   UNL     1     -22.054  -6.133  -2.092  1.00  0.00     0.005 C 
ENDBRANCH   5   6
ENDBRANCH   4   5
ENDBRANCH   3   4
ENDBRANCH   2   3
ENDBRANCH   1   2
BRANCH   1   8
HETATM    8  C   UNL     1     -21.034  -4.145  -8.989  1.00  0.00     0.001 C 
BRANCH   8   9
HETATM    9  C   UNL     1     -22.068  -3.856 -10.075  1.00  0.00     0.010 C 
BRANCH   9  10
HETATM   10  C   UNL     1     -23.438  -4.427  -9.726  1.00  0.00     0.110 C 
BRANCH  10  11
HETATM   11  C   UNL     1     -24.542  -3.457 -10.078  1.00  0.00     0.139 C 
HETATM   12  O   UNL     1     -24.967  -3.247 -11.203  1.00  0.00    -0.650 OA
BRANCH  11  13
HETATM   13  O   UNL     1     -25.033  -2.819  -8.991  1.00  0.00    -0.776 OA
HETATM   14  H   UNL     1     -24.507  -2.045  -8.720  1.00  0.00     0.167 HD
ENDBRANCH  11  13
ENDBRANCH  10  11
ENDBRANCH   9  10
ENDBRANCH   8   9
ENDBRANCH   1   8
TORSDOF 10
BEGIN_RES ARG D 557
REMARK  4 active torsions:
REMARK  status: ('A' for Active; 'I' for Inactive)
REMARK    1  A    between atoms: CA   and  CB  
REMARK    2  A    between atoms: CB   and  CG  
REMARK    3  A    between atoms: CG   and  CD  
REMARK    4  A    between atoms: CD   and  NE  
REMARK       I    between atoms: NE   and  CZ  
REMARK       I    between atoms: CZ   and  NH1 
REMARK       I    between atoms: CZ   and  NH2 
ROOT
ATOM      1  CA  ARG D 557     -26.217   2.705 -17.014  1.00 35.49     0.159 C 
ENDROOT
BRANCH   1   2
ATOM      2  CB  ARG D 557     -26.789   1.319 -17.183  1.00 35.49     0.034 C 
BRANCH   2   3
ATOM      3  CG  ARG D 557     -25.835   0.204 -17.165  1.00 35.49     0.027 C 
BRANCH   3   4
ATOM      4  CD  ARG D 557     -24.719   0.430 -16.218  1.00 35.49     0.116 C 
BRANCH   4   5
ATOM      5  NE  ARG D 557     -24.826  -0.399 -15.046  1.00 35.49    -0.212 N 
ATOM      6  CZ  ARG D 557     -24.000  -1.364 -14.711  1.00 35.49     0.666 C 
ATOM      7  NH1 ARG D 557     -22.956  -1.694 -15.450  1.00 35.49    -0.235 N 
ATOM      8  NH2 ARG D 557     -24.238  -2.000 -13.601  1.00 35.49    -0.235 N 
ATOM      9  HH  ARG D 557     -22.779  -1.287 -16.184  1.00 35.49     0.174 HD
ATOM     10  HH  ARG D 557     -22.451  -2.330 -15.180  1.00 35.49     0.174 HD
ATOM     11  HH  ARG D 557     -24.915  -1.761 -13.140  1.00 35.49     0.174 HD
ATOM     12  HH  ARG D 557     -23.725  -2.626 -13.349  1.00 35.49     0.174 HD
ATOM     13  HE  ARG D 557     -25.510  -0.304 -14.550  1.00 35.49     0.178 HD
ENDBRANCH   4   5
ENDBRANCH   3   4
ENDBRANCH   2   3
ENDBRANCH   1   2
END_RES ARG D 557
BEGIN_RES GLU D 570
REMARK  3 active torsions:
REMARK  status: ('A' for Active; 'I' for Inactive)
REMARK    5  A    between atoms: CA   and  CB  
REMARK    6  A    between atoms: CB   and  CG  
REMARK    7  A    between atoms: CG   and  CD  
ROOT
ATOM     14  CA  GLU D 570     -18.033  -6.348 -13.375  1.00 32.92     0.160 C 
ENDROOT
BRANCH  14  15
ATOM     15  CB  GLU D 570     -19.500  -6.345 -13.794  1.00 32.92     0.043 C 
BRANCH  15  16
ATOM     16  CG  GLU D 570     -20.439  -5.517 -12.994  1.00 32.92     0.100 C 
BRANCH  16  17
ATOM     17  CD  GLU D 570     -21.742  -5.246 -13.709  1.00 32.92     0.185 C 
ATOM     18  OE1 GLU D 570     -22.300  -4.143 -13.553  1.00 32.92    -0.647 OA
ATOM     19  OE2 GLU D 570     -22.218  -6.153 -14.419  1.00 32.92    -0.647 OA
ENDBRANCH  16  17
ENDBRANCH  15  16
ENDBRANCH  14  15
END_RES GLU D 570
ENDMDL
MODEL 2
REMARK VINA RESULT:      -5.6      2.716      3.881
REMARK  10 active torsions:
REMARK  status: ('A' for Active; 'I' for Inactive)
REMARK    1  A    between atoms: C_2  and  C_3 
REMARK    2  A    between atoms: C_3  and  C_4 
REMARK    3  A    between atoms: C_4  and  C_5 
REMARK    4  A    between atoms: C_5  and  C_6 
REMARK    5  A    between atoms: C_6  and  C_7 
REMARK    6  A    between atoms: C_7  and  C_8 
REMARK    7  A    between atoms: C_8  and  C_9 
REMARK    8  A    between atoms: C_9  and  C_10 
REMARK    9  A    between atoms: C_10  and  C_11 
REMARK   10  A    between atoms: C_11  and  O_13 
ROOT
HETATM    1  C   UNL     1     -22.182  -3.583 -10.702  1.00  0.00     0.000 C 
ENDROOT
BRANCH   1   2
HETATM    2  C   UNL     1     -20.796  -4.217 -10.774  1.00  0.00     0.000 C 
BRANCH   2   3
HETATM    3  C   UNL     1     -20.295  -4.586  -9.379  1.00  0.00     0.000 C 
BRANCH   3   4
HETATM    4  C   UNL     1     -21.431  -4.540  -8.361  1.00  0.00     0.000 C 
BRANCH   4   5
HETATM    5  C   UNL     1     -20.997  -3.811  -7.093  1.00  0.00    -0.000 C 
BRANCH   5   6
HETATM    6  C   UNL     1     -20.010  -4.651  -6.285  1.00  0.00    -0.005 C 
HETATM    7  C   UNL     1     -20.726  -5.447  -5.207  1.00  0.00     0.005 C 
ENDBRANCH   5   6
ENDBRANCH   4   5
ENDBRANCH   3   4
ENDBRANCH   2   3
ENDBRANCH   1   2
BRANCH   1   8
HETATM    8  C   UNL     1     -23.214  -4.417 -11.458  1.00  0.00     0.001 C 
BRANCH   8   9
HETATM    9  C   UNL     1     -24.104  -3.516 -12.312  1.00  0.00     0.010 C 
BRANCH   9  10
HETATM   10  C   UNL     1     -23.297  -2.463 -13.064  1.00  0.00     0.110 C 
BRANCH  10  11
HETATM   11  C   UNL     1     -23.707  -2.394 -14.517  1.00  0.00     0.139 C 
HETATM   12  O   UNL     1     -24.845  -2.223 -14.924  1.00  0.00    -0.650 OA
BRANCH  11  13
HETATM   13  O   UNL     1     -22.656  -2.544 -15.356  1.00  0.00    -0.776 OA
HETATM   14  H   UNL     1     -21.827  -2.160 -15.018  1.00  0.00     0.167 HD
ENDBRANCH  11  13
ENDBRANCH  10  11
ENDBRANCH   9  10
ENDBRANCH   8   9
ENDBRANCH   1   8
TORSDOF 10
BEGIN_RES ARG D 557
REMARK  4 active torsions:
REMARK  status: ('A' for Active; 'I' for Inactive)
REMARK    1  A    between atoms: CA   and  CB  
REMARK    2  A    between atoms: CB   and  CG  
REMARK    3  A    between atoms: CG   and  CD  
REMARK    4  A    between atoms: CD   and  NE  
REMARK       I    between atoms: NE   and  CZ  
REMARK       I    between atoms: CZ   and  NH1 
REMARK       I    between atoms: CZ   and  NH2 
ROOT
ATOM      1  CA  ARG D 557     -26.217   2.705 -17.014  1.00 35.49     0.159 C 
ENDROOT
BRANCH   1   2
ATOM      2  CB  ARG D 557     -26.789   1.319 -17.183  1.00 35.49     0.034 C 
BRANCH   2   3
ATOM      3  CG  ARG D 557     -28.188   1.128 -16.781  1.00 35.49     0.027 C 
BRANCH   3   4
ATOM      4  CD  ARG D 557     -28.701  -0.212 -17.145  1.00 35.49     0.116 C 
BRANCH   4   5
ATOM      5  NE  ARG D 557     -27.939  -1.269 -16.534  1.00 35.49    -0.212 N 
ATOM      6  CZ  ARG D 557     -28.132  -2.557 -16.711  1.00 35.49     0.666 C 
ATOM      7  NH1 ARG D 557     -29.090  -3.030 -17.486  1.00 35.49    -0.235 N 
ATOM      8  NH2 ARG D 557     -27.330  -3.375 -16.093  1.00 35.49    -0.235 N 
ATOM      9  HH  ARG D 557     -29.628  -2.511 -17.904  1.00 35.49     0.174 HD
ATOM     10  HH  ARG D 557     -29.166  -3.880 -17.566  1.00 35.49     0.174 HD
ATOM     11  HH  ARG D 557     -26.715  -3.040 -15.605  1.00 35.49     0.174 HD
ATOM     12  HH  ARG D 557     -27.421  -4.213 -16.186  1.00 35.49     0.174 HD
ATOM     13  HE  ARG D 557     -27.347  -1.055 -15.962  1.00 35.49     0.178 HD
ENDBRANCH   4   5
ENDBRANCH   3   4
ENDBRANCH   2   3
ENDBRANCH   1   2
END_RES ARG D 557
BEGIN_RES GLU D 570
REMARK  3 active torsions:
REMARK  status: ('A' for Active; 'I' for Inactive)
REMARK    5  A    between atoms: CA   and  CB  
REMARK    6  A    between atoms: CB   and  CG  
REMARK    7  A    between atoms: CG   and  CD  
ROOT
ATOM     14  CA  GLU D 570     -18.033  -6.348 -13.375  1.00 32.92     0.160 C 
ENDROOT
BRANCH  14  15
ATOM     15  CB  GLU D 570     -19.500  -6.345 -13.794  1.00 32.92     0.043 C 
BRANCH  15  16
ATOM     16  CG  GLU D 570     -19.798  -6.182 -15.240  1.00 32.92     0.100 C 
BRANCH  16  17
ATOM     17  CD  GLU D 570     -21.128  -5.512 -15.496  1.00 32.92     0.185 C 
ATOM     18  OE1 GLU D 570     -21.948  -5.419 -14.562  1.00 32.92    -0.647 OA
ATOM     19  OE2 GLU D 570     -21.359  -5.091 -16.647  1.00 32.92    -0.647 OA
ENDBRANCH  16  17
ENDBRANCH  15  16
ENDBRANCH  14  15
END_RES GLU D 570
ENDMDL
MODEL 3
REMARK VINA RESULT:      -5.5      3.268      4.465
REMARK  10 active torsions:
REMARK  status: ('A' for Active; 'I' for Inactive)
REMARK    1  A    between atoms: C_2  and  C_3 
REMARK    2  A    between atoms: C_3  and  C_4 
REMARK    3  A    between atoms: C_4  and  C_5 
REMARK    4  A    between atoms: C_5  and  C_6 
REMARK    5  A    between atoms: C_6  and  C_7 
REMARK    6  A    between atoms: C_7  and  C_8 
REMARK    7  A    between atoms: C_8  and  C_9 
REMARK    8  A    between atoms: C_9  and  C_10 
REMARK    9  A    between atoms: C_10  and  C_11 
REMARK   10  A    between atoms: C_11  and  O_13 
ROOT
HETATM    1  C   UNL     1     -20.733  -4.377 -10.859  1.00  0.00     0.000 C 
ENDROOT
BRANCH   1   2
HETATM    2  C   UNL     1     -19.965  -4.347  -9.541  1.00  0.00     0.000 C 
BRANCH   2   3
HETATM    3  C   UNL     1     -20.802  -4.942  -8.411  1.00  0.00     0.000 C 
BRANCH   3   4
HETATM    4  C   UNL     1     -21.668  -3.871  -7.752  1.00  0.00     0.000 C 
BRANCH   4   5
HETATM    5  C   UNL     1     -23.138  -4.281  -7.757  1.00  0.00    -0.000 C 
BRANCH   5   6
HETATM    6  C   UNL     1     -23.867  -3.704  -8.968  1.00  0.00    -0.005 C 
HETATM    7  C   UNL     1     -24.332  -4.808  -9.902  1.00  0.00     0.005 C 
ENDBRANCH   5   6
ENDBRANCH   4   5
ENDBRANCH   3   4
ENDBRANCH   2   3
ENDBRANCH   1   2
BRANCH   1   8
HETATM    8  C   UNL     1     -20.939  -2.968 -11.413  1.00  0.00     0.001 C 
BRANCH   8   9
HETATM    9  C   UNL     1     -22.289  -2.867 -12.122  1.00  0.00     0.010 C 
BRANCH   9  10
HETATM   10  C   UNL     1     -22.459  -3.947 -13.184  1.00  0.00     0.110 C 
BRANCH  10  11
HETATM   11  C   UNL     1     -22.889  -3.354 -14.505  1.00  0.00     0.139 C 
HETATM   12  O   UNL     1     -23.910  -2.711 -14.693  1.00  0.00    -0.650 OA
BRANCH  11  13
HETATM   13  O   UNL     1     -22.007  -3.612 -15.498  1.00  0.00    -0.776 OA
HETATM   14  H   UNL     1     -21.120  -3.240 -15.340  1.00  0.00     0.167 HD
ENDBRANCH  11  13
ENDBRANCH  10  11
ENDBRANCH   9  10
ENDBRANCH   8   9
ENDBRANCH   1   8
TORSDOF 10
BEGIN_RES ARG D 557
REMARK  4 active torsions:
REMARK  status: ('A' for Active; 'I' for Inactive)
REMARK    1  A    between atoms: CA   and  CB  
REMARK    2  A    between atoms: CB   and  CG  
REMARK    3  A    between atoms: CG   and  CD  
REMARK    4  A    between atoms: CD   and  NE  
REMARK       I    between atoms: NE   and  CZ  
REMARK       I    between atoms: CZ   and  NH1 
REMARK       I    between atoms: CZ   and  NH2 
ROOT
ATOM      1  CA  ARG D 557     -26.217   2.705 -17.014  1.00 35.49     0.159 C 
ENDROOT
BRANCH   1   2
ATOM      2  CB  ARG D 557     -26.789   1.319 -17.183  1.00 35.49     0.034 C 
BRANCH   2   3
ATOM      3  CG  ARG D 557     -28.232   1.226 -17.437  1.00 35.49     0.027 C 
BRANCH   3   4
ATOM      4  CD  ARG D 557     -28.913   0.309 -16.494  1.00 35.49     0.116 C 
BRANCH   4   5
ATOM      5  NE  ARG D 557     -29.295  -0.928 -17.122  1.00 35.49    -0.212 N 
ATOM      6  CZ  ARG D 557     -28.653  -2.070 -17.023  1.00 35.49     0.666 C 
ATOM      7  NH1 ARG D 557     -27.541  -2.200 -16.323  1.00 35.49    -0.235 N 
ATOM      8  NH2 ARG D 557     -29.156  -3.098 -17.643  1.00 35.49    -0.235 N 
ATOM      9  HH  ARG D 557     -27.193  -1.538 -15.905  1.00 35.49     0.174 HD
ATOM     10  HH  ARG D 557     -27.167  -2.971 -16.292  1.00 35.49     0.174 HD
ATOM     11  HH  ARG D 557     -29.879  -2.986 -18.082  1.00 35.49     0.174 HD
ATOM     12  HH  ARG D 557     -28.772  -3.852 -17.600  1.00 35.49     0.174 HD
ATOM     13  HE  ARG D 557     -29.960  -0.918 -17.651  1.00 35.49     0.178 HD
ENDBRANCH   4   5
ENDBRANCH   3   4
ENDBRANCH   2   3
ENDBRANCH   1   2
END_RES ARG D 557
BEGIN_RES GLU D 570
REMARK  3 active torsions:
REMARK  status: ('A' for Active; 'I' for Inactive)
REMARK    5  A    between atoms: CA   and  CB  
REMARK    6  A    between atoms: CB   and  CG  
REMARK    7  A    between atoms: CG   and  CD  
ROOT
ATOM     14  CA  GLU D 570     -18.033  -6.348 -13.375  1.00 32.92     0.160 C 
ENDROOT
BRANCH  14  15
ATOM     15  CB  GLU D 570     -19.500  -6.345 -13.794  1.00 32.92     0.043 C 
BRANCH  15  16
ATOM     16  CG  GLU D 570     -19.887  -7.213 -14.936  1.00 32.92     0.100 C 
BRANCH  16  17
ATOM     17  CD  GLU D 570     -20.845  -6.538 -15.891  1.00 32.92     0.185 C 
ATOM     18  OE1 GLU D 570     -20.387  -5.819 -16.800  1.00 32.92    -0.647 OA
ATOM     19  OE2 GLU D 570     -22.066  -6.716 -15.718  1.00 32.92    -0.647 OA
ENDBRANCH  16  17
ENDBRANCH  15  16
ENDBRANCH  14  15
END_RES GLU D 570
ENDMDL
MODEL 4
REMARK VINA RESULT:      -5.4      2.240      2.662
REMARK  10 active torsions:
REMARK  status: ('A' for Active; 'I' for Inactive)
REMARK    1  A    between atoms: C_2  and  C_3 
REMARK    2  A    between atoms: C_3  and  C_4 
REMARK    3  A    between atoms: C_4  and  C_5 
REMARK    4  A    between atoms: C_5  and  C_6 
REMARK    5  A    between atoms: C_6  and  C_7 
REMARK    6  A    between atoms: C_7  and  C_8 
REMARK    7  A    between atoms: C_8  and  C_9 
REMARK    8  A    between atoms: C_9  and  C_10 
REMARK    9  A    between atoms: C_10  and  C_11 
REMARK   10  A    between atoms: C_11  and  O_13 
ROOT
HETATM    1  C   UNL     1     -21.664  -4.820  -7.626  1.00  0.00     0.000 C 
ENDROOT
BRANCH   1   2
HETATM    2  C   UNL     1     -20.592  -5.540  -6.813  1.00  0.00     0.000 C 
BRANCH   2   3
HETATM    3  C   UNL     1     -21.227  -6.461  -5.773  1.00  0.00     0.000 C 
BRANCH   3   4
HETATM    4  C   UNL     1     -21.105  -5.869  -4.372  1.00  0.00     0.000 C 
BRANCH   4   5
HETATM    5  C   UNL     1     -21.676  -6.822  -3.326  1.00  0.00    -0.000 C 
BRANCH   5   6
HETATM    6  C   UNL     1     -22.087  -6.071  -2.062  1.00  0.00    -0.005 C 
HETATM    7  C   UNL     1     -22.320  -7.032  -0.909  1.00  0.00     0.005 C 
ENDBRANCH   5   6
ENDBRANCH   4   5
ENDBRANCH   3   4
ENDBRANCH   2   3
ENDBRANCH   1   2
BRANCH   1   8
HETATM    8  C   UNL     1     -21.169  -4.496  -9.034  1.00  0.00     0.001 C 
BRANCH   8   9
HETATM    9  C   UNL     1     -22.348  -4.347  -9.993  1.00  0.00     0.010 C 
BRANCH   9  10
HETATM   10  C   UNL     1     -23.635  -3.979  -9.262  1.00  0.00     0.110 C 
BRANCH  10  11
HETATM   11  C   UNL     1     -24.635  -3.343 -10.200  1.00  0.00     0.139 C 
HETATM   12  O   UNL     1     -24.383  -2.906 -11.312  1.00  0.00    -0.650 OA
BRANCH  11  13
HETATM   13  O   UNL     1     -25.880  -3.301  -9.673  1.00  0.00    -0.776 OA
HETATM   14  H   UNL     1     -26.145  -2.416  -9.364  1.00  0.00     0.167 HD
ENDBRANCH  11  13
ENDBRANCH  10  11
ENDBRANCH   9  10
ENDBRANCH   8   9
ENDBRANCH   1   8
TORSDOF 10
BEGIN_RES ARG D 557
REMARK  4 active torsions:
REMARK  status: ('A' for Active; 'I' for Inactive)
REMARK    1  A    between atoms: CA   and  CB  
REMARK    2  A    between atoms: CB   and  CG  
REMARK    3  A    between atoms: CG   and  CD  
REMARK    4  A    between atoms: CD   and  NE  
REMARK       I    between atoms: NE   and  CZ  
REMARK       I    between atoms: CZ   and  NH1 
REMARK       I    between atoms: CZ   and  NH2 
ROOT
ATOM      1  CA  ARG D 557     -26.217   2.705 -17.014  1.00 35.49     0.159 C 
ENDROOT
BRANCH   1   2
ATOM      2  CB  ARG D 557     -26.789   1.319 -17.183  1.00 35.49     0.034 C 
BRANCH   2   3
ATOM      3  CG  ARG D 557     -28.159   1.106 -16.701  1.00 35.49     0.027 C 
BRANCH   3   4
ATOM      4  CD  ARG D 557     -28.790  -0.090 -17.303  1.00 35.49     0.116 C 
BRANCH   4   5
ATOM      5  NE  ARG D 557     -28.171  -1.311 -16.859  1.00 35.49    -0.212 N 
ATOM      6  CZ  ARG D 557     -28.651  -2.523 -17.032  1.00 35.49     0.666 C 
ATOM      7  NH1 ARG D 557     -29.800  -2.750 -17.641  1.00 35.49    -0.235 N 
ATOM      8  NH2 ARG D 557     -27.944  -3.518 -16.581  1.00 35.49    -0.235 N 
ATOM      9  HH  ARG D 557     -30.280  -2.110 -17.947  1.00 35.49     0.174 HD
ATOM     10  HH  ARG D 557     -30.061  -3.562 -17.727  1.00 35.49     0.174 HD
ATOM     11  HH  ARG D 557     -27.203  -3.342 -16.198  1.00 35.49     0.174 HD
ATOM     12  HH  ARG D 557     -28.219  -4.314 -16.677  1.00 35.49     0.174 HD
ATOM     13  HE  ARG D 557     -27.462  -1.253 -16.393  1.00 35.49     0.178 HD
ENDBRANCH   4   5
ENDBRANCH   3   4
ENDBRANCH   2   3
ENDBRANCH   1   2
END_RES ARG D 557
BEGIN_RES GLU D 570
REMARK  3 active torsions:
REMARK  status: ('A' for Active; 'I' for Inactive)
REMARK    5  A    between atoms: CA   and  CB  
REMARK    6  A    between atoms: CB   and  CG  
REMARK    7  A    between atoms: CG   and  CD  
ROOT
ATOM     14  CA  GLU D 570     -18.033  -6.348 -13.375  1.00 32.92     0.160 C 
ENDROOT
BRANCH  14  15
ATOM     15  CB  GLU D 570     -19.500  -6.345 -13.794  1.00 32.92     0.043 C 
BRANCH  15  16
ATOM     16  CG  GLU D 570     -20.440  -5.522 -12.990  1.00 32.92     0.100 C 
BRANCH  16  17
ATOM     17  CD  GLU D 570     -21.729  -5.218 -13.718  1.00 32.92     0.185 C 
ATOM     18  OE1 GLU D 570     -22.247  -4.093 -13.588  1.00 32.92    -0.647 OA
ATOM     19  OE2 GLU D 570     -22.234  -6.122 -14.413  1.00 32.92    -0.647 OA
ENDBRANCH  16  17
ENDBRANCH  15  16
ENDBRANCH  14  15
END_RES GLU D 570
ENDMDL
MODEL 5
REMARK VINA RESULT:      -5.4      1.838      2.209
REMARK  10 active torsions:
REMARK  status: ('A' for Active; 'I' for Inactive)
REMARK    1  A    between atoms: C_2  and  C_3 
REMARK    2  A    between atoms: C_3  and  C_4 
REMARK    3  A    between atoms: C_4  and  C_5 
REMARK    4  A    between atoms: C_5  and  C_6 
REMARK    5  A    between atoms: C_6  and  C_7 
REMARK    6  A    between atoms: C_7  and  C_8 
REMARK    7  A    between atoms: C_8  and  C_9 
REMARK    8  A    between atoms: C_9  and  C_10 
REMARK    9  A    between atoms: C_10  and  C_11 
REMARK   10  A    between atoms: C_11  and  O_13 
ROOT
HETATM    1  C   UNL     1     -21.522  -3.631  -7.624  1.00  0.00     0.000 C 
ENDROOT
BRANCH   1   2
HETATM    2  C   UNL     1     -20.512  -4.748  -7.380  1.00  0.00     0.000 C 
BRANCH   2   3
HETATM    3  C   UNL     1     -19.961  -4.680  -5.957  1.00  0.00     0.000 C 
BRANCH   3   4
HETATM    4  C   UNL     1     -20.779  -5.558  -5.013  1.00  0.00     0.000 C 
BRANCH   4   5
HETATM    5  C   UNL     1     -21.288  -6.804  -5.733  1.00  0.00    -0.000 C 
BRANCH   5   6
HETATM    6  C   UNL     1     -21.721  -7.877  -4.738  1.00  0.00    -0.005 C 
HETATM    7  C   UNL     1     -21.327  -7.498  -3.321  1.00  0.00     0.005 C 
ENDBRANCH   5   6
ENDBRANCH   4   5
ENDBRANCH   3   4
ENDBRANCH   2   3
ENDBRANCH   1   2
BRANCH   1   8
HETATM    8  C   UNL     1     -22.784  -4.162  -8.303  1.00  0.00     0.001 C 
BRANCH   8   9
HETATM    9  C   UNL     1     -22.484  -4.557  -9.748  1.00  0.00     0.010 C 
BRANCH   9  10
HETATM   10  C   UNL     1     -23.758  -4.742 -10.566  1.00  0.00     0.110 C 
BRANCH  10  11
HETATM   11  C   UNL     1     -24.513  -3.441 -10.704  1.00  0.00     0.139 C 
HETATM   12  O   UNL     1     -25.529  -3.144 -10.095  1.00  0.00    -0.650 OA
BRANCH  11  13
HETATM   13  O   UNL     1     -23.940  -2.605 -11.600  1.00  0.00    -0.776 OA
HETATM   14  H   UNL     1     -23.737  -3.025 -12.454  1.00  0.00     0.167 HD
ENDBRANCH  11  13
ENDBRANCH  10  11
ENDBRANCH   9  10
ENDBRANCH   8   9
ENDBRANCH   1   8
TORSDOF 10
BEGIN_RES ARG D 557
REMARK  4 active torsions:
REMARK  status: ('A' for Active; 'I' for Inactive)
REMARK    1  A    between atoms: CA   and  CB  
REMARK    2  A    between atoms: CB   and  CG  
REMARK    3  A    between atoms: CG   and  CD  
REMARK    4  A    between atoms: CD   and  NE  
REMARK       I    between atoms: NE   and  CZ  
REMARK       I    between atoms: CZ   and  NH1 
REMARK       I    between atoms: CZ   and  NH2 
ROOT
ATOM      1  CA  ARG D 557     -26.217   2.705 -17.014  1.00 35.49     0.159 C 
ENDROOT
BRANCH   1   2
ATOM      2  CB  ARG D 557     -26.789   1.319 -17.183  1.00 35.49     0.034 C 
BRANCH   2   3
ATOM      3  CG  ARG D 557     -28.218   1.154 -16.890  1.00 35.49     0.027 C 
BRANCH   3   4
ATOM      4  CD  ARG D 557     -28.588  -0.263 -16.667  1.00 35.49     0.116 C 
BRANCH   4   5
ATOM      5  NE  ARG D 557     -27.572  -0.981 -15.943  1.00 35.49    -0.212 N 
ATOM      6  CZ  ARG D 557     -27.345  -2.274 -16.018  1.00 35.49     0.666 C 
ATOM      7  NH1 ARG D 557     -28.062  -3.077 -16.782  1.00 35.49    -0.235 N 
ATOM      8  NH2 ARG D 557     -26.366  -2.753 -15.306  1.00 35.49    -0.235 N 
ATOM      9  HH  ARG D 557     -28.709  -2.782 -17.260  1.00 35.49     0.174 HD
ATOM     10  HH  ARG D 557     -27.866  -3.911 -16.792  1.00 35.49     0.174 HD
ATOM     11  HH  ARG D 557     -25.916  -2.209 -14.828  1.00 35.49     0.174 HD
ATOM     12  HH  ARG D 557     -26.187  -3.581 -15.331  1.00 35.49     0.174 HD
ATOM     13  HE  ARG D 557     -27.110  -0.553 -15.372  1.00 35.49     0.178 HD
ENDBRANCH   4   5
ENDBRANCH   3   4
ENDBRANCH   2   3
ENDBRANCH   1   2
END_RES ARG D 557
BEGIN_RES GLU D 570
REMARK  3 active torsions:
REMARK  status: ('A' for Active; 'I' for Inactive)
REMARK    5  A    between atoms: CA   and  CB  
REMARK    6  A    between atoms: CB   and  CG  
REMARK    7  A    between atoms: CG   and  CD  
ROOT
ATOM     14  CA  GLU D 570     -18.033  -6.348 -13.375  1.00 32.92     0.160 C 
ENDROOT
BRANCH  14  15
ATOM     15  CB  GLU D 570     -19.500  -6.345 -13.794  1.00 32.92     0.043 C 
BRANCH  15  16
ATOM     16  CG  GLU D 570     -20.441  -5.528 -12.985  1.00 32.92     0.100 C 
BRANCH  16  17
ATOM     17  CD  GLU D 570     -21.729  -5.220 -13.713  1.00 32.92     0.185 C 
ATOM     18  OE1 GLU D 570     -22.234  -4.087 -13.596  1.00 32.92    -0.647 OA
ATOM     19  OE2 GLU D 570     -22.248  -6.128 -14.393  1.00 32.92    -0.647 OA
ENDBRANCH  16  17
ENDBRANCH  15  16
ENDBRANCH  14  15
END_RES GLU D 570
ENDMDL
MODEL 6
REMARK VINA RESULT:      -5.4      1.393      2.509
REMARK  10 active torsions:
REMARK  status: ('A' for Active; 'I' for Inactive)
REMARK    1  A    between atoms: C_2  and  C_3 
REMARK    2  A    between atoms: C_3  and  C_4 
REMARK    3  A    between atoms: C_4  and  C_5 
REMARK    4  A    between atoms: C_5  and  C_6 
REMARK    5  A    between atoms: C_6  and  C_7 
REMARK    6  A    between atoms: C_7  and  C_8 
REMARK    7  A    between atoms: C_8  and  C_9 
REMARK    8  A    between atoms: C_9  and  C_10 
REMARK    9  A    between atoms: C_10  and  C_11 
REMARK   10  A    between atoms: C_11  and  O_13 
ROOT
HETATM    1  C   UNL     1     -20.463  -6.289  -5.480  1.00  0.00     0.000 C 
ENDROOT
BRANCH   1   2
HETATM    2  C   UNL     1     -21.683  -6.276  -4.564  1.00  0.00     0.000 C 
BRANCH   2   3
HETATM    3  C   UNL     1     -21.307  -6.726  -3.154  1.00  0.00     0.000 C 
BRANCH   3   4
HETATM    4  C   UNL     1     -22.303  -6.191  -2.127  1.00  0.00     0.000 C 
BRANCH   4   5
HETATM    5  C   UNL     1     -22.188  -6.952  -0.810  1.00  0.00    -0.000 C 
BRANCH   5   6
HETATM    6  C   UNL     1     -22.017  -8.449  -1.051  1.00  0.00    -0.005 C 
HETATM    7  C   UNL     1     -22.882  -9.258  -0.099  1.00  0.00     0.005 C 
ENDBRANCH   5   6
ENDBRANCH   4   5
ENDBRANCH   3   4
ENDBRANCH   2   3
ENDBRANCH   1   2
BRANCH   1   8
HETATM    8  C   UNL     1     -20.018  -4.870  -5.832  1.00  0.00     0.001 C 
BRANCH   8   9
HETATM    9  C   UNL     1     -20.401  -4.534  -7.272  1.00  0.00     0.010 C 
BRANCH   9  10
HETATM   10  C   UNL     1     -21.669  -3.691  -7.344  1.00  0.00     0.110 C 
BRANCH  10  11
HETATM   11  C   UNL     1     -22.641  -4.250  -8.357  1.00  0.00     0.139 C 
HETATM   12  O   UNL     1     -22.340  -4.914  -9.336  1.00  0.00    -0.650 OA
BRANCH  11  13
HETATM   13  O   UNL     1     -23.925  -3.933  -8.067  1.00  0.00    -0.776 OA
HETATM   14  H   UNL     1     -24.526  -4.699  -8.068  1.00  0.00     0.167 HD
ENDBRANCH  11  13
ENDBRANCH  10  11
ENDBRANCH   9  10
ENDBRANCH   8   9
ENDBRANCH   1   8
TORSDOF 10
BEGIN_RES ARG D 557
REMARK  4 active torsions:
REMARK  status: ('A' for Active; 'I' for Inactive)
REMARK    1  A    between atoms: CA   and  CB  
REMARK    2  A    between atoms: CB   and  CG  
REMARK    3  A    between atoms: CG   and  CD  
REMARK    4  A    between atoms: CD   and  NE  
REMARK       I    between atoms: NE   and  CZ  
REMARK       I    between atoms: CZ   and  NH1 
REMARK       I    between atoms: CZ   and  NH2 
ROOT
ATOM      1  CA  ARG D 557     -26.217   2.705 -17.014  1.00 35.49     0.159 C 
ENDROOT
BRANCH   1   2
ATOM      2  CB  ARG D 557     -26.789   1.319 -17.183  1.00 35.49     0.034 C 
BRANCH   2   3
ATOM      3  CG  ARG D 557     -25.833   0.205 -17.180  1.00 35.49     0.027 C 
BRANCH   3   4
ATOM      4  CD  ARG D 557     -24.763   0.382 -16.172  1.00 35.49     0.116 C 
BRANCH   4   5
ATOM      5  NE  ARG D 557     -24.943  -0.478 -15.033  1.00 35.49    -0.212 N 
ATOM      6  CZ  ARG D 557     -24.127  -1.437 -14.658  1.00 35.49     0.666 C 
ATOM      7  NH1 ARG D 557     -23.024  -1.730 -15.322  1.00 35.49    -0.235 N 
ATOM      8  NH2 ARG D 557     -24.438  -2.104 -13.584  1.00 35.49    -0.235 N 
ATOM      9  HH  ARG D 557     -22.799  -1.303 -16.030  1.00 35.49     0.174 HD
ATOM     10  HH  ARG D 557     -22.529  -2.365 -15.028  1.00 35.49     0.174 HD
ATOM     11  HH  ARG D 557     -25.152  -1.888 -13.172  1.00 35.49     0.174 HD
ATOM     12  HH  ARG D 557     -23.933  -2.728 -13.309  1.00 35.49     0.174 HD
ATOM     13  HE  ARG D 557     -25.665  -0.407 -14.589  1.00 35.49     0.178 HD
ENDBRANCH   4   5
ENDBRANCH   3   4
ENDBRANCH   2   3
ENDBRANCH   1   2
END_RES ARG D 557
BEGIN_RES GLU D 570
REMARK  3 active torsions:
REMARK  status: ('A' for Active; 'I' for Inactive)
REMARK    5  A    between atoms: CA   and  CB  
REMARK    6  A    between atoms: CB   and  CG  
REMARK    7  A    between atoms: CG   and  CD  
ROOT
ATOM     14  CA  GLU D 570     -18.033  -6.348 -13.375  1.00 32.92     0.160 C 
ENDROOT
BRANCH  14  15
ATOM     15  CB  GLU D 570     -19.500  -6.345 -13.794  1.00 32.92     0.043 C 
BRANCH  15  16
ATOM     16  CG  GLU D 570     -20.450  -5.571 -12.954  1.00 32.92     0.100 C 
BRANCH  16  17
ATOM     17  CD  GLU D 570     -21.598  -4.990 -13.746  1.00 32.92     0.185 C 
ATOM     18  OE1 GLU D 570     -22.302  -4.101 -13.229  1.00 32.92    -0.647 OA
ATOM     19  OE2 GLU D 570     -21.806  -5.440 -14.890  1.00 32.92    -0.647 OA
ENDBRANCH  16  17
ENDBRANCH  15  16
ENDBRANCH  14  15
END_RES GLU D 570
ENDMDL
MODEL 7
REMARK VINA RESULT:      -5.3      2.938      4.858
REMARK  10 active torsions:
REMARK  status: ('A' for Active; 'I' for Inactive)
REMARK    1  A    between atoms: C_2  and  C_3 
REMARK    2  A    between atoms: C_3  and  C_4 
REMARK    3  A    between atoms: C_4  and  C_5 
REMARK    4  A    between atoms: C_5  and  C_6 
REMARK    5  A    between atoms: C_6  and  C_7 
REMARK    6  A    between atoms: C_7  and  C_8 
REMARK    7  A    between atoms: C_8  and  C_9 
REMARK    8  A    between atoms: C_9  and  C_10 
REMARK    9  A    between atoms: C_10  and  C_11 
REMARK   10  A    between atoms: C_11  and  O_13 
ROOT
HETATM    1  C   UNL     1     -20.796  -3.664  -8.401  1.00  0.00     0.000 C 
ENDROOT
BRANCH   1   2
HETATM    2  C   UNL     1     -19.977  -4.792  -9.022  1.00  0.00     0.000 C 
BRANCH   2   3
HETATM    3  C   UNL     1     -20.132  -4.802 -10.541  1.00  0.00     0.000 C 
BRANCH   3   4
HETATM    4  C   UNL     1     -20.705  -3.478 -11.040  1.00  0.00     0.000 C 
BRANCH   4   5
HETATM    5  C   UNL     1     -21.778  -3.713 -12.098  1.00  0.00    -0.000 C 
BRANCH   5   6
HETATM    6  C   UNL     1     -22.651  -2.474 -12.283  1.00  0.00    -0.005 C 
HETATM    7  C   UNL     1     -23.912  -2.806 -13.062  1.00  0.00     0.005 C 
ENDBRANCH   5   6
ENDBRANCH   4   5
ENDBRANCH   3   4
ENDBRANCH   2   3
ENDBRANCH   1   2
BRANCH   1   8
HETATM    8  C   UNL     1     -21.639  -4.170  -7.231  1.00  0.00     0.001 C 
BRANCH   8   9
HETATM    9  C   UNL     1     -23.080  -4.407  -7.677  1.00  0.00     0.010 C 
BRANCH   9  10
HETATM   10  C   UNL     1     -23.512  -3.425  -8.760  1.00  0.00     0.110 C 
BRANCH  10  11
HETATM   11  C   UNL     1     -24.574  -4.024  -9.652  1.00  0.00     0.139 C 
HETATM   12  O   UNL     1     -24.468  -5.070 -10.274  1.00  0.00    -0.650 OA
BRANCH  11  13
HETATM   13  O   UNL     1     -25.695  -3.268  -9.699  1.00  0.00    -0.776 OA
HETATM   14  H   UNL     1     -25.808  -2.788 -10.538  1.00  0.00     0.167 HD
ENDBRANCH  11  13
ENDBRANCH  10  11
ENDBRANCH   9  10
ENDBRANCH   8   9
ENDBRANCH   1   8
TORSDOF 10
BEGIN_RES ARG D 557
REMARK  4 active torsions:
REMARK  status: ('A' for Active; 'I' for Inactive)
REMARK    1  A    between atoms: CA   and  CB  
REMARK    2  A    between atoms: CB   and  CG  
REMARK    3  A    between atoms: CG   and  CD  
REMARK    4  A    between atoms: CD   and  NE  
REMARK       I    between atoms: NE   and  CZ  
REMARK       I    between atoms: CZ   and  NH1 
REMARK       I    between atoms: CZ   and  NH2 
ROOT
ATOM      1  CA  ARG D 557     -26.217   2.705 -17.014  1.00 35.49     0.159 C 
ENDROOT
BRANCH   1   2
ATOM      2  CB  ARG D 557     -26.789   1.319 -17.183  1.00 35.49     0.034 C 
BRANCH   2   3
ATOM      3  CG  ARG D 557     -28.157   1.105 -16.696  1.00 35.49     0.027 C 
BRANCH   3   4
ATOM      4  CD  ARG D 557     -28.792  -0.088 -17.302  1.00 35.49     0.116 C 
BRANCH   4   5
ATOM      5  NE  ARG D 557     -28.175  -1.312 -16.862  1.00 35.49    -0.212 N 
ATOM      6  CZ  ARG D 557     -28.661  -2.521 -17.033  1.00 35.49     0.666 C 
ATOM      7  NH1 ARG D 557     -29.815  -2.743 -17.635  1.00 35.49    -0.235 N 
ATOM      8  NH2 ARG D 557     -27.956  -3.520 -16.588  1.00 35.49    -0.235 N 
ATOM      9  HH  ARG D 557     -30.295  -2.101 -17.937  1.00 35.49     0.174 HD
ATOM     10  HH  ARG D 557     -30.080  -3.554 -17.720  1.00 35.49     0.174 HD
ATOM     11  HH  ARG D 557     -27.211  -3.347 -16.210  1.00 35.49     0.174 HD
ATOM     12  HH  ARG D 557     -28.235  -4.315 -16.683  1.00 35.49     0.174 HD
ATOM     13  HE  ARG D 557     -27.463  -1.257 -16.401  1.00 35.49     0.178 HD
ENDBRANCH   4   5
ENDBRANCH   3   4
ENDBRANCH   2   3
ENDBRANCH   1   2
END_RES ARG D 557
BEGIN_RES GLU D 570
REMARK  3 active torsions:
REMARK  status: ('A' for Active; 'I' for Inactive)
REMARK    5  A    between atoms: CA   and  CB  
REMARK    6  A    between atoms: CB   and  CG  
REMARK    7  A    between atoms: CG   and  CD  
ROOT
ATOM     14  CA  GLU D 570     -18.033  -6.348 -13.375  1.00 32.92     0.160 C 
ENDROOT
BRANCH  14  15
ATOM     15  CB  GLU D 570     -19.500  -6.345 -13.794  1.00 32.92     0.043 C 
BRANCH  15  16
ATOM     16  CG  GLU D 570     -19.809  -5.986 -15.202  1.00 32.92     0.100 C 
BRANCH  16  17
ATOM     17  CD  GLU D 570     -21.281  -5.742 -15.439  1.00 32.92     0.185 C 
ATOM     18  OE1 GLU D 570     -21.690  -4.570 -15.553  1.00 32.92    -0.647 OA
ATOM     19  OE2 GLU D 570     -22.036  -6.732 -15.494  1.00 32.92    -0.647 OA
ENDBRANCH  16  17
ENDBRANCH  15  16
ENDBRANCH  14  15
END_RES GLU D 570
ENDMDL
MODEL 8
REMARK VINA RESULT:      -5.2      4.058      5.790
REMARK  10 active torsions:
REMARK  status: ('A' for Active; 'I' for Inactive)
REMARK    1  A    between atoms: C_2  and  C_3 
REMARK    2  A    between atoms: C_3  and  C_4 
REMARK    3  A    between atoms: C_4  and  C_5 
REMARK    4  A    between atoms: C_5  and  C_6 
REMARK    5  A    between atoms: C_6  and  C_7 
REMARK    6  A    between atoms: C_7  and  C_8 
REMARK    7  A    between atoms: C_8  and  C_9 
REMARK    8  A    between atoms: C_9  and  C_10 
REMARK    9  A    between atoms: C_10  and  C_11 
REMARK   10  A    between atoms: C_11  and  O_13 
ROOT
HETATM    1  C   UNL     1     -22.777  -4.448 -14.170  1.00  0.00     0.000 C 
ENDROOT
BRANCH   1   2
HETATM    2  C   UNL     1     -23.113  -3.388 -13.125  1.00  0.00     0.000 C 
BRANCH   2   3
HETATM    3  C   UNL     1     -23.043  -3.973 -11.716  1.00  0.00     0.000 C 
BRANCH   3   4
HETATM    4  C   UNL     1     -21.976  -3.265 -10.884  1.00  0.00     0.000 C 
BRANCH   4   5
HETATM    5  C   UNL     1     -20.579  -3.743 -11.269  1.00  0.00    -0.000 C 
BRANCH   5   6
HETATM    6  C   UNL     1     -20.049  -4.763 -10.265  1.00  0.00    -0.005 C 
HETATM    7  C   UNL     1     -20.476  -4.409  -8.851  1.00  0.00     0.005 C 
ENDBRANCH   5   6
ENDBRANCH   4   5
ENDBRANCH   3   4
ENDBRANCH   2   3
ENDBRANCH   1   2
BRANCH   1   8
HETATM    8  C   UNL     1     -23.417  -5.792 -13.822  1.00  0.00     0.001 C 
BRANCH   8   9
HETATM    9  C   UNL     1     -24.262  -6.297 -14.990  1.00  0.00     0.010 C 
BRANCH   9  10
HETATM   10  C   UNL     1     -25.428  -5.364 -15.297  1.00  0.00     0.110 C 
BRANCH  10  11
HETATM   11  C   UNL     1     -26.555  -6.102 -15.981  1.00  0.00     0.139 C 
HETATM   12  O   UNL     1     -27.361  -5.606 -16.753  1.00  0.00    -0.650 OA
BRANCH  11  13
HETATM   13  O   UNL     1     -26.591  -7.413 -15.645  1.00  0.00    -0.776 OA
HETATM   14  H   UNL     1     -26.854  -7.998 -16.378  1.00  0.00     0.167 HD
ENDBRANCH  11  13
ENDBRANCH  10  11
ENDBRANCH   9  10
ENDBRANCH   8   9
ENDBRANCH   1   8
TORSDOF 10
BEGIN_RES ARG D 557
REMARK  4 active torsions:
REMARK  status: ('A' for Active; 'I' for Inactive)
REMARK    1  A    between atoms: CA   and  CB  
REMARK    2  A    between atoms: CB   and  CG  
REMARK    3  A    between atoms: CG   and  CD  
REMARK    4  A    between atoms: CD   and  NE  
REMARK       I    between atoms: NE   and  CZ  
REMARK       I    between atoms: CZ   and  NH1 
REMARK       I    between atoms: CZ   and  NH2 
ROOT
ATOM      1  CA  ARG D 557     -26.217   2.705 -17.014  1.00 35.49     0.159 C 
ENDROOT
BRANCH   1   2
ATOM      2  CB  ARG D 557     -26.789   1.319 -17.183  1.00 35.49     0.034 C 
BRANCH   2   3
ATOM      3  CG  ARG D 557     -28.247   1.218 -17.321  1.00 35.49     0.027 C 
BRANCH   3   4
ATOM      4  CD  ARG D 557     -28.831   0.204 -16.414  1.00 35.49     0.116 C 
BRANCH   4   5
ATOM      5  NE  ARG D 557     -29.218  -0.992 -17.115  1.00 35.49    -0.212 N 
ATOM      6  CZ  ARG D 557     -28.620  -2.159 -17.033  1.00 35.49     0.666 C 
ATOM      7  NH1 ARG D 557     -27.553  -2.357 -16.281  1.00 35.49    -0.235 N 
ATOM      8  NH2 ARG D 557     -29.121  -3.141 -17.724  1.00 35.49    -0.235 N 
ATOM      9  HH  ARG D 557     -27.207  -1.726 -15.816  1.00 35.49     0.174 HD
ATOM     10  HH  ARG D 557     -27.206  -3.141 -16.264  1.00 35.49     0.174 HD
ATOM     11  HH  ARG D 557     -29.815  -2.985 -18.195  1.00 35.49     0.174 HD
ATOM     12  HH  ARG D 557     -28.765  -3.910 -17.694  1.00 35.49     0.174 HD
ATOM     13  HE  ARG D 557     -29.853  -0.936 -17.679  1.00 35.49     0.178 HD
ENDBRANCH   4   5
ENDBRANCH   3   4
ENDBRANCH   2   3
ENDBRANCH   1   2
END_RES ARG D 557
BEGIN_RES GLU D 570
REMARK  3 active torsions:
REMARK  status: ('A' for Active; 'I' for Inactive)
REMARK    5  A    between atoms: CA   and  CB  
REMARK    6  A    between atoms: CB   and  CG  
REMARK    7  A    between atoms: CG   and  CD  
ROOT
ATOM     14  CA  GLU D 570     -18.033  -6.348 -13.375  1.00 32.92     0.160 C 
ENDROOT
BRANCH  14  15
ATOM     15  CB  GLU D 570     -19.500  -6.345 -13.794  1.00 32.92     0.043 C 
BRANCH  15  16
ATOM     16  CG  GLU D 570     -19.798  -6.198 -15.242  1.00 32.92     0.100 C 
BRANCH  16  17
ATOM     17  CD  GLU D 570     -20.637  -7.329 -15.789  1.00 32.92     0.185 C 
ATOM     18  OE1 GLU D 570     -21.328  -7.133 -16.807  1.00 32.92    -0.647 OA
ATOM     19  OE2 GLU D 570     -20.615  -8.419 -15.183  1.00 32.92    -0.647 OA
ENDBRANCH  16  17
ENDBRANCH  15  16
ENDBRANCH  14  15
END_RES GLU D 570
ENDMDL
MODEL 9
REMARK VINA RESULT:      -5.2      3.041      5.285
REMARK  10 active torsions:
REMARK  status: ('A' for Active; 'I' for Inactive)
REMARK    1  A    between atoms: C_2  and  C_3 
REMARK    2  A    between atoms: C_3  and  C_4 
REMARK    3  A    between atoms: C_4  and  C_5 
REMARK    4  A    between atoms: C_5  and  C_6 
REMARK    5  A    between atoms: C_6  and  C_7 
REMARK    6  A    between atoms: C_7  and  C_8 
REMARK    7  A    between atoms: C_8  and  C_9 
REMARK    8  A    between atoms: C_9  and  C_10 
REMARK    9  A    between atoms: C_10  and  C_11 
REMARK   10  A    between atoms: C_11  and  O_13 
ROOT
HETATM    1  C   UNL     1     -20.095  -4.700  -8.963  1.00  0.00     0.000 C 
ENDROOT
BRANCH   1   2
HETATM    2  C   UNL     1     -20.116  -4.769 -10.487  1.00  0.00     0.000 C 
BRANCH   2   3
HETATM    3  C   UNL     1     -20.668  -3.475 -11.082  1.00  0.00     0.000 C 
BRANCH   3   4
HETATM    4  C   UNL     1     -21.847  -3.761 -12.009  1.00  0.00     0.000 C 
BRANCH   4   5
HETATM    5  C   UNL     1     -22.947  -2.718 -11.828  1.00  0.00    -0.000 C 
BRANCH   5   6
HETATM    6  C   UNL     1     -24.275  -3.376 -11.462  1.00  0.00    -0.005 C 
HETATM    7  C   UNL     1     -24.489  -3.374  -9.958  1.00  0.00     0.005 C 
ENDBRANCH   5   6
ENDBRANCH   4   5
ENDBRANCH   3   4
ENDBRANCH   2   3
ENDBRANCH   1   2
BRANCH   1   8
HETATM    8  C   UNL     1     -21.111  -3.685  -8.440  1.00  0.00     0.001 C 
BRANCH   8   9
HETATM    9  C   UNL     1     -21.907  -4.278  -7.279  1.00  0.00     0.010 C 
BRANCH   9  10
HETATM   10  C   UNL     1     -21.001  -4.905  -6.226  1.00  0.00     0.110 C 
BRANCH  10  11
HETATM   11  C   UNL     1     -21.609  -6.167  -5.661  1.00  0.00     0.139 C 
HETATM   12  O   UNL     1     -22.411  -6.216  -4.741  1.00  0.00    -0.650 OA
BRANCH  11  13
HETATM   13  O   UNL     1     -21.167  -7.280  -6.292  1.00  0.00    -0.776 OA
HETATM   14  H   UNL     1     -21.810  -8.011  -6.294  1.00  0.00     0.167 HD
ENDBRANCH  11  13
ENDBRANCH  10  11
ENDBRANCH   9  10
ENDBRANCH   8   9
ENDBRANCH   1   8
TORSDOF 10
BEGIN_RES ARG D 557
REMARK  4 active torsions:
REMARK  status: ('A' for Active; 'I' for Inactive)
REMARK    1  A    between atoms: CA   and  CB  
REMARK    2  A    between atoms: CB   and  CG  
REMARK    3  A    between atoms: CG   and  CD  
REMARK    4  A    between atoms: CD   and  NE  
REMARK       I    between atoms: NE   and  CZ  
REMARK       I    between atoms: CZ   and  NH1 
REMARK       I    between atoms: CZ   and  NH2 
ROOT
ATOM      1  CA  ARG D 557     -26.217   2.705 -17.014  1.00 35.49     0.159 C 
ENDROOT
BRANCH   1   2
ATOM      2  CB  ARG D 557     -26.789   1.319 -17.183  1.00 35.49     0.034 C 
BRANCH   2   3
ATOM      3  CG  ARG D 557     -28.230   1.227 -17.447  1.00 35.49     0.027 C 
BRANCH   3   4
ATOM      4  CD  ARG D 557     -28.918   0.312 -16.508  1.00 35.49     0.116 C 
BRANCH   4   5
ATOM      5  NE  ARG D 557     -29.287  -0.931 -17.133  1.00 35.49    -0.212 N 
ATOM      6  CZ  ARG D 557     -28.639  -2.069 -17.022  1.00 35.49     0.666 C 
ATOM      7  NH1 ARG D 557     -27.534  -2.189 -16.309  1.00 35.49    -0.235 N 
ATOM      8  NH2 ARG D 557     -29.129  -3.102 -17.642  1.00 35.49    -0.235 N 
ATOM      9  HH  ARG D 557     -27.195  -1.522 -15.891  1.00 35.49     0.174 HD
ATOM     10  HH  ARG D 557     -27.156  -2.957 -16.270  1.00 35.49     0.174 HD
ATOM     11  HH  ARG D 557     -29.848  -2.997 -18.089  1.00 35.49     0.174 HD
ATOM     12  HH  ARG D 557     -28.741  -3.854 -17.590  1.00 35.49     0.174 HD
ATOM     13  HE  ARG D 557     -29.946  -0.928 -17.670  1.00 35.49     0.178 HD
ENDBRANCH   4   5
ENDBRANCH   3   4
ENDBRANCH   2   3
ENDBRANCH   1   2
END_RES ARG D 557
BEGIN_RES GLU D 570
REMARK  3 active torsions:
REMARK  status: ('A' for Active; 'I' for Inactive)
REMARK    5  A    between atoms: CA   and  CB  
REMARK    6  A    between atoms: CB   and  CG  
REMARK    7  A    between atoms: CG   and  CD  
ROOT
ATOM     14  CA  GLU D 570     -18.033  -6.348 -13.375  1.00 32.92     0.160 C 
ENDROOT
BRANCH  14  15
ATOM     15  CB  GLU D 570     -19.500  -6.345 -13.794  1.00 32.92     0.043 C 
BRANCH  15  16
ATOM     16  CG  GLU D 570     -19.820  -5.865 -15.163  1.00 32.92     0.100 C 
BRANCH  16  17
ATOM     17  CD  GLU D 570     -21.288  -5.564 -15.354  1.00 32.92     0.185 C 
ATOM     18  OE1 GLU D 570     -21.628  -4.730 -16.215  1.00 32.92    -0.647 OA
ATOM     19  OE2 GLU D 570     -22.106  -6.157 -14.623  1.00 32.92    -0.647 OA
ENDBRANCH  16  17
ENDBRANCH  15  16
ENDBRANCH  14  15
END_RES GLU D 570
ENDMDL
