MODEL 1
REMARK VINA RESULT:      -1.3      0.000      0.000
REMARK  0 active torsions:
REMARK  status: ('A' for Active; 'I' for Inactive)
ROOT
HETATM    1 NA   UNL     2     -11.206   1.593   2.522  1.00  0.00     0.000 Na
ENDROOT
TORSDOF 0
BEGIN_RES ARG D 557
REMARK  4 active torsions:
REMARK  status: ('A' for Active; 'I' for Inactive)
REMARK    1  A    between atoms: CA   and  CB  
REMARK    2  A    between atoms: CB   and  CG  
REMARK    3  A    between atoms: CG   and  CD  
REMARK    4  A    between atoms: CD   and  NE  
REMARK       I    between atoms: NE   and  CZ  
REMARK       I    between atoms: CZ   and  NH1 
REMARK       I    between atoms: CZ   and  NH2 
ROOT
ATOM      1  CA  ARG D 557     -26.217   2.705 -17.014  1.00 35.49     0.159 C 
ENDROOT
BRANCH   1   2
ATOM      2  CB  ARG D 557     -26.789   1.319 -17.183  1.00 35.49     0.034 C 
BRANCH   2   3
ATOM      3  CG  ARG D 557     -25.861   0.195 -17.007  1.00 35.49     0.027 C 
BRANCH   3   4
ATOM      4  CD  ARG D 557     -26.257  -0.695 -15.892  1.00 35.49     0.116 C 
BRANCH   4   5
ATOM      5  NE  ARG D 557     -25.193  -0.879 -14.941  1.00 35.49    -0.212 N 
ATOM      6  CZ  ARG D 557     -24.878  -2.010 -14.350  1.00 35.49     0.666 C 
ATOM      7  NH1 ARG D 557     -25.540  -3.132 -14.567  1.00 35.49    -0.235 N 
ATOM      8  NH2 ARG D 557     -23.867  -1.998 -13.530  1.00 35.49    -0.235 N 
ATOM      9  HH  ARG D 557     -26.207  -3.163 -15.104  1.00 35.49     0.174 HD
ATOM     10  HH  ARG D 557     -25.287  -3.839 -14.155  1.00 35.49     0.174 HD
ATOM     11  HH  ARG D 557     -23.454  -1.261 -13.416  1.00 35.49     0.174 HD
ATOM     12  HH  ARG D 557     -23.632  -2.709 -13.134  1.00 35.49     0.174 HD
ATOM     13  HE  ARG D 557     -24.760  -0.192 -14.688  1.00 35.49     0.178 HD
ENDBRANCH   4   5
ENDBRANCH   3   4
ENDBRANCH   2   3
ENDBRANCH   1   2
END_RES ARG D 557
BEGIN_RES GLU D 570
REMARK  3 active torsions:
REMARK  status: ('A' for Active; 'I' for Inactive)
REMARK    5  A    between atoms: CA   and  CB  
REMARK    6  A    between atoms: CB   and  CG  
REMARK    7  A    between atoms: CG   and  CD  
ROOT
ATOM     14  CA  GLU D 570     -18.033  -6.348 -13.375  1.00 32.92     0.160 C 
ENDROOT
BRANCH  14  15
ATOM     15  CB  GLU D 570     -19.500  -6.345 -13.794  1.00 32.92     0.043 C 
BRANCH  15  16
ATOM     16  CG  GLU D 570     -20.448  -5.558 -12.964  1.00 32.92     0.100 C 
BRANCH  16  17
ATOM     17  CD  GLU D 570     -21.682  -5.129 -13.723  1.00 32.92     0.185 C 
ATOM     18  OE1 GLU D 570     -21.656  -5.130 -14.969  1.00 32.92    -0.647 OA
ATOM     19  OE2 GLU D 570     -22.679  -4.774 -13.065  1.00 32.92    -0.647 OA
ENDBRANCH  16  17
ENDBRANCH  15  16
ENDBRANCH  14  15
END_RES GLU D 570
ENDMDL
MODEL 2
REMARK VINA RESULT:      -1.2      8.168      8.168
REMARK  0 active torsions:
REMARK  status: ('A' for Active; 'I' for Inactive)
ROOT
HETATM    1 NA   UNL     2     -27.148 -13.735 -13.119  1.00  0.00     0.000 Na
ENDROOT
TORSDOF 0
BEGIN_RES ARG D 557
REMARK  4 active torsions:
REMARK  status: ('A' for Active; 'I' for Inactive)
REMARK    1  A    between atoms: CA   and  CB  
REMARK    2  A    between atoms: CB   and  CG  
REMARK    3  A    between atoms: CG   and  CD  
REMARK    4  A    between atoms: CD   and  NE  
REMARK       I    between atoms: NE   and  CZ  
REMARK       I    between atoms: CZ   and  NH1 
REMARK       I    between atoms: CZ   and  NH2 
ROOT
ATOM      1  CA  ARG D 557     -26.217   2.705 -17.014  1.00 35.49     0.159 C 
ENDROOT
BRANCH   1   2
ATOM      2  CB  ARG D 557     -26.789   1.319 -17.183  1.00 35.49     0.034 C 
BRANCH   2   3
ATOM      3  CG  ARG D 557     -25.861   0.195 -17.007  1.00 35.49     0.027 C 
BRANCH   3   4
ATOM      4  CD  ARG D 557     -26.254  -0.691 -15.888  1.00 35.49     0.116 C 
BRANCH   4   5
ATOM      5  NE  ARG D 557     -25.179  -0.893 -14.953  1.00 35.49    -0.212 N 
ATOM      6  CZ  ARG D 557     -24.869  -2.031 -14.373  1.00 35.49     0.666 C 
ATOM      7  NH1 ARG D 557     -25.547  -3.144 -14.587  1.00 35.49    -0.235 N 
ATOM      8  NH2 ARG D 557     -23.847  -2.035 -13.567  1.00 35.49    -0.235 N 
ATOM      9  HH  ARG D 557     -26.221  -3.164 -15.115  1.00 35.49     0.174 HD
ATOM     10  HH  ARG D 557     -25.296  -3.857 -14.183  1.00 35.49     0.174 HD
ATOM     11  HH  ARG D 557     -23.423  -1.304 -13.454  1.00 35.49     0.174 HD
ATOM     12  HH  ARG D 557     -23.614  -2.752 -13.178  1.00 35.49     0.174 HD
ATOM     13  HE  ARG D 557     -24.735  -0.213 -14.702  1.00 35.49     0.178 HD
ENDBRANCH   4   5
ENDBRANCH   3   4
ENDBRANCH   2   3
ENDBRANCH   1   2
END_RES ARG D 557
BEGIN_RES GLU D 570
REMARK  3 active torsions:
REMARK  status: ('A' for Active; 'I' for Inactive)
REMARK    5  A    between atoms: CA   and  CB  
REMARK    6  A    between atoms: CB   and  CG  
REMARK    7  A    between atoms: CG   and  CD  
ROOT
ATOM     14  CA  GLU D 570     -18.033  -6.348 -13.375  1.00 32.92     0.160 C 
ENDROOT
BRANCH  14  15
ATOM     15  CB  GLU D 570     -19.500  -6.345 -13.794  1.00 32.92     0.043 C 
BRANCH  15  16
ATOM     16  CG  GLU D 570     -20.443  -5.537 -12.979  1.00 32.92     0.100 C 
BRANCH  16  17
ATOM     17  CD  GLU D 570     -21.676  -5.118 -13.745  1.00 32.92     0.185 C 
ATOM     18  OE1 GLU D 570     -21.602  -4.982 -14.982  1.00 32.92    -0.647 OA
ATOM     19  OE2 GLU D 570     -22.722  -4.908 -13.101  1.00 32.92    -0.647 OA
ENDBRANCH  16  17
ENDBRANCH  15  16
ENDBRANCH  14  15
END_RES GLU D 570
ENDMDL
MODEL 3
REMARK VINA RESULT:      -1.2      6.121      6.191
REMARK  0 active torsions:
REMARK  status: ('A' for Active; 'I' for Inactive)
ROOT
HETATM    1 NA   UNL     2      -9.152   5.818 -17.226  1.00  0.00     0.000 Na
ENDROOT
TORSDOF 0
BEGIN_RES ARG D 557
REMARK  4 active torsions:
REMARK  status: ('A' for Active; 'I' for Inactive)
REMARK    1  A    between atoms: CA   and  CB  
REMARK    2  A    between atoms: CB   and  CG  
REMARK    3  A    between atoms: CG   and  CD  
REMARK    4  A    between atoms: CD   and  NE  
REMARK       I    between atoms: NE   and  CZ  
REMARK       I    between atoms: CZ   and  NH1 
REMARK       I    between atoms: CZ   and  NH2 
ROOT
ATOM      1  CA  ARG D 557     -26.217   2.705 -17.014  1.00 35.49     0.159 C 
ENDROOT
BRANCH   1   2
ATOM      2  CB  ARG D 557     -26.789   1.319 -17.183  1.00 35.49     0.034 C 
BRANCH   2   3
ATOM      3  CG  ARG D 557     -25.860   0.195 -17.012  1.00 35.49     0.027 C 
BRANCH   3   4
ATOM      4  CD  ARG D 557     -26.253  -0.698 -15.899  1.00 35.49     0.116 C 
BRANCH   4   5
ATOM      5  NE  ARG D 557     -25.187  -0.885 -14.951  1.00 35.49    -0.212 N 
ATOM      6  CZ  ARG D 557     -24.871  -2.017 -14.363  1.00 35.49     0.666 C 
ATOM      7  NH1 ARG D 557     -25.535  -3.138 -14.580  1.00 35.49    -0.235 N 
ATOM      8  NH2 ARG D 557     -23.858  -2.008 -13.546  1.00 35.49    -0.235 N 
ATOM      9  HH  ARG D 557     -26.203  -3.168 -15.115  1.00 35.49     0.174 HD
ATOM     10  HH  ARG D 557     -25.282  -3.847 -14.170  1.00 35.49     0.174 HD
ATOM     11  HH  ARG D 557     -23.444  -1.271 -13.431  1.00 35.49     0.174 HD
ATOM     12  HH  ARG D 557     -23.622  -2.720 -13.151  1.00 35.49     0.174 HD
ATOM     13  HE  ARG D 557     -24.753  -0.199 -14.698  1.00 35.49     0.178 HD
ENDBRANCH   4   5
ENDBRANCH   3   4
ENDBRANCH   2   3
ENDBRANCH   1   2
END_RES ARG D 557
BEGIN_RES GLU D 570
REMARK  3 active torsions:
REMARK  status: ('A' for Active; 'I' for Inactive)
REMARK    5  A    between atoms: CA   and  CB  
REMARK    6  A    between atoms: CB   and  CG  
REMARK    7  A    between atoms: CG   and  CD  
ROOT
ATOM     14  CA  GLU D 570     -18.033  -6.348 -13.375  1.00 32.92     0.160 C 
ENDROOT
BRANCH  14  15
ATOM     15  CB  GLU D 570     -19.500  -6.345 -13.794  1.00 32.92     0.043 C 
BRANCH  15  16
ATOM     16  CG  GLU D 570     -20.448  -5.558 -12.963  1.00 32.92     0.100 C 
BRANCH  16  17
ATOM     17  CD  GLU D 570     -21.680  -5.127 -13.723  1.00 32.92     0.185 C 
ATOM     18  OE1 GLU D 570     -22.697  -4.790 -13.087  1.00 32.92    -0.647 OA
ATOM     19  OE2 GLU D 570     -21.635  -5.144 -14.969  1.00 32.92    -0.647 OA
ENDBRANCH  16  17
ENDBRANCH  15  16
ENDBRANCH  14  15
END_RES GLU D 570
ENDMDL
MODEL 4
REMARK VINA RESULT:      -1.2      6.340      6.408
REMARK  0 active torsions:
REMARK  status: ('A' for Active; 'I' for Inactive)
ROOT
HETATM    1 NA   UNL     2     -27.106  -5.720  -9.129  1.00  0.00     0.000 Na
ENDROOT
TORSDOF 0
BEGIN_RES ARG D 557
REMARK  4 active torsions:
REMARK  status: ('A' for Active; 'I' for Inactive)
REMARK    1  A    between atoms: CA   and  CB  
REMARK    2  A    between atoms: CB   and  CG  
REMARK    3  A    between atoms: CG   and  CD  
REMARK    4  A    between atoms: CD   and  NE  
REMARK       I    between atoms: NE   and  CZ  
REMARK       I    between atoms: CZ   and  NH1 
REMARK       I    between atoms: CZ   and  NH2 
ROOT
ATOM      1  CA  ARG D 557     -26.217   2.705 -17.014  1.00 35.49     0.159 C 
ENDROOT
BRANCH   1   2
ATOM      2  CB  ARG D 557     -26.789   1.319 -17.183  1.00 35.49     0.034 C 
BRANCH   2   3
ATOM      3  CG  ARG D 557     -25.865   0.195 -16.991  1.00 35.49     0.027 C 
BRANCH   3   4
ATOM      4  CD  ARG D 557     -26.264  -0.678 -15.863  1.00 35.49     0.116 C 
BRANCH   4   5
ATOM      5  NE  ARG D 557     -25.187  -0.886 -14.931  1.00 35.49    -0.212 N 
ATOM      6  CZ  ARG D 557     -24.892  -2.021 -14.339  1.00 35.49     0.666 C 
ATOM      7  NH1 ARG D 557     -25.588  -3.126 -14.537  1.00 35.49    -0.235 N 
ATOM      8  NH2 ARG D 557     -23.866  -2.032 -13.539  1.00 35.49    -0.235 N 
ATOM      9  HH  ARG D 557     -26.266  -3.142 -15.061  1.00 35.49     0.174 HD
ATOM     10  HH  ARG D 557     -25.347  -3.838 -14.126  1.00 35.49     0.174 HD
ATOM     11  HH  ARG D 557     -23.431  -1.306 -13.436  1.00 35.49     0.174 HD
ATOM     12  HH  ARG D 557     -23.643  -2.748 -13.142  1.00 35.49     0.174 HD
ATOM     13  HE  ARG D 557     -24.731  -0.209 -14.690  1.00 35.49     0.178 HD
ENDBRANCH   4   5
ENDBRANCH   3   4
ENDBRANCH   2   3
ENDBRANCH   1   2
END_RES ARG D 557
BEGIN_RES GLU D 570
REMARK  3 active torsions:
REMARK  status: ('A' for Active; 'I' for Inactive)
REMARK    5  A    between atoms: CA   and  CB  
REMARK    6  A    between atoms: CB   and  CG  
REMARK    7  A    between atoms: CG   and  CD  
ROOT
ATOM     14  CA  GLU D 570     -18.033  -6.348 -13.375  1.00 32.92     0.160 C 
ENDROOT
BRANCH  14  15
ATOM     15  CB  GLU D 570     -19.500  -6.345 -13.794  1.00 32.92     0.043 C 
BRANCH  15  16
ATOM     16  CG  GLU D 570     -20.451  -5.574 -12.952  1.00 32.92     0.100 C 
BRANCH  16  17
ATOM     17  CD  GLU D 570     -21.666  -5.102 -13.716  1.00 32.92     0.185 C 
ATOM     18  OE1 GLU D 570     -22.713  -4.848 -13.091  1.00 32.92    -0.647 OA
ATOM     19  OE2 GLU D 570     -21.575  -5.003 -14.956  1.00 32.92    -0.647 OA
ENDBRANCH  16  17
ENDBRANCH  15  16
ENDBRANCH  14  15
END_RES GLU D 570
ENDMDL
MODEL 5
REMARK VINA RESULT:      -1.1      1.882      2.136
REMARK  0 active torsions:
REMARK  status: ('A' for Active; 'I' for Inactive)
ROOT
HETATM    1 NA   UNL     2     -15.596   1.923  -0.512  1.00  0.00     0.000 Na
ENDROOT
TORSDOF 0
BEGIN_RES ARG D 557
REMARK  4 active torsions:
REMARK  status: ('A' for Active; 'I' for Inactive)
REMARK    1  A    between atoms: CA   and  CB  
REMARK    2  A    between atoms: CB   and  CG  
REMARK    3  A    between atoms: CG   and  CD  
REMARK    4  A    between atoms: CD   and  NE  
REMARK       I    between atoms: NE   and  CZ  
REMARK       I    between atoms: CZ   and  NH1 
REMARK       I    between atoms: CZ   and  NH2 
ROOT
ATOM      1  CA  ARG D 557     -26.217   2.705 -17.014  1.00 35.49     0.159 C 
ENDROOT
BRANCH   1   2
ATOM      2  CB  ARG D 557     -26.789   1.319 -17.183  1.00 35.49     0.034 C 
BRANCH   2   3
ATOM      3  CG  ARG D 557     -25.836   0.203 -17.156  1.00 35.49     0.027 C 
BRANCH   3   4
ATOM      4  CD  ARG D 557     -24.750   0.412 -16.171  1.00 35.49     0.116 C 
BRANCH   4   5
ATOM      5  NE  ARG D 557     -24.893  -0.436 -15.017  1.00 35.49    -0.212 N 
ATOM      6  CZ  ARG D 557     -24.078  -1.408 -14.673  1.00 35.49     0.666 C 
ATOM      7  NH1 ARG D 557     -23.013  -1.726 -15.384  1.00 35.49    -0.235 N 
ATOM      8  NH2 ARG D 557     -24.351  -2.062 -13.581  1.00 35.49    -0.235 N 
ATOM      9  HH  ARG D 557     -22.813  -1.308 -16.105  1.00 35.49     0.174 HD
ATOM     10  HH  ARG D 557     -22.516  -2.368 -15.109  1.00 35.49     0.174 HD
ATOM     11  HH  ARG D 557     -25.042  -1.829 -13.138  1.00 35.49     0.174 HD
ATOM     12  HH  ARG D 557     -23.846  -2.693 -13.324  1.00 35.49     0.174 HD
ATOM     13  HE  ARG D 557     -25.592  -0.349 -14.541  1.00 35.49     0.178 HD
ENDBRANCH   4   5
ENDBRANCH   3   4
ENDBRANCH   2   3
ENDBRANCH   1   2
END_RES ARG D 557
BEGIN_RES GLU D 570
REMARK  3 active torsions:
REMARK  status: ('A' for Active; 'I' for Inactive)
REMARK    5  A    between atoms: CA   and  CB  
REMARK    6  A    between atoms: CB   and  CG  
REMARK    7  A    between atoms: CG   and  CD  
ROOT
ATOM     14  CA  GLU D 570     -18.033  -6.348 -13.375  1.00 32.92     0.160 C 
ENDROOT
BRANCH  14  15
ATOM     15  CB  GLU D 570     -19.500  -6.345 -13.794  1.00 32.92     0.043 C 
BRANCH  15  16
ATOM     16  CG  GLU D 570     -20.445  -5.546 -12.972  1.00 32.92     0.100 C 
BRANCH  16  17
ATOM     17  CD  GLU D 570     -21.740  -5.244 -13.689  1.00 32.92     0.185 C 
ATOM     18  OE1 GLU D 570     -22.275  -4.130 -13.530  1.00 32.92    -0.647 OA
ATOM     19  OE2 GLU D 570     -22.234  -6.138 -14.404  1.00 32.92    -0.647 OA
ENDBRANCH  16  17
ENDBRANCH  15  16
ENDBRANCH  14  15
END_RES GLU D 570
ENDMDL
MODEL 6
REMARK VINA RESULT:      -1.1      8.572      8.812
REMARK  0 active torsions:
REMARK  status: ('A' for Active; 'I' for Inactive)
ROOT
HETATM    1 NA   UNL     2     -27.104 -13.714 -13.076  1.00  0.00     0.000 Na
ENDROOT
TORSDOF 0
BEGIN_RES ARG D 557
REMARK  4 active torsions:
REMARK  status: ('A' for Active; 'I' for Inactive)
REMARK    1  A    between atoms: CA   and  CB  
REMARK    2  A    between atoms: CB   and  CG  
REMARK    3  A    between atoms: CG   and  CD  
REMARK    4  A    between atoms: CD   and  NE  
REMARK       I    between atoms: NE   and  CZ  
REMARK       I    between atoms: CZ   and  NH1 
REMARK       I    between atoms: CZ   and  NH2 
ROOT
ATOM      1  CA  ARG D 557     -26.217   2.705 -17.014  1.00 35.49     0.159 C 
ENDROOT
BRANCH   1   2
ATOM      2  CB  ARG D 557     -26.789   1.319 -17.183  1.00 35.49     0.034 C 
BRANCH   2   3
ATOM      3  CG  ARG D 557     -28.230   1.227 -17.450  1.00 35.49     0.027 C 
BRANCH   3   4
ATOM      4  CD  ARG D 557     -28.920   0.313 -16.511  1.00 35.49     0.116 C 
BRANCH   4   5
ATOM      5  NE  ARG D 557     -29.320  -0.915 -17.145  1.00 35.49    -0.212 N 
ATOM      6  CZ  ARG D 557     -28.699  -2.069 -17.044  1.00 35.49     0.666 C 
ATOM      7  NH1 ARG D 557     -27.596  -2.221 -16.335  1.00 35.49    -0.235 N 
ATOM      8  NH2 ARG D 557     -29.216  -3.086 -17.671  1.00 35.49    -0.235 N 
ATOM      9  HH  ARG D 557     -27.240  -1.566 -15.912  1.00 35.49     0.174 HD
ATOM     10  HH  ARG D 557     -27.236  -2.998 -16.303  1.00 35.49     0.174 HD
ATOM     11  HH  ARG D 557     -29.933  -2.960 -18.115  1.00 35.49     0.174 HD
ATOM     12  HH  ARG D 557     -28.846  -3.847 -17.626  1.00 35.49     0.174 HD
ATOM     13  HE  ARG D 557     -29.980  -0.892 -17.680  1.00 35.49     0.178 HD
ENDBRANCH   4   5
ENDBRANCH   3   4
ENDBRANCH   2   3
ENDBRANCH   1   2
END_RES ARG D 557
BEGIN_RES GLU D 570
REMARK  3 active torsions:
REMARK  status: ('A' for Active; 'I' for Inactive)
REMARK    5  A    between atoms: CA   and  CB  
REMARK    6  A    between atoms: CB   and  CG  
REMARK    7  A    between atoms: CG   and  CD  
ROOT
ATOM     14  CA  GLU D 570     -18.033  -6.348 -13.375  1.00 32.92     0.160 C 
ENDROOT
BRANCH  14  15
ATOM     15  CB  GLU D 570     -19.500  -6.345 -13.794  1.00 32.92     0.043 C 
BRANCH  15  16
ATOM     16  CG  GLU D 570     -20.449  -5.567 -12.957  1.00 32.92     0.100 C 
BRANCH  16  17
ATOM     17  CD  GLU D 570     -21.696  -5.157 -13.706  1.00 32.92     0.185 C 
ATOM     18  OE1 GLU D 570     -22.754  -4.983 -13.071  1.00 32.92    -0.647 OA
ATOM     19  OE2 GLU D 570     -21.618  -5.024 -14.943  1.00 32.92    -0.647 OA
ENDBRANCH  16  17
ENDBRANCH  15  16
ENDBRANCH  14  15
END_RES GLU D 570
ENDMDL
MODEL 7
REMARK VINA RESULT:      -1.1      3.816      3.986
REMARK  0 active torsions:
REMARK  status: ('A' for Active; 'I' for Inactive)
ROOT
HETATM    1 NA   UNL     2     -11.480   1.558  -9.801  1.00  0.00     0.000 Na
ENDROOT
TORSDOF 0
BEGIN_RES ARG D 557
REMARK  4 active torsions:
REMARK  status: ('A' for Active; 'I' for Inactive)
REMARK    1  A    between atoms: CA   and  CB  
REMARK    2  A    between atoms: CB   and  CG  
REMARK    3  A    between atoms: CG   and  CD  
REMARK    4  A    between atoms: CD   and  NE  
REMARK       I    between atoms: NE   and  CZ  
REMARK       I    between atoms: CZ   and  NH1 
REMARK       I    between atoms: CZ   and  NH2 
ROOT
ATOM      1  CA  ARG D 557     -26.217   2.705 -17.014  1.00 35.49     0.159 C 
ENDROOT
BRANCH   1   2
ATOM      2  CB  ARG D 557     -26.789   1.319 -17.183  1.00 35.49     0.034 C 
BRANCH   2   3
ATOM      3  CG  ARG D 557     -25.836   0.203 -17.154  1.00 35.49     0.027 C 
BRANCH   3   4
ATOM      4  CD  ARG D 557     -24.774   0.394 -16.140  1.00 35.49     0.116 C 
BRANCH   4   5
ATOM      5  NE  ARG D 557     -24.943  -0.477 -15.007  1.00 35.49    -0.212 N 
ATOM      6  CZ  ARG D 557     -24.134  -1.454 -14.661  1.00 35.49     0.666 C 
ATOM      7  NH1 ARG D 557     -23.051  -1.756 -15.352  1.00 35.49    -0.235 N 
ATOM      8  NH2 ARG D 557     -24.433  -2.129 -13.589  1.00 35.49    -0.235 N 
ATOM      9  HH  ARG D 557     -22.834  -1.323 -16.060  1.00 35.49     0.174 HD
ATOM     10  HH  ARG D 557     -22.560  -2.401 -15.077  1.00 35.49     0.174 HD
ATOM     11  HH  ARG D 557     -25.134  -1.907 -13.159  1.00 35.49     0.174 HD
ATOM     12  HH  ARG D 557     -23.933  -2.764 -13.332  1.00 35.49     0.174 HD
ATOM     13  HE  ARG D 557     -25.654  -0.400 -14.547  1.00 35.49     0.178 HD
ENDBRANCH   4   5
ENDBRANCH   3   4
ENDBRANCH   2   3
ENDBRANCH   1   2
END_RES ARG D 557
BEGIN_RES GLU D 570
REMARK  3 active torsions:
REMARK  status: ('A' for Active; 'I' for Inactive)
REMARK    5  A    between atoms: CA   and  CB  
REMARK    6  A    between atoms: CB   and  CG  
REMARK    7  A    between atoms: CG   and  CD  
ROOT
ATOM     14  CA  GLU D 570     -18.033  -6.348 -13.375  1.00 32.92     0.160 C 
ENDROOT
BRANCH  14  15
ATOM     15  CB  GLU D 570     -19.500  -6.345 -13.794  1.00 32.92     0.043 C 
BRANCH  15  16
ATOM     16  CG  GLU D 570     -20.443  -5.535 -12.980  1.00 32.92     0.100 C 
BRANCH  16  17
ATOM     17  CD  GLU D 570     -21.602  -4.995 -13.785  1.00 32.92     0.185 C 
ATOM     18  OE1 GLU D 570     -22.349  -4.139 -13.272  1.00 32.92    -0.647 OA
ATOM     19  OE2 GLU D 570     -21.776  -5.445 -14.935  1.00 32.92    -0.647 OA
ENDBRANCH  16  17
ENDBRANCH  15  16
ENDBRANCH  14  15
END_RES GLU D 570
ENDMDL
MODEL 8
REMARK VINA RESULT:      -1.1      5.223      5.223
REMARK  0 active torsions:
REMARK  status: ('A' for Active; 'I' for Inactive)
ROOT
HETATM    1 NA   UNL     2     -25.293  -5.204  -4.919  1.00  0.00     0.000 Na
ENDROOT
TORSDOF 0
BEGIN_RES ARG D 557
REMARK  4 active torsions:
REMARK  status: ('A' for Active; 'I' for Inactive)
REMARK    1  A    between atoms: CA   and  CB  
REMARK    2  A    between atoms: CB   and  CG  
REMARK    3  A    between atoms: CG   and  CD  
REMARK    4  A    between atoms: CD   and  NE  
REMARK       I    between atoms: NE   and  CZ  
REMARK       I    between atoms: CZ   and  NH1 
REMARK       I    between atoms: CZ   and  NH2 
ROOT
ATOM      1  CA  ARG D 557     -26.217   2.705 -17.014  1.00 35.49     0.159 C 
ENDROOT
BRANCH   1   2
ATOM      2  CB  ARG D 557     -26.789   1.319 -17.183  1.00 35.49     0.034 C 
BRANCH   2   3
ATOM      3  CG  ARG D 557     -25.866   0.195 -16.987  1.00 35.49     0.027 C 
BRANCH   3   4
ATOM      4  CD  ARG D 557     -26.281  -0.690 -15.875  1.00 35.49     0.116 C 
BRANCH   4   5
ATOM      5  NE  ARG D 557     -25.218  -0.909 -14.930  1.00 35.49    -0.212 N 
ATOM      6  CZ  ARG D 557     -24.920  -2.055 -14.361  1.00 35.49     0.666 C 
ATOM      7  NH1 ARG D 557     -25.600  -3.162 -14.596  1.00 35.49    -0.235 N 
ATOM      8  NH2 ARG D 557     -23.907  -2.074 -13.543  1.00 35.49    -0.235 N 
ATOM      9  HH  ARG D 557     -26.269  -3.172 -15.132  1.00 35.49     0.174 HD
ATOM     10  HH  ARG D 557     -25.358  -3.881 -14.198  1.00 35.49     0.174 HD
ATOM     11  HH  ARG D 557     -23.482  -1.346 -13.416  1.00 35.49     0.174 HD
ATOM     12  HH  ARG D 557     -23.682  -2.796 -13.160  1.00 35.49     0.174 HD
ATOM     13  HE  ARG D 557     -24.773  -0.233 -14.665  1.00 35.49     0.178 HD
ENDBRANCH   4   5
ENDBRANCH   3   4
ENDBRANCH   2   3
ENDBRANCH   1   2
END_RES ARG D 557
BEGIN_RES GLU D 570
REMARK  3 active torsions:
REMARK  status: ('A' for Active; 'I' for Inactive)
REMARK    5  A    between atoms: CA   and  CB  
REMARK    6  A    between atoms: CB   and  CG  
REMARK    7  A    between atoms: CG   and  CD  
ROOT
ATOM     14  CA  GLU D 570     -18.033  -6.348 -13.375  1.00 32.92     0.160 C 
ENDROOT
BRANCH  14  15
ATOM     15  CB  GLU D 570     -19.500  -6.345 -13.794  1.00 32.92     0.043 C 
BRANCH  15  16
ATOM     16  CG  GLU D 570     -20.446  -5.549 -12.970  1.00 32.92     0.100 C 
BRANCH  16  17
ATOM     17  CD  GLU D 570     -21.686  -5.136 -13.729  1.00 32.92     0.185 C 
ATOM     18  OE1 GLU D 570     -21.622  -5.003 -14.966  1.00 32.92    -0.647 OA
ATOM     19  OE2 GLU D 570     -22.728  -4.928 -13.077  1.00 32.92    -0.647 OA
ENDBRANCH  16  17
ENDBRANCH  15  16
ENDBRANCH  14  15
END_RES GLU D 570
ENDMDL
MODEL 9
REMARK VINA RESULT:      -1.0      6.365      6.411
REMARK  0 active torsions:
REMARK  status: ('A' for Active; 'I' for Inactive)
ROOT
HETATM    1 NA   UNL     2     -10.862  -8.351 -15.819  1.00  0.00     0.000 Na
ENDROOT
TORSDOF 0
BEGIN_RES ARG D 557
REMARK  4 active torsions:
REMARK  status: ('A' for Active; 'I' for Inactive)
REMARK    1  A    between atoms: CA   and  CB  
REMARK    2  A    between atoms: CB   and  CG  
REMARK    3  A    between atoms: CG   and  CD  
REMARK    4  A    between atoms: CD   and  NE  
REMARK       I    between atoms: NE   and  CZ  
REMARK       I    between atoms: CZ   and  NH1 
REMARK       I    between atoms: CZ   and  NH2 
ROOT
ATOM      1  CA  ARG D 557     -26.217   2.705 -17.014  1.00 35.49     0.159 C 
ENDROOT
BRANCH   1   2
ATOM      2  CB  ARG D 557     -26.789   1.319 -17.183  1.00 35.49     0.034 C 
BRANCH   2   3
ATOM      3  CG  ARG D 557     -25.835   0.204 -17.166  1.00 35.49     0.027 C 
BRANCH   3   4
ATOM      4  CD  ARG D 557     -24.744   0.409 -16.185  1.00 35.49     0.116 C 
BRANCH   4   5
ATOM      5  NE  ARG D 557     -24.892  -0.430 -15.026  1.00 35.49    -0.212 N 
ATOM      6  CZ  ARG D 557     -24.082  -1.403 -14.673  1.00 35.49     0.666 C 
ATOM      7  NH1 ARG D 557     -23.018  -1.731 -15.381  1.00 35.49    -0.235 N 
ATOM      8  NH2 ARG D 557     -24.359  -2.047 -13.576  1.00 35.49    -0.235 N 
ATOM      9  HH  ARG D 557     -22.815  -1.319 -16.105  1.00 35.49     0.174 HD
ATOM     10  HH  ARG D 557     -22.524  -2.373 -15.101  1.00 35.49     0.174 HD
ATOM     11  HH  ARG D 557     -25.049  -1.808 -13.136  1.00 35.49     0.174 HD
ATOM     12  HH  ARG D 557     -23.858  -2.678 -13.315  1.00 35.49     0.174 HD
ATOM     13  HE  ARG D 557     -25.592  -0.335 -14.551  1.00 35.49     0.178 HD
ENDBRANCH   4   5
ENDBRANCH   3   4
ENDBRANCH   2   3
ENDBRANCH   1   2
END_RES ARG D 557
BEGIN_RES GLU D 570
REMARK  3 active torsions:
REMARK  status: ('A' for Active; 'I' for Inactive)
REMARK    5  A    between atoms: CA   and  CB  
REMARK    6  A    between atoms: CB   and  CG  
REMARK    7  A    between atoms: CG   and  CD  
ROOT
ATOM     14  CA  GLU D 570     -18.033  -6.348 -13.375  1.00 32.92     0.160 C 
ENDROOT
BRANCH  14  15
ATOM     15  CB  GLU D 570     -19.500  -6.345 -13.794  1.00 32.92     0.043 C 
BRANCH  15  16
ATOM     16  CG  GLU D 570     -20.441  -5.528 -12.986  1.00 32.92     0.100 C 
BRANCH  16  17
ATOM     17  CD  GLU D 570     -21.745  -5.254 -13.698  1.00 32.92     0.185 C 
ATOM     18  OE1 GLU D 570     -22.227  -6.133 -14.438  1.00 32.92    -0.647 OA
ATOM     19  OE2 GLU D 570     -22.283  -4.142 -13.526  1.00 32.92    -0.647 OA
ENDBRANCH  16  17
ENDBRANCH  15  16
ENDBRANCH  14  15
END_RES GLU D 570
ENDMDL
