MODEL 1
REMARK VINA RESULT:      -7.1      0.000      0.000
REMARK  0 active torsions:
REMARK  status: ('A' for Active; 'I' for Inactive)
ROOT
HETATM    1  C   UNL     1     -20.037  -4.609  -8.449  1.00  0.00     0.157 C 
HETATM    2  N   UNL     1     -21.452  -4.344  -8.531  1.00  0.00    -0.340 N 
HETATM    3  C   UNL     1     -22.344  -4.369  -7.493  1.00  0.00     0.184 A 
HETATM    4  N   UNL     1     -23.563  -4.058  -7.891  1.00  0.00    -0.336 N 
ATOM      5  HN  UNL     1     -24.410  -4.000  -7.325  1.00  0.00     0.168 HD
HETATM    6  C   UNL     1     -23.435  -3.831  -9.229  1.00  0.00     0.145 A 
HETATM    7  C   UNL     1     -22.153  -4.004  -9.652  1.00  0.00     0.149 A 
HETATM    8  C   UNL     1     -21.748  -3.832 -11.004  1.00  0.00     0.282 A 
HETATM    9  O   UNL     1     -20.590  -3.994 -11.374  1.00  0.00    -0.265 OA
HETATM   10  N   UNL     1     -22.803  -3.463 -11.842  1.00  0.00    -0.269 N 
HETATM   11  C   UNL     1     -24.142  -3.274 -11.443  1.00  0.00     0.332 A 
HETATM   12  O   UNL     1     -25.007  -2.951 -12.262  1.00  0.00    -0.246 OA
HETATM   13  N   UNL     1     -24.440  -3.467 -10.093  1.00  0.00    -0.287 N 
HETATM   14  C   UNL     1     -25.794  -3.280  -9.604  1.00  0.00     0.163 C 
HETATM   15  C   UNL     1     -22.515  -3.248 -13.245  1.00  0.00     0.164 C 
ENDROOT
TORSDOF 0
BEGIN_RES ARG D 557
REMARK  4 active torsions:
REMARK  status: ('A' for Active; 'I' for Inactive)
REMARK    1  A    between atoms: CA   and  CB  
REMARK    2  A    between atoms: CB   and  CG  
REMARK    3  A    between atoms: CG   and  CD  
REMARK    4  A    between atoms: CD   and  NE  
REMARK       I    between atoms: NE   and  CZ  
REMARK       I    between atoms: CZ   and  NH1 
REMARK       I    between atoms: CZ   and  NH2 
ROOT
ATOM      1  CA  ARG D 557     -26.217   2.705 -17.014  1.00 35.49     0.159 C 
ENDROOT
BRANCH   1   2
ATOM      2  CB  ARG D 557     -26.789   1.319 -17.183  1.00 35.49     0.034 C 
BRANCH   2   3
ATOM      3  CG  ARG D 557     -28.212   1.148 -16.864  1.00 35.49     0.027 C 
BRANCH   3   4
ATOM      4  CD  ARG D 557     -28.549  -0.253 -16.522  1.00 35.49     0.116 C 
BRANCH   4   5
ATOM      5  NE  ARG D 557     -27.482  -0.909 -15.813  1.00 35.49    -0.212 N 
ATOM      6  CZ  ARG D 557     -27.195  -2.190 -15.872  1.00 35.49     0.666 C 
ATOM      7  NH1 ARG D 557     -27.890  -3.040 -16.606  1.00 35.49    -0.235 N 
ATOM      8  NH2 ARG D 557     -26.177  -2.610 -15.178  1.00 35.49    -0.235 N 
ATOM      9  HH  ARG D 557     -28.562  -2.785 -17.072  1.00 35.49     0.174 HD
ATOM     10  HH  ARG D 557     -27.655  -3.864 -16.608  1.00 35.49     0.174 HD
ATOM     11  HH  ARG D 557     -25.742  -2.038 -14.719  1.00 35.49     0.174 HD
ATOM     12  HH  ARG D 557     -25.959  -3.429 -15.194  1.00 35.49     0.174 HD
ATOM     13  HE  ARG D 557     -27.028  -0.450 -15.260  1.00 35.49     0.178 HD
ENDBRANCH   4   5
ENDBRANCH   3   4
ENDBRANCH   2   3
ENDBRANCH   1   2
END_RES ARG D 557
BEGIN_RES GLU D 570
REMARK  3 active torsions:
REMARK  status: ('A' for Active; 'I' for Inactive)
REMARK    5  A    between atoms: CA   and  CB  
REMARK    6  A    between atoms: CB   and  CG  
REMARK    7  A    between atoms: CG   and  CD  
ROOT
ATOM     14  CA  GLU D 570     -18.033  -6.348 -13.375  1.00 32.92     0.160 C 
ENDROOT
BRANCH  14  15
ATOM     15  CB  GLU D 570     -19.500  -6.345 -13.794  1.00 32.92     0.043 C 
BRANCH  15  16
ATOM     16  CG  GLU D 570     -19.797  -6.227 -15.245  1.00 32.92     0.100 C 
BRANCH  16  17
ATOM     17  CD  GLU D 570     -21.242  -5.885 -15.525  1.00 32.92     0.185 C 
ATOM     18  OE1 GLU D 570     -21.502  -4.967 -16.326  1.00 32.92    -0.647 OA
ATOM     19  OE2 GLU D 570     -22.123  -6.530 -14.923  1.00 32.92    -0.647 OA
ENDBRANCH  16  17
ENDBRANCH  15  16
ENDBRANCH  14  15
END_RES GLU D 570
ENDMDL
MODEL 2
REMARK VINA RESULT:      -7.0      3.629      7.267
REMARK  0 active torsions:
REMARK  status: ('A' for Active; 'I' for Inactive)
ROOT
HETATM    1  C   UNL     1     -28.990  -1.681 -17.162  1.00  0.00     0.157 C 
HETATM    2  N   UNL     1     -29.225  -3.103 -17.169  1.00  0.00    -0.340 N 
HETATM    3  C   UNL     1     -30.313  -3.744 -17.698  1.00  0.00     0.184 A 
HETATM    4  N   UNL     1     -30.219  -5.054 -17.565  1.00  0.00    -0.336 N 
ATOM      5  HN  UNL     1     -30.886  -5.763 -17.872  1.00  0.00     0.168 HD
HETATM    6  C   UNL     1     -29.031  -5.245 -16.926  1.00  0.00     0.145 A 
HETATM    7  C   UNL     1     -28.400  -4.067 -16.664  1.00  0.00     0.149 A 
HETATM    8  C   UNL     1     -27.144  -3.984 -16.004  1.00  0.00     0.282 A 
HETATM    9  O   UNL     1     -26.588  -2.917 -15.770  1.00  0.00    -0.265 OA
HETATM   10  N   UNL     1     -26.630  -5.237 -15.660  1.00  0.00    -0.269 N 
HETATM   11  C   UNL     1     -27.251  -6.478 -15.913  1.00  0.00     0.332 A 
HETATM   12  O   UNL     1     -26.717  -7.535 -15.565  1.00  0.00    -0.246 OA
HETATM   13  N   UNL     1     -28.484  -6.453 -16.568  1.00  0.00    -0.287 N 
HETATM   14  C   UNL     1     -29.178  -7.691 -16.873  1.00  0.00     0.163 C 
HETATM   15  C   UNL     1     -25.348  -5.286 -14.987  1.00  0.00     0.164 C 
ENDROOT
TORSDOF 0
BEGIN_RES ARG D 557
REMARK  4 active torsions:
REMARK  status: ('A' for Active; 'I' for Inactive)
REMARK    1  A    between atoms: CA   and  CB  
REMARK    2  A    between atoms: CB   and  CG  
REMARK    3  A    between atoms: CG   and  CD  
REMARK    4  A    between atoms: CD   and  NE  
REMARK       I    between atoms: NE   and  CZ  
REMARK       I    between atoms: CZ   and  NH1 
REMARK       I    between atoms: CZ   and  NH2 
ROOT
ATOM      1  CA  ARG D 557     -26.217   2.705 -17.014  1.00 35.49     0.159 C 
ENDROOT
BRANCH   1   2
ATOM      2  CB  ARG D 557     -26.789   1.319 -17.183  1.00 35.49     0.034 C 
BRANCH   2   3
ATOM      3  CG  ARG D 557     -25.834   0.204 -17.167  1.00 35.49     0.027 C 
BRANCH   3   4
ATOM      4  CD  ARG D 557     -24.743   0.409 -16.188  1.00 35.49     0.116 C 
BRANCH   4   5
ATOM      5  NE  ARG D 557     -24.887  -0.434 -15.031  1.00 35.49    -0.212 N 
ATOM      6  CZ  ARG D 557     -24.068  -1.398 -14.676  1.00 35.49     0.666 C 
ATOM      7  NH1 ARG D 557     -22.996  -1.714 -15.381  1.00 35.49    -0.235 N 
ATOM      8  NH2 ARG D 557     -24.342  -2.048 -13.583  1.00 35.49    -0.235 N 
ATOM      9  HH  ARG D 557     -22.795  -1.298 -16.103  1.00 35.49     0.174 HD
ATOM     10  HH  ARG D 557     -22.497  -2.351 -15.099  1.00 35.49     0.174 HD
ATOM     11  HH  ARG D 557     -25.037  -1.817 -13.144  1.00 35.49     0.174 HD
ATOM     12  HH  ARG D 557     -23.835  -2.674 -13.320  1.00 35.49     0.174 HD
ATOM     13  HE  ARG D 557     -25.589  -0.348 -14.559  1.00 35.49     0.178 HD
ENDBRANCH   4   5
ENDBRANCH   3   4
ENDBRANCH   2   3
ENDBRANCH   1   2
END_RES ARG D 557
BEGIN_RES GLU D 570
REMARK  3 active torsions:
REMARK  status: ('A' for Active; 'I' for Inactive)
REMARK    5  A    between atoms: CA   and  CB  
REMARK    6  A    between atoms: CB   and  CG  
REMARK    7  A    between atoms: CG   and  CD  
ROOT
ATOM     14  CA  GLU D 570     -18.033  -6.348 -13.375  1.00 32.92     0.160 C 
ENDROOT
BRANCH  14  15
ATOM     15  CB  GLU D 570     -19.500  -6.345 -13.794  1.00 32.92     0.043 C 
BRANCH  15  16
ATOM     16  CG  GLU D 570     -20.441  -5.526 -12.987  1.00 32.92     0.100 C 
BRANCH  16  17
ATOM     17  CD  GLU D 570     -21.720  -5.202 -13.722  1.00 32.92     0.185 C 
ATOM     18  OE1 GLU D 570     -22.326  -4.148 -13.447  1.00 32.92    -0.647 OA
ATOM     19  OE2 GLU D 570     -22.130  -6.019 -14.570  1.00 32.92    -0.647 OA
ENDBRANCH  16  17
ENDBRANCH  15  16
ENDBRANCH  14  15
END_RES GLU D 570
ENDMDL
MODEL 3
REMARK VINA RESULT:      -6.9      1.148      2.341
REMARK  0 active torsions:
REMARK  status: ('A' for Active; 'I' for Inactive)
ROOT
HETATM    1  C   UNL     1     -20.481  -4.761  -8.243  1.00  0.00     0.157 C 
HETATM    2  N   UNL     1     -20.824  -4.376  -9.589  1.00  0.00    -0.340 N 
HETATM    3  C   UNL     1     -19.972  -4.321 -10.659  1.00  0.00     0.184 A 
HETATM    4  N   UNL     1     -20.598  -3.953 -11.761  1.00  0.00    -0.336 N 
ATOM      5  HN  UNL     1     -20.204  -3.835 -12.695  1.00  0.00     0.168 HD
HETATM    6  C   UNL     1     -21.890  -3.766 -11.370  1.00  0.00     0.145 A 
HETATM    7  C   UNL     1     -22.059  -4.012 -10.042  1.00  0.00     0.149 A 
HETATM    8  C   UNL     1     -23.310  -3.889  -9.379  1.00  0.00     0.282 A 
HETATM    9  O   UNL     1     -23.449  -4.110  -8.180  1.00  0.00    -0.265 OA
HETATM   10  N   UNL     1     -24.341  -3.496 -10.236  1.00  0.00    -0.269 N 
HETATM   11  C   UNL     1     -24.207  -3.232 -11.615  1.00  0.00     0.332 A 
HETATM   12  O   UNL     1     -25.180  -2.884 -12.290  1.00  0.00    -0.246 OA
HETATM   13  N   UNL     1     -22.936  -3.381 -12.173  1.00  0.00    -0.287 N 
HETATM   14  C   UNL     1     -22.723  -3.138 -13.589  1.00  0.00     0.163 C 
HETATM   15  C   UNL     1     -25.669  -3.344  -9.679  1.00  0.00     0.164 C 
ENDROOT
TORSDOF 0
BEGIN_RES ARG D 557
REMARK  4 active torsions:
REMARK  status: ('A' for Active; 'I' for Inactive)
REMARK    1  A    between atoms: CA   and  CB  
REMARK    2  A    between atoms: CB   and  CG  
REMARK    3  A    between atoms: CG   and  CD  
REMARK    4  A    between atoms: CD   and  NE  
REMARK       I    between atoms: NE   and  CZ  
REMARK       I    between atoms: CZ   and  NH1 
REMARK       I    between atoms: CZ   and  NH2 
ROOT
ATOM      1  CA  ARG D 557     -26.217   2.705 -17.014  1.00 35.49     0.159 C 
ENDROOT
BRANCH   1   2
ATOM      2  CB  ARG D 557     -26.789   1.319 -17.183  1.00 35.49     0.034 C 
BRANCH   2   3
ATOM      3  CG  ARG D 557     -28.225   1.161 -16.925  1.00 35.49     0.027 C 
BRANCH   3   4
ATOM      4  CD  ARG D 557     -28.584  -0.230 -16.564  1.00 35.49     0.116 C 
BRANCH   4   5
ATOM      5  NE  ARG D 557     -27.529  -0.893 -15.845  1.00 35.49    -0.212 N 
ATOM      6  CZ  ARG D 557     -27.244  -2.175 -15.908  1.00 35.49     0.666 C 
ATOM      7  NH1 ARG D 557     -27.932  -3.018 -16.655  1.00 35.49    -0.235 N 
ATOM      8  NH2 ARG D 557     -26.236  -2.601 -15.204  1.00 35.49    -0.235 N 
ATOM      9  HH  ARG D 557     -28.598  -2.759 -17.129  1.00 35.49     0.174 HD
ATOM     10  HH  ARG D 557     -27.699  -3.842 -16.659  1.00 35.49     0.174 HD
ATOM     11  HH  ARG D 557     -25.805  -2.032 -14.737  1.00 35.49     0.174 HD
ATOM     12  HH  ARG D 557     -26.020  -3.421 -15.222  1.00 35.49     0.174 HD
ATOM     13  HE  ARG D 557     -27.080  -0.438 -15.284  1.00 35.49     0.178 HD
ENDBRANCH   4   5
ENDBRANCH   3   4
ENDBRANCH   2   3
ENDBRANCH   1   2
END_RES ARG D 557
BEGIN_RES GLU D 570
REMARK  3 active torsions:
REMARK  status: ('A' for Active; 'I' for Inactive)
REMARK    5  A    between atoms: CA   and  CB  
REMARK    6  A    between atoms: CB   and  CG  
REMARK    7  A    between atoms: CG   and  CD  
ROOT
ATOM     14  CA  GLU D 570     -18.033  -6.348 -13.375  1.00 32.92     0.160 C 
ENDROOT
BRANCH  14  15
ATOM     15  CB  GLU D 570     -19.500  -6.345 -13.794  1.00 32.92     0.043 C 
BRANCH  15  16
ATOM     16  CG  GLU D 570     -19.796  -6.285 -15.249  1.00 32.92     0.100 C 
BRANCH  16  17
ATOM     17  CD  GLU D 570     -21.238  -5.942 -15.543  1.00 32.92     0.185 C 
ATOM     18  OE1 GLU D 570     -21.490  -5.048 -16.374  1.00 32.92    -0.647 OA
ATOM     19  OE2 GLU D 570     -22.125  -6.562 -14.923  1.00 32.92    -0.647 OA
ENDBRANCH  16  17
ENDBRANCH  15  16
ENDBRANCH  14  15
END_RES GLU D 570
ENDMDL
MODEL 4
REMARK VINA RESULT:      -6.3      1.978      2.315
REMARK  0 active torsions:
REMARK  status: ('A' for Active; 'I' for Inactive)
ROOT
HETATM    1  C   UNL     1     -20.576  -5.572  -6.093  1.00  0.00     0.157 C 
HETATM    2  N   UNL     1     -21.723  -5.073  -6.810  1.00  0.00    -0.340 N 
HETATM    3  C   UNL     1     -23.000  -4.966  -6.326  1.00  0.00     0.184 A 
HETATM    4  N   UNL     1     -23.818  -4.450  -7.223  1.00  0.00    -0.336 N 
ATOM      5  HN  UNL     1     -24.816  -4.261  -7.124  1.00  0.00     0.168 HD
HETATM    6  C   UNL     1     -23.030  -4.226  -8.312  1.00  0.00     0.145 A 
HETATM    7  C   UNL     1     -21.741  -4.604  -8.092  1.00  0.00     0.149 A 
HETATM    8  C   UNL     1     -20.714  -4.480  -9.067  1.00  0.00     0.282 A 
HETATM    9  O   UNL     1     -19.556  -4.827  -8.857  1.00  0.00    -0.265 OA
HETATM   10  N   UNL     1     -21.170  -3.927 -10.266  1.00  0.00    -0.269 N 
HETATM   11  C   UNL     1     -22.494  -3.524 -10.533  1.00  0.00     0.332 A 
HETATM   12  O   UNL     1     -22.802  -3.048 -11.630  1.00  0.00    -0.246 OA
HETATM   13  N   UNL     1     -23.431  -3.686  -9.511  1.00  0.00    -0.287 N 
HETATM   14  C   UNL     1     -24.812  -3.284  -9.708  1.00  0.00     0.163 C 
HETATM   15  C   UNL     1     -20.214  -3.741 -11.338  1.00  0.00     0.164 C 
ENDROOT
TORSDOF 0
BEGIN_RES ARG D 557
REMARK  4 active torsions:
REMARK  status: ('A' for Active; 'I' for Inactive)
REMARK    1  A    between atoms: CA   and  CB  
REMARK    2  A    between atoms: CB   and  CG  
REMARK    3  A    between atoms: CG   and  CD  
REMARK    4  A    between atoms: CD   and  NE  
REMARK       I    between atoms: NE   and  CZ  
REMARK       I    between atoms: CZ   and  NH1 
REMARK       I    between atoms: CZ   and  NH2 
ROOT
ATOM      1  CA  ARG D 557     -26.217   2.705 -17.014  1.00 35.49     0.159 C 
ENDROOT
BRANCH   1   2
ATOM      2  CB  ARG D 557     -26.789   1.319 -17.183  1.00 35.49     0.034 C 
BRANCH   2   3
ATOM      3  CG  ARG D 557     -25.831   0.207 -17.202  1.00 35.49     0.027 C 
BRANCH   3   4
ATOM      4  CD  ARG D 557     -24.784   0.346 -16.164  1.00 35.49     0.116 C 
BRANCH   4   5
ATOM      5  NE  ARG D 557     -25.015  -0.524 -15.041  1.00 35.49    -0.212 N 
ATOM      6  CZ  ARG D 557     -24.235  -1.510 -14.659  1.00 35.49     0.666 C 
ATOM      7  NH1 ARG D 557     -23.124  -1.823 -15.300  1.00 35.49    -0.235 N 
ATOM      8  NH2 ARG D 557     -24.589  -2.182 -13.603  1.00 35.49    -0.235 N 
ATOM      9  HH  ARG D 557     -22.870  -1.393 -15.996  1.00 35.49     0.174 HD
ATOM     10  HH  ARG D 557     -22.653  -2.475 -15.003  1.00 35.49     0.174 HD
ATOM     11  HH  ARG D 557     -25.308  -1.952 -13.205  1.00 35.49     0.174 HD
ATOM     12  HH  ARG D 557     -24.109  -2.822 -13.324  1.00 35.49     0.174 HD
ATOM     13  HE  ARG D 557     -25.746  -0.439 -14.614  1.00 35.49     0.178 HD
ENDBRANCH   4   5
ENDBRANCH   3   4
ENDBRANCH   2   3
ENDBRANCH   1   2
END_RES ARG D 557
BEGIN_RES GLU D 570
REMARK  3 active torsions:
REMARK  status: ('A' for Active; 'I' for Inactive)
REMARK    5  A    between atoms: CA   and  CB  
REMARK    6  A    between atoms: CB   and  CG  
REMARK    7  A    between atoms: CG   and  CD  
ROOT
ATOM     14  CA  GLU D 570     -18.033  -6.348 -13.375  1.00 32.92     0.160 C 
ENDROOT
BRANCH  14  15
ATOM     15  CB  GLU D 570     -19.500  -6.345 -13.794  1.00 32.92     0.043 C 
BRANCH  15  16
ATOM     16  CG  GLU D 570     -19.834  -5.751 -15.114  1.00 32.92     0.100 C 
BRANCH  16  17
ATOM     17  CD  GLU D 570     -21.262  -5.266 -15.198  1.00 32.92     0.185 C 
ATOM     18  OE1 GLU D 570     -21.602  -4.548 -16.158  1.00 32.92    -0.647 OA
ATOM     19  OE2 GLU D 570     -22.046  -5.594 -14.285  1.00 32.92    -0.647 OA
ENDBRANCH  16  17
ENDBRANCH  15  16
ENDBRANCH  14  15
END_RES GLU D 570
ENDMDL
MODEL 5
REMARK VINA RESULT:      -6.2      2.199      3.290
REMARK  0 active torsions:
REMARK  status: ('A' for Active; 'I' for Inactive)
ROOT
HETATM    1  C   UNL     1     -21.305  -5.488  -5.499  1.00  0.00     0.157 C 
HETATM    2  N   UNL     1     -20.851  -5.112  -6.815  1.00  0.00    -0.340 N 
HETATM    3  C   UNL     1     -19.571  -5.207  -7.290  1.00  0.00     0.184 A 
HETATM    4  N   UNL     1     -19.486  -4.804  -8.544  1.00  0.00    -0.336 N 
ATOM      5  HN  UNL     1     -18.655  -4.773  -9.136  1.00  0.00     0.168 HD
HETATM    6  C   UNL     1     -20.758  -4.439  -8.870  1.00  0.00     0.145 A 
HETATM    7  C   UNL     1     -21.618  -4.612  -7.828  1.00  0.00     0.149 A 
HETATM    8  C   UNL     1     -23.003  -4.305  -7.901  1.00  0.00     0.282 A 
HETATM    9  O   UNL     1     -23.767  -4.461  -6.955  1.00  0.00    -0.265 OA
HETATM   10  N   UNL     1     -23.384  -3.816  -9.154  1.00  0.00    -0.269 N 
HETATM   11  C   UNL     1     -22.526  -3.623 -10.256  1.00  0.00     0.332 A 
HETATM   12  O   UNL     1     -22.957  -3.180 -11.324  1.00  0.00    -0.246 OA
HETATM   13  N   UNL     1     -21.180  -3.954 -10.084  1.00  0.00    -0.287 N 
HETATM   14  C   UNL     1     -20.238  -3.794 -11.177  1.00  0.00     0.163 C 
HETATM   15  C   UNL     1     -24.777  -3.474  -9.358  1.00  0.00     0.164 C 
ENDROOT
TORSDOF 0
BEGIN_RES ARG D 557
REMARK  4 active torsions:
REMARK  status: ('A' for Active; 'I' for Inactive)
REMARK    1  A    between atoms: CA   and  CB  
REMARK    2  A    between atoms: CB   and  CG  
REMARK    3  A    between atoms: CG   and  CD  
REMARK    4  A    between atoms: CD   and  NE  
REMARK       I    between atoms: NE   and  CZ  
REMARK       I    between atoms: CZ   and  NH1 
REMARK       I    between atoms: CZ   and  NH2 
ROOT
ATOM      1  CA  ARG D 557     -26.217   2.705 -17.014  1.00 35.49     0.159 C 
ENDROOT
BRANCH   1   2
ATOM      2  CB  ARG D 557     -26.789   1.319 -17.183  1.00 35.49     0.034 C 
BRANCH   2   3
ATOM      3  CG  ARG D 557     -25.837   0.202 -17.148  1.00 35.49     0.027 C 
BRANCH   3   4
ATOM      4  CD  ARG D 557     -24.752   0.417 -16.163  1.00 35.49     0.116 C 
BRANCH   4   5
ATOM      5  NE  ARG D 557     -24.880  -0.447 -15.019  1.00 35.49    -0.212 N 
ATOM      6  CZ  ARG D 557     -24.050  -1.411 -14.687  1.00 35.49     0.666 C 
ATOM      7  NH1 ARG D 557     -22.981  -1.704 -15.405  1.00 35.49    -0.235 N 
ATOM      8  NH2 ARG D 557     -24.311  -2.081 -13.603  1.00 35.49    -0.235 N 
ATOM      9  HH  ARG D 557     -22.789  -1.275 -16.121  1.00 35.49     0.174 HD
ATOM     10  HH  ARG D 557     -22.475  -2.342 -15.138  1.00 35.49     0.174 HD
ATOM     11  HH  ARG D 557     -25.004  -1.864 -13.155  1.00 35.49     0.174 HD
ATOM     12  HH  ARG D 557     -23.796  -2.707 -13.354  1.00 35.49     0.174 HD
ATOM     13  HE  ARG D 557     -25.579  -0.375 -14.541  1.00 35.49     0.178 HD
ENDBRANCH   4   5
ENDBRANCH   3   4
ENDBRANCH   2   3
ENDBRANCH   1   2
END_RES ARG D 557
BEGIN_RES GLU D 570
REMARK  3 active torsions:
REMARK  status: ('A' for Active; 'I' for Inactive)
REMARK    5  A    between atoms: CA   and  CB  
REMARK    6  A    between atoms: CB   and  CG  
REMARK    7  A    between atoms: CG   and  CD  
ROOT
ATOM     14  CA  GLU D 570     -18.033  -6.348 -13.375  1.00 32.92     0.160 C 
ENDROOT
BRANCH  14  15
ATOM     15  CB  GLU D 570     -19.500  -6.345 -13.794  1.00 32.92     0.043 C 
BRANCH  15  16
ATOM     16  CG  GLU D 570     -19.808  -5.996 -15.205  1.00 32.92     0.100 C 
BRANCH  16  17
ATOM     17  CD  GLU D 570     -21.134  -5.287 -15.361  1.00 32.92     0.185 C 
ATOM     18  OE1 GLU D 570     -21.770  -4.962 -14.340  1.00 32.92    -0.647 OA
ATOM     19  OE2 GLU D 570     -21.548  -5.070 -16.516  1.00 32.92    -0.647 OA
ENDBRANCH  16  17
ENDBRANCH  15  16
ENDBRANCH  14  15
END_RES GLU D 570
ENDMDL
MODEL 6
REMARK VINA RESULT:      -6.2      3.618      7.404
REMARK  0 active torsions:
REMARK  status: ('A' for Active; 'I' for Inactive)
ROOT
HETATM    1  C   UNL     1     -28.570  -5.591 -15.546  1.00  0.00     0.157 C 
HETATM    2  N   UNL     1     -28.024  -5.812 -16.862  1.00  0.00    -0.340 N 
HETATM    3  C   UNL     1     -28.668  -5.607 -18.053  1.00  0.00     0.184 A 
HETATM    4  N   UNL     1     -27.887  -5.880 -19.082  1.00  0.00    -0.336 N 
ATOM      5  HN  UNL     1     -28.113  -5.811 -20.074  1.00  0.00     0.168 HD
HETATM    6  C   UNL     1     -26.710  -6.274 -18.518  1.00  0.00     0.145 A 
HETATM    7  C   UNL     1     -26.765  -6.248 -17.158  1.00  0.00     0.149 A 
HETATM    8  C   UNL     1     -25.672  -6.615 -16.326  1.00  0.00     0.282 A 
HETATM    9  O   UNL     1     -25.735  -6.592 -15.102  1.00  0.00    -0.265 OA
HETATM   10  N   UNL     1     -24.543  -6.997 -17.054  1.00  0.00    -0.269 N 
HETATM   11  C   UNL     1     -24.446  -7.037 -18.460  1.00  0.00     0.332 A 
HETATM   12  O   UNL     1     -23.401  -7.394 -19.013  1.00  0.00    -0.246 OA
HETATM   13  N   UNL     1     -25.574  -6.658 -19.189  1.00  0.00    -0.287 N 
HETATM   14  C   UNL     1     -25.547  -6.662 -20.641  1.00  0.00     0.163 C 
HETATM   15  C   UNL     1     -23.357  -7.387 -16.318  1.00  0.00     0.164 C 
ENDROOT
TORSDOF 0
BEGIN_RES ARG D 557
REMARK  4 active torsions:
REMARK  status: ('A' for Active; 'I' for Inactive)
REMARK    1  A    between atoms: CA   and  CB  
REMARK    2  A    between atoms: CB   and  CG  
REMARK    3  A    between atoms: CG   and  CD  
REMARK    4  A    between atoms: CD   and  NE  
REMARK       I    between atoms: NE   and  CZ  
REMARK       I    between atoms: CZ   and  NH1 
REMARK       I    between atoms: CZ   and  NH2 
ROOT
ATOM      1  CA  ARG D 557     -26.217   2.705 -17.014  1.00 35.49     0.159 C 
ENDROOT
BRANCH   1   2
ATOM      2  CB  ARG D 557     -26.789   1.319 -17.183  1.00 35.49     0.034 C 
BRANCH   2   3
ATOM      3  CG  ARG D 557     -25.872   0.194 -16.962  1.00 35.49     0.027 C 
BRANCH   3   4
ATOM      4  CD  ARG D 557     -26.372  -0.748 -15.936  1.00 35.49     0.116 C 
BRANCH   4   5
ATOM      5  NE  ARG D 557     -25.386  -1.022 -14.924  1.00 35.49    -0.212 N 
ATOM      6  CZ  ARG D 557     -25.136  -2.198 -14.392  1.00 35.49     0.666 C 
ATOM      7  NH1 ARG D 557     -25.800  -3.286 -14.736  1.00 35.49    -0.235 N 
ATOM      8  NH2 ARG D 557     -24.190  -2.265 -13.501  1.00 35.49    -0.235 N 
ATOM      9  HH  ARG D 557     -26.425  -3.266 -15.321  1.00 35.49     0.174 HD
ATOM     10  HH  ARG D 557     -25.591  -4.026 -14.357  1.00 35.49     0.174 HD
ATOM     11  HH  ARG D 557     -23.773  -1.547 -13.305  1.00 35.49     0.174 HD
ATOM     12  HH  ARG D 557     -23.998  -3.007 -13.139  1.00 35.49     0.174 HD
ATOM     13  HE  ARG D 557     -24.961  -0.364 -14.592  1.00 35.49     0.178 HD
ENDBRANCH   4   5
ENDBRANCH   3   4
ENDBRANCH   2   3
ENDBRANCH   1   2
END_RES ARG D 557
BEGIN_RES GLU D 570
REMARK  3 active torsions:
REMARK  status: ('A' for Active; 'I' for Inactive)
REMARK    5  A    between atoms: CA   and  CB  
REMARK    6  A    between atoms: CB   and  CG  
REMARK    7  A    between atoms: CG   and  CD  
ROOT
ATOM     14  CA  GLU D 570     -18.033  -6.348 -13.375  1.00 32.92     0.160 C 
ENDROOT
BRANCH  14  15
ATOM     15  CB  GLU D 570     -19.500  -6.345 -13.794  1.00 32.92     0.043 C 
BRANCH  15  16
ATOM     16  CG  GLU D 570     -20.452  -5.580 -12.948  1.00 32.92     0.100 C 
BRANCH  16  17
ATOM     17  CD  GLU D 570     -21.679  -5.127 -13.704  1.00 32.92     0.185 C 
ATOM     18  OE1 GLU D 570     -22.768  -5.054 -13.102  1.00 32.92    -0.647 OA
ATOM     19  OE2 GLU D 570     -21.554  -4.858 -14.914  1.00 32.92    -0.647 OA
ENDBRANCH  16  17
ENDBRANCH  15  16
ENDBRANCH  14  15
END_RES GLU D 570
ENDMDL
MODEL 7
REMARK VINA RESULT:      -5.8      5.494      7.097
REMARK  0 active torsions:
REMARK  status: ('A' for Active; 'I' for Inactive)
ROOT
HETATM    1  C   UNL     1     -22.436  -7.570  -0.177  1.00  0.00     0.157 C 
HETATM    2  N   UNL     1     -21.510  -8.233  -1.061  1.00  0.00    -0.340 N 
HETATM    3  C   UNL     1     -20.786  -9.361  -0.780  1.00  0.00     0.184 A 
HETATM    4  N   UNL     1     -20.046  -9.733  -1.808  1.00  0.00    -0.336 N 
ATOM      5  HN  UNL     1     -19.417 -10.534  -1.868  1.00  0.00     0.168 HD
HETATM    6  C   UNL     1     -20.312  -8.805  -2.770  1.00  0.00     0.145 A 
HETATM    7  C   UNL     1     -21.202  -7.868  -2.340  1.00  0.00     0.149 A 
HETATM    8  C   UNL     1     -21.648  -6.787  -3.147  1.00  0.00     0.282 A 
HETATM    9  O   UNL     1     -22.448  -5.948  -2.747  1.00  0.00    -0.265 OA
HETATM   10  N   UNL     1     -21.080  -6.795  -4.423  1.00  0.00    -0.269 N 
HETATM   11  C   UNL     1     -20.156  -7.744  -4.906  1.00  0.00     0.332 A 
HETATM   12  O   UNL     1     -19.705  -7.663  -6.053  1.00  0.00    -0.246 OA
HETATM   13  N   UNL     1     -19.780  -8.769  -4.036  1.00  0.00    -0.287 N 
HETATM   14  C   UNL     1     -18.842  -9.790  -4.466  1.00  0.00     0.163 C 
HETATM   15  C   UNL     1     -21.463  -5.745  -5.346  1.00  0.00     0.164 C 
ENDROOT
TORSDOF 0
BEGIN_RES ARG D 557
REMARK  4 active torsions:
REMARK  status: ('A' for Active; 'I' for Inactive)
REMARK    1  A    between atoms: CA   and  CB  
REMARK    2  A    between atoms: CB   and  CG  
REMARK    3  A    between atoms: CG   and  CD  
REMARK    4  A    between atoms: CD   and  NE  
REMARK       I    between atoms: NE   and  CZ  
REMARK       I    between atoms: CZ   and  NH1 
REMARK       I    between atoms: CZ   and  NH2 
ROOT
ATOM      1  CA  ARG D 557     -26.217   2.705 -17.014  1.00 35.49     0.159 C 
ENDROOT
BRANCH   1   2
ATOM      2  CB  ARG D 557     -26.789   1.319 -17.183  1.00 35.49     0.034 C 
BRANCH   2   3
ATOM      3  CG  ARG D 557     -25.836   0.203 -17.157  1.00 35.49     0.027 C 
BRANCH   3   4
ATOM      4  CD  ARG D 557     -24.753   0.409 -16.168  1.00 35.49     0.116 C 
BRANCH   4   5
ATOM      5  NE  ARG D 557     -24.903  -0.439 -15.015  1.00 35.49    -0.212 N 
ATOM      6  CZ  ARG D 557     -24.092  -1.412 -14.667  1.00 35.49     0.666 C 
ATOM      7  NH1 ARG D 557     -23.024  -1.733 -15.374  1.00 35.49    -0.235 N 
ATOM      8  NH2 ARG D 557     -24.371  -2.065 -13.576  1.00 35.49    -0.235 N 
ATOM      9  HH  ARG D 557     -22.820  -1.316 -16.094  1.00 35.49     0.174 HD
ATOM     10  HH  ARG D 557     -22.530  -2.376 -15.096  1.00 35.49     0.174 HD
ATOM     11  HH  ARG D 557     -25.063  -1.831 -13.136  1.00 35.49     0.174 HD
ATOM     12  HH  ARG D 557     -23.869  -2.697 -13.317  1.00 35.49     0.174 HD
ATOM     13  HE  ARG D 557     -25.604  -0.349 -14.542  1.00 35.49     0.178 HD
ENDBRANCH   4   5
ENDBRANCH   3   4
ENDBRANCH   2   3
ENDBRANCH   1   2
END_RES ARG D 557
BEGIN_RES GLU D 570
REMARK  3 active torsions:
REMARK  status: ('A' for Active; 'I' for Inactive)
REMARK    5  A    between atoms: CA   and  CB  
REMARK    6  A    between atoms: CB   and  CG  
REMARK    7  A    between atoms: CG   and  CD  
ROOT
ATOM     14  CA  GLU D 570     -18.033  -6.348 -13.375  1.00 32.92     0.160 C 
ENDROOT
BRANCH  14  15
ATOM     15  CB  GLU D 570     -19.500  -6.345 -13.794  1.00 32.92     0.043 C 
BRANCH  15  16
ATOM     16  CG  GLU D 570     -20.443  -5.535 -12.980  1.00 32.92     0.100 C 
BRANCH  16  17
ATOM     17  CD  GLU D 570     -21.742  -5.247 -13.695  1.00 32.92     0.185 C 
ATOM     18  OE1 GLU D 570     -22.293  -4.142 -13.528  1.00 32.92    -0.647 OA
ATOM     19  OE2 GLU D 570     -22.222  -6.143 -14.418  1.00 32.92    -0.647 OA
ENDBRANCH  16  17
ENDBRANCH  15  16
ENDBRANCH  14  15
END_RES GLU D 570
ENDMDL
MODEL 8
REMARK VINA RESULT:      -5.6      5.239      6.764
REMARK  0 active torsions:
REMARK  status: ('A' for Active; 'I' for Inactive)
ROOT
HETATM    1  C   UNL     1     -21.313  -8.357   0.077  1.00  0.00     0.157 C 
HETATM    2  N   UNL     1     -21.510  -7.625  -1.150  1.00  0.00    -0.340 N 
HETATM    3  C   UNL     1     -22.333  -6.545  -1.326  1.00  0.00     0.184 A 
HETATM    4  N   UNL     1     -22.274  -6.085  -2.562  1.00  0.00    -0.336 N 
ATOM      5  HN  UNL     1     -22.780  -5.293  -2.959  1.00  0.00     0.168 HD
HETATM    6  C   UNL     1     -21.384  -6.906  -3.187  1.00  0.00     0.145 A 
HETATM    7  C   UNL     1     -20.902  -7.865  -2.348  1.00  0.00     0.149 A 
HETATM    8  C   UNL     1     -19.961  -8.851  -2.749  1.00  0.00     0.282 A 
HETATM    9  O   UNL     1     -19.537  -9.712  -1.985  1.00  0.00    -0.265 OA
HETATM   10  N   UNL     1     -19.583  -8.726  -4.088  1.00  0.00    -0.269 N 
HETATM   11  C   UNL     1     -20.058  -7.749  -4.988  1.00  0.00     0.332 A 
HETATM   12  O   UNL     1     -19.666  -7.723  -6.159  1.00  0.00    -0.246 OA
HETATM   13  N   UNL     1     -20.981  -6.824  -4.498  1.00  0.00    -0.287 N 
HETATM   14  C   UNL     1     -21.507  -5.782  -5.361  1.00  0.00     0.163 C 
HETATM   15  C   UNL     1     -18.620  -9.670  -4.616  1.00  0.00     0.164 C 
ENDROOT
TORSDOF 0
BEGIN_RES ARG D 557
REMARK  4 active torsions:
REMARK  status: ('A' for Active; 'I' for Inactive)
REMARK    1  A    between atoms: CA   and  CB  
REMARK    2  A    between atoms: CB   and  CG  
REMARK    3  A    between atoms: CG   and  CD  
REMARK    4  A    between atoms: CD   and  NE  
REMARK       I    between atoms: NE   and  CZ  
REMARK       I    between atoms: CZ   and  NH1 
REMARK       I    between atoms: CZ   and  NH2 
ROOT
ATOM      1  CA  ARG D 557     -26.217   2.705 -17.014  1.00 35.49     0.159 C 
ENDROOT
BRANCH   1   2
ATOM      2  CB  ARG D 557     -26.789   1.319 -17.183  1.00 35.49     0.034 C 
BRANCH   2   3
ATOM      3  CG  ARG D 557     -28.157   1.105 -16.694  1.00 35.49     0.027 C 
BRANCH   3   4
ATOM      4  CD  ARG D 557     -28.793  -0.085 -17.304  1.00 35.49     0.116 C 
BRANCH   4   5
ATOM      5  NE  ARG D 557     -28.184  -1.312 -16.863  1.00 35.49    -0.212 N 
ATOM      6  CZ  ARG D 557     -28.674  -2.519 -17.036  1.00 35.49     0.666 C 
ATOM      7  NH1 ARG D 557     -29.827  -2.736 -17.642  1.00 35.49    -0.235 N 
ATOM      8  NH2 ARG D 557     -27.975  -3.521 -16.589  1.00 35.49    -0.235 N 
ATOM      9  HH  ARG D 557     -30.303  -2.092 -17.946  1.00 35.49     0.174 HD
ATOM     10  HH  ARG D 557     -30.095  -3.545 -17.728  1.00 35.49     0.174 HD
ATOM     11  HH  ARG D 557     -27.230  -3.352 -16.208  1.00 35.49     0.174 HD
ATOM     12  HH  ARG D 557     -28.257  -4.315 -16.685  1.00 35.49     0.174 HD
ATOM     13  HE  ARG D 557     -27.473  -1.261 -16.398  1.00 35.49     0.178 HD
ENDBRANCH   4   5
ENDBRANCH   3   4
ENDBRANCH   2   3
ENDBRANCH   1   2
END_RES ARG D 557
BEGIN_RES GLU D 570
REMARK  3 active torsions:
REMARK  status: ('A' for Active; 'I' for Inactive)
REMARK    5  A    between atoms: CA   and  CB  
REMARK    6  A    between atoms: CB   and  CG  
REMARK    7  A    between atoms: CG   and  CD  
ROOT
ATOM     14  CA  GLU D 570     -18.033  -6.348 -13.375  1.00 32.92     0.160 C 
ENDROOT
BRANCH  14  15
ATOM     15  CB  GLU D 570     -19.500  -6.345 -13.794  1.00 32.92     0.043 C 
BRANCH  15  16
ATOM     16  CG  GLU D 570     -20.451  -5.573 -12.953  1.00 32.92     0.100 C 
BRANCH  16  17
ATOM     17  CD  GLU D 570     -21.691  -5.147 -13.703  1.00 32.92     0.185 C 
ATOM     18  OE1 GLU D 570     -21.639  -5.035 -14.943  1.00 32.92    -0.647 OA
ATOM     19  OE2 GLU D 570     -22.721  -4.908 -13.043  1.00 32.92    -0.647 OA
ENDBRANCH  16  17
ENDBRANCH  15  16
ENDBRANCH  14  15
END_RES GLU D 570
ENDMDL
MODEL 9
REMARK VINA RESULT:      -5.5      6.526      8.348
REMARK  0 active torsions:
REMARK  status: ('A' for Active; 'I' for Inactive)
ROOT
HETATM    1  C   UNL     1     -21.432  -6.091  -4.342  1.00  0.00     0.157 C 
HETATM    2  N   UNL     1     -20.884  -7.322  -3.828  1.00  0.00    -0.340 N 
HETATM    3  C   UNL     1     -20.042  -8.174  -4.490  1.00  0.00     0.184 A 
HETATM    4  N   UNL     1     -19.700  -9.203  -3.737  1.00  0.00    -0.336 N 
ATOM      5  HN  UNL     1     -19.085  -9.980  -3.982  1.00  0.00     0.168 HD
HETATM    6  C   UNL     1     -20.352  -8.993  -2.560  1.00  0.00     0.145 A 
HETATM    7  C   UNL     1     -21.092  -7.850  -2.586  1.00  0.00     0.149 A 
HETATM    8  C   UNL     1     -21.871  -7.399  -1.487  1.00  0.00     0.282 A 
HETATM    9  O   UNL     1     -22.536  -6.369  -1.524  1.00  0.00    -0.265 OA
HETATM   10  N   UNL     1     -21.791  -8.250  -0.382  1.00  0.00    -0.269 N 
HETATM   11  C   UNL     1     -21.038  -9.441  -0.315  1.00  0.00     0.332 A 
HETATM   12  O   UNL     1     -21.034 -10.131   0.709  1.00  0.00    -0.246 OA
HETATM   13  N   UNL     1     -20.305  -9.798  -1.448  1.00  0.00    -0.287 N 
HETATM   14  C   UNL     1     -19.497 -11.004  -1.450  1.00  0.00     0.163 C 
HETATM   15  C   UNL     1     -22.536  -7.895   0.808  1.00  0.00     0.164 C 
ENDROOT
TORSDOF 0
BEGIN_RES ARG D 557
REMARK  4 active torsions:
REMARK  status: ('A' for Active; 'I' for Inactive)
REMARK    1  A    between atoms: CA   and  CB  
REMARK    2  A    between atoms: CB   and  CG  
REMARK    3  A    between atoms: CG   and  CD  
REMARK    4  A    between atoms: CD   and  NE  
REMARK       I    between atoms: NE   and  CZ  
REMARK       I    between atoms: CZ   and  NH1 
REMARK       I    between atoms: CZ   and  NH2 
ROOT
ATOM      1  CA  ARG D 557     -26.217   2.705 -17.014  1.00 35.49     0.159 C 
ENDROOT
BRANCH   1   2
ATOM      2  CB  ARG D 557     -26.789   1.319 -17.183  1.00 35.49     0.034 C 
BRANCH   2   3
ATOM      3  CG  ARG D 557     -25.836   0.203 -17.157  1.00 35.49     0.027 C 
BRANCH   3   4
ATOM      4  CD  ARG D 557     -24.751   0.410 -16.170  1.00 35.49     0.116 C 
BRANCH   4   5
ATOM      5  NE  ARG D 557     -24.899  -0.437 -15.016  1.00 35.49    -0.212 N 
ATOM      6  CZ  ARG D 557     -24.086  -1.410 -14.669  1.00 35.49     0.666 C 
ATOM      7  NH1 ARG D 557     -23.018  -1.729 -15.377  1.00 35.49    -0.235 N 
ATOM      8  NH2 ARG D 557     -24.363  -2.063 -13.577  1.00 35.49    -0.235 N 
ATOM      9  HH  ARG D 557     -22.816  -1.311 -16.097  1.00 35.49     0.174 HD
ATOM     10  HH  ARG D 557     -22.523  -2.371 -15.100  1.00 35.49     0.174 HD
ATOM     11  HH  ARG D 557     -25.054  -1.830 -13.136  1.00 35.49     0.174 HD
ATOM     12  HH  ARG D 557     -23.859  -2.694 -13.319  1.00 35.49     0.174 HD
ATOM     13  HE  ARG D 557     -25.599  -0.349 -14.543  1.00 35.49     0.178 HD
ENDBRANCH   4   5
ENDBRANCH   3   4
ENDBRANCH   2   3
ENDBRANCH   1   2
END_RES ARG D 557
BEGIN_RES GLU D 570
REMARK  3 active torsions:
REMARK  status: ('A' for Active; 'I' for Inactive)
REMARK    5  A    between atoms: CA   and  CB  
REMARK    6  A    between atoms: CB   and  CG  
REMARK    7  A    between atoms: CG   and  CD  
ROOT
ATOM     14  CA  GLU D 570     -18.033  -6.348 -13.375  1.00 32.92     0.160 C 
ENDROOT
BRANCH  14  15
ATOM     15  CB  GLU D 570     -19.500  -6.345 -13.794  1.00 32.92     0.043 C 
BRANCH  15  16
ATOM     16  CG  GLU D 570     -20.442  -5.532 -12.982  1.00 32.92     0.100 C 
BRANCH  16  17
ATOM     17  CD  GLU D 570     -21.746  -5.256 -13.693  1.00 32.92     0.185 C 
ATOM     18  OE1 GLU D 570     -22.238  -6.141 -14.420  1.00 32.92    -0.647 OA
ATOM     19  OE2 GLU D 570     -22.274  -4.138 -13.535  1.00 32.92    -0.647 OA
ENDBRANCH  16  17
ENDBRANCH  15  16
ENDBRANCH  14  15
END_RES GLU D 570
ENDMDL
