MODEL 1
REMARK VINA RESULT:      -9.1      0.000      0.000
REMARK  20 active torsions:
REMARK  status: ('A' for Active; 'I' for Inactive)
REMARK       I    between atoms: C_2  and  N_4 
REMARK    1  A    between atoms: N_4  and  C_5 
REMARK    2  A    between atoms: C_5  and  C_6 
REMARK    3  A    between atoms: C_5  and  C_11 
REMARK    4  A    between atoms: C_6  and  C_7 
REMARK    5  A    between atoms: C_7  and  C_8 
REMARK    6  A    between atoms: C_8  and  C_9 
REMARK    7  A    between atoms: C_9  and  N_10 
REMARK       I    between atoms: C_11  and  N_13 
REMARK    8  A    between atoms: N_13  and  C_14 
REMARK    9  A    between atoms: C_14  and  C_15 
REMARK       I    between atoms: C_15  and  N_17 
REMARK   10  A    between atoms: N_17  and  C_18 
REMARK   11  A    between atoms: C_18  and  C_19 
REMARK   12  A    between atoms: C_18  and  C_26 
REMARK   13  A    between atoms: C_19  and  C_20 
REMARK       I    between atoms: C_26  and  N_28 
REMARK   14  A    between atoms: N_28  and  C_29 
REMARK   15  A    between atoms: C_29  and  C_30 
REMARK   16  A    between atoms: C_29  and  C_35 
REMARK   17  A    between atoms: C_30  and  C_31 
REMARK   18  A    between atoms: C_31  and  C_32 
REMARK   19  A    between atoms: C_32  and  C_33 
REMARK   20  A    between atoms: C_33  and  N_34 
REMARK       I    between atoms: C_35  and  N_37 
ROOT
HETATM    1  C   UNL     1     -22.725  -4.545 -14.112  1.00  0.00     0.182 C 
ENDROOT
BRANCH   1   2
HETATM    2  N   UNL     1     -24.049  -5.134 -14.370  1.00  0.00    -0.346 N 
HETATM    3  C   UNL     1     -24.260  -6.112 -15.313  1.00  0.00     0.236 C 
HETATM    4  O   UNL     1     -23.349  -6.597 -15.985  1.00  0.00    -0.272 OA
HETATM    5  H   UNL     1     -24.785  -4.929 -13.692  1.00  0.00     0.163 HD
BRANCH   3   6
HETATM    6  C   UNL     1     -25.700  -6.602 -15.452  1.00  0.00     0.225 C 
BRANCH   6   7
HETATM    7  N   UNL     1     -26.095  -6.612 -16.841  1.00  0.00    -0.351 N 
HETATM    8  C   UNL     1     -27.130  -5.825 -17.286  1.00  0.00     0.240 C 
HETATM    9  O   UNL     1     -27.785  -5.142 -16.505  1.00  0.00    -0.271 OA
HETATM   10  H   UNL     1     -25.558  -7.143 -17.515  1.00  0.00     0.163 HD
BRANCH   8  11
HETATM   11  C   UNL     1     -27.452  -5.922 -18.799  1.00  0.00     0.176 C 
BRANCH  11  12
HETATM   12  N   UNL     1     -26.674  -6.980 -19.468  1.00  0.00    -0.348 N 
HETATM   13  C   UNL     1     -25.926  -6.725 -20.596  1.00  0.00     0.214 C 
HETATM   14  C   UNL     1     -25.227  -7.937 -21.151  1.00  0.00     0.117 C 
HETATM   15  O   UNL     1     -25.791  -5.609 -21.081  1.00  0.00    -0.274 OA
HETATM   16  H   UNL     1     -26.664  -7.907 -19.061  1.00  0.00     0.163 HD
ENDBRANCH  11  12
BRANCH  11  17
HETATM   17  C   UNL     1     -28.952  -6.186 -19.024  1.00  0.00     0.035 C 
BRANCH  17  18
HETATM   18  C   UNL     1     -29.482  -7.542 -18.535  1.00  0.00     0.004 C 
BRANCH  18  19
HETATM   19  C   UNL     1     -30.449  -7.481 -17.347  1.00  0.00     0.030 C 
BRANCH  19  20
HETATM   20  C   UNL     1     -31.099  -6.107 -17.202  1.00  0.00     0.267 C 
BRANCH  20  21
HETATM   21  N   UNL     1     -30.755  -5.504 -15.922  1.00  0.00     0.078 N 
HETATM   22  H   UNL     1     -31.600  -5.323 -15.383  1.00  0.00     0.312 HD
HETATM   23  H   UNL     1     -30.314  -4.598 -16.081  1.00  0.00     0.312 HD
ENDBRANCH  20  21
ENDBRANCH  19  20
ENDBRANCH  18  19
ENDBRANCH  17  18
ENDBRANCH  11  17
ENDBRANCH   8  11
ENDBRANCH   6   7
ENDBRANCH   3   6
ENDBRANCH   1   2
BRANCH   1  24
HETATM   24  C   UNL     1     -22.368  -3.432 -15.125  1.00  0.00     0.093 C 
BRANCH  24  25
HETATM   25  C   UNL     1     -23.279  -2.251 -15.059  1.00  0.00     0.028 A 
HETATM   26  C   UNL     1     -24.505  -2.051 -14.461  1.00  0.00     0.114 A 
HETATM   27  N   UNL     1     -24.954  -0.777 -14.675  1.00  0.00    -0.360 N 
HETATM   28  C   UNL     1     -24.034  -0.206 -15.415  1.00  0.00     0.180 A 
ATOM     29  HN  UNL     1     -25.819  -0.360 -14.332  1.00  0.00     0.166 HD
HETATM   30  N   UNL     1     -22.999  -1.055 -15.673  1.00  0.00    -0.354 N 
HETATM   31  H   UNL     1     -22.179  -0.840 -16.225  1.00  0.00     0.166 HD
ENDBRANCH  24  25
ENDBRANCH   1  24
BRANCH   1  32
HETATM   32  C   UNL     1     -22.642  -4.003 -12.658  1.00  0.00     0.241 C 
HETATM   33  O   UNL     1     -22.137  -2.914 -12.397  1.00  0.00    -0.271 OA
HETATM   34  N   UNL     1     -23.170  -4.837 -11.686  1.00  0.00    -0.346 N 
HETATM   35  H   UNL     1     -23.851  -5.536 -11.946  1.00  0.00     0.163 HD
BRANCH  34  36
HETATM   36  C   UNL     1     -22.988  -4.579 -10.246  1.00  0.00     0.176 C 
BRANCH  36  37
HETATM   37  C   UNL     1     -21.675  -3.814 -10.007  1.00  0.00     0.035 C 
BRANCH  37  38
HETATM   38  C   UNL     1     -20.422  -4.686  -9.821  1.00  0.00     0.004 C 
BRANCH  38  39
HETATM   39  C   UNL     1     -19.902  -4.784  -8.384  1.00  0.00     0.030 C 
BRANCH  39  40
HETATM   40  C   UNL     1     -20.753  -3.973  -7.409  1.00  0.00     0.267 C 
BRANCH  40  41
HETATM   41  N   UNL     1     -20.548  -4.429  -6.042  1.00  0.00     0.078 N 
HETATM   42  H   UNL     1     -21.213  -5.166  -5.817  1.00  0.00     0.312 HD
HETATM   43  H   UNL     1     -20.733  -3.659  -5.401  1.00  0.00     0.312 HD
ENDBRANCH  40  41
ENDBRANCH  39  40
ENDBRANCH  38  39
ENDBRANCH  37  38
ENDBRANCH  36  37
BRANCH  36  44
HETATM   44  C   UNL     1     -24.196  -3.803  -9.662  1.00  0.00     0.238 C 
HETATM   45  O   UNL     1     -25.098  -3.317 -10.341  1.00  0.00    -0.271 OA
HETATM   46  N   UNL     1     -24.283  -3.716  -8.297  1.00  0.00    -0.368 N 
HETATM   47  H   UNL     1     -23.428  -3.611  -7.771  1.00  0.00     0.159 HD
HETATM   48  H   UNL     1     -25.050  -3.128  -7.988  1.00  0.00     0.159 HD
ENDBRANCH  36  44
ENDBRANCH  34  36
ENDBRANCH   1  32
TORSDOF 20
BEGIN_RES ARG D 557
REMARK  4 active torsions:
REMARK  status: ('A' for Active; 'I' for Inactive)
REMARK    1  A    between atoms: CA   and  CB  
REMARK    2  A    between atoms: CB   and  CG  
REMARK    3  A    between atoms: CG   and  CD  
REMARK    4  A    between atoms: CD   and  NE  
REMARK       I    between atoms: NE   and  CZ  
REMARK       I    between atoms: CZ   and  NH1 
REMARK       I    between atoms: CZ   and  NH2 
ROOT
ATOM      1  CA  ARG D 557     -26.217   2.705 -17.014  1.00 35.49     0.159 C 
ENDROOT
BRANCH   1   2
ATOM      2  CB  ARG D 557     -26.789   1.319 -17.183  1.00 35.49     0.034 C 
BRANCH   2   3
ATOM      3  CG  ARG D 557     -28.215   1.229 -17.520  1.00 35.49     0.027 C 
BRANCH   3   4
ATOM      4  CD  ARG D 557     -28.967   0.379 -16.570  1.00 35.49     0.116 C 
BRANCH   4   5
ATOM      5  NE  ARG D 557     -29.406  -0.852 -17.174  1.00 35.49    -0.212 N 
ATOM      6  CZ  ARG D 557     -28.783  -2.007 -17.102  1.00 35.49     0.666 C 
ATOM      7  NH1 ARG D 557     -27.642  -2.159 -16.456  1.00 35.49    -0.235 N 
ATOM      8  NH2 ARG D 557     -29.338  -3.026 -17.693  1.00 35.49    -0.235 N 
ATOM      9  HH  ARG D 557     -27.260  -1.503 -16.058  1.00 35.49     0.174 HD
ATOM     10  HH  ARG D 557     -27.283  -2.937 -16.441  1.00 35.49     0.174 HD
ATOM     11  HH  ARG D 557     -30.078  -2.900 -18.096  1.00 35.49     0.174 HD
ATOM     12  HH  ARG D 557     -28.968  -3.788 -17.665  1.00 35.49     0.174 HD
ATOM     13  HE  ARG D 557     -30.096  -0.830 -17.670  1.00 35.49     0.178 HD
ENDBRANCH   4   5
ENDBRANCH   3   4
ENDBRANCH   2   3
ENDBRANCH   1   2
END_RES ARG D 557
BEGIN_RES GLU D 570
REMARK  3 active torsions:
REMARK  status: ('A' for Active; 'I' for Inactive)
REMARK    5  A    between atoms: CA   and  CB  
REMARK    6  A    between atoms: CB   and  CG  
REMARK    7  A    between atoms: CG   and  CD  
ROOT
ATOM     14  CA  GLU D 570     -18.033  -6.348 -13.375  1.00 32.92     0.160 C 
ENDROOT
BRANCH  14  15
ATOM     15  CB  GLU D 570     -19.500  -6.345 -13.794  1.00 32.92     0.043 C 
BRANCH  15  16
ATOM     16  CG  GLU D 570     -20.085  -7.634 -14.246  1.00 32.92     0.100 C 
BRANCH  16  17
ATOM     17  CD  GLU D 570     -20.391  -7.655 -15.726  1.00 32.92     0.185 C 
ATOM     18  OE1 GLU D 570     -20.761  -8.722 -16.251  1.00 32.92    -0.647 OA
ATOM     19  OE2 GLU D 570     -20.241  -6.598 -16.369  1.00 32.92    -0.647 OA
ENDBRANCH  16  17
ENDBRANCH  15  16
ENDBRANCH  14  15
END_RES GLU D 570
ENDMDL
MODEL 2
REMARK VINA RESULT:      -8.9      1.926      8.711
REMARK  20 active torsions:
REMARK  status: ('A' for Active; 'I' for Inactive)
REMARK       I    between atoms: C_2  and  N_4 
REMARK    1  A    between atoms: N_4  and  C_5 
REMARK    2  A    between atoms: C_5  and  C_6 
REMARK    3  A    between atoms: C_5  and  C_11 
REMARK    4  A    between atoms: C_6  and  C_7 
REMARK    5  A    between atoms: C_7  and  C_8 
REMARK    6  A    between atoms: C_8  and  C_9 
REMARK    7  A    between atoms: C_9  and  N_10 
REMARK       I    between atoms: C_11  and  N_13 
REMARK    8  A    between atoms: N_13  and  C_14 
REMARK    9  A    between atoms: C_14  and  C_15 
REMARK       I    between atoms: C_15  and  N_17 
REMARK   10  A    between atoms: N_17  and  C_18 
REMARK   11  A    between atoms: C_18  and  C_19 
REMARK   12  A    between atoms: C_18  and  C_26 
REMARK   13  A    between atoms: C_19  and  C_20 
REMARK       I    between atoms: C_26  and  N_28 
REMARK   14  A    between atoms: N_28  and  C_29 
REMARK   15  A    between atoms: C_29  and  C_30 
REMARK   16  A    between atoms: C_29  and  C_35 
REMARK   17  A    between atoms: C_30  and  C_31 
REMARK   18  A    between atoms: C_31  and  C_32 
REMARK   19  A    between atoms: C_32  and  C_33 
REMARK   20  A    between atoms: C_33  and  N_34 
REMARK       I    between atoms: C_35  and  N_37 
ROOT
HETATM    1  C   UNL     1     -27.365  -5.796 -17.170  1.00  0.00     0.182 C 
ENDROOT
BRANCH   1   2
HETATM    2  N   UNL     1     -25.934  -5.882 -16.838  1.00  0.00    -0.346 N 
HETATM    3  C   UNL     1     -25.444  -6.707 -15.852  1.00  0.00     0.236 C 
HETATM    4  O   UNL     1     -26.163  -7.465 -15.202  1.00  0.00    -0.272 OA
HETATM    5  H   UNL     1     -25.282  -5.446 -17.492  1.00  0.00     0.163 HD
BRANCH   3   6
HETATM    6  C   UNL     1     -23.932  -6.660 -15.637  1.00  0.00     0.225 C 
BRANCH   6   7
HETATM    7  N   UNL     1     -23.631  -6.326 -14.265  1.00  0.00    -0.351 N 
HETATM    8  C   UNL     1     -22.915  -5.194 -13.956  1.00  0.00     0.240 C 
HETATM    9  O   UNL     1     -22.460  -4.474 -14.839  1.00  0.00    -0.271 OA
HETATM   10  H   UNL     1     -24.015  -6.884 -13.513  1.00  0.00     0.163 HD
BRANCH   8  11
HETATM   11  C   UNL     1     -22.663  -4.944 -12.447  1.00  0.00     0.176 C 
BRANCH  11  12
HETATM   12  N   UNL     1     -21.817  -3.760 -12.212  1.00  0.00    -0.348 N 
HETATM   13  C   UNL     1     -20.806  -3.767 -11.277  1.00  0.00     0.214 C 
HETATM   14  C   UNL     1     -20.074  -2.458 -11.160  1.00  0.00     0.117 C 
HETATM   15  O   UNL     1     -20.487  -4.758 -10.632  1.00  0.00    -0.274 OA
HETATM   16  H   UNL     1     -21.964  -2.937 -12.781  1.00  0.00     0.163 HD
ENDBRANCH  11  12
BRANCH  11  17
HETATM   17  C   UNL     1     -23.992  -4.768 -11.691  1.00  0.00     0.035 C 
BRANCH  17  18
HETATM   18  C   UNL     1     -23.987  -5.170 -10.209  1.00  0.00     0.004 C 
BRANCH  18  19
HETATM   19  C   UNL     1     -23.841  -4.014  -9.214  1.00  0.00     0.030 C 
BRANCH  19  20
HETATM   20  C   UNL     1     -22.958  -4.384  -8.023  1.00  0.00     0.267 C 
BRANCH  20  21
HETATM   21  N   UNL     1     -22.035  -3.304  -7.708  1.00  0.00     0.078 N 
HETATM   22  H   UNL     1     -21.774  -3.345  -6.723  1.00  0.00     0.312 HD
HETATM   23  H   UNL     1     -22.501  -2.407  -7.845  1.00  0.00     0.312 HD
ENDBRANCH  20  21
ENDBRANCH  19  20
ENDBRANCH  18  19
ENDBRANCH  17  18
ENDBRANCH  11  17
ENDBRANCH   8  11
ENDBRANCH   6   7
ENDBRANCH   3   6
ENDBRANCH   1   2
BRANCH   1  24
HETATM   24  C   UNL     1     -27.997  -4.458 -16.720  1.00  0.00     0.093 C 
BRANCH  24  25
HETATM   25  C   UNL     1     -29.485  -4.434 -16.833  1.00  0.00     0.028 A 
HETATM   26  C   UNL     1     -30.475  -5.224 -16.288  1.00  0.00     0.114 A 
HETATM   27  N   UNL     1     -31.714  -4.802 -16.683  1.00  0.00    -0.360 N 
HETATM   28  C   UNL     1     -31.494  -3.784 -17.480  1.00  0.00     0.180 A 
ATOM     29  HN  UNL     1     -32.616  -5.194 -16.415  1.00  0.00     0.166 HD
HETATM   30  N   UNL     1     -30.162  -3.520 -17.602  1.00  0.00    -0.354 N 
HETATM   31  H   UNL     1     -29.752  -2.787 -18.165  1.00  0.00     0.166 HD
ENDBRANCH  24  25
ENDBRANCH   1  24
BRANCH   1  32
HETATM   32  C   UNL     1     -27.586  -6.016 -18.693  1.00  0.00     0.241 C 
HETATM   33  O   UNL     1     -28.466  -5.426 -19.314  1.00  0.00    -0.271 OA
HETATM   34  N   UNL     1     -26.728  -6.924 -19.289  1.00  0.00    -0.346 N 
HETATM   35  H   UNL     1     -25.839  -7.130 -18.854  1.00  0.00     0.163 HD
BRANCH  34  36
HETATM   36  C   UNL     1     -26.929  -7.408 -20.668  1.00  0.00     0.176 C 
BRANCH  36  37
HETATM   37  C   UNL     1     -25.585  -7.848 -21.275  1.00  0.00     0.035 C 
BRANCH  37  38
HETATM   38  C   UNL     1     -24.365  -7.719 -20.349  1.00  0.00     0.004 C 
BRANCH  38  39
HETATM   39  C   UNL     1     -23.060  -8.299 -20.903  1.00  0.00     0.030 C 
BRANCH  39  40
HETATM   40  C   UNL     1     -21.858  -7.943 -20.032  1.00  0.00     0.267 C 
BRANCH  40  41
HETATM   41  N   UNL     1     -22.290  -7.399 -18.753  1.00  0.00     0.078 N 
HETATM   42  H   UNL     1     -23.293  -7.529 -18.640  1.00  0.00     0.312 HD
HETATM   43  H   UNL     1     -22.121  -6.394 -18.742  1.00  0.00     0.312 HD
ENDBRANCH  40  41
ENDBRANCH  39  40
ENDBRANCH  38  39
ENDBRANCH  37  38
ENDBRANCH  36  37
BRANCH  36  44
HETATM   44  C   UNL     1     -27.960  -8.565 -20.707  1.00  0.00     0.238 C 
HETATM   45  O   UNL     1     -27.942  -9.478 -21.530  1.00  0.00    -0.271 OA
HETATM   46  N   UNL     1     -28.908  -8.592 -19.718  1.00  0.00    -0.368 N 
HETATM   47  H   UNL     1     -29.282  -7.712 -19.393  1.00  0.00     0.159 HD
HETATM   48  H   UNL     1     -29.596  -9.325 -19.851  1.00  0.00     0.159 HD
ENDBRANCH  36  44
ENDBRANCH  34  36
ENDBRANCH   1  32
TORSDOF 20
BEGIN_RES ARG D 557
REMARK  4 active torsions:
REMARK  status: ('A' for Active; 'I' for Inactive)
REMARK    1  A    between atoms: CA   and  CB  
REMARK    2  A    between atoms: CB   and  CG  
REMARK    3  A    between atoms: CG   and  CD  
REMARK    4  A    between atoms: CD   and  NE  
REMARK       I    between atoms: NE   and  CZ  
REMARK       I    between atoms: CZ   and  NH1 
REMARK       I    between atoms: CZ   and  NH2 
ROOT
ATOM      1  CA  ARG D 557     -26.217   2.705 -17.014  1.00 35.49     0.159 C 
ENDROOT
BRANCH   1   2
ATOM      2  CB  ARG D 557     -26.789   1.319 -17.183  1.00 35.49     0.034 C 
BRANCH   2   3
ATOM      3  CG  ARG D 557     -25.833   0.205 -17.178  1.00 35.49     0.027 C 
BRANCH   3   4
ATOM      4  CD  ARG D 557     -24.693   0.444 -16.264  1.00 35.49     0.116 C 
BRANCH   4   5
ATOM      5  NE  ARG D 557     -24.780  -0.353 -15.069  1.00 35.49    -0.212 N 
ATOM      6  CZ  ARG D 557     -23.954  -1.316 -14.726  1.00 35.49     0.666 C 
ATOM      7  NH1 ARG D 557     -22.930  -1.674 -15.479  1.00 35.49    -0.235 N 
ATOM      8  NH2 ARG D 557     -24.172  -1.920 -13.594  1.00 35.49    -0.235 N 
ATOM      9  HH  ARG D 557     -22.766  -1.289 -16.227  1.00 35.49     0.174 HD
ATOM     10  HH  ARG D 557     -22.423  -2.307 -15.203  1.00 35.49     0.174 HD
ATOM     11  HH  ARG D 557     -24.836  -1.663 -13.125  1.00 35.49     0.174 HD
ATOM     12  HH  ARG D 557     -23.658  -2.543 -13.337  1.00 35.49     0.174 HD
ATOM     13  HE  ARG D 557     -25.452  -0.239 -14.561  1.00 35.49     0.178 HD
ENDBRANCH   4   5
ENDBRANCH   3   4
ENDBRANCH   2   3
ENDBRANCH   1   2
END_RES ARG D 557
BEGIN_RES GLU D 570
REMARK  3 active torsions:
REMARK  status: ('A' for Active; 'I' for Inactive)
REMARK    5  A    between atoms: CA   and  CB  
REMARK    6  A    between atoms: CB   and  CG  
REMARK    7  A    between atoms: CG   and  CD  
ROOT
ATOM     14  CA  GLU D 570     -18.033  -6.348 -13.375  1.00 32.92     0.160 C 
ENDROOT
BRANCH  14  15
ATOM     15  CB  GLU D 570     -19.500  -6.345 -13.794  1.00 32.92     0.043 C 
BRANCH  15  16
ATOM     16  CG  GLU D 570     -20.082  -7.631 -14.260  1.00 32.92     0.100 C 
BRANCH  16  17
ATOM     17  CD  GLU D 570     -20.487  -7.601 -15.715  1.00 32.92     0.185 C 
ATOM     18  OE1 GLU D 570     -20.445  -6.520 -16.333  1.00 32.92    -0.647 OA
ATOM     19  OE2 GLU D 570     -20.867  -8.667 -16.237  1.00 32.92    -0.647 OA
ENDBRANCH  16  17
ENDBRANCH  15  16
ENDBRANCH  14  15
END_RES GLU D 570
ENDMDL
MODEL 3
REMARK VINA RESULT:      -8.8      4.702      8.776
REMARK  20 active torsions:
REMARK  status: ('A' for Active; 'I' for Inactive)
REMARK       I    between atoms: C_2  and  N_4 
REMARK    1  A    between atoms: N_4  and  C_5 
REMARK    2  A    between atoms: C_5  and  C_6 
REMARK    3  A    between atoms: C_5  and  C_11 
REMARK    4  A    between atoms: C_6  and  C_7 
REMARK    5  A    between atoms: C_7  and  C_8 
REMARK    6  A    between atoms: C_8  and  C_9 
REMARK    7  A    between atoms: C_9  and  N_10 
REMARK       I    between atoms: C_11  and  N_13 
REMARK    8  A    between atoms: N_13  and  C_14 
REMARK    9  A    between atoms: C_14  and  C_15 
REMARK       I    between atoms: C_15  and  N_17 
REMARK   10  A    between atoms: N_17  and  C_18 
REMARK   11  A    between atoms: C_18  and  C_19 
REMARK   12  A    between atoms: C_18  and  C_26 
REMARK   13  A    between atoms: C_19  and  C_20 
REMARK       I    between atoms: C_26  and  N_28 
REMARK   14  A    between atoms: N_28  and  C_29 
REMARK   15  A    between atoms: C_29  and  C_30 
REMARK   16  A    between atoms: C_29  and  C_35 
REMARK   17  A    between atoms: C_30  and  C_31 
REMARK   18  A    between atoms: C_31  and  C_32 
REMARK   19  A    between atoms: C_32  and  C_33 
REMARK   20  A    between atoms: C_33  and  N_34 
REMARK       I    between atoms: C_35  and  N_37 
ROOT
HETATM    1  C   UNL     1     -33.764  -3.516 -15.521  1.00  0.00     0.182 C 
ENDROOT
BRANCH   1   2
HETATM    2  N   UNL     1     -32.976  -4.648 -16.035  1.00  0.00    -0.346 N 
HETATM    3  C   UNL     1     -31.879  -4.486 -16.850  1.00  0.00     0.236 C 
HETATM    4  O   UNL     1     -31.452  -3.379 -17.176  1.00  0.00    -0.272 OA
HETATM    5  H   UNL     1     -33.153  -5.562 -15.615  1.00  0.00     0.163 HD
BRANCH   3   6
HETATM    6  C   UNL     1     -31.187  -5.772 -17.297  1.00  0.00     0.225 C 
BRANCH   6   7
HETATM    7  N   UNL     1     -29.843  -5.490 -17.743  1.00  0.00    -0.351 N 
HETATM    8  C   UNL     1     -29.027  -6.496 -18.201  1.00  0.00     0.240 C 
HETATM    9  O   UNL     1     -29.395  -7.667 -18.183  1.00  0.00    -0.271 OA
HETATM   10  H   UNL     1     -29.520  -4.533 -17.797  1.00  0.00     0.163 HD
BRANCH   8  11
HETATM   11  C   UNL     1     -27.610  -6.063 -18.657  1.00  0.00     0.176 C 
BRANCH  11  12
HETATM   12  N   UNL     1     -26.554  -6.605 -17.783  1.00  0.00    -0.348 N 
HETATM   13  C   UNL     1     -26.480  -6.278 -16.447  1.00  0.00     0.214 C 
HETATM   14  C   UNL     1     -25.316  -6.905 -15.729  1.00  0.00     0.117 C 
HETATM   15  O   UNL     1     -27.310  -5.584 -15.874  1.00  0.00    -0.274 OA
HETATM   16  H   UNL     1     -25.891  -7.263 -18.173  1.00  0.00     0.163 HD
ENDBRANCH  11  12
BRANCH  11  17
HETATM   17  C   UNL     1     -27.340  -6.510 -20.105  1.00  0.00     0.035 C 
BRANCH  17  18
HETATM   18  C   UNL     1     -25.883  -6.414 -20.583  1.00  0.00     0.004 C 
BRANCH  18  19
HETATM   19  C   UNL     1     -25.245  -7.738 -21.018  1.00  0.00     0.030 C 
BRANCH  19  20
HETATM   20  C   UNL     1     -23.852  -7.932 -20.423  1.00  0.00     0.267 C 
BRANCH  20  21
HETATM   21  N   UNL     1     -23.122  -8.968 -21.139  1.00  0.00     0.078 N 
HETATM   22  H   UNL     1     -22.611  -8.558 -21.919  1.00  0.00     0.312 HD
HETATM   23  H   UNL     1     -23.782  -9.632 -21.542  1.00  0.00     0.312 HD
ENDBRANCH  20  21
ENDBRANCH  19  20
ENDBRANCH  18  19
ENDBRANCH  17  18
ENDBRANCH  11  17
ENDBRANCH   8  11
ENDBRANCH   6   7
ENDBRANCH   3   6
ENDBRANCH   1   2
BRANCH   1  24
HETATM   24  C   UNL     1     -34.878  -3.079 -16.500  1.00  0.00     0.093 C 
BRANCH  24  25
HETATM   25  C   UNL     1     -35.380  -1.696 -16.251  1.00  0.00     0.028 A 
HETATM   26  C   UNL     1     -36.535  -1.041 -16.624  1.00  0.00     0.114 A 
HETATM   27  N   UNL     1     -36.551   0.239 -16.145  1.00  0.00    -0.360 N 
HETATM   28  C   UNL     1     -35.413   0.384 -15.509  1.00  0.00     0.180 A 
ATOM     29  HN  UNL     1     -37.289   0.934 -16.259  1.00  0.00     0.166 HD
HETATM   30  N   UNL     1     -34.670  -0.758 -15.543  1.00  0.00    -0.354 N 
HETATM   31  H   UNL     1     -33.757  -0.885 -15.126  1.00  0.00     0.166 HD
ENDBRANCH  24  25
ENDBRANCH   1  24
BRANCH   1  32
HETATM   32  C   UNL     1     -34.366  -3.858 -14.130  1.00  0.00     0.241 C 
HETATM   33  O   UNL     1     -35.007  -4.888 -13.934  1.00  0.00    -0.271 OA
HETATM   34  N   UNL     1     -34.134  -2.920 -13.138  1.00  0.00    -0.346 N 
HETATM   35  H   UNL     1     -33.356  -2.281 -13.229  1.00  0.00     0.163 HD
BRANCH  34  36
HETATM   36  C   UNL     1     -34.805  -2.979 -11.826  1.00  0.00     0.176 C 
BRANCH  36  37
HETATM   37  C   UNL     1     -34.009  -3.880 -10.866  1.00  0.00     0.035 C 
BRANCH  37  38
HETATM   38  C   UNL     1     -34.710  -5.183 -10.446  1.00  0.00     0.004 C 
BRANCH  38  39
HETATM   39  C   UNL     1     -33.951  -6.471 -10.783  1.00  0.00     0.030 C 
BRANCH  39  40
HETATM   40  C   UNL     1     -34.582  -7.697 -10.128  1.00  0.00     0.267 C 
BRANCH  40  41
HETATM   41  N   UNL     1     -33.672  -8.833 -10.174  1.00  0.00     0.078 N 
HETATM   42  H   UNL     1     -32.741  -8.545  -9.881  1.00  0.00     0.312 HD
HETATM   43  H   UNL     1     -33.591  -9.158 -11.137  1.00  0.00     0.312 HD
ENDBRANCH  40  41
ENDBRANCH  39  40
ENDBRANCH  38  39
ENDBRANCH  37  38
ENDBRANCH  36  37
BRANCH  36  44
HETATM   44  C   UNL     1     -34.988  -1.560 -11.231  1.00  0.00     0.238 C 
HETATM   45  O   UNL     1     -35.269  -1.336 -10.055  1.00  0.00    -0.271 OA
HETATM   46  N   UNL     1     -34.759  -0.497 -12.064  1.00  0.00    -0.368 N 
HETATM   47  H   UNL     1     -35.037  -0.581 -13.031  1.00  0.00     0.159 HD
HETATM   48  H   UNL     1     -34.976   0.395 -11.633  1.00  0.00     0.159 HD
ENDBRANCH  36  44
ENDBRANCH  34  36
ENDBRANCH   1  32
TORSDOF 20
BEGIN_RES ARG D 557
REMARK  4 active torsions:
REMARK  status: ('A' for Active; 'I' for Inactive)
REMARK    1  A    between atoms: CA   and  CB  
REMARK    2  A    between atoms: CB   and  CG  
REMARK    3  A    between atoms: CG   and  CD  
REMARK    4  A    between atoms: CD   and  NE  
REMARK       I    between atoms: NE   and  CZ  
REMARK       I    between atoms: CZ   and  NH1 
REMARK       I    between atoms: CZ   and  NH2 
ROOT
ATOM      1  CA  ARG D 557     -26.217   2.705 -17.014  1.00 35.49     0.159 C 
ENDROOT
BRANCH   1   2
ATOM      2  CB  ARG D 557     -26.789   1.319 -17.183  1.00 35.49     0.034 C 
BRANCH   2   3
ATOM      3  CG  ARG D 557     -28.238   1.175 -16.998  1.00 35.49     0.027 C 
BRANCH   3   4
ATOM      4  CD  ARG D 557     -28.634  -0.222 -16.711  1.00 35.49     0.116 C 
BRANCH   4   5
ATOM      5  NE  ARG D 557     -27.600  -0.949 -16.023  1.00 35.49    -0.212 N 
ATOM      6  CZ  ARG D 557     -27.419  -2.250 -16.062  1.00 35.49     0.666 C 
ATOM      7  NH1 ARG D 557     -28.207  -3.055 -16.751  1.00 35.49    -0.235 N 
ATOM      8  NH2 ARG D 557     -26.415  -2.737 -15.393  1.00 35.49    -0.235 N 
ATOM      9  HH  ARG D 557     -28.872  -2.756 -17.201  1.00 35.49     0.174 HD
ATOM     10  HH  ARG D 557     -28.039  -3.895 -16.742  1.00 35.49     0.174 HD
ATOM     11  HH  ARG D 557     -25.919  -2.193 -14.963  1.00 35.49     0.174 HD
ATOM     12  HH  ARG D 557     -26.265  -3.572 -15.397  1.00 35.49     0.174 HD
ATOM     13  HE  ARG D 557     -27.091  -0.517 -15.497  1.00 35.49     0.178 HD
ENDBRANCH   4   5
ENDBRANCH   3   4
ENDBRANCH   2   3
ENDBRANCH   1   2
END_RES ARG D 557
BEGIN_RES GLU D 570
REMARK  3 active torsions:
REMARK  status: ('A' for Active; 'I' for Inactive)
REMARK    5  A    between atoms: CA   and  CB  
REMARK    6  A    between atoms: CB   and  CG  
REMARK    7  A    between atoms: CG   and  CD  
ROOT
ATOM     14  CA  GLU D 570     -18.033  -6.348 -13.375  1.00 32.92     0.160 C 
ENDROOT
BRANCH  14  15
ATOM     15  CB  GLU D 570     -19.500  -6.345 -13.794  1.00 32.92     0.043 C 
BRANCH  15  16
ATOM     16  CG  GLU D 570     -20.116  -7.652 -14.140  1.00 32.92     0.100 C 
BRANCH  16  17
ATOM     17  CD  GLU D 570     -20.892  -7.614 -15.435  1.00 32.92     0.185 C 
ATOM     18  OE1 GLU D 570     -20.740  -8.536 -16.260  1.00 32.92    -0.647 OA
ATOM     19  OE2 GLU D 570     -21.648  -6.642 -15.636  1.00 32.92    -0.647 OA
ENDBRANCH  16  17
ENDBRANCH  15  16
ENDBRANCH  14  15
END_RES GLU D 570
ENDMDL
MODEL 4
REMARK VINA RESULT:      -8.8      1.850      8.287
REMARK  20 active torsions:
REMARK  status: ('A' for Active; 'I' for Inactive)
REMARK       I    between atoms: C_2  and  N_4 
REMARK    1  A    between atoms: N_4  and  C_5 
REMARK    2  A    between atoms: C_5  and  C_6 
REMARK    3  A    between atoms: C_5  and  C_11 
REMARK    4  A    between atoms: C_6  and  C_7 
REMARK    5  A    between atoms: C_7  and  C_8 
REMARK    6  A    between atoms: C_8  and  C_9 
REMARK    7  A    between atoms: C_9  and  N_10 
REMARK       I    between atoms: C_11  and  N_13 
REMARK    8  A    between atoms: N_13  and  C_14 
REMARK    9  A    between atoms: C_14  and  C_15 
REMARK       I    between atoms: C_15  and  N_17 
REMARK   10  A    between atoms: N_17  and  C_18 
REMARK   11  A    between atoms: C_18  and  C_19 
REMARK   12  A    between atoms: C_18  and  C_26 
REMARK   13  A    between atoms: C_19  and  C_20 
REMARK       I    between atoms: C_26  and  N_28 
REMARK   14  A    between atoms: N_28  and  C_29 
REMARK   15  A    between atoms: C_29  and  C_30 
REMARK   16  A    between atoms: C_29  and  C_35 
REMARK   17  A    between atoms: C_30  and  C_31 
REMARK   18  A    between atoms: C_31  and  C_32 
REMARK   19  A    between atoms: C_32  and  C_33 
REMARK   20  A    between atoms: C_33  and  N_34 
REMARK       I    between atoms: C_35  and  N_37 
ROOT
HETATM    1  C   UNL     1     -28.232  -6.781 -16.579  1.00  0.00     0.182 C 
ENDROOT
BRANCH   1   2
HETATM    2  N   UNL     1     -26.982  -7.106 -15.874  1.00  0.00    -0.346 N 
HETATM    3  C   UNL     1     -25.912  -6.244 -15.814  1.00  0.00     0.236 C 
HETATM    4  O   UNL     1     -25.937  -5.118 -16.312  1.00  0.00    -0.272 OA
HETATM    5  H   UNL     1     -26.997  -7.924 -15.263  1.00  0.00     0.163 HD
BRANCH   3   6
HETATM    6  C   UNL     1     -24.692  -6.751 -15.047  1.00  0.00     0.225 C 
BRANCH   6   7
HETATM    7  N   UNL     1     -23.781  -5.663 -14.778  1.00  0.00    -0.351 N 
HETATM    8  C   UNL     1     -23.369  -5.389 -13.496  1.00  0.00     0.240 C 
HETATM    9  O   UNL     1     -23.814  -6.019 -12.541  1.00  0.00    -0.271 OA
HETATM   10  H   UNL     1     -23.375  -5.144 -15.545  1.00  0.00     0.163 HD
BRANCH   8  11
HETATM   11  C   UNL     1     -22.387  -4.201 -13.341  1.00  0.00     0.176 C 
BRANCH  11  12
HETATM   12  N   UNL     1     -23.029  -2.905 -13.624  1.00  0.00    -0.348 N 
HETATM   13  C   UNL     1     -22.893  -2.280 -14.844  1.00  0.00     0.214 C 
HETATM   14  C   UNL     1     -23.597  -0.953 -14.933  1.00  0.00     0.117 C 
HETATM   15  O   UNL     1     -22.300  -2.775 -15.795  1.00  0.00    -0.274 OA
HETATM   16  H   UNL     1     -23.615  -2.487 -12.912  1.00  0.00     0.163 HD
ENDBRANCH  11  12
BRANCH  11  17
HETATM   17  C   UNL     1     -21.791  -4.164 -11.922  1.00  0.00     0.035 C 
BRANCH  17  18
HETATM   18  C   UNL     1     -22.545  -3.308 -10.892  1.00  0.00     0.004 C 
BRANCH  18  19
HETATM   19  C   UNL     1     -22.476  -3.807  -9.445  1.00  0.00     0.030 C 
BRANCH  19  20
HETATM   20  C   UNL     1     -23.862  -4.001  -8.834  1.00  0.00     0.267 C 
BRANCH  20  21
HETATM   21  N   UNL     1     -24.796  -4.521  -9.822  1.00  0.00     0.078 N 
HETATM   22  H   UNL     1     -25.041  -3.791 -10.488  1.00  0.00     0.312 HD
HETATM   23  H   UNL     1     -25.663  -4.795  -9.360  1.00  0.00     0.312 HD
ENDBRANCH  20  21
ENDBRANCH  19  20
ENDBRANCH  18  19
ENDBRANCH  17  18
ENDBRANCH  11  17
ENDBRANCH   8  11
ENDBRANCH   6   7
ENDBRANCH   3   6
ENDBRANCH   1   2
BRANCH   1  24
HETATM   24  C   UNL     1     -29.085  -5.739 -15.818  1.00  0.00     0.093 C 
BRANCH  24  25
HETATM   25  C   UNL     1     -30.496  -5.657 -16.300  1.00  0.00     0.028 A 
HETATM   26  C   UNL     1     -31.273  -6.507 -17.058  1.00  0.00     0.114 A 
HETATM   27  N   UNL     1     -32.529  -5.996 -17.237  1.00  0.00    -0.360 N 
HETATM   28  C   UNL     1     -32.521  -4.837 -16.623  1.00  0.00     0.180 A 
ATOM     29  HN  UNL     1     -33.305  -6.424 -17.741  1.00  0.00     0.166 HD
HETATM   30  N   UNL     1     -31.315  -4.587 -16.039  1.00  0.00    -0.354 N 
HETATM   31  H   UNL     1     -31.070  -3.757 -15.515  1.00  0.00     0.166 HD
ENDBRANCH  24  25
ENDBRANCH   1  24
BRANCH   1  32
HETATM   32  C   UNL     1     -27.933  -6.289 -18.022  1.00  0.00     0.241 C 
HETATM   33  O   UNL     1     -28.451  -5.275 -18.485  1.00  0.00    -0.271 OA
HETATM   34  N   UNL     1     -27.051  -7.076 -18.744  1.00  0.00    -0.346 N 
HETATM   35  H   UNL     1     -26.408  -7.682 -18.253  1.00  0.00     0.163 HD
BRANCH  34  36
HETATM   36  C   UNL     1     -26.820  -6.877 -20.187  1.00  0.00     0.176 C 
BRANCH  36  37
HETATM   37  C   UNL     1     -25.359  -6.463 -20.436  1.00  0.00     0.035 C 
BRANCH  37  38
HETATM   38  C   UNL     1     -24.293  -7.413 -19.864  1.00  0.00     0.004 C 
BRANCH  38  39
HETATM   39  C   UNL     1     -23.367  -8.055 -20.902  1.00  0.00     0.030 C 
BRANCH  39  40
HETATM   40  C   UNL     1     -21.941  -8.214 -20.378  1.00  0.00     0.267 C 
BRANCH  40  41
HETATM   41  N   UNL     1     -21.800  -7.592 -19.069  1.00  0.00     0.078 N 
HETATM   42  H   UNL     1     -22.393  -8.067 -18.391  1.00  0.00     0.312 HD
HETATM   43  H   UNL     1     -22.126  -6.627 -19.120  1.00  0.00     0.312 HD
ENDBRANCH  40  41
ENDBRANCH  39  40
ENDBRANCH  38  39
ENDBRANCH  37  38
ENDBRANCH  36  37
BRANCH  36  44
HETATM   44  C   UNL     1     -27.178  -8.154 -20.989  1.00  0.00     0.238 C 
HETATM   45  O   UNL     1     -26.528  -8.574 -21.944  1.00  0.00    -0.271 OA
HETATM   46  N   UNL     1     -28.253  -8.885 -20.555  1.00  0.00    -0.368 N 
HETATM   47  H   UNL     1     -29.051  -8.386 -20.189  1.00  0.00     0.159 HD
HETATM   48  H   UNL     1     -28.478  -9.658 -21.171  1.00  0.00     0.159 HD
ENDBRANCH  36  44
ENDBRANCH  34  36
ENDBRANCH   1  32
TORSDOF 20
BEGIN_RES ARG D 557
REMARK  4 active torsions:
REMARK  status: ('A' for Active; 'I' for Inactive)
REMARK    1  A    between atoms: CA   and  CB  
REMARK    2  A    between atoms: CB   and  CG  
REMARK    3  A    between atoms: CG   and  CD  
REMARK    4  A    between atoms: CD   and  NE  
REMARK       I    between atoms: NE   and  CZ  
REMARK       I    between atoms: CZ   and  NH1 
REMARK       I    between atoms: CZ   and  NH2 
ROOT
ATOM      1  CA  ARG D 557     -26.217   2.705 -17.014  1.00 35.49     0.159 C 
ENDROOT
BRANCH   1   2
ATOM      2  CB  ARG D 557     -26.789   1.319 -17.183  1.00 35.49     0.034 C 
BRANCH   2   3
ATOM      3  CG  ARG D 557     -28.225   1.228 -17.472  1.00 35.49     0.027 C 
BRANCH   3   4
ATOM      4  CD  ARG D 557     -28.936   0.336 -16.527  1.00 35.49     0.116 C 
BRANCH   4   5
ATOM      5  NE  ARG D 557     -28.182  -0.855 -16.235  1.00 35.49    -0.212 N 
ATOM      6  CZ  ARG D 557     -28.408  -2.049 -16.735  1.00 35.49     0.666 C 
ATOM      7  NH1 ARG D 557     -29.396  -2.289 -17.578  1.00 35.49    -0.235 N 
ATOM      8  NH2 ARG D 557     -27.610  -3.012 -16.375  1.00 35.49    -0.235 N 
ATOM      9  HH  ARG D 557     -29.932  -1.670 -17.830  1.00 35.49     0.174 HD
ATOM     10  HH  ARG D 557     -29.493  -3.088 -17.873  1.00 35.49     0.174 HD
ATOM     11  HH  ARG D 557     -26.977  -2.825 -15.835  1.00 35.49     0.174 HD
ATOM     12  HH  ARG D 557     -27.722  -3.795 -16.679  1.00 35.49     0.174 HD
ATOM     13  HE  ARG D 557     -27.572  -0.806 -15.645  1.00 35.49     0.178 HD
ENDBRANCH   4   5
ENDBRANCH   3   4
ENDBRANCH   2   3
ENDBRANCH   1   2
END_RES ARG D 557
BEGIN_RES GLU D 570
REMARK  3 active torsions:
REMARK  status: ('A' for Active; 'I' for Inactive)
REMARK    5  A    between atoms: CA   and  CB  
REMARK    6  A    between atoms: CB   and  CG  
REMARK    7  A    between atoms: CG   and  CD  
ROOT
ATOM     14  CA  GLU D 570     -18.033  -6.348 -13.375  1.00 32.92     0.160 C 
ENDROOT
BRANCH  14  15
ATOM     15  CB  GLU D 570     -19.500  -6.345 -13.794  1.00 32.92     0.043 C 
BRANCH  15  16
ATOM     16  CG  GLU D 570     -20.093  -7.639 -14.220  1.00 32.92     0.100 C 
BRANCH  16  17
ATOM     17  CD  GLU D 570     -20.690  -7.585 -15.607  1.00 32.92     0.185 C 
ATOM     18  OE1 GLU D 570     -21.064  -6.488 -16.063  1.00 32.92    -0.647 OA
ATOM     19  OE2 GLU D 570     -20.799  -8.655 -16.238  1.00 32.92    -0.647 OA
ENDBRANCH  16  17
ENDBRANCH  15  16
ENDBRANCH  14  15
END_RES GLU D 570
ENDMDL
MODEL 5
REMARK VINA RESULT:      -7.9      6.156     11.125
REMARK  20 active torsions:
REMARK  status: ('A' for Active; 'I' for Inactive)
REMARK       I    between atoms: C_2  and  N_4 
REMARK    1  A    between atoms: N_4  and  C_5 
REMARK    2  A    between atoms: C_5  and  C_6 
REMARK    3  A    between atoms: C_5  and  C_11 
REMARK    4  A    between atoms: C_6  and  C_7 
REMARK    5  A    between atoms: C_7  and  C_8 
REMARK    6  A    between atoms: C_8  and  C_9 
REMARK    7  A    between atoms: C_9  and  N_10 
REMARK       I    between atoms: C_11  and  N_13 
REMARK    8  A    between atoms: N_13  and  C_14 
REMARK    9  A    between atoms: C_14  and  C_15 
REMARK       I    between atoms: C_15  and  N_17 
REMARK   10  A    between atoms: N_17  and  C_18 
REMARK   11  A    between atoms: C_18  and  C_19 
REMARK   12  A    between atoms: C_18  and  C_26 
REMARK   13  A    between atoms: C_19  and  C_20 
REMARK       I    between atoms: C_26  and  N_28 
REMARK   14  A    between atoms: N_28  and  C_29 
REMARK   15  A    between atoms: C_29  and  C_30 
REMARK   16  A    between atoms: C_29  and  C_35 
REMARK   17  A    between atoms: C_30  and  C_31 
REMARK   18  A    between atoms: C_31  and  C_32 
REMARK   19  A    between atoms: C_32  and  C_33 
REMARK   20  A    between atoms: C_33  and  N_34 
REMARK       I    between atoms: C_35  and  N_37 
ROOT
HETATM    1  C   UNL     1     -19.785  -9.446  -3.329  1.00  0.00     0.182 C 
ENDROOT
BRANCH   1   2
HETATM    2  N   UNL     1     -20.259  -8.073  -3.567  1.00  0.00    -0.346 N 
HETATM    3  C   UNL     1     -20.326  -7.513  -4.822  1.00  0.00     0.236 C 
HETATM    4  O   UNL     1     -20.033  -8.134  -5.844  1.00  0.00    -0.272 OA
HETATM    5  H   UNL     1     -20.720  -7.603  -2.787  1.00  0.00     0.163 HD
BRANCH   3   6
HETATM    6  C   UNL     1     -20.834  -6.074  -4.881  1.00  0.00     0.225 C 
BRANCH   6   7
HETATM    7  N   UNL     1     -20.987  -5.651  -6.253  1.00  0.00    -0.351 N 
HETATM    8  C   UNL     1     -22.202  -5.214  -6.724  1.00  0.00     0.240 C 
HETATM    9  O   UNL     1     -23.200  -5.230  -6.011  1.00  0.00    -0.271 OA
HETATM   10  H   UNL     1     -20.178  -5.599  -6.859  1.00  0.00     0.163 HD
BRANCH   8  11
HETATM   11  C   UNL     1     -22.234  -4.783  -8.212  1.00  0.00     0.176 C 
BRANCH  11  12
HETATM   12  N   UNL     1     -23.382  -3.909  -8.515  1.00  0.00    -0.348 N 
HETATM   13  C   UNL     1     -24.179  -4.117  -9.619  1.00  0.00     0.214 C 
HETATM   14  C   UNL     1     -25.281  -3.104  -9.776  1.00  0.00     0.117 C 
HETATM   15  O   UNL     1     -24.046  -5.067 -10.380  1.00  0.00    -0.274 OA
HETATM   16  H   UNL     1     -23.607  -3.161  -7.871  1.00  0.00     0.163 HD
ENDBRANCH  11  12
BRANCH  11  17
HETATM   17  C   UNL     1     -20.935  -4.055  -8.601  1.00  0.00     0.035 C 
BRANCH  17  18
HETATM   18  C   UNL     1     -20.324  -4.435  -9.959  1.00  0.00     0.004 C 
BRANCH  18  19
HETATM   19  C   UNL     1     -20.208  -3.290 -10.971  1.00  0.00     0.030 C 
BRANCH  19  20
HETATM   20  C   UNL     1     -21.546  -2.965 -11.632  1.00  0.00     0.267 C 
BRANCH  20  21
HETATM   21  N   UNL     1     -21.933  -4.016 -12.562  1.00  0.00     0.078 N 
HETATM   22  H   UNL     1     -22.945  -4.015 -12.688  1.00  0.00     0.312 HD
HETATM   23  H   UNL     1     -21.692  -4.925 -12.167  1.00  0.00     0.312 HD
ENDBRANCH  20  21
ENDBRANCH  19  20
ENDBRANCH  18  19
ENDBRANCH  17  18
ENDBRANCH  11  17
ENDBRANCH   8  11
ENDBRANCH   6   7
ENDBRANCH   3   6
ENDBRANCH   1   2
BRANCH   1  24
HETATM   24  C   UNL     1     -18.330  -9.486  -2.806  1.00  0.00     0.093 C 
BRANCH  24  25
HETATM   25  C   UNL     1     -17.323  -9.769  -3.871  1.00  0.00     0.028 A 
HETATM   26  C   UNL     1     -15.947  -9.864  -3.852  1.00  0.00     0.114 A 
HETATM   27  N   UNL     1     -15.458 -10.153  -5.096  1.00  0.00    -0.360 N 
HETATM   28  C   UNL     1     -16.510 -10.209  -5.877  1.00  0.00     0.180 A 
ATOM     29  HN  UNL     1     -14.483 -10.294  -5.360  1.00  0.00     0.166 HD
HETATM   30  N   UNL     1     -17.662  -9.985  -5.184  1.00  0.00    -0.354 N 
HETATM   31  H   UNL     1     -18.596  -9.975  -5.573  1.00  0.00     0.166 HD
ENDBRANCH  24  25
ENDBRANCH   1  24
BRANCH   1  32
HETATM   32  C   UNL     1     -20.736 -10.189  -2.350  1.00  0.00     0.241 C 
HETATM   33  O   UNL     1     -21.955 -10.183  -2.496  1.00  0.00    -0.271 OA
HETATM   34  N   UNL     1     -20.110 -10.847  -1.304  1.00  0.00    -0.346 N 
HETATM   35  H   UNL     1     -19.138 -11.111  -1.392  1.00  0.00     0.163 HD
BRANCH  34  36
HETATM   36  C   UNL     1     -20.862 -11.421  -0.173  1.00  0.00     0.176 C 
BRANCH  36  37
HETATM   37  C   UNL     1     -21.826 -10.372   0.408  1.00  0.00     0.035 C 
BRANCH  37  38
HETATM   38  C   UNL     1     -21.159  -9.172   1.101  1.00  0.00     0.004 C 
BRANCH  38  39
HETATM   39  C   UNL     1     -22.000  -7.892   1.141  1.00  0.00     0.030 C 
BRANCH  39  40
HETATM   40  C   UNL     1     -22.876  -7.742  -0.100  1.00  0.00     0.267 C 
BRANCH  40  41
HETATM   41  N   UNL     1     -22.308  -6.764  -1.018  1.00  0.00     0.078 N 
HETATM   42  H   UNL     1     -22.607  -6.965  -1.970  1.00  0.00     0.312 HD
HETATM   43  H   UNL     1     -21.292  -6.844  -1.005  1.00  0.00     0.312 HD
ENDBRANCH  40  41
ENDBRANCH  39  40
ENDBRANCH  38  39
ENDBRANCH  37  38
ENDBRANCH  36  37
BRANCH  36  44
HETATM   44  C   UNL     1     -21.628 -12.698  -0.605  1.00  0.00     0.238 C 
HETATM   45  O   UNL     1     -22.853 -12.798  -0.614  1.00  0.00    -0.271 OA
HETATM   46  N   UNL     1     -20.881 -13.752  -1.062  1.00  0.00    -0.368 N 
HETATM   47  H   UNL     1     -19.990 -13.930  -0.621  1.00  0.00     0.159 HD
HETATM   48  H   UNL     1     -21.438 -14.578  -1.249  1.00  0.00     0.159 HD
ENDBRANCH  36  44
ENDBRANCH  34  36
ENDBRANCH   1  32
TORSDOF 20
BEGIN_RES ARG D 557
REMARK  4 active torsions:
REMARK  status: ('A' for Active; 'I' for Inactive)
REMARK    1  A    between atoms: CA   and  CB  
REMARK    2  A    between atoms: CB   and  CG  
REMARK    3  A    between atoms: CG   and  CD  
REMARK    4  A    between atoms: CD   and  NE  
REMARK       I    between atoms: NE   and  CZ  
REMARK       I    between atoms: CZ   and  NH1 
REMARK       I    between atoms: CZ   and  NH2 
ROOT
ATOM      1  CA  ARG D 557     -26.217   2.705 -17.014  1.00 35.49     0.159 C 
ENDROOT
BRANCH   1   2
ATOM      2  CB  ARG D 557     -26.789   1.319 -17.183  1.00 35.49     0.034 C 
BRANCH   2   3
ATOM      3  CG  ARG D 557     -25.839   0.201 -17.133  1.00 35.49     0.027 C 
BRANCH   3   4
ATOM      4  CD  ARG D 557     -24.793   0.396 -16.102  1.00 35.49     0.116 C 
BRANCH   4   5
ATOM      5  NE  ARG D 557     -24.979  -0.473 -14.970  1.00 35.49    -0.212 N 
ATOM      6  CZ  ARG D 557     -24.186  -1.461 -14.621  1.00 35.49     0.666 C 
ATOM      7  NH1 ARG D 557     -23.104  -1.778 -15.308  1.00 35.49    -0.235 N 
ATOM      8  NH2 ARG D 557     -24.499  -2.132 -13.551  1.00 35.49    -0.235 N 
ATOM      9  HH  ARG D 557     -22.879  -1.349 -16.014  1.00 35.49     0.174 HD
ATOM     10  HH  ARG D 557     -22.624  -2.431 -15.031  1.00 35.49     0.174 HD
ATOM     11  HH  ARG D 557     -25.199  -1.900 -13.123  1.00 35.49     0.174 HD
ATOM     12  HH  ARG D 557     -24.009  -2.774 -13.292  1.00 35.49     0.174 HD
ATOM     13  HE  ARG D 557     -25.691  -0.386 -14.513  1.00 35.49     0.178 HD
ENDBRANCH   4   5
ENDBRANCH   3   4
ENDBRANCH   2   3
ENDBRANCH   1   2
END_RES ARG D 557
BEGIN_RES GLU D 570
REMARK  3 active torsions:
REMARK  status: ('A' for Active; 'I' for Inactive)
REMARK    5  A    between atoms: CA   and  CB  
REMARK    6  A    between atoms: CB   and  CG  
REMARK    7  A    between atoms: CG   and  CD  
ROOT
ATOM     14  CA  GLU D 570     -18.033  -6.348 -13.375  1.00 32.92     0.160 C 
ENDROOT
BRANCH  14  15
ATOM     15  CB  GLU D 570     -19.500  -6.345 -13.794  1.00 32.92     0.043 C 
BRANCH  15  16
ATOM     16  CG  GLU D 570     -19.815  -5.920 -15.182  1.00 32.92     0.100 C 
BRANCH  16  17
ATOM     17  CD  GLU D 570     -21.292  -5.700 -15.411  1.00 32.92     0.185 C 
ATOM     18  OE1 GLU D 570     -21.695  -4.559 -15.707  1.00 32.92    -0.647 OA
ATOM     19  OE2 GLU D 570     -22.056  -6.676 -15.276  1.00 32.92    -0.647 OA
ENDBRANCH  16  17
ENDBRANCH  15  16
ENDBRANCH  14  15
END_RES GLU D 570
ENDMDL
MODEL 6
REMARK VINA RESULT:      -7.8      6.036     10.809
REMARK  20 active torsions:
REMARK  status: ('A' for Active; 'I' for Inactive)
REMARK       I    between atoms: C_2  and  N_4 
REMARK    1  A    between atoms: N_4  and  C_5 
REMARK    2  A    between atoms: C_5  and  C_6 
REMARK    3  A    between atoms: C_5  and  C_11 
REMARK    4  A    between atoms: C_6  and  C_7 
REMARK    5  A    between atoms: C_7  and  C_8 
REMARK    6  A    between atoms: C_8  and  C_9 
REMARK    7  A    between atoms: C_9  and  N_10 
REMARK       I    between atoms: C_11  and  N_13 
REMARK    8  A    between atoms: N_13  and  C_14 
REMARK    9  A    between atoms: C_14  and  C_15 
REMARK       I    between atoms: C_15  and  N_17 
REMARK   10  A    between atoms: N_17  and  C_18 
REMARK   11  A    between atoms: C_18  and  C_19 
REMARK   12  A    between atoms: C_18  and  C_26 
REMARK   13  A    between atoms: C_19  and  C_20 
REMARK       I    between atoms: C_26  and  N_28 
REMARK   14  A    between atoms: N_28  and  C_29 
REMARK   15  A    between atoms: C_29  and  C_30 
REMARK   16  A    between atoms: C_29  and  C_35 
REMARK   17  A    between atoms: C_30  and  C_31 
REMARK   18  A    between atoms: C_31  and  C_32 
REMARK   19  A    between atoms: C_32  and  C_33 
REMARK   20  A    between atoms: C_33  and  N_34 
REMARK       I    between atoms: C_35  and  N_37 
ROOT
HETATM    1  C   UNL     1     -19.816  -9.424  -3.789  1.00  0.00     0.182 C 
ENDROOT
BRANCH   1   2
HETATM    2  N   UNL     1     -19.900  -7.980  -4.063  1.00  0.00    -0.346 N 
HETATM    3  C   UNL     1     -20.516  -7.466  -5.180  1.00  0.00     0.236 C 
HETATM    4  O   UNL     1     -21.080  -8.175  -6.014  1.00  0.00    -0.272 OA
HETATM    5  H   UNL     1     -19.648  -7.351  -3.299  1.00  0.00     0.163 HD
BRANCH   3   6
HETATM    6  C   UNL     1     -20.499  -5.944  -5.307  1.00  0.00     0.225 C 
BRANCH   6   7
HETATM    7  N   UNL     1     -20.739  -5.552  -6.676  1.00  0.00    -0.351 N 
HETATM    8  C   UNL     1     -21.954  -5.037  -7.059  1.00  0.00     0.240 C 
HETATM    9  O   UNL     1     -22.886  -4.956  -6.265  1.00  0.00    -0.271 OA
HETATM   10  H   UNL     1     -19.983  -5.579  -7.348  1.00  0.00     0.163 HD
BRANCH   8  11
HETATM   11  C   UNL     1     -22.082  -4.649  -8.554  1.00  0.00     0.176 C 
BRANCH  11  12
HETATM   12  N   UNL     1     -23.207  -3.728  -8.797  1.00  0.00    -0.348 N 
HETATM   13  C   UNL     1     -24.267  -4.076  -9.606  1.00  0.00     0.214 C 
HETATM   14  C   UNL     1     -25.302  -2.994  -9.755  1.00  0.00     0.117 C 
HETATM   15  O   UNL     1     -24.391  -5.181 -10.119  1.00  0.00    -0.274 OA
HETATM   16  H   UNL     1     -23.214  -2.833  -8.324  1.00  0.00     0.163 HD
ENDBRANCH  11  12
BRANCH  11  17
HETATM   17  C   UNL     1     -20.785  -3.998  -9.065  1.00  0.00     0.035 C 
BRANCH  17  18
HETATM   18  C   UNL     1     -20.350  -4.378 -10.488  1.00  0.00     0.004 C 
BRANCH  18  19
HETATM   19  C   UNL     1     -20.900  -3.485 -11.605  1.00  0.00     0.030 C 
BRANCH  19  20
HETATM   20  C   UNL     1     -21.993  -4.179 -12.415  1.00  0.00     0.267 C 
BRANCH  20  21
HETATM   21  N   UNL     1     -21.997  -3.705 -13.792  1.00  0.00     0.078 N 
HETATM   22  H   UNL     1     -21.042  -3.543 -14.107  1.00  0.00     0.312 HD
HETATM   23  H   UNL     1     -22.475  -2.806 -13.840  1.00  0.00     0.312 HD
ENDBRANCH  20  21
ENDBRANCH  19  20
ENDBRANCH  18  19
ENDBRANCH  17  18
ENDBRANCH  11  17
ENDBRANCH   8  11
ENDBRANCH   6   7
ENDBRANCH   3   6
ENDBRANCH   1   2
BRANCH   1  24
HETATM   24  C   UNL     1     -18.469  -9.826  -3.145  1.00  0.00     0.093 C 
BRANCH  24  25
HETATM   25  C   UNL     1     -17.403 -10.142  -4.141  1.00  0.00     0.028 A 
HETATM   26  C   UNL     1     -17.325  -9.977  -5.508  1.00  0.00     0.114 A 
HETATM   27  N   UNL     1     -16.124 -10.419  -5.989  1.00  0.00    -0.360 N 
HETATM   28  C   UNL     1     -15.479 -10.874  -4.941  1.00  0.00     0.180 A 
ATOM     29  HN  UNL     1     -15.798 -10.399  -6.955  1.00  0.00     0.166 HD
HETATM   30  N   UNL     1     -16.209 -10.727  -3.799  1.00  0.00    -0.354 N 
HETATM   31  H   UNL     1     -15.921 -11.008  -2.871  1.00  0.00     0.166 HD
ENDBRANCH  24  25
ENDBRANCH   1  24
BRANCH   1  32
HETATM   32  C   UNL     1     -21.003  -9.879  -2.896  1.00  0.00     0.241 C 
HETATM   33  O   UNL     1     -21.806 -10.732  -3.266  1.00  0.00    -0.271 OA
HETATM   34  N   UNL     1     -21.092  -9.251  -1.665  1.00  0.00    -0.346 N 
HETATM   35  H   UNL     1     -20.269  -8.823  -1.264  1.00  0.00     0.163 HD
BRANCH  34  36
HETATM   36  C   UNL     1     -22.265  -9.406  -0.785  1.00  0.00     0.176 C 
BRANCH  36  37
HETATM   37  C   UNL     1     -21.969 -10.440   0.315  1.00  0.00     0.035 C 
BRANCH  37  38
HETATM   38  C   UNL     1     -20.488 -10.588   0.704  1.00  0.00     0.004 C 
BRANCH  38  39
HETATM   39  C   UNL     1     -19.765 -11.784   0.078  1.00  0.00     0.030 C 
BRANCH  39  40
HETATM   40  C   UNL     1     -20.699 -12.973  -0.134  1.00  0.00     0.267 C 
BRANCH  40  41
HETATM   41  N   UNL     1     -20.929 -13.202  -1.554  1.00  0.00     0.078 N 
HETATM   42  H   UNL     1     -21.565 -12.498  -1.922  1.00  0.00     0.312 HD
HETATM   43  H   UNL     1     -21.387 -14.105  -1.677  1.00  0.00     0.312 HD
ENDBRANCH  40  41
ENDBRANCH  39  40
ENDBRANCH  38  39
ENDBRANCH  37  38
ENDBRANCH  36  37
BRANCH  36  44
HETATM   44  C   UNL     1     -22.682  -8.046  -0.169  1.00  0.00     0.238 C 
HETATM   45  O   UNL     1     -22.188  -6.965  -0.484  1.00  0.00    -0.271 OA
HETATM   46  N   UNL     1     -23.711  -8.058   0.735  1.00  0.00    -0.368 N 
HETATM   47  H   UNL     1     -23.777  -8.840   1.370  1.00  0.00     0.159 HD
HETATM   48  H   UNL     1     -23.876  -7.150   1.156  1.00  0.00     0.159 HD
ENDBRANCH  36  44
ENDBRANCH  34  36
ENDBRANCH   1  32
TORSDOF 20
BEGIN_RES ARG D 557
REMARK  4 active torsions:
REMARK  status: ('A' for Active; 'I' for Inactive)
REMARK    1  A    between atoms: CA   and  CB  
REMARK    2  A    between atoms: CB   and  CG  
REMARK    3  A    between atoms: CG   and  CD  
REMARK    4  A    between atoms: CD   and  NE  
REMARK       I    between atoms: NE   and  CZ  
REMARK       I    between atoms: CZ   and  NH1 
REMARK       I    between atoms: CZ   and  NH2 
ROOT
ATOM      1  CA  ARG D 557     -26.217   2.705 -17.014  1.00 35.49     0.159 C 
ENDROOT
BRANCH   1   2
ATOM      2  CB  ARG D 557     -26.789   1.319 -17.183  1.00 35.49     0.034 C 
BRANCH   2   3
ATOM      3  CG  ARG D 557     -25.948   0.199 -16.743  1.00 35.49     0.027 C 
BRANCH   3   4
ATOM      4  CD  ARG D 557     -26.739  -0.896 -16.136  1.00 35.49     0.116 C 
BRANCH   4   5
ATOM      5  NE  ARG D 557     -26.086  -1.463 -14.986  1.00 35.49    -0.212 N 
ATOM      6  CZ  ARG D 557     -26.078  -2.736 -14.657  1.00 35.49     0.666 C 
ATOM      7  NH1 ARG D 557     -26.704  -3.656 -15.367  1.00 35.49    -0.235 N 
ATOM      8  NH2 ARG D 557     -25.416  -3.075 -13.589  1.00 35.49    -0.235 N 
ATOM      9  HH  ARG D 557     -27.144  -3.455 -16.074  1.00 35.49     0.174 HD
ATOM     10  HH  ARG D 557     -26.662  -4.470 -15.105  1.00 35.49     0.174 HD
ATOM     11  HH  ARG D 557     -25.015  -2.461 -13.155  1.00 35.49     0.174 HD
ATOM     12  HH  ARG D 557     -25.385  -3.887 -13.347  1.00 35.49     0.174 HD
ATOM     13  HE  ARG D 557     -25.718  -0.932 -14.433  1.00 35.49     0.178 HD
ENDBRANCH   4   5
ENDBRANCH   3   4
ENDBRANCH   2   3
ENDBRANCH   1   2
END_RES ARG D 557
BEGIN_RES GLU D 570
REMARK  3 active torsions:
REMARK  status: ('A' for Active; 'I' for Inactive)
REMARK    5  A    between atoms: CA   and  CB  
REMARK    6  A    between atoms: CB   and  CG  
REMARK    7  A    between atoms: CG   and  CD  
ROOT
ATOM     14  CA  GLU D 570     -18.033  -6.348 -13.375  1.00 32.92     0.160 C 
ENDROOT
BRANCH  14  15
ATOM     15  CB  GLU D 570     -19.500  -6.345 -13.794  1.00 32.92     0.043 C 
BRANCH  15  16
ATOM     16  CG  GLU D 570     -20.074  -7.624 -14.286  1.00 32.92     0.100 C 
BRANCH  16  17
ATOM     17  CD  GLU D 570     -21.147  -7.425 -15.331  1.00 32.92     0.185 C 
ATOM     18  OE1 GLU D 570     -21.193  -8.200 -16.306  1.00 32.92    -0.647 OA
ATOM     19  OE2 GLU D 570     -21.939  -6.474 -15.183  1.00 32.92    -0.647 OA
ENDBRANCH  16  17
ENDBRANCH  15  16
ENDBRANCH  14  15
END_RES GLU D 570
ENDMDL
MODEL 7
REMARK VINA RESULT:      -7.7      6.899     13.395
REMARK  20 active torsions:
REMARK  status: ('A' for Active; 'I' for Inactive)
REMARK       I    between atoms: C_2  and  N_4 
REMARK    1  A    between atoms: N_4  and  C_5 
REMARK    2  A    between atoms: C_5  and  C_6 
REMARK    3  A    between atoms: C_5  and  C_11 
REMARK    4  A    between atoms: C_6  and  C_7 
REMARK    5  A    between atoms: C_7  and  C_8 
REMARK    6  A    between atoms: C_8  and  C_9 
REMARK    7  A    between atoms: C_9  and  N_10 
REMARK       I    between atoms: C_11  and  N_13 
REMARK    8  A    between atoms: N_13  and  C_14 
REMARK    9  A    between atoms: C_14  and  C_15 
REMARK       I    between atoms: C_15  and  N_17 
REMARK   10  A    between atoms: N_17  and  C_18 
REMARK   11  A    between atoms: C_18  and  C_19 
REMARK   12  A    between atoms: C_18  and  C_26 
REMARK   13  A    between atoms: C_19  and  C_20 
REMARK       I    between atoms: C_26  and  N_28 
REMARK   14  A    between atoms: N_28  and  C_29 
REMARK   15  A    between atoms: C_29  and  C_30 
REMARK   16  A    between atoms: C_29  and  C_35 
REMARK   17  A    between atoms: C_30  and  C_31 
REMARK   18  A    between atoms: C_31  and  C_32 
REMARK   19  A    between atoms: C_32  and  C_33 
REMARK   20  A    between atoms: C_33  and  N_34 
REMARK       I    between atoms: C_35  and  N_37 
ROOT
HETATM    1  C   UNL     1     -21.725  -8.052  -3.827  1.00  0.00     0.182 C 
ENDROOT
BRANCH   1   2
HETATM    2  N   UNL     1     -20.918  -9.256  -3.572  1.00  0.00    -0.346 N 
HETATM    3  C   UNL     1     -21.471 -10.502  -3.391  1.00  0.00     0.236 C 
HETATM    4  O   UNL     1     -22.682 -10.710  -3.471  1.00  0.00    -0.272 OA
HETATM    5  H   UNL     1     -19.910  -9.175  -3.719  1.00  0.00     0.163 HD
BRANCH   3   6
HETATM    6  C   UNL     1     -20.483 -11.636  -3.126  1.00  0.00     0.225 C 
BRANCH   6   7
HETATM    7  N   UNL     1     -19.304 -11.130  -2.464  1.00  0.00    -0.351 N 
HETATM    8  C   UNL     1     -18.083 -11.739  -2.633  1.00  0.00     0.240 C 
HETATM    9  O   UNL     1     -17.976 -12.764  -3.299  1.00  0.00    -0.271 OA
HETATM   10  H   UNL     1     -19.354 -10.271  -1.931  1.00  0.00     0.163 HD
BRANCH   8  11
HETATM   11  C   UNL     1     -16.896 -11.096  -1.873  1.00  0.00     0.176 C 
BRANCH  11  12
HETATM   12  N   UNL     1     -16.381 -11.969  -0.802  1.00  0.00    -0.348 N 
HETATM   13  C   UNL     1     -17.098 -12.198   0.352  1.00  0.00     0.214 C 
HETATM   14  C   UNL     1     -16.396 -13.091   1.339  1.00  0.00     0.117 C 
HETATM   15  O   UNL     1     -18.225 -11.762   0.546  1.00  0.00    -0.274 OA
HETATM   16  H   UNL     1     -15.496 -12.438  -0.941  1.00  0.00     0.163 HD
ENDBRANCH  11  12
BRANCH  11  17
HETATM   17  C   UNL     1     -15.745 -10.759  -2.839  1.00  0.00     0.035 C 
BRANCH  17  18
HETATM   18  C   UNL     1     -15.996  -9.597  -3.812  1.00  0.00     0.004 C 
BRANCH  18  19
HETATM   19  C   UNL     1     -15.822  -9.935  -5.297  1.00  0.00     0.030 C 
BRANCH  19  20
HETATM   20  C   UNL     1     -17.098 -10.506  -5.913  1.00  0.00     0.267 C 
BRANCH  20  21
HETATM   21  N   UNL     1     -18.136  -9.489  -5.990  1.00  0.00     0.078 N 
HETATM   22  H   UNL     1     -18.665  -9.463  -5.120  1.00  0.00     0.312 HD
HETATM   23  H   UNL     1     -18.799  -9.735  -6.724  1.00  0.00     0.312 HD
ENDBRANCH  20  21
ENDBRANCH  19  20
ENDBRANCH  18  19
ENDBRANCH  17  18
ENDBRANCH  11  17
ENDBRANCH   8  11
ENDBRANCH   6   7
ENDBRANCH   3   6
ENDBRANCH   1   2
BRANCH   1  24
HETATM   24  C   UNL     1     -21.504  -6.955  -2.760  1.00  0.00     0.093 C 
BRANCH  24  25
HETATM   25  C   UNL     1     -21.695  -7.439  -1.360  1.00  0.00     0.028 A 
HETATM   26  C   UNL     1     -22.731  -7.308  -0.461  1.00  0.00     0.114 A 
HETATM   27  N   UNL     1     -22.443  -7.940   0.717  1.00  0.00    -0.360 N 
HETATM   28  C   UNL     1     -21.238  -8.433   0.559  1.00  0.00     0.180 A 
ATOM     29  HN  UNL     1     -23.038  -8.013   1.542  1.00  0.00     0.166 HD
HETATM   30  N   UNL     1     -20.742  -8.158  -0.681  1.00  0.00    -0.354 N 
HETATM   31  H   UNL     1     -19.833  -8.431  -1.030  1.00  0.00     0.166 HD
ENDBRANCH  24  25
ENDBRANCH   1  24
BRANCH   1  32
HETATM   32  C   UNL     1     -21.437  -7.494  -5.248  1.00  0.00     0.241 C 
HETATM   33  O   UNL     1     -20.844  -8.153  -6.099  1.00  0.00    -0.271 OA
HETATM   34  N   UNL     1     -21.888  -6.205  -5.480  1.00  0.00    -0.346 N 
HETATM   35  H   UNL     1     -22.633  -5.829  -4.911  1.00  0.00     0.163 HD
BRANCH  34  36
HETATM   36  C   UNL     1     -21.519  -5.447  -6.690  1.00  0.00     0.176 C 
BRANCH  36  37
HETATM   37  C   UNL     1     -22.613  -4.420  -7.026  1.00  0.00     0.035 C 
BRANCH  37  38
HETATM   38  C   UNL     1     -23.344  -4.642  -8.361  1.00  0.00     0.004 C 
BRANCH  38  39
HETATM   39  C   UNL     1     -22.966  -3.667  -9.481  1.00  0.00     0.030 C 
BRANCH  39  40
HETATM   40  C   UNL     1     -24.163  -3.311 -10.359  1.00  0.00     0.267 C 
BRANCH  40  41
HETATM   41  N   UNL     1     -25.413  -3.607  -9.673  1.00  0.00     0.078 N 
HETATM   42  H   UNL     1     -25.949  -2.752  -9.540  1.00  0.00     0.312 HD
HETATM   43  H   UNL     1     -25.207  -3.973  -8.745  1.00  0.00     0.312 HD
ENDBRANCH  40  41
ENDBRANCH  39  40
ENDBRANCH  38  39
ENDBRANCH  37  38
ENDBRANCH  36  37
BRANCH  36  44
HETATM   44  C   UNL     1     -20.143  -4.754  -6.514  1.00  0.00     0.238 C 
HETATM   45  O   UNL     1     -19.659  -4.447  -5.427  1.00  0.00    -0.271 OA
HETATM   46  N   UNL     1     -19.404  -4.534  -7.647  1.00  0.00    -0.368 N 
HETATM   47  H   UNL     1     -19.894  -4.279  -8.492  1.00  0.00     0.159 HD
HETATM   48  H   UNL     1     -18.557  -4.006  -7.468  1.00  0.00     0.159 HD
ENDBRANCH  36  44
ENDBRANCH  34  36
ENDBRANCH   1  32
TORSDOF 20
BEGIN_RES ARG D 557
REMARK  4 active torsions:
REMARK  status: ('A' for Active; 'I' for Inactive)
REMARK    1  A    between atoms: CA   and  CB  
REMARK    2  A    between atoms: CB   and  CG  
REMARK    3  A    between atoms: CG   and  CD  
REMARK    4  A    between atoms: CD   and  NE  
REMARK       I    between atoms: NE   and  CZ  
REMARK       I    between atoms: CZ   and  NH1 
REMARK       I    between atoms: CZ   and  NH2 
ROOT
ATOM      1  CA  ARG D 557     -26.217   2.705 -17.014  1.00 35.49     0.159 C 
ENDROOT
BRANCH   1   2
ATOM      2  CB  ARG D 557     -26.789   1.319 -17.183  1.00 35.49     0.034 C 
BRANCH   2   3
ATOM      3  CG  ARG D 557     -25.923   0.196 -16.804  1.00 35.49     0.027 C 
BRANCH   3   4
ATOM      4  CD  ARG D 557     -26.658  -0.863 -16.075  1.00 35.49     0.116 C 
BRANCH   4   5
ATOM      5  NE  ARG D 557     -25.830  -1.526 -15.103  1.00 35.49    -0.212 N 
ATOM      6  CZ  ARG D 557     -25.887  -2.801 -14.787  1.00 35.49     0.666 C 
ATOM      7  NH1 ARG D 557     -26.752  -3.630 -15.340  1.00 35.49    -0.235 N 
ATOM      8  NH2 ARG D 557     -25.043  -3.237 -13.897  1.00 35.49    -0.235 N 
ATOM      9  HH  ARG D 557     -27.315  -3.365 -15.929  1.00 35.49     0.174 HD
ATOM     10  HH  ARG D 557     -26.741  -4.452 -15.096  1.00 35.49     0.174 HD
ATOM     11  HH  ARG D 557     -24.491  -2.680 -13.562  1.00 35.49     0.174 HD
ATOM     12  HH  ARG D 557     -25.047  -4.054 -13.670  1.00 35.49     0.174 HD
ATOM     13  HE  ARG D 557     -25.292  -1.051 -14.645  1.00 35.49     0.178 HD
ENDBRANCH   4   5
ENDBRANCH   3   4
ENDBRANCH   2   3
ENDBRANCH   1   2
END_RES ARG D 557
BEGIN_RES GLU D 570
REMARK  3 active torsions:
REMARK  status: ('A' for Active; 'I' for Inactive)
REMARK    5  A    between atoms: CA   and  CB  
REMARK    6  A    between atoms: CB   and  CG  
REMARK    7  A    between atoms: CG   and  CD  
ROOT
ATOM     14  CA  GLU D 570     -18.033  -6.348 -13.375  1.00 32.92     0.160 C 
ENDROOT
BRANCH  14  15
ATOM     15  CB  GLU D 570     -19.500  -6.345 -13.794  1.00 32.92     0.043 C 
BRANCH  15  16
ATOM     16  CG  GLU D 570     -20.450  -5.571 -12.954  1.00 32.92     0.100 C 
BRANCH  16  17
ATOM     17  CD  GLU D 570     -21.698  -5.160 -13.701  1.00 32.92     0.185 C 
ATOM     18  OE1 GLU D 570     -22.765  -5.032 -13.072  1.00 32.92    -0.647 OA
ATOM     19  OE2 GLU D 570     -21.610  -4.981 -14.932  1.00 32.92    -0.647 OA
ENDBRANCH  16  17
ENDBRANCH  15  16
ENDBRANCH  14  15
END_RES GLU D 570
ENDMDL
MODEL 8
REMARK VINA RESULT:      -7.6      4.760      8.805
REMARK  20 active torsions:
REMARK  status: ('A' for Active; 'I' for Inactive)
REMARK       I    between atoms: C_2  and  N_4 
REMARK    1  A    between atoms: N_4  and  C_5 
REMARK    2  A    between atoms: C_5  and  C_6 
REMARK    3  A    between atoms: C_5  and  C_11 
REMARK    4  A    between atoms: C_6  and  C_7 
REMARK    5  A    between atoms: C_7  and  C_8 
REMARK    6  A    between atoms: C_8  and  C_9 
REMARK    7  A    between atoms: C_9  and  N_10 
REMARK       I    between atoms: C_11  and  N_13 
REMARK    8  A    between atoms: N_13  and  C_14 
REMARK    9  A    between atoms: C_14  and  C_15 
REMARK       I    between atoms: C_15  and  N_17 
REMARK   10  A    between atoms: N_17  and  C_18 
REMARK   11  A    between atoms: C_18  and  C_19 
REMARK   12  A    between atoms: C_18  and  C_26 
REMARK   13  A    between atoms: C_19  and  C_20 
REMARK       I    between atoms: C_26  and  N_28 
REMARK   14  A    between atoms: N_28  and  C_29 
REMARK   15  A    between atoms: C_29  and  C_30 
REMARK   16  A    between atoms: C_29  and  C_35 
REMARK   17  A    between atoms: C_30  and  C_31 
REMARK   18  A    between atoms: C_31  and  C_32 
REMARK   19  A    between atoms: C_32  and  C_33 
REMARK   20  A    between atoms: C_33  and  N_34 
REMARK       I    between atoms: C_35  and  N_37 
ROOT
HETATM    1  C   UNL     1     -34.340  -2.464 -15.979  1.00  0.00     0.182 C 
ENDROOT
BRANCH   1   2
HETATM    2  N   UNL     1     -33.854  -3.801 -16.357  1.00  0.00    -0.346 N 
HETATM    3  C   UNL     1     -32.656  -4.004 -17.003  1.00  0.00     0.236 C 
HETATM    4  O   UNL     1     -31.884  -3.086 -17.276  1.00  0.00    -0.272 OA
HETATM    5  H   UNL     1     -34.346  -4.601 -15.957  1.00  0.00     0.163 HD
BRANCH   3   6
HETATM    6  C   UNL     1     -32.315  -5.458 -17.328  1.00  0.00     0.225 C 
BRANCH   6   7
HETATM    7  N   UNL     1     -30.958  -5.755 -16.932  1.00  0.00    -0.351 N 
HETATM    8  C   UNL     1     -30.288  -6.829 -17.466  1.00  0.00     0.240 C 
HETATM    9  O   UNL     1     -30.844  -7.599 -18.242  1.00  0.00    -0.271 OA
HETATM   10  H   UNL     1     -30.463  -5.124 -16.316  1.00  0.00     0.163 HD
BRANCH   8  11
HETATM   11  C   UNL     1     -28.836  -7.037 -16.964  1.00  0.00     0.176 C 
BRANCH  11  12
HETATM   12  N   UNL     1     -27.870  -7.123 -18.073  1.00  0.00    -0.348 N 
HETATM   13  C   UNL     1     -27.875  -6.216 -19.110  1.00  0.00     0.214 C 
HETATM   14  C   UNL     1     -26.833  -6.485 -20.162  1.00  0.00     0.117 C 
HETATM   15  O   UNL     1     -28.620  -5.246 -19.156  1.00  0.00    -0.274 OA
HETATM   16  H   UNL     1     -27.162  -7.846 -18.047  1.00  0.00     0.163 HD
ENDBRANCH  11  12
BRANCH  11  17
HETATM   17  C   UNL     1     -28.414  -5.897 -16.020  1.00  0.00     0.035 C 
BRANCH  17  18
HETATM   18  C   UNL     1     -26.902  -5.675 -15.858  1.00  0.00     0.004 C 
BRANCH  18  19
HETATM   19  C   UNL     1     -26.078  -6.938 -15.585  1.00  0.00     0.030 C 
BRANCH  19  20
HETATM   20  C   UNL     1     -24.602  -6.749 -15.928  1.00  0.00     0.267 C 
BRANCH  20  21
HETATM   21  N   UNL     1     -24.148  -7.781 -16.849  1.00  0.00     0.078 N 
HETATM   22  H   UNL     1     -23.169  -8.001 -16.672  1.00  0.00     0.312 HD
HETATM   23  H   UNL     1     -24.197  -7.429 -17.804  1.00  0.00     0.312 HD
ENDBRANCH  20  21
ENDBRANCH  19  20
ENDBRANCH  18  19
ENDBRANCH  17  18
ENDBRANCH  11  17
ENDBRANCH   8  11
ENDBRANCH   6   7
ENDBRANCH   3   6
ENDBRANCH   1   2
BRANCH   1  24
HETATM   24  C   UNL     1     -35.485  -1.971 -16.895  1.00  0.00     0.093 C 
BRANCH  24  25
HETATM   25  C   UNL     1     -36.124  -0.708 -16.421  1.00  0.00     0.028 A 
HETATM   26  C   UNL     1     -35.616   0.533 -16.102  1.00  0.00     0.114 A 
HETATM   27  N   UNL     1     -36.611   1.388 -15.717  1.00  0.00    -0.360 N 
HETATM   28  C   UNL     1     -37.714   0.680 -15.769  1.00  0.00     0.180 A 
ATOM     29  HN  UNL     1     -36.515   2.366 -15.445  1.00  0.00     0.166 HD
HETATM   30  N   UNL     1     -37.473  -0.594 -16.191  1.00  0.00    -0.354 N 
HETATM   31  H   UNL     1     -38.167  -1.321 -16.306  1.00  0.00     0.166 HD
ENDBRANCH  24  25
ENDBRANCH   1  24
BRANCH   1  32
HETATM   32  C   UNL     1     -34.789  -2.448 -14.491  1.00  0.00     0.241 C 
HETATM   33  O   UNL     1     -35.370  -1.485 -13.997  1.00  0.00    -0.271 OA
HETATM   34  N   UNL     1     -34.480  -3.588 -13.768  1.00  0.00    -0.346 N 
HETATM   35  H   UNL     1     -34.315  -4.458 -14.256  1.00  0.00     0.163 HD
BRANCH  34  36
HETATM   36  C   UNL     1     -34.641  -3.659 -12.304  1.00  0.00     0.176 C 
BRANCH  36  37
HETATM   37  C   UNL     1     -35.021  -5.089 -11.882  1.00  0.00     0.035 C 
BRANCH  37  38
HETATM   38  C   UNL     1     -34.605  -5.493 -10.458  1.00  0.00     0.004 C 
BRANCH  38  39
HETATM   39  C   UNL     1     -33.694  -6.722 -10.368  1.00  0.00     0.030 C 
BRANCH  39  40
HETATM   40  C   UNL     1     -34.474  -7.990 -10.029  1.00  0.00     0.267 C 
BRANCH  40  41
HETATM   41  N   UNL     1     -33.638  -9.170 -10.197  1.00  0.00     0.078 N 
HETATM   42  H   UNL     1     -34.220  -9.986 -10.379  1.00  0.00     0.312 HD
HETATM   43  H   UNL     1     -33.137  -9.353  -9.329  1.00  0.00     0.312 HD
ENDBRANCH  40  41
ENDBRANCH  39  40
ENDBRANCH  38  39
ENDBRANCH  37  38
ENDBRANCH  36  37
BRANCH  36  44
HETATM   44  C   UNL     1     -33.354  -3.191 -11.579  1.00  0.00     0.238 C 
HETATM   45  O   UNL     1     -32.251  -3.713 -11.726  1.00  0.00    -0.271 OA
HETATM   46  N   UNL     1     -33.455  -2.086 -10.775  1.00  0.00    -0.368 N 
HETATM   47  H   UNL     1     -34.302  -1.962 -10.240  1.00  0.00     0.159 HD
HETATM   48  H   UNL     1     -32.598  -1.885 -10.271  1.00  0.00     0.159 HD
ENDBRANCH  36  44
ENDBRANCH  34  36
ENDBRANCH   1  32
TORSDOF 20
BEGIN_RES ARG D 557
REMARK  4 active torsions:
REMARK  status: ('A' for Active; 'I' for Inactive)
REMARK    1  A    between atoms: CA   and  CB  
REMARK    2  A    between atoms: CB   and  CG  
REMARK    3  A    between atoms: CG   and  CD  
REMARK    4  A    between atoms: CD   and  NE  
REMARK       I    between atoms: NE   and  CZ  
REMARK       I    between atoms: CZ   and  NH1 
REMARK       I    between atoms: CZ   and  NH2 
ROOT
ATOM      1  CA  ARG D 557     -26.217   2.705 -17.014  1.00 35.49     0.159 C 
ENDROOT
BRANCH   1   2
ATOM      2  CB  ARG D 557     -26.789   1.319 -17.183  1.00 35.49     0.034 C 
BRANCH   2   3
ATOM      3  CG  ARG D 557     -28.213   1.229 -17.527  1.00 35.49     0.027 C 
BRANCH   3   4
ATOM      4  CD  ARG D 557     -28.970   0.381 -16.578  1.00 35.49     0.116 C 
BRANCH   4   5
ATOM      5  NE  ARG D 557     -29.313  -0.896 -17.146  1.00 35.49    -0.212 N 
ATOM      6  CZ  ARG D 557     -28.628  -2.009 -17.003  1.00 35.49     0.666 C 
ATOM      7  NH1 ARG D 557     -27.507  -2.067 -16.308  1.00 35.49    -0.235 N 
ATOM      8  NH2 ARG D 557     -29.099  -3.080 -17.572  1.00 35.49    -0.235 N 
ATOM      9  HH  ARG D 557     -27.180  -1.374 -15.924  1.00 35.49     0.174 HD
ATOM     10  HH  ARG D 557     -27.105  -2.821 -16.247  1.00 35.49     0.174 HD
ATOM     11  HH  ARG D 557     -29.829  -3.014 -18.008  1.00 35.49     0.174 HD
ATOM     12  HH  ARG D 557     -28.687  -3.818 -17.498  1.00 35.49     0.174 HD
ATOM     13  HE  ARG D 557     -29.982  -0.934 -17.669  1.00 35.49     0.178 HD
ENDBRANCH   4   5
ENDBRANCH   3   4
ENDBRANCH   2   3
ENDBRANCH   1   2
END_RES ARG D 557
BEGIN_RES GLU D 570
REMARK  3 active torsions:
REMARK  status: ('A' for Active; 'I' for Inactive)
REMARK    5  A    between atoms: CA   and  CB  
REMARK    6  A    between atoms: CB   and  CG  
REMARK    7  A    between atoms: CG   and  CD  
ROOT
ATOM     14  CA  GLU D 570     -18.033  -6.348 -13.375  1.00 32.92     0.160 C 
ENDROOT
BRANCH  14  15
ATOM     15  CB  GLU D 570     -19.500  -6.345 -13.794  1.00 32.92     0.043 C 
BRANCH  15  16
ATOM     16  CG  GLU D 570     -20.097  -7.642 -14.206  1.00 32.92     0.100 C 
BRANCH  16  17
ATOM     17  CD  GLU D 570     -20.844  -7.557 -15.516  1.00 32.92     0.185 C 
ATOM     18  OE1 GLU D 570     -21.134  -6.436 -15.976  1.00 32.92    -0.647 OA
ATOM     19  OE2 GLU D 570     -21.158  -8.624 -16.080  1.00 32.92    -0.647 OA
ENDBRANCH  16  17
ENDBRANCH  15  16
ENDBRANCH  14  15
END_RES GLU D 570
ENDMDL
MODEL 9
REMARK VINA RESULT:      -7.4      6.431     11.019
REMARK  20 active torsions:
REMARK  status: ('A' for Active; 'I' for Inactive)
REMARK       I    between atoms: C_2  and  N_4 
REMARK    1  A    between atoms: N_4  and  C_5 
REMARK    2  A    between atoms: C_5  and  C_6 
REMARK    3  A    between atoms: C_5  and  C_11 
REMARK    4  A    between atoms: C_6  and  C_7 
REMARK    5  A    between atoms: C_7  and  C_8 
REMARK    6  A    between atoms: C_8  and  C_9 
REMARK    7  A    between atoms: C_9  and  N_10 
REMARK       I    between atoms: C_11  and  N_13 
REMARK    8  A    between atoms: N_13  and  C_14 
REMARK    9  A    between atoms: C_14  and  C_15 
REMARK       I    between atoms: C_15  and  N_17 
REMARK   10  A    between atoms: N_17  and  C_18 
REMARK   11  A    between atoms: C_18  and  C_19 
REMARK   12  A    between atoms: C_18  and  C_26 
REMARK   13  A    between atoms: C_19  and  C_20 
REMARK       I    between atoms: C_26  and  N_28 
REMARK   14  A    between atoms: N_28  and  C_29 
REMARK   15  A    between atoms: C_29  and  C_30 
REMARK   16  A    between atoms: C_29  and  C_35 
REMARK   17  A    between atoms: C_30  and  C_31 
REMARK   18  A    between atoms: C_31  and  C_32 
REMARK   19  A    between atoms: C_32  and  C_33 
REMARK   20  A    between atoms: C_33  and  N_34 
REMARK       I    between atoms: C_35  and  N_37 
ROOT
HETATM    1  C   UNL     1     -19.987  -9.489  -3.523  1.00  0.00     0.182 C 
ENDROOT
BRANCH   1   2
HETATM    2  N   UNL     1     -20.227  -8.050  -3.718  1.00  0.00    -0.346 N 
HETATM    3  C   UNL     1     -20.660  -7.520  -4.911  1.00  0.00     0.236 C 
HETATM    4  O   UNL     1     -20.917  -8.216  -5.893  1.00  0.00    -0.272 OA
HETATM    5  H   UNL     1     -20.244  -7.468  -2.879  1.00  0.00     0.163 HD
BRANCH   3   6
HETATM    6  C   UNL     1     -20.847  -6.004  -4.935  1.00  0.00     0.225 C 
BRANCH   6   7
HETATM    7  N   UNL     1     -20.987  -5.538  -6.295  1.00  0.00    -0.351 N 
HETATM    8  C   UNL     1     -22.204  -5.118  -6.775  1.00  0.00     0.240 C 
HETATM    9  O   UNL     1     -23.215  -5.189  -6.082  1.00  0.00    -0.271 OA
HETATM   10  H   UNL     1     -20.169  -5.441  -6.882  1.00  0.00     0.163 HD
BRANCH   8  11
HETATM   11  C   UNL     1     -22.221  -4.636  -8.247  1.00  0.00     0.176 C 
BRANCH  11  12
HETATM   12  N   UNL     1     -23.422  -3.840  -8.560  1.00  0.00    -0.348 N 
HETATM   13  C   UNL     1     -24.164  -4.065  -9.698  1.00  0.00     0.214 C 
HETATM   14  C   UNL     1     -25.334  -3.133  -9.858  1.00  0.00     0.117 C 
HETATM   15  O   UNL     1     -23.933  -4.971 -10.488  1.00  0.00    -0.274 OA
HETATM   16  H   UNL     1     -23.725  -3.137  -7.897  1.00  0.00     0.163 HD
ENDBRANCH  11  12
BRANCH  11  17
HETATM   17  C   UNL     1     -20.970  -3.798  -8.564  1.00  0.00     0.035 C 
BRANCH  17  18
HETATM   18  C   UNL     1     -20.010  -4.382  -9.611  1.00  0.00     0.004 C 
BRANCH  18  19
HETATM   19  C   UNL     1     -20.513  -4.344 -11.058  1.00  0.00     0.030 C 
BRANCH  19  20
HETATM   20  C   UNL     1     -21.091  -2.981 -11.434  1.00  0.00     0.267 C 
BRANCH  20  21
HETATM   21  N   UNL     1     -22.105  -3.116 -12.469  1.00  0.00     0.078 N 
HETATM   22  H   UNL     1     -22.566  -4.022 -12.389  1.00  0.00     0.312 HD
HETATM   23  H   UNL     1     -21.660  -3.099 -13.386  1.00  0.00     0.312 HD
ENDBRANCH  20  21
ENDBRANCH  19  20
ENDBRANCH  18  19
ENDBRANCH  17  18
ENDBRANCH  11  17
ENDBRANCH   8  11
ENDBRANCH   6   7
ENDBRANCH   3   6
ENDBRANCH   1   2
BRANCH   1  24
HETATM   24  C   UNL     1     -18.535  -9.897  -3.864  1.00  0.00     0.093 C 
BRANCH  24  25
HETATM   25  C   UNL     1     -18.440 -10.883  -4.981  1.00  0.00     0.028 A 
HETATM   26  C   UNL     1     -17.723 -12.051  -5.137  1.00  0.00     0.114 A 
HETATM   27  N   UNL     1     -17.973 -12.622  -6.354  1.00  0.00    -0.360 N 
HETATM   28  C   UNL     1     -18.809 -11.808  -6.953  1.00  0.00     0.180 A 
ATOM     29  HN  UNL     1     -17.590 -13.494  -6.718  1.00  0.00     0.166 HD
HETATM   30  N   UNL     1     -19.124 -10.742  -6.163  1.00  0.00    -0.354 N 
HETATM   31  H   UNL     1     -19.744  -9.983  -6.412  1.00  0.00     0.166 HD
ENDBRANCH  24  25
ENDBRANCH   1  24
BRANCH   1  32
HETATM   32  C   UNL     1     -20.343  -9.910  -2.070  1.00  0.00     0.241 C 
HETATM   33  O   UNL     1     -19.616 -10.650  -1.411  1.00  0.00    -0.271 OA
HETATM   34  N   UNL     1     -21.534  -9.400  -1.582  1.00  0.00    -0.346 N 
HETATM   35  H   UNL     1     -21.925  -8.565  -1.996  1.00  0.00     0.163 HD
BRANCH  34  36
HETATM   36  C   UNL     1     -22.126  -9.861  -0.312  1.00  0.00     0.176 C 
BRANCH  36  37
HETATM   37  C   UNL     1     -22.316 -11.388  -0.341  1.00  0.00     0.035 C 
BRANCH  37  38
HETATM   38  C   UNL     1     -23.392 -11.904  -1.311  1.00  0.00     0.004 C 
BRANCH  38  39
HETATM   39  C   UNL     1     -24.038 -13.237  -0.921  1.00  0.00     0.030 C 
BRANCH  39  40
HETATM   40  C   UNL     1     -23.653 -14.363  -1.877  1.00  0.00     0.267 C 
BRANCH  40  41
HETATM   41  N   UNL     1     -22.858 -13.851  -2.984  1.00  0.00     0.078 N 
HETATM   42  H   UNL     1     -21.880 -13.782  -2.709  1.00  0.00     0.312 HD
HETATM   43  H   UNL     1     -23.168 -12.907  -3.210  1.00  0.00     0.312 HD
ENDBRANCH  40  41
ENDBRANCH  39  40
ENDBRANCH  38  39
ENDBRANCH  37  38
ENDBRANCH  36  37
BRANCH  36  44
HETATM   44  C   UNL     1     -21.253  -9.434   0.896  1.00  0.00     0.238 C 
HETATM   45  O   UNL     1     -21.297  -8.323   1.420  1.00  0.00    -0.271 OA
HETATM   46  N   UNL     1     -20.432 -10.385   1.442  1.00  0.00    -0.368 N 
HETATM   47  H   UNL     1     -19.987 -11.044   0.819  1.00  0.00     0.159 HD
HETATM   48  H   UNL     1     -19.833 -10.016   2.172  1.00  0.00     0.159 HD
ENDBRANCH  36  44
ENDBRANCH  34  36
ENDBRANCH   1  32
TORSDOF 20
BEGIN_RES ARG D 557
REMARK  4 active torsions:
REMARK  status: ('A' for Active; 'I' for Inactive)
REMARK    1  A    between atoms: CA   and  CB  
REMARK    2  A    between atoms: CB   and  CG  
REMARK    3  A    between atoms: CG   and  CD  
REMARK    4  A    between atoms: CD   and  NE  
REMARK       I    between atoms: NE   and  CZ  
REMARK       I    between atoms: CZ   and  NH1 
REMARK       I    between atoms: CZ   and  NH2 
ROOT
ATOM      1  CA  ARG D 557     -26.217   2.705 -17.014  1.00 35.49     0.159 C 
ENDROOT
BRANCH   1   2
ATOM      2  CB  ARG D 557     -26.789   1.319 -17.183  1.00 35.49     0.034 C 
BRANCH   2   3
ATOM      3  CG  ARG D 557     -28.223   1.158 -16.912  1.00 35.49     0.027 C 
BRANCH   3   4
ATOM      4  CD  ARG D 557     -28.602  -0.257 -16.699  1.00 35.49     0.116 C 
BRANCH   4   5
ATOM      5  NE  ARG D 557     -27.593  -0.985 -15.975  1.00 35.49    -0.212 N 
ATOM      6  CZ  ARG D 557     -27.383  -2.281 -16.044  1.00 35.49     0.666 C 
ATOM      7  NH1 ARG D 557     -28.114  -3.078 -16.801  1.00 35.49    -0.235 N 
ATOM      8  NH2 ARG D 557     -26.409  -2.770 -15.333  1.00 35.49    -0.235 N 
ATOM      9  HH  ARG D 557     -28.759  -2.778 -17.278  1.00 35.49     0.174 HD
ATOM     10  HH  ARG D 557     -27.930  -3.915 -16.807  1.00 35.49     0.174 HD
ATOM     11  HH  ARG D 557     -25.949  -2.230 -14.860  1.00 35.49     0.174 HD
ATOM     12  HH  ARG D 557     -26.241  -3.601 -15.354  1.00 35.49     0.174 HD
ATOM     13  HE  ARG D 557     -27.123  -0.560 -15.408  1.00 35.49     0.178 HD
ENDBRANCH   4   5
ENDBRANCH   3   4
ENDBRANCH   2   3
ENDBRANCH   1   2
END_RES ARG D 557
BEGIN_RES GLU D 570
REMARK  3 active torsions:
REMARK  status: ('A' for Active; 'I' for Inactive)
REMARK    5  A    between atoms: CA   and  CB  
REMARK    6  A    between atoms: CB   and  CG  
REMARK    7  A    between atoms: CG   and  CD  
ROOT
ATOM     14  CA  GLU D 570     -18.033  -6.348 -13.375  1.00 32.92     0.160 C 
ENDROOT
BRANCH  14  15
ATOM     15  CB  GLU D 570     -19.500  -6.345 -13.794  1.00 32.92     0.043 C 
BRANCH  15  16
ATOM     16  CG  GLU D 570     -19.812  -5.947 -15.191  1.00 32.92     0.100 C 
BRANCH  16  17
ATOM     17  CD  GLU D 570     -21.207  -5.387 -15.347  1.00 32.92     0.185 C 
ATOM     18  OE1 GLU D 570     -21.972  -5.387 -14.364  1.00 32.92    -0.647 OA
ATOM     19  OE2 GLU D 570     -21.543  -4.960 -16.469  1.00 32.92    -0.647 OA
ENDBRANCH  16  17
ENDBRANCH  15  16
ENDBRANCH  14  15
END_RES GLU D 570
ENDMDL
