MODEL 1
REMARK VINA RESULT:      -7.7      0.000      0.000
REMARK  21 active torsions:
REMARK  status: ('A' for Active; 'I' for Inactive)
REMARK    1  A    between atoms: C_2  and  C_3 
REMARK    2  A    between atoms: C_3  and  C_4 
REMARK    3  A    between atoms: C_4  and  C_5 
REMARK    4  A    between atoms: C_5  and  C_6 
REMARK    5  A    between atoms: C_6  and  C_7 
REMARK    6  A    between atoms: C_7  and  C_8 
REMARK    7  A    between atoms: C_8  and  C_9 
REMARK    8  A    between atoms: C_9  and  C_10 
REMARK    9  A    between atoms: C_10  and  C_11 
REMARK   10  A    between atoms: C_11  and  C_12 
REMARK   11  A    between atoms: C_12  and  C_13 
REMARK   12  A    between atoms: C_13  and  C_14 
REMARK   13  A    between atoms: C_14  and  C_15 
REMARK   14  A    between atoms: C_15  and  C_16 
REMARK   15  A    between atoms: C_16  and  O_18 
REMARK   16  A    between atoms: O_18  and  C_19 
REMARK   17  A    between atoms: C_19  and  C_20 
REMARK   18  A    between atoms: C_21  and  C_23 
REMARK   19  A    between atoms: C_24  and  C_25 
REMARK   20  A    between atoms: C_26  and  C_28 
REMARK   21  A    between atoms: C_29  and  C_30 
ROOT
HETATM    1  C   UNL     1     -22.200  -8.019   0.391  1.00  0.00     0.206 C 
ENDROOT
BRANCH   1   2
HETATM    2  O   UNL     1     -23.142  -9.101   0.411  1.00  0.00    -0.318 OA
BRANCH   2   3
HETATM    3  C   UNL     1     -22.633 -10.299   0.007  1.00  0.00     0.259 C 
HETATM    4  O   UNL     1     -21.724 -10.914   0.561  1.00  0.00    -0.265 OA
BRANCH   3   5
HETATM    5  C   UNL     1     -23.272 -10.769  -1.264  1.00  0.00     0.111 C 
BRANCH   5   6
HETATM    6  C   UNL     1     -22.220 -11.288  -2.225  1.00  0.00     0.010 C 
BRANCH   6   7
HETATM    7  C   UNL     1     -22.350 -10.642  -3.601  1.00  0.00     0.000 C 
BRANCH   7   8
HETATM    8  C   UNL     1     -22.082 -11.670  -4.693  1.00  0.00     0.000 C 
BRANCH   8   9
HETATM    9  C   UNL     1     -20.844 -11.299  -5.497  1.00  0.00     0.000 C 
BRANCH   9  10
HETATM   10  C   UNL     1     -20.448  -9.853  -5.232  1.00  0.00     0.000 C 
BRANCH  10  11
HETATM   11  C   UNL     1     -18.934  -9.706  -5.248  1.00  0.00     0.000 C 
BRANCH  11  12
HETATM   12  C   UNL     1     -18.267 -11.045  -4.970  1.00  0.00     0.000 C 
BRANCH  12  13
HETATM   13  C   UNL     1     -16.753 -10.892  -4.969  1.00  0.00     0.000 C 
BRANCH  13  14
HETATM   14  C   UNL     1     -16.351  -9.603  -4.268  1.00  0.00     0.000 C 
BRANCH  14  15
HETATM   15  C   UNL     1     -16.426  -9.775  -2.758  1.00  0.00     0.000 C 
BRANCH  15  16
HETATM   16  C   UNL     1     -15.626 -10.995  -2.319  1.00  0.00     0.000 C 
BRANCH  16  17
HETATM   17  C   UNL     1     -16.468 -11.890  -1.417  1.00  0.00    -0.000 C 
BRANCH  17  18
HETATM   18  C   UNL     1     -17.917 -11.422  -1.385  1.00  0.00    -0.005 C 
HETATM   19  C   UNL     1     -18.741 -12.275  -0.435  1.00  0.00     0.005 C 
ENDBRANCH  17  18
ENDBRANCH  16  17
ENDBRANCH  15  16
ENDBRANCH  14  15
ENDBRANCH  13  14
ENDBRANCH  12  13
ENDBRANCH  11  12
ENDBRANCH  10  11
ENDBRANCH   9  10
ENDBRANCH   8   9
ENDBRANCH   7   8
ENDBRANCH   6   7
ENDBRANCH   5   6
ENDBRANCH   3   5
ENDBRANCH   2   3
ENDBRANCH   1   2
BRANCH   1  20
HETATM   20  C   UNL     1     -22.386  -7.129  -0.822  1.00  0.00     0.006 C 
HETATM   21  C   UNL     1     -21.546  -7.138  -1.883  1.00  0.00    -0.064 C 
HETATM   22  C   UNL     1     -20.329  -8.040  -1.907  1.00  0.00     0.048 C 
BRANCH  21  23
HETATM   23  C   UNL     1     -21.790  -6.286  -3.063  1.00  0.00     0.006 C 
HETATM   24  C   UNL     1     -21.872  -6.766  -4.325  1.00  0.00     0.001 C 
BRANCH  24  25
HETATM   25  C   UNL     1     -22.139  -6.016  -5.540  1.00  0.00     0.007 C 
HETATM   26  C   UNL     1     -21.284  -5.133  -6.111  1.00  0.00    -0.062 C 
HETATM   27  C   UNL     1     -19.931  -4.759  -5.543  1.00  0.00     0.048 C 
BRANCH  26  28
HETATM   28  C   UNL     1     -21.684  -4.433  -7.341  1.00  0.00     0.007 C 
HETATM   29  C   UNL     1     -21.966  -5.021  -8.519  1.00  0.00     0.009 C 
BRANCH  29  30
HETATM   30  C   UNL     1     -22.222  -4.323  -9.783  1.00  0.00    -0.048 C 
HETATM   31  C   UNL     1     -21.198  -3.900 -10.568  1.00  0.00    -0.077 C 
HETATM   32  C   UNL     1     -21.417  -3.159 -11.873  1.00  0.00     0.034 C 
HETATM   33  C   UNL     1     -19.727  -4.145 -10.314  1.00  0.00     0.044 C 
HETATM   34  C   UNL     1     -22.844  -2.689 -12.105  1.00  0.00     0.005 C 
HETATM   35  C   UNL     1     -23.817  -3.791 -11.730  1.00  0.00     0.014 C 
HETATM   36  C   UNL     1     -23.706  -4.193 -10.229  1.00  0.00    -0.020 C 
HETATM   37  C   UNL     1     -24.497  -5.521 -10.096  1.00  0.00     0.020 C 
HETATM   38  C   UNL     1     -24.422  -3.125  -9.375  1.00  0.00     0.020 C 
ENDBRANCH  29  30
ENDBRANCH  26  28
ENDBRANCH  24  25
ENDBRANCH  21  23
ENDBRANCH   1  20
TORSDOF 21
BEGIN_RES ARG D 557
REMARK  4 active torsions:
REMARK  status: ('A' for Active; 'I' for Inactive)
REMARK    1  A    between atoms: CA   and  CB  
REMARK    2  A    between atoms: CB   and  CG  
REMARK    3  A    between atoms: CG   and  CD  
REMARK    4  A    between atoms: CD   and  NE  
REMARK       I    between atoms: NE   and  CZ  
REMARK       I    between atoms: CZ   and  NH1 
REMARK       I    between atoms: CZ   and  NH2 
ROOT
ATOM      1  CA  ARG D 557     -26.217   2.705 -17.014  1.00 35.49     0.159 C 
ENDROOT
BRANCH   1   2
ATOM      2  CB  ARG D 557     -26.789   1.319 -17.183  1.00 35.49     0.034 C 
BRANCH   2   3
ATOM      3  CG  ARG D 557     -28.229   1.164 -16.942  1.00 35.49     0.027 C 
BRANCH   3   4
ATOM      4  CD  ARG D 557     -28.604  -0.237 -16.644  1.00 35.49     0.116 C 
BRANCH   4   5
ATOM      5  NE  ARG D 557     -27.566  -0.937 -15.935  1.00 35.49    -0.212 N 
ATOM      6  CZ  ARG D 557     -27.327  -2.228 -16.001  1.00 35.49     0.666 C 
ATOM      7  NH1 ARG D 557     -28.052  -3.047 -16.740  1.00 35.49    -0.235 N 
ATOM      8  NH2 ARG D 557     -26.329  -2.690 -15.305  1.00 35.49    -0.235 N 
ATOM      9  HH  ARG D 557     -28.713  -2.764 -17.208  1.00 35.49     0.174 HD
ATOM     10  HH  ARG D 557     -27.848  -3.879 -16.746  1.00 35.49     0.174 HD
ATOM     11  HH  ARG D 557     -25.874  -2.137 -14.842  1.00 35.49     0.174 HD
ATOM     12  HH  ARG D 557     -26.142  -3.517 -15.325  1.00 35.49     0.174 HD
ATOM     13  HE  ARG D 557     -27.096  -0.498 -15.379  1.00 35.49     0.178 HD
ENDBRANCH   4   5
ENDBRANCH   3   4
ENDBRANCH   2   3
ENDBRANCH   1   2
END_RES ARG D 557
BEGIN_RES GLU D 570
REMARK  3 active torsions:
REMARK  status: ('A' for Active; 'I' for Inactive)
REMARK    5  A    between atoms: CA   and  CB  
REMARK    6  A    between atoms: CB   and  CG  
REMARK    7  A    between atoms: CG   and  CD  
ROOT
ATOM     14  CA  GLU D 570     -18.033  -6.348 -13.375  1.00 32.92     0.160 C 
ENDROOT
BRANCH  14  15
ATOM     15  CB  GLU D 570     -19.500  -6.345 -13.794  1.00 32.92     0.043 C 
BRANCH  15  16
ATOM     16  CG  GLU D 570     -19.796  -6.314 -15.250  1.00 32.92     0.100 C 
BRANCH  16  17
ATOM     17  CD  GLU D 570     -20.851  -7.316 -15.658  1.00 32.92     0.185 C 
ATOM     18  OE1 GLU D 570     -21.965  -6.902 -16.033  1.00 32.92    -0.647 OA
ATOM     19  OE2 GLU D 570     -20.566  -8.527 -15.586  1.00 32.92    -0.647 OA
ENDBRANCH  16  17
ENDBRANCH  15  16
ENDBRANCH  14  15
END_RES GLU D 570
ENDMDL
MODEL 2
REMARK VINA RESULT:      -7.6      0.968      1.939
REMARK  21 active torsions:
REMARK  status: ('A' for Active; 'I' for Inactive)
REMARK    1  A    between atoms: C_2  and  C_3 
REMARK    2  A    between atoms: C_3  and  C_4 
REMARK    3  A    between atoms: C_4  and  C_5 
REMARK    4  A    between atoms: C_5  and  C_6 
REMARK    5  A    between atoms: C_6  and  C_7 
REMARK    6  A    between atoms: C_7  and  C_8 
REMARK    7  A    between atoms: C_8  and  C_9 
REMARK    8  A    between atoms: C_9  and  C_10 
REMARK    9  A    between atoms: C_10  and  C_11 
REMARK   10  A    between atoms: C_11  and  C_12 
REMARK   11  A    between atoms: C_12  and  C_13 
REMARK   12  A    between atoms: C_13  and  C_14 
REMARK   13  A    between atoms: C_14  and  C_15 
REMARK   14  A    between atoms: C_15  and  C_16 
REMARK   15  A    between atoms: C_16  and  O_18 
REMARK   16  A    between atoms: O_18  and  C_19 
REMARK   17  A    between atoms: C_19  and  C_20 
REMARK   18  A    between atoms: C_21  and  C_23 
REMARK   19  A    between atoms: C_24  and  C_25 
REMARK   20  A    between atoms: C_26  and  C_28 
REMARK   21  A    between atoms: C_29  and  C_30 
ROOT
HETATM    1  C   UNL     1     -22.249  -8.023   0.477  1.00  0.00     0.206 C 
ENDROOT
BRANCH   1   2
HETATM    2  O   UNL     1     -23.035  -9.224   0.466  1.00  0.00    -0.318 OA
BRANCH   2   3
HETATM    3  C   UNL     1     -22.385 -10.318  -0.023  1.00  0.00     0.259 C 
HETATM    4  O   UNL     1     -21.237 -10.653   0.260  1.00  0.00    -0.265 OA
BRANCH   3   5
HETATM    5  C   UNL     1     -23.221 -11.052  -1.026  1.00  0.00     0.111 C 
BRANCH   5   6
HETATM    6  C   UNL     1     -22.902 -10.576  -2.430  1.00  0.00     0.010 C 
BRANCH   6   7
HETATM    7  C   UNL     1     -22.050 -11.591  -3.186  1.00  0.00     0.000 C 
BRANCH   7   8
HETATM    8  C   UNL     1     -21.389 -10.932  -4.391  1.00  0.00     0.000 C 
BRANCH   8   9
HETATM    9  C   UNL     1     -19.941 -10.573  -4.087  1.00  0.00     0.000 C 
BRANCH   9  10
HETATM   10  C   UNL     1     -19.328 -11.588  -3.132  1.00  0.00     0.000 C 
BRANCH  10  11
HETATM   11  C   UNL     1     -18.318 -10.912  -2.218  1.00  0.00     0.000 C 
BRANCH  11  12
HETATM   12  C   UNL     1     -17.651  -9.746  -2.932  1.00  0.00     0.000 C 
BRANCH  12  13
HETATM   13  C   UNL     1     -16.138  -9.835  -2.792  1.00  0.00     0.000 C 
BRANCH  13  14
HETATM   14  C   UNL     1     -15.567 -10.807  -3.813  1.00  0.00     0.000 C 
BRANCH  14  15
HETATM   15  C   UNL     1     -15.523 -10.163  -5.191  1.00  0.00     0.000 C 
BRANCH  15  16
HETATM   16  C   UNL     1     -15.747 -11.208  -6.276  1.00  0.00     0.000 C 
BRANCH  16  17
HETATM   17  C   UNL     1     -16.968 -12.062  -5.951  1.00  0.00    -0.000 C 
BRANCH  17  18
HETATM   18  C   UNL     1     -18.066 -11.858  -6.987  1.00  0.00    -0.005 C 
HETATM   19  C   UNL     1     -19.126 -12.942  -6.874  1.00  0.00     0.005 C 
ENDBRANCH  17  18
ENDBRANCH  16  17
ENDBRANCH  15  16
ENDBRANCH  14  15
ENDBRANCH  13  14
ENDBRANCH  12  13
ENDBRANCH  11  12
ENDBRANCH  10  11
ENDBRANCH   9  10
ENDBRANCH   8   9
ENDBRANCH   7   8
ENDBRANCH   6   7
ENDBRANCH   5   6
ENDBRANCH   3   5
ENDBRANCH   2   3
ENDBRANCH   1   2
BRANCH   1  20
HETATM   20  C   UNL     1     -22.512  -7.163  -0.744  1.00  0.00     0.006 C 
HETATM   21  C   UNL     1     -21.672  -7.103  -1.803  1.00  0.00    -0.064 C 
HETATM   22  C   UNL     1     -20.377  -7.891  -1.817  1.00  0.00     0.048 C 
BRANCH  21  23
HETATM   23  C   UNL     1     -21.990  -6.287  -2.990  1.00  0.00     0.006 C 
HETATM   24  C   UNL     1     -21.795  -6.711  -4.260  1.00  0.00     0.001 C 
BRANCH  24  25
HETATM   25  C   UNL     1     -22.105  -5.996  -5.487  1.00  0.00     0.007 C 
HETATM   26  C   UNL     1     -21.268  -5.137  -6.117  1.00  0.00    -0.062 C 
HETATM   27  C   UNL     1     -19.892  -4.755  -5.613  1.00  0.00     0.048 C 
BRANCH  26  28
HETATM   28  C   UNL     1     -21.710  -4.473  -7.352  1.00  0.00     0.007 C 
HETATM   29  C   UNL     1     -21.898  -5.077  -8.541  1.00  0.00     0.009 C 
BRANCH  29  30
HETATM   30  C   UNL     1     -22.196  -4.398  -9.806  1.00  0.00    -0.048 C 
HETATM   31  C   UNL     1     -21.204  -4.058 -10.669  1.00  0.00    -0.077 C 
HETATM   32  C   UNL     1     -21.467  -3.340 -11.978  1.00  0.00     0.034 C 
HETATM   33  C   UNL     1     -19.736  -4.382 -10.502  1.00  0.00     0.044 C 
HETATM   34  C   UNL     1     -22.877  -2.793 -12.131  1.00  0.00     0.005 C 
HETATM   35  C   UNL     1     -23.884  -3.826 -11.661  1.00  0.00     0.014 C 
HETATM   36  C   UNL     1     -23.697  -4.194 -10.160  1.00  0.00    -0.020 C 
HETATM   37  C   UNL     1     -24.552  -5.468  -9.936  1.00  0.00     0.020 C 
HETATM   38  C   UNL     1     -24.293  -3.063  -9.293  1.00  0.00     0.020 C 
ENDBRANCH  29  30
ENDBRANCH  26  28
ENDBRANCH  24  25
ENDBRANCH  21  23
ENDBRANCH   1  20
TORSDOF 21
BEGIN_RES ARG D 557
REMARK  4 active torsions:
REMARK  status: ('A' for Active; 'I' for Inactive)
REMARK    1  A    between atoms: CA   and  CB  
REMARK    2  A    between atoms: CB   and  CG  
REMARK    3  A    between atoms: CG   and  CD  
REMARK    4  A    between atoms: CD   and  NE  
REMARK       I    between atoms: NE   and  CZ  
REMARK       I    between atoms: CZ   and  NH1 
REMARK       I    between atoms: CZ   and  NH2 
ROOT
ATOM      1  CA  ARG D 557     -26.217   2.705 -17.014  1.00 35.49     0.159 C 
ENDROOT
BRANCH   1   2
ATOM      2  CB  ARG D 557     -26.789   1.319 -17.183  1.00 35.49     0.034 C 
BRANCH   2   3
ATOM      3  CG  ARG D 557     -28.250   1.194 -17.113  1.00 35.49     0.027 C 
BRANCH   3   4
ATOM      4  CD  ARG D 557     -28.679  -0.126 -16.597  1.00 35.49     0.116 C 
BRANCH   4   5
ATOM      5  NE  ARG D 557     -27.614  -0.815 -15.918  1.00 35.49    -0.212 N 
ATOM      6  CZ  ARG D 557     -27.342  -2.097 -16.019  1.00 35.49     0.666 C 
ATOM      7  NH1 ARG D 557     -28.053  -2.916 -16.771  1.00 35.49    -0.235 N 
ATOM      8  NH2 ARG D 557     -26.323  -2.549 -15.346  1.00 35.49    -0.235 N 
ATOM      9  HH  ARG D 557     -28.726  -2.640 -17.224  1.00 35.49     0.174 HD
ATOM     10  HH  ARG D 557     -27.827  -3.742 -16.800  1.00 35.49     0.174 HD
ATOM     11  HH  ARG D 557     -25.878  -1.995 -14.875  1.00 35.49     0.174 HD
ATOM     12  HH  ARG D 557     -26.114  -3.369 -15.389  1.00 35.49     0.174 HD
ATOM     13  HE  ARG D 557     -27.150  -0.378 -15.355  1.00 35.49     0.178 HD
ENDBRANCH   4   5
ENDBRANCH   3   4
ENDBRANCH   2   3
ENDBRANCH   1   2
END_RES ARG D 557
BEGIN_RES GLU D 570
REMARK  3 active torsions:
REMARK  status: ('A' for Active; 'I' for Inactive)
REMARK    5  A    between atoms: CA   and  CB  
REMARK    6  A    between atoms: CB   and  CG  
REMARK    7  A    between atoms: CG   and  CD  
ROOT
ATOM     14  CA  GLU D 570     -18.033  -6.348 -13.375  1.00 32.92     0.160 C 
ENDROOT
BRANCH  14  15
ATOM     15  CB  GLU D 570     -19.500  -6.345 -13.794  1.00 32.92     0.043 C 
BRANCH  15  16
ATOM     16  CG  GLU D 570     -19.817  -5.895 -15.174  1.00 32.92     0.100 C 
BRANCH  16  17
ATOM     17  CD  GLU D 570     -21.294  -5.668 -15.395  1.00 32.92     0.185 C 
ATOM     18  OE1 GLU D 570     -22.082  -6.622 -15.246  1.00 32.92    -0.647 OA
ATOM     19  OE2 GLU D 570     -21.666  -4.529 -15.738  1.00 32.92    -0.647 OA
ENDBRANCH  16  17
ENDBRANCH  15  16
ENDBRANCH  14  15
END_RES GLU D 570
ENDMDL
MODEL 3
REMARK VINA RESULT:      -7.3      1.129      2.783
REMARK  21 active torsions:
REMARK  status: ('A' for Active; 'I' for Inactive)
REMARK    1  A    between atoms: C_2  and  C_3 
REMARK    2  A    between atoms: C_3  and  C_4 
REMARK    3  A    between atoms: C_4  and  C_5 
REMARK    4  A    between atoms: C_5  and  C_6 
REMARK    5  A    between atoms: C_6  and  C_7 
REMARK    6  A    between atoms: C_7  and  C_8 
REMARK    7  A    between atoms: C_8  and  C_9 
REMARK    8  A    between atoms: C_9  and  C_10 
REMARK    9  A    between atoms: C_10  and  C_11 
REMARK   10  A    between atoms: C_11  and  C_12 
REMARK   11  A    between atoms: C_12  and  C_13 
REMARK   12  A    between atoms: C_13  and  C_14 
REMARK   13  A    between atoms: C_14  and  C_15 
REMARK   14  A    between atoms: C_15  and  C_16 
REMARK   15  A    between atoms: C_16  and  O_18 
REMARK   16  A    between atoms: O_18  and  C_19 
REMARK   17  A    between atoms: C_19  and  C_20 
REMARK   18  A    between atoms: C_21  and  C_23 
REMARK   19  A    between atoms: C_24  and  C_25 
REMARK   20  A    between atoms: C_26  and  C_28 
REMARK   21  A    between atoms: C_29  and  C_30 
ROOT
HETATM    1  C   UNL     1     -22.119  -8.147   0.609  1.00  0.00     0.206 C 
ENDROOT
BRANCH   1   2
HETATM    2  O   UNL     1     -22.253  -9.551   0.341  1.00  0.00    -0.318 OA
BRANCH   2   3
HETATM    3  C   UNL     1     -21.169 -10.298   0.694  1.00  0.00     0.259 C 
HETATM    4  O   UNL     1     -20.420 -10.068   1.642  1.00  0.00    -0.265 OA
BRANCH   3   5
HETATM    5  C   UNL     1     -20.939 -11.425  -0.265  1.00  0.00     0.111 C 
BRANCH   5   6
HETATM    6  C   UNL     1     -19.507 -11.411  -0.765  1.00  0.00     0.010 C 
BRANCH   6   7
HETATM    7  C   UNL     1     -19.279 -12.469  -1.840  1.00  0.00     0.000 C 
BRANCH   7   8
HETATM    8  C   UNL     1     -17.863 -13.023  -1.743  1.00  0.00     0.000 C 
BRANCH   8   9
HETATM    9  C   UNL     1     -16.996 -12.147  -0.849  1.00  0.00     0.000 C 
BRANCH   9  10
HETATM   10  C   UNL     1     -15.609 -11.974  -1.453  1.00  0.00     0.000 C 
BRANCH  10  11
HETATM   11  C   UNL     1     -15.701 -11.265  -2.796  1.00  0.00     0.000 C 
BRANCH  11  12
HETATM   12  C   UNL     1     -16.059  -9.800  -2.600  1.00  0.00     0.000 C 
BRANCH  12  13
HETATM   13  C   UNL     1     -17.334  -9.460  -3.359  1.00  0.00     0.000 C 
BRANCH  13  14
HETATM   14  C   UNL     1     -17.585 -10.482  -4.457  1.00  0.00     0.000 C 
BRANCH  14  15
HETATM   15  C   UNL     1     -18.502  -9.900  -5.523  1.00  0.00     0.000 C 
BRANCH  15  16
HETATM   16  C   UNL     1     -19.907  -9.703  -4.970  1.00  0.00     0.000 C 
BRANCH  16  17
HETATM   17  C   UNL     1     -20.867 -10.721  -5.574  1.00  0.00    -0.000 C 
BRANCH  17  18
HETATM   18  C   UNL     1     -21.638 -11.456  -4.486  1.00  0.00    -0.005 C 
HETATM   19  C   UNL     1     -22.327 -10.474  -3.552  1.00  0.00     0.005 C 
ENDBRANCH  17  18
ENDBRANCH  16  17
ENDBRANCH  15  16
ENDBRANCH  14  15
ENDBRANCH  13  14
ENDBRANCH  12  13
ENDBRANCH  11  12
ENDBRANCH  10  11
ENDBRANCH   9  10
ENDBRANCH   8   9
ENDBRANCH   7   8
ENDBRANCH   6   7
ENDBRANCH   5   6
ENDBRANCH   3   5
ENDBRANCH   2   3
ENDBRANCH   1   2
BRANCH   1  20
HETATM   20  C   UNL     1     -22.438  -7.305  -0.609  1.00  0.00     0.006 C 
HETATM   21  C   UNL     1     -21.619  -7.215  -1.683  1.00  0.00    -0.064 C 
HETATM   22  C   UNL     1     -20.294  -7.950  -1.717  1.00  0.00     0.048 C 
BRANCH  21  23
HETATM   23  C   UNL     1     -21.991  -6.418  -2.868  1.00  0.00     0.006 C 
HETATM   24  C   UNL     1     -21.659  -6.763  -4.133  1.00  0.00     0.001 C 
BRANCH  24  25
HETATM   25  C   UNL     1     -22.004  -6.064  -5.359  1.00  0.00     0.007 C 
HETATM   26  C   UNL     1     -21.231  -5.127  -5.961  1.00  0.00    -0.062 C 
HETATM   27  C   UNL     1     -19.906  -4.632  -5.422  1.00  0.00     0.048 C 
BRANCH  26  28
HETATM   28  C   UNL     1     -21.704  -4.490  -7.199  1.00  0.00     0.007 C 
HETATM   29  C   UNL     1     -21.775  -5.081  -8.407  1.00  0.00     0.009 C 
BRANCH  29  30
HETATM   30  C   UNL     1     -22.106  -4.411  -9.668  1.00  0.00    -0.048 C 
HETATM   31  C   UNL     1     -21.132  -4.044 -10.541  1.00  0.00    -0.077 C 
HETATM   32  C   UNL     1     -21.429  -3.334 -11.848  1.00  0.00     0.034 C 
HETATM   33  C   UNL     1     -19.655  -4.329 -10.390  1.00  0.00     0.044 C 
HETATM   34  C   UNL     1     -22.854  -2.826 -11.986  1.00  0.00     0.005 C 
HETATM   35  C   UNL     1     -23.828  -3.885 -11.505  1.00  0.00     0.014 C 
HETATM   36  C   UNL     1     -23.615  -4.247 -10.005  1.00  0.00    -0.020 C 
HETATM   37  C   UNL     1     -24.433  -5.545  -9.772  1.00  0.00     0.020 C 
HETATM   38  C   UNL     1     -24.232  -3.132  -9.133  1.00  0.00     0.020 C 
ENDBRANCH  29  30
ENDBRANCH  26  28
ENDBRANCH  24  25
ENDBRANCH  21  23
ENDBRANCH   1  20
TORSDOF 21
BEGIN_RES ARG D 557
REMARK  4 active torsions:
REMARK  status: ('A' for Active; 'I' for Inactive)
REMARK    1  A    between atoms: CA   and  CB  
REMARK    2  A    between atoms: CB   and  CG  
REMARK    3  A    between atoms: CG   and  CD  
REMARK    4  A    between atoms: CD   and  NE  
REMARK       I    between atoms: NE   and  CZ  
REMARK       I    between atoms: CZ   and  NH1 
REMARK       I    between atoms: CZ   and  NH2 
ROOT
ATOM      1  CA  ARG D 557     -26.217   2.705 -17.014  1.00 35.49     0.159 C 
ENDROOT
BRANCH   1   2
ATOM      2  CB  ARG D 557     -26.789   1.319 -17.183  1.00 35.49     0.034 C 
BRANCH   2   3
ATOM      3  CG  ARG D 557     -26.126   0.236 -16.446  1.00 35.49     0.027 C 
BRANCH   3   4
ATOM      4  CD  ARG D 557     -27.072  -0.823 -16.027  1.00 35.49     0.116 C 
BRANCH   4   5
ATOM      5  NE  ARG D 557     -26.396  -2.039 -15.657  1.00 35.49    -0.212 N 
ATOM      6  CZ  ARG D 557     -25.352  -2.126 -14.864  1.00 35.49     0.666 C 
ATOM      7  NH1 ARG D 557     -24.787  -1.066 -14.317  1.00 35.49    -0.235 N 
ATOM      8  NH2 ARG D 557     -24.881  -3.314 -14.620  1.00 35.49    -0.235 N 
ATOM      9  HH  ARG D 557     -25.081  -0.274 -14.461  1.00 35.49     0.174 HD
ATOM     10  HH  ARG D 557     -24.109  -1.184 -13.805  1.00 35.49     0.174 HD
ATOM     11  HH  ARG D 557     -25.271  -3.981 -14.982  1.00 35.49     0.174 HD
ATOM     12  HH  ARG D 557     -24.210  -3.411 -14.110  1.00 35.49     0.174 HD
ATOM     13  HE  ARG D 557     -26.649  -2.763 -16.023  1.00 35.49     0.178 HD
ENDBRANCH   4   5
ENDBRANCH   3   4
ENDBRANCH   2   3
ENDBRANCH   1   2
END_RES ARG D 557
BEGIN_RES GLU D 570
REMARK  3 active torsions:
REMARK  status: ('A' for Active; 'I' for Inactive)
REMARK    5  A    between atoms: CA   and  CB  
REMARK    6  A    between atoms: CB   and  CG  
REMARK    7  A    between atoms: CG   and  CD  
ROOT
ATOM     14  CA  GLU D 570     -18.033  -6.348 -13.375  1.00 32.92     0.160 C 
ENDROOT
BRANCH  14  15
ATOM     15  CB  GLU D 570     -19.500  -6.345 -13.794  1.00 32.92     0.043 C 
BRANCH  15  16
ATOM     16  CG  GLU D 570     -19.803  -6.587 -15.228  1.00 32.92     0.100 C 
BRANCH  16  17
ATOM     17  CD  GLU D 570     -20.821  -5.621 -15.787  1.00 32.92     0.185 C 
ATOM     18  OE1 GLU D 570     -21.551  -4.989 -15.000  1.00 32.92    -0.647 OA
ATOM     19  OE2 GLU D 570     -20.901  -5.508 -17.026  1.00 32.92    -0.647 OA
ENDBRANCH  16  17
ENDBRANCH  15  16
ENDBRANCH  14  15
END_RES GLU D 570
ENDMDL
MODEL 4
REMARK VINA RESULT:      -7.3      8.903     15.884
REMARK  21 active torsions:
REMARK  status: ('A' for Active; 'I' for Inactive)
REMARK    1  A    between atoms: C_2  and  C_3 
REMARK    2  A    between atoms: C_3  and  C_4 
REMARK    3  A    between atoms: C_4  and  C_5 
REMARK    4  A    between atoms: C_5  and  C_6 
REMARK    5  A    between atoms: C_6  and  C_7 
REMARK    6  A    between atoms: C_7  and  C_8 
REMARK    7  A    between atoms: C_8  and  C_9 
REMARK    8  A    between atoms: C_9  and  C_10 
REMARK    9  A    between atoms: C_10  and  C_11 
REMARK   10  A    between atoms: C_11  and  C_12 
REMARK   11  A    between atoms: C_12  and  C_13 
REMARK   12  A    between atoms: C_13  and  C_14 
REMARK   13  A    between atoms: C_14  and  C_15 
REMARK   14  A    between atoms: C_15  and  C_16 
REMARK   15  A    between atoms: C_16  and  O_18 
REMARK   16  A    between atoms: O_18  and  C_19 
REMARK   17  A    between atoms: C_19  and  C_20 
REMARK   18  A    between atoms: C_21  and  C_23 
REMARK   19  A    between atoms: C_24  and  C_25 
REMARK   20  A    between atoms: C_26  and  C_28 
REMARK   21  A    between atoms: C_29  and  C_30 
ROOT
HETATM    1  C   UNL     1     -35.023  -2.214 -16.957  1.00  0.00     0.206 C 
ENDROOT
BRANCH   1   2
HETATM    2  O   UNL     1     -34.894  -1.003 -16.197  1.00  0.00    -0.318 OA
BRANCH   2   3
HETATM    3  C   UNL     1     -36.022  -0.239 -16.161  1.00  0.00     0.259 C 
HETATM    4  O   UNL     1     -37.069  -0.481 -16.759  1.00  0.00    -0.265 OA
BRANCH   3   5
HETATM    5  C   UNL     1     -35.822   1.003 -15.348  1.00  0.00     0.111 C 
BRANCH   5   6
HETATM    6  C   UNL     1     -34.814   0.755 -14.243  1.00  0.00     0.010 C 
BRANCH   6   7
HETATM    7  C   UNL     1     -35.501   0.436 -12.919  1.00  0.00     0.000 C 
BRANCH   7   8
HETATM    8  C   UNL     1     -36.944   0.012 -13.162  1.00  0.00     0.000 C 
BRANCH   8   9
HETATM    9  C   UNL     1     -37.678  -0.198 -11.845  1.00  0.00     0.000 C 
BRANCH   9  10
HETATM   10  C   UNL     1     -36.801   0.218 -10.672  1.00  0.00     0.000 C 
BRANCH  10  11
HETATM   11  C   UNL     1     -36.673  -0.924  -9.675  1.00  0.00     0.000 C 
BRANCH  11  12
HETATM   12  C   UNL     1     -35.867  -2.066 -10.275  1.00  0.00     0.000 C 
BRANCH  12  13
HETATM   13  C   UNL     1     -34.393  -1.912  -9.930  1.00  0.00     0.000 C 
BRANCH  13  14
HETATM   14  C   UNL     1     -33.535  -2.097 -11.172  1.00  0.00     0.000 C 
BRANCH  14  15
HETATM   15  C   UNL     1     -33.891  -3.400 -11.873  1.00  0.00     0.000 C 
BRANCH  15  16
HETATM   16  C   UNL     1     -32.708  -4.359 -11.852  1.00  0.00     0.000 C 
BRANCH  16  17
HETATM   17  C   UNL     1     -33.135  -5.723 -11.326  1.00  0.00    -0.000 C 
BRANCH  17  18
HETATM   18  C   UNL     1     -34.394  -5.610 -10.474  1.00  0.00    -0.005 C 
HETATM   19  C   UNL     1     -34.831  -6.975  -9.969  1.00  0.00     0.005 C 
ENDBRANCH  17  18
ENDBRANCH  16  17
ENDBRANCH  15  16
ENDBRANCH  14  15
ENDBRANCH  13  14
ENDBRANCH  12  13
ENDBRANCH  11  12
ENDBRANCH  10  11
ENDBRANCH   9  10
ENDBRANCH   8   9
ENDBRANCH   7   8
ENDBRANCH   6   7
ENDBRANCH   5   6
ENDBRANCH   3   5
ENDBRANCH   2   3
ENDBRANCH   1   2
BRANCH   1  20
HETATM   20  C   UNL     1     -33.704  -2.951 -17.074  1.00  0.00     0.006 C 
HETATM   21  C   UNL     1     -33.402  -4.051 -16.346  1.00  0.00    -0.064 C 
HETATM   22  C   UNL     1     -34.379  -4.605 -15.328  1.00  0.00     0.048 C 
BRANCH  21  23
HETATM   23  C   UNL     1     -32.123  -4.764 -16.525  1.00  0.00     0.006 C 
HETATM   24  C   UNL     1     -31.120  -4.310 -17.310  1.00  0.00     0.001 C 
BRANCH  24  25
HETATM   25  C   UNL     1     -29.819  -4.922 -17.524  1.00  0.00     0.007 C 
HETATM   26  C   UNL     1     -29.617  -6.219 -17.860  1.00  0.00    -0.062 C 
HETATM   27  C   UNL     1     -30.720  -7.245 -18.021  1.00  0.00     0.048 C 
BRANCH  26  28
HETATM   28  C   UNL     1     -28.244  -6.713 -18.039  1.00  0.00     0.007 C 
HETATM   29  C   UNL     1     -27.266  -6.078 -18.713  1.00  0.00     0.009 C 
BRANCH  29  30
HETATM   30  C   UNL     1     -25.943  -6.630 -19.020  1.00  0.00    -0.048 C 
HETATM   31  C   UNL     1     -25.011  -6.795 -18.046  1.00  0.00    -0.077 C 
HETATM   32  C   UNL     1     -23.625  -7.345 -18.323  1.00  0.00     0.034 C 
HETATM   33  C   UNL     1     -25.214  -6.529 -16.571  1.00  0.00     0.044 C 
HETATM   34  C   UNL     1     -23.263  -7.444 -19.795  1.00  0.00     0.005 C 
HETATM   35  C   UNL     1     -24.433  -8.013 -20.577  1.00  0.00     0.014 C 
HETATM   36  C   UNL     1     -25.702  -7.116 -20.477  1.00  0.00    -0.020 C 
HETATM   37  C   UNL     1     -26.866  -7.983 -21.026  1.00  0.00     0.020 C 
HETATM   38  C   UNL     1     -25.528  -5.903 -21.416  1.00  0.00     0.020 C 
ENDBRANCH  29  30
ENDBRANCH  26  28
ENDBRANCH  24  25
ENDBRANCH  21  23
ENDBRANCH   1  20
TORSDOF 21
BEGIN_RES ARG D 557
REMARK  4 active torsions:
REMARK  status: ('A' for Active; 'I' for Inactive)
REMARK    1  A    between atoms: CA   and  CB  
REMARK    2  A    between atoms: CB   and  CG  
REMARK    3  A    between atoms: CG   and  CD  
REMARK    4  A    between atoms: CD   and  NE  
REMARK       I    between atoms: NE   and  CZ  
REMARK       I    between atoms: CZ   and  NH1 
REMARK       I    between atoms: CZ   and  NH2 
ROOT
ATOM      1  CA  ARG D 557     -26.217   2.705 -17.014  1.00 35.49     0.159 C 
ENDROOT
BRANCH   1   2
ATOM      2  CB  ARG D 557     -26.789   1.319 -17.183  1.00 35.49     0.034 C 
BRANCH   2   3
ATOM      3  CG  ARG D 557     -25.950   0.199 -16.739  1.00 35.49     0.027 C 
BRANCH   3   4
ATOM      4  CD  ARG D 557     -26.705  -0.786 -15.932  1.00 35.49     0.116 C 
BRANCH   4   5
ATOM      5  NE  ARG D 557     -25.838  -1.608 -15.130  1.00 35.49    -0.212 N 
ATOM      6  CZ  ARG D 557     -25.961  -2.904 -14.947  1.00 35.49     0.666 C 
ATOM      7  NH1 ARG D 557     -26.937  -3.608 -15.490  1.00 35.49    -0.235 N 
ATOM      8  NH2 ARG D 557     -25.070  -3.492 -14.203  1.00 35.49    -0.235 N 
ATOM      9  HH  ARG D 557     -27.533  -3.242 -15.985  1.00 35.49     0.174 HD
ATOM     10  HH  ARG D 557     -26.965  -4.450 -15.338  1.00 35.49     0.174 HD
ATOM     11  HH  ARG D 557     -24.446  -3.014 -13.871  1.00 35.49     0.174 HD
ATOM     12  HH  ARG D 557     -25.113  -4.328 -14.066  1.00 35.49     0.174 HD
ATOM     13  HE  ARG D 557     -25.224  -1.225 -14.684  1.00 35.49     0.178 HD
ENDBRANCH   4   5
ENDBRANCH   3   4
ENDBRANCH   2   3
ENDBRANCH   1   2
END_RES ARG D 557
BEGIN_RES GLU D 570
REMARK  3 active torsions:
REMARK  status: ('A' for Active; 'I' for Inactive)
REMARK    5  A    between atoms: CA   and  CB  
REMARK    6  A    between atoms: CB   and  CG  
REMARK    7  A    between atoms: CG   and  CD  
ROOT
ATOM     14  CA  GLU D 570     -18.033  -6.348 -13.375  1.00 32.92     0.160 C 
ENDROOT
BRANCH  14  15
ATOM     15  CB  GLU D 570     -19.500  -6.345 -13.794  1.00 32.92     0.043 C 
BRANCH  15  16
ATOM     16  CG  GLU D 570     -20.437  -5.511 -12.998  1.00 32.92     0.100 C 
BRANCH  16  17
ATOM     17  CD  GLU D 570     -21.704  -5.169 -13.749  1.00 32.92     0.185 C 
ATOM     18  OE1 GLU D 570     -21.639  -4.936 -14.971  1.00 32.92    -0.647 OA
ATOM     19  OE2 GLU D 570     -22.769  -5.116 -13.104  1.00 32.92    -0.647 OA
ENDBRANCH  16  17
ENDBRANCH  15  16
ENDBRANCH  14  15
END_RES GLU D 570
ENDMDL
MODEL 5
REMARK VINA RESULT:      -7.2      1.262      2.303
REMARK  21 active torsions:
REMARK  status: ('A' for Active; 'I' for Inactive)
REMARK    1  A    between atoms: C_2  and  C_3 
REMARK    2  A    between atoms: C_3  and  C_4 
REMARK    3  A    between atoms: C_4  and  C_5 
REMARK    4  A    between atoms: C_5  and  C_6 
REMARK    5  A    between atoms: C_6  and  C_7 
REMARK    6  A    between atoms: C_7  and  C_8 
REMARK    7  A    between atoms: C_8  and  C_9 
REMARK    8  A    between atoms: C_9  and  C_10 
REMARK    9  A    between atoms: C_10  and  C_11 
REMARK   10  A    between atoms: C_11  and  C_12 
REMARK   11  A    between atoms: C_12  and  C_13 
REMARK   12  A    between atoms: C_13  and  C_14 
REMARK   13  A    between atoms: C_14  and  C_15 
REMARK   14  A    between atoms: C_15  and  C_16 
REMARK   15  A    between atoms: C_16  and  O_18 
REMARK   16  A    between atoms: O_18  and  C_19 
REMARK   17  A    between atoms: C_19  and  C_20 
REMARK   18  A    between atoms: C_21  and  C_23 
REMARK   19  A    between atoms: C_24  and  C_25 
REMARK   20  A    between atoms: C_26  and  C_28 
REMARK   21  A    between atoms: C_29  and  C_30 
ROOT
HETATM    1  C   UNL     1     -20.224  -9.055  -0.786  1.00  0.00     0.206 C 
ENDROOT
BRANCH   1   2
HETATM    2  O   UNL     1     -19.993 -10.416  -1.177  1.00  0.00    -0.318 OA
BRANCH   2   3
HETATM    3  C   UNL     1     -20.259 -11.334  -0.205  1.00  0.00     0.259 C 
HETATM    4  O   UNL     1     -19.440 -12.101   0.298  1.00  0.00    -0.265 OA
BRANCH   3   5
HETATM    5  C   UNL     1     -21.715 -11.358   0.148  1.00  0.00     0.111 C 
BRANCH   5   6
HETATM    6  C   UNL     1     -22.506 -12.089  -0.919  1.00  0.00     0.010 C 
BRANCH   6   7
HETATM    7  C   UNL     1     -23.510 -11.167  -1.603  1.00  0.00     0.000 C 
BRANCH   7   8
HETATM    8  C   UNL     1     -22.997 -10.753  -2.976  1.00  0.00     0.000 C 
BRANCH   8   9
HETATM    9  C   UNL     1     -22.251 -11.899  -3.646  1.00  0.00     0.000 C 
BRANCH   9  10
HETATM   10  C   UNL     1     -20.909 -11.421  -4.183  1.00  0.00     0.000 C 
BRANCH  10  11
HETATM   11  C   UNL     1     -21.099 -10.674  -5.494  1.00  0.00     0.000 C 
BRANCH  11  12
HETATM   12  C   UNL     1     -21.536 -11.631  -6.593  1.00  0.00     0.000 C 
BRANCH  12  13
HETATM   13  C   UNL     1     -20.561 -12.794  -6.701  1.00  0.00     0.000 C 
BRANCH  13  14
HETATM   14  C   UNL     1     -19.364 -12.404  -7.554  1.00  0.00     0.000 C 
BRANCH  14  15
HETATM   15  C   UNL     1     -18.095 -12.396  -6.713  1.00  0.00     0.000 C 
BRANCH  15  16
HETATM   16  C   UNL     1     -17.614 -10.969  -6.487  1.00  0.00     0.000 C 
BRANCH  16  17
HETATM   17  C   UNL     1     -16.746 -10.889  -5.237  1.00  0.00    -0.000 C 
BRANCH  17  18
HETATM   18  C   UNL     1     -17.054  -9.628  -4.439  1.00  0.00    -0.005 C 
HETATM   19  C   UNL     1     -17.164  -9.939  -2.955  1.00  0.00     0.005 C 
ENDBRANCH  17  18
ENDBRANCH  16  17
ENDBRANCH  15  16
ENDBRANCH  14  15
ENDBRANCH  13  14
ENDBRANCH  12  13
ENDBRANCH  11  12
ENDBRANCH  10  11
ENDBRANCH   9  10
ENDBRANCH   8   9
ENDBRANCH   7   8
ENDBRANCH   6   7
ENDBRANCH   5   6
ENDBRANCH   3   5
ENDBRANCH   2   3
ENDBRANCH   1   2
BRANCH   1  20
HETATM   20  C   UNL     1     -20.619  -8.187  -1.964  1.00  0.00     0.006 C 
HETATM   21  C   UNL     1     -21.644  -7.304  -1.923  1.00  0.00    -0.064 C 
HETATM   22  C   UNL     1     -22.490  -7.149  -0.675  1.00  0.00     0.048 C 
BRANCH  21  23
HETATM   23  C   UNL     1     -21.966  -6.446  -3.079  1.00  0.00     0.006 C 
HETATM   24  C   UNL     1     -21.806  -6.836  -4.364  1.00  0.00     0.001 C 
BRANCH  24  25
HETATM   25  C   UNL     1     -22.123  -6.079  -5.563  1.00  0.00     0.007 C 
HETATM   26  C   UNL     1     -21.319  -5.143  -6.125  1.00  0.00    -0.062 C 
HETATM   27  C   UNL     1     -19.983  -4.710  -5.560  1.00  0.00     0.048 C 
BRANCH  26  28
HETATM   28  C   UNL     1     -21.766  -4.442  -7.338  1.00  0.00     0.007 C 
HETATM   29  C   UNL     1     -21.914  -5.001  -8.554  1.00  0.00     0.009 C 
BRANCH  29  30
HETATM   30  C   UNL     1     -22.216  -4.281  -9.795  1.00  0.00    -0.048 C 
HETATM   31  C   UNL     1     -21.222  -3.778 -10.572  1.00  0.00    -0.077 C 
HETATM   32  C   UNL     1     -21.491  -3.012 -11.852  1.00  0.00     0.034 C 
HETATM   33  C   UNL     1     -19.738  -3.947 -10.331  1.00  0.00     0.044 C 
HETATM   34  C   UNL     1     -22.943  -2.615 -12.063  1.00  0.00     0.005 C 
HETATM   35  C   UNL     1     -23.851  -3.781 -11.717  1.00  0.00     0.014 C 
HETATM   36  C   UNL     1     -23.708  -4.221 -10.230  1.00  0.00    -0.020 C 
HETATM   37  C   UNL     1     -24.422  -5.595 -10.134  1.00  0.00     0.020 C 
HETATM   38  C   UNL     1     -24.477  -3.221  -9.341  1.00  0.00     0.020 C 
ENDBRANCH  29  30
ENDBRANCH  26  28
ENDBRANCH  24  25
ENDBRANCH  21  23
ENDBRANCH   1  20
TORSDOF 21
BEGIN_RES ARG D 557
REMARK  4 active torsions:
REMARK  status: ('A' for Active; 'I' for Inactive)
REMARK    1  A    between atoms: CA   and  CB  
REMARK    2  A    between atoms: CB   and  CG  
REMARK    3  A    between atoms: CG   and  CD  
REMARK    4  A    between atoms: CD   and  NE  
REMARK       I    between atoms: NE   and  CZ  
REMARK       I    between atoms: CZ   and  NH1 
REMARK       I    between atoms: CZ   and  NH2 
ROOT
ATOM      1  CA  ARG D 557     -26.217   2.705 -17.014  1.00 35.49     0.159 C 
ENDROOT
BRANCH   1   2
ATOM      2  CB  ARG D 557     -26.789   1.319 -17.183  1.00 35.49     0.034 C 
BRANCH   2   3
ATOM      3  CG  ARG D 557     -28.217   1.153 -16.887  1.00 35.49     0.027 C 
BRANCH   3   4
ATOM      4  CD  ARG D 557     -28.590  -0.265 -16.683  1.00 35.49     0.116 C 
BRANCH   4   5
ATOM      5  NE  ARG D 557     -27.582  -0.992 -15.957  1.00 35.49    -0.212 N 
ATOM      6  CZ  ARG D 557     -27.353  -2.283 -16.044  1.00 35.49     0.666 C 
ATOM      7  NH1 ARG D 557     -28.061  -3.078 -16.826  1.00 35.49    -0.235 N 
ATOM      8  NH2 ARG D 557     -26.383  -2.771 -15.327  1.00 35.49    -0.235 N 
ATOM      9  HH  ARG D 557     -28.703  -2.778 -17.308  1.00 35.49     0.174 HD
ATOM     10  HH  ARG D 557     -27.864  -3.911 -16.844  1.00 35.49     0.174 HD
ATOM     11  HH  ARG D 557     -25.938  -2.233 -14.837  1.00 35.49     0.174 HD
ATOM     12  HH  ARG D 557     -26.203  -3.599 -15.359  1.00 35.49     0.174 HD
ATOM     13  HE  ARG D 557     -27.127  -0.570 -15.375  1.00 35.49     0.178 HD
ENDBRANCH   4   5
ENDBRANCH   3   4
ENDBRANCH   2   3
ENDBRANCH   1   2
END_RES ARG D 557
BEGIN_RES GLU D 570
REMARK  3 active torsions:
REMARK  status: ('A' for Active; 'I' for Inactive)
REMARK    5  A    between atoms: CA   and  CB  
REMARK    6  A    between atoms: CB   and  CG  
REMARK    7  A    between atoms: CG   and  CD  
ROOT
ATOM     14  CA  GLU D 570     -18.033  -6.348 -13.375  1.00 32.92     0.160 C 
ENDROOT
BRANCH  14  15
ATOM     15  CB  GLU D 570     -19.500  -6.345 -13.794  1.00 32.92     0.043 C 
BRANCH  15  16
ATOM     16  CG  GLU D 570     -19.804  -6.061 -15.220  1.00 32.92     0.100 C 
BRANCH  16  17
ATOM     17  CD  GLU D 570     -21.153  -5.410 -15.417  1.00 32.92     0.185 C 
ATOM     18  OE1 GLU D 570     -21.841  -5.128 -14.417  1.00 32.92    -0.647 OA
ATOM     19  OE2 GLU D 570     -21.534  -5.195 -16.585  1.00 32.92    -0.647 OA
ENDBRANCH  16  17
ENDBRANCH  15  16
ENDBRANCH  14  15
END_RES GLU D 570
ENDMDL
MODEL 6
REMARK VINA RESULT:      -7.1      1.247      2.166
REMARK  21 active torsions:
REMARK  status: ('A' for Active; 'I' for Inactive)
REMARK    1  A    between atoms: C_2  and  C_3 
REMARK    2  A    between atoms: C_3  and  C_4 
REMARK    3  A    between atoms: C_4  and  C_5 
REMARK    4  A    between atoms: C_5  and  C_6 
REMARK    5  A    between atoms: C_6  and  C_7 
REMARK    6  A    between atoms: C_7  and  C_8 
REMARK    7  A    between atoms: C_8  and  C_9 
REMARK    8  A    between atoms: C_9  and  C_10 
REMARK    9  A    between atoms: C_10  and  C_11 
REMARK   10  A    between atoms: C_11  and  C_12 
REMARK   11  A    between atoms: C_12  and  C_13 
REMARK   12  A    between atoms: C_13  and  C_14 
REMARK   13  A    between atoms: C_14  and  C_15 
REMARK   14  A    between atoms: C_15  and  C_16 
REMARK   15  A    between atoms: C_16  and  O_18 
REMARK   16  A    between atoms: O_18  and  C_19 
REMARK   17  A    between atoms: C_19  and  C_20 
REMARK   18  A    between atoms: C_21  and  C_23 
REMARK   19  A    between atoms: C_24  and  C_25 
REMARK   20  A    between atoms: C_26  and  C_28 
REMARK   21  A    between atoms: C_29  and  C_30 
ROOT
HETATM    1  C   UNL     1     -20.755  -8.441  -0.599  1.00  0.00     0.206 C 
ENDROOT
BRANCH   1   2
HETATM    2  O   UNL     1     -21.469  -9.545  -0.022  1.00  0.00    -0.318 OA
BRANCH   2   3
HETATM    3  C   UNL     1     -22.819  -9.372   0.039  1.00  0.00     0.259 C 
HETATM    4  O   UNL     1     -23.394  -8.389   0.502  1.00  0.00    -0.265 OA
BRANCH   3   5
HETATM    5  C   UNL     1     -23.553 -10.574  -0.471  1.00  0.00     0.111 C 
BRANCH   5   6
HETATM    6  C   UNL     1     -22.576 -11.606  -1.001  1.00  0.00     0.010 C 
BRANCH   6   7
HETATM    7  C   UNL     1     -22.940 -12.049  -2.415  1.00  0.00     0.000 C 
BRANCH   7   8
HETATM    8  C   UNL     1     -22.647 -10.932  -3.409  1.00  0.00     0.000 C 
BRANCH   8   9
HETATM    9  C   UNL     1     -21.929 -11.472  -4.638  1.00  0.00     0.000 C 
BRANCH   9  10
HETATM   10  C   UNL     1     -21.418 -12.884  -4.381  1.00  0.00     0.000 C 
BRANCH  10  11
HETATM   11  C   UNL     1     -20.081 -13.098  -5.074  1.00  0.00     0.000 C 
BRANCH  11  12
HETATM   12  C   UNL     1     -19.015 -13.490  -4.063  1.00  0.00     0.000 C 
BRANCH  12  13
HETATM   13  C   UNL     1     -19.616 -13.582  -2.668  1.00  0.00     0.000 C 
BRANCH  13  14
HETATM   14  C   UNL     1     -18.860 -12.680  -1.705  1.00  0.00     0.000 C 
BRANCH  14  15
HETATM   15  C   UNL     1     -18.950 -11.229  -2.156  1.00  0.00     0.000 C 
BRANCH  15  16
HETATM   16  C   UNL     1     -17.558 -10.626  -2.292  1.00  0.00     0.000 C 
BRANCH  16  17
HETATM   17  C   UNL     1     -17.575  -9.459  -3.272  1.00  0.00    -0.000 C 
BRANCH  17  18
HETATM   18  C   UNL     1     -18.731  -9.591  -4.256  1.00  0.00    -0.005 C 
HETATM   19  C   UNL     1     -18.217  -9.810  -5.670  1.00  0.00     0.005 C 
ENDBRANCH  17  18
ENDBRANCH  16  17
ENDBRANCH  15  16
ENDBRANCH  14  15
ENDBRANCH  13  14
ENDBRANCH  12  13
ENDBRANCH  11  12
ENDBRANCH  10  11
ENDBRANCH   9  10
ENDBRANCH   8   9
ENDBRANCH   7   8
ENDBRANCH   6   7
ENDBRANCH   5   6
ENDBRANCH   3   5
ENDBRANCH   2   3
ENDBRANCH   1   2
BRANCH   1  20
HETATM   20  C   UNL     1     -21.115  -8.233  -2.056  1.00  0.00     0.006 C 
HETATM   21  C   UNL     1     -21.696  -7.104  -2.522  1.00  0.00    -0.064 C 
HETATM   22  C   UNL     1     -22.053  -5.966  -1.585  1.00  0.00     0.048 C 
BRANCH  21  23
HETATM   23  C   UNL     1     -21.989  -6.926  -3.957  1.00  0.00     0.006 C 
HETATM   24  C   UNL     1     -21.513  -5.895  -4.693  1.00  0.00     0.001 C 
BRANCH  24  25
HETATM   25  C   UNL     1     -21.719  -5.653  -6.111  1.00  0.00     0.007 C 
HETATM   26  C   UNL     1     -20.789  -5.138  -6.952  1.00  0.00    -0.062 C 
HETATM   27  C   UNL     1     -19.404  -4.694  -6.533  1.00  0.00     0.048 C 
BRANCH  26  28
HETATM   28  C   UNL     1     -21.131  -4.937  -8.368  1.00  0.00     0.007 C 
HETATM   29  C   UNL     1     -21.901  -3.944  -8.854  1.00  0.00     0.009 C 
BRANCH  29  30
HETATM   30  C   UNL     1     -22.364  -3.821 -10.239  1.00  0.00    -0.048 C 
HETATM   31  C   UNL     1     -21.521  -3.423 -11.227  1.00  0.00    -0.077 C 
HETATM   32  C   UNL     1     -21.963  -3.267 -12.669  1.00  0.00     0.034 C 
HETATM   33  C   UNL     1     -20.043  -3.143 -11.069  1.00  0.00     0.044 C 
HETATM   34  C   UNL     1     -23.467  -3.325 -12.882  1.00  0.00     0.005 C 
HETATM   35  C   UNL     1     -24.060  -4.459 -12.066  1.00  0.00     0.014 C 
HETATM   36  C   UNL     1     -23.822  -4.275 -10.538  1.00  0.00    -0.020 C 
HETATM   37  C   UNL     1     -24.174  -5.642  -9.896  1.00  0.00     0.020 C 
HETATM   38  C   UNL     1     -24.820  -3.225 -10.002  1.00  0.00     0.020 C 
ENDBRANCH  29  30
ENDBRANCH  26  28
ENDBRANCH  24  25
ENDBRANCH  21  23
ENDBRANCH   1  20
TORSDOF 21
BEGIN_RES ARG D 557
REMARK  4 active torsions:
REMARK  status: ('A' for Active; 'I' for Inactive)
REMARK    1  A    between atoms: CA   and  CB  
REMARK    2  A    between atoms: CB   and  CG  
REMARK    3  A    between atoms: CG   and  CD  
REMARK    4  A    between atoms: CD   and  NE  
REMARK       I    between atoms: NE   and  CZ  
REMARK       I    between atoms: CZ   and  NH1 
REMARK       I    between atoms: CZ   and  NH2 
ROOT
ATOM      1  CA  ARG D 557     -26.217   2.705 -17.014  1.00 35.49     0.159 C 
ENDROOT
BRANCH   1   2
ATOM      2  CB  ARG D 557     -26.789   1.319 -17.183  1.00 35.49     0.034 C 
BRANCH   2   3
ATOM      3  CG  ARG D 557     -28.154   1.103 -16.687  1.00 35.49     0.027 C 
BRANCH   3   4
ATOM      4  CD  ARG D 557     -28.785  -0.100 -17.278  1.00 35.49     0.116 C 
BRANCH   4   5
ATOM      5  NE  ARG D 557     -28.160  -1.316 -16.829  1.00 35.49    -0.212 N 
ATOM      6  CZ  ARG D 557     -28.621  -2.532 -17.021  1.00 35.49     0.666 C 
ATOM      7  NH1 ARG D 557     -29.753  -2.769 -17.656  1.00 35.49    -0.235 N 
ATOM      8  NH2 ARG D 557     -27.911  -3.522 -16.562  1.00 35.49    -0.235 N 
ATOM      9  HH  ARG D 557     -30.235  -2.133 -17.968  1.00 35.49     0.174 HD
ATOM     10  HH  ARG D 557     -30.003  -3.583 -17.754  1.00 35.49     0.174 HD
ATOM     11  HH  ARG D 557     -27.180  -3.339 -16.162  1.00 35.49     0.174 HD
ATOM     12  HH  ARG D 557     -28.174  -4.321 -16.670  1.00 35.49     0.174 HD
ATOM     13  HE  ARG D 557     -27.462  -1.253 -16.348  1.00 35.49     0.178 HD
ENDBRANCH   4   5
ENDBRANCH   3   4
ENDBRANCH   2   3
ENDBRANCH   1   2
END_RES ARG D 557
BEGIN_RES GLU D 570
REMARK  3 active torsions:
REMARK  status: ('A' for Active; 'I' for Inactive)
REMARK    5  A    between atoms: CA   and  CB  
REMARK    6  A    between atoms: CB   and  CG  
REMARK    7  A    between atoms: CG   and  CD  
ROOT
ATOM     14  CA  GLU D 570     -18.033  -6.348 -13.375  1.00 32.92     0.160 C 
ENDROOT
BRANCH  14  15
ATOM     15  CB  GLU D 570     -19.500  -6.345 -13.794  1.00 32.92     0.043 C 
BRANCH  15  16
ATOM     16  CG  GLU D 570     -19.815  -5.912 -15.180  1.00 32.92     0.100 C 
BRANCH  16  17
ATOM     17  CD  GLU D 570     -21.299  -5.793 -15.437  1.00 32.92     0.185 C 
ATOM     18  OE1 GLU D 570     -21.690  -5.272 -16.500  1.00 32.92    -0.647 OA
ATOM     19  OE2 GLU D 570     -22.080  -6.209 -14.559  1.00 32.92    -0.647 OA
ENDBRANCH  16  17
ENDBRANCH  15  16
ENDBRANCH  14  15
END_RES GLU D 570
ENDMDL
MODEL 7
REMARK VINA RESULT:      -7.1      1.036      2.127
REMARK  21 active torsions:
REMARK  status: ('A' for Active; 'I' for Inactive)
REMARK    1  A    between atoms: C_2  and  C_3 
REMARK    2  A    between atoms: C_3  and  C_4 
REMARK    3  A    between atoms: C_4  and  C_5 
REMARK    4  A    between atoms: C_5  and  C_6 
REMARK    5  A    between atoms: C_6  and  C_7 
REMARK    6  A    between atoms: C_7  and  C_8 
REMARK    7  A    between atoms: C_8  and  C_9 
REMARK    8  A    between atoms: C_9  and  C_10 
REMARK    9  A    between atoms: C_10  and  C_11 
REMARK   10  A    between atoms: C_11  and  C_12 
REMARK   11  A    between atoms: C_12  and  C_13 
REMARK   12  A    between atoms: C_13  and  C_14 
REMARK   13  A    between atoms: C_14  and  C_15 
REMARK   14  A    between atoms: C_15  and  C_16 
REMARK   15  A    between atoms: C_16  and  O_18 
REMARK   16  A    between atoms: O_18  and  C_19 
REMARK   17  A    between atoms: C_19  and  C_20 
REMARK   18  A    between atoms: C_21  and  C_23 
REMARK   19  A    between atoms: C_24  and  C_25 
REMARK   20  A    between atoms: C_26  and  C_28 
REMARK   21  A    between atoms: C_29  and  C_30 
ROOT
HETATM    1  C   UNL     1     -20.240  -8.696  -1.088  1.00  0.00     0.206 C 
ENDROOT
BRANCH   1   2
HETATM    2  O   UNL     1     -21.325  -9.224  -0.311  1.00  0.00    -0.318 OA
BRANCH   2   3
HETATM    3  C   UNL     1     -21.045 -10.397   0.324  1.00  0.00     0.259 C 
HETATM    4  O   UNL     1     -19.965 -10.697   0.829  1.00  0.00    -0.265 OA
BRANCH   3   5
HETATM    5  C   UNL     1     -22.208 -11.340   0.280  1.00  0.00     0.111 C 
BRANCH   5   6
HETATM    6  C   UNL     1     -23.456 -10.619  -0.190  1.00  0.00     0.010 C 
BRANCH   6   7
HETATM    7  C   UNL     1     -24.085 -11.315  -1.393  1.00  0.00     0.000 C 
BRANCH   7   8
HETATM    8  C   UNL     1     -23.015 -12.028  -2.210  1.00  0.00     0.000 C 
BRANCH   8   9
HETATM    9  C   UNL     1     -22.681 -11.245  -3.472  1.00  0.00     0.000 C 
BRANCH   9  10
HETATM   10  C   UNL     1     -21.262 -11.550  -3.930  1.00  0.00     0.000 C 
BRANCH  10  11
HETATM   11  C   UNL     1     -20.857 -10.614  -5.059  1.00  0.00     0.000 C 
BRANCH  11  12
HETATM   12  C   UNL     1     -19.929 -11.324  -6.032  1.00  0.00     0.000 C 
BRANCH  12  13
HETATM   13  C   UNL     1     -18.479 -11.157  -5.599  1.00  0.00     0.000 C 
BRANCH  13  14
HETATM   14  C   UNL     1     -18.249  -9.758  -5.049  1.00  0.00     0.000 C 
BRANCH  14  15
HETATM   15  C   UNL     1     -16.828  -9.623  -4.521  1.00  0.00     0.000 C 
BRANCH  15  16
HETATM   16  C   UNL     1     -16.827  -9.569  -2.998  1.00  0.00     0.000 C 
BRANCH  16  17
HETATM   17  C   UNL     1     -16.022 -10.727  -2.422  1.00  0.00    -0.000 C 
BRANCH  17  18
HETATM   18  C   UNL     1     -16.828 -11.483  -1.374  1.00  0.00    -0.005 C 
HETATM   19  C   UNL     1     -18.180 -11.902  -1.928  1.00  0.00     0.005 C 
ENDBRANCH  17  18
ENDBRANCH  16  17
ENDBRANCH  15  16
ENDBRANCH  14  15
ENDBRANCH  13  14
ENDBRANCH  12  13
ENDBRANCH  11  12
ENDBRANCH  10  11
ENDBRANCH   9  10
ENDBRANCH   8   9
ENDBRANCH   7   8
ENDBRANCH   6   7
ENDBRANCH   5   6
ENDBRANCH   3   5
ENDBRANCH   2   3
ENDBRANCH   1   2
BRANCH   1  20
HETATM   20  C   UNL     1     -20.705  -8.188  -2.438  1.00  0.00     0.006 C 
HETATM   21  C   UNL     1     -21.584  -7.170  -2.584  1.00  0.00    -0.064 C 
HETATM   22  C   UNL     1     -22.188  -6.482  -1.376  1.00  0.00     0.048 C 
BRANCH  21  23
HETATM   23  C   UNL     1     -21.975  -6.678  -3.919  1.00  0.00     0.006 C 
HETATM   24  C   UNL     1     -21.244  -6.893  -5.036  1.00  0.00     0.001 C 
BRANCH  24  25
HETATM   25  C   UNL     1     -21.560  -6.478  -6.392  1.00  0.00     0.007 C 
HETATM   26  C   UNL     1     -21.028  -5.400  -7.018  1.00  0.00    -0.062 C 
HETATM   27  C   UNL     1     -20.052  -4.434  -6.380  1.00  0.00     0.048 C 
BRANCH  26  28
HETATM   28  C   UNL     1     -21.441  -5.087  -8.393  1.00  0.00     0.007 C 
HETATM   29  C   UNL     1     -21.976  -3.921  -8.804  1.00  0.00     0.009 C 
BRANCH  29  30
HETATM   30  C   UNL     1     -22.524  -3.655 -10.138  1.00  0.00    -0.048 C 
HETATM   31  C   UNL     1     -23.860  -3.500 -10.327  1.00  0.00    -0.077 C 
HETATM   32  C   UNL     1     -24.470  -3.241 -11.691  1.00  0.00     0.034 C 
HETATM   33  C   UNL     1     -24.914  -3.496  -9.242  1.00  0.00     0.044 C 
HETATM   34  C   UNL     1     -23.518  -3.434 -12.860  1.00  0.00     0.005 C 
HETATM   35  C   UNL     1     -22.174  -2.804 -12.540  1.00  0.00     0.014 C 
HETATM   36  C   UNL     1     -21.502  -3.447 -11.291  1.00  0.00    -0.020 C 
HETATM   37  C   UNL     1     -20.341  -2.493 -10.908  1.00  0.00     0.020 C 
HETATM   38  C   UNL     1     -20.888  -4.804 -11.702  1.00  0.00     0.020 C 
ENDBRANCH  29  30
ENDBRANCH  26  28
ENDBRANCH  24  25
ENDBRANCH  21  23
ENDBRANCH   1  20
TORSDOF 21
BEGIN_RES ARG D 557
REMARK  4 active torsions:
REMARK  status: ('A' for Active; 'I' for Inactive)
REMARK    1  A    between atoms: CA   and  CB  
REMARK    2  A    between atoms: CB   and  CG  
REMARK    3  A    between atoms: CG   and  CD  
REMARK    4  A    between atoms: CD   and  NE  
REMARK       I    between atoms: NE   and  CZ  
REMARK       I    between atoms: CZ   and  NH1 
REMARK       I    between atoms: CZ   and  NH2 
ROOT
ATOM      1  CA  ARG D 557     -26.217   2.705 -17.014  1.00 35.49     0.159 C 
ENDROOT
BRANCH   1   2
ATOM      2  CB  ARG D 557     -26.789   1.319 -17.183  1.00 35.49     0.034 C 
BRANCH   2   3
ATOM      3  CG  ARG D 557     -28.224   1.160 -16.919  1.00 35.49     0.027 C 
BRANCH   3   4
ATOM      4  CD  ARG D 557     -28.621  -0.262 -16.797  1.00 35.49     0.116 C 
BRANCH   4   5
ATOM      5  NE  ARG D 557     -27.635  -1.042 -16.097  1.00 35.49    -0.212 N 
ATOM      6  CZ  ARG D 557     -27.500  -2.348 -16.164  1.00 35.49     0.666 C 
ATOM      7  NH1 ARG D 557     -28.294  -3.106 -16.897  1.00 35.49    -0.235 N 
ATOM      8  NH2 ARG D 557     -26.535  -2.887 -15.477  1.00 35.49    -0.235 N 
ATOM      9  HH  ARG D 557     -28.934  -2.772 -17.359  1.00 35.49     0.174 HD
ATOM     10  HH  ARG D 557     -28.156  -3.952 -16.904  1.00 35.49     0.174 HD
ATOM     11  HH  ARG D 557     -26.033  -2.372 -15.019  1.00 35.49     0.174 HD
ATOM     12  HH  ARG D 557     -26.414  -3.726 -15.499  1.00 35.49     0.174 HD
ATOM     13  HE  ARG D 557     -27.127  -0.642 -15.545  1.00 35.49     0.178 HD
ENDBRANCH   4   5
ENDBRANCH   3   4
ENDBRANCH   2   3
ENDBRANCH   1   2
END_RES ARG D 557
BEGIN_RES GLU D 570
REMARK  3 active torsions:
REMARK  status: ('A' for Active; 'I' for Inactive)
REMARK    5  A    between atoms: CA   and  CB  
REMARK    6  A    between atoms: CB   and  CG  
REMARK    7  A    between atoms: CG   and  CD  
ROOT
ATOM     14  CA  GLU D 570     -18.033  -6.348 -13.375  1.00 32.92     0.160 C 
ENDROOT
BRANCH  14  15
ATOM     15  CB  GLU D 570     -19.500  -6.345 -13.794  1.00 32.92     0.043 C 
BRANCH  15  16
ATOM     16  CG  GLU D 570     -20.048  -7.597 -14.378  1.00 32.92     0.100 C 
BRANCH  16  17
ATOM     17  CD  GLU D 570     -21.214  -7.353 -15.307  1.00 32.92     0.185 C 
ATOM     18  OE1 GLU D 570     -22.141  -6.609 -14.932  1.00 32.92    -0.647 OA
ATOM     19  OE2 GLU D 570     -21.209  -7.925 -16.414  1.00 32.92    -0.647 OA
ENDBRANCH  16  17
ENDBRANCH  15  16
ENDBRANCH  14  15
END_RES GLU D 570
ENDMDL
MODEL 8
REMARK VINA RESULT:      -7.1      1.896      4.456
REMARK  21 active torsions:
REMARK  status: ('A' for Active; 'I' for Inactive)
REMARK    1  A    between atoms: C_2  and  C_3 
REMARK    2  A    between atoms: C_3  and  C_4 
REMARK    3  A    between atoms: C_4  and  C_5 
REMARK    4  A    between atoms: C_5  and  C_6 
REMARK    5  A    between atoms: C_6  and  C_7 
REMARK    6  A    between atoms: C_7  and  C_8 
REMARK    7  A    between atoms: C_8  and  C_9 
REMARK    8  A    between atoms: C_9  and  C_10 
REMARK    9  A    between atoms: C_10  and  C_11 
REMARK   10  A    between atoms: C_11  and  C_12 
REMARK   11  A    between atoms: C_12  and  C_13 
REMARK   12  A    between atoms: C_13  and  C_14 
REMARK   13  A    between atoms: C_14  and  C_15 
REMARK   14  A    between atoms: C_15  and  C_16 
REMARK   15  A    between atoms: C_16  and  O_18 
REMARK   16  A    between atoms: O_18  and  C_19 
REMARK   17  A    between atoms: C_19  and  C_20 
REMARK   18  A    between atoms: C_21  and  C_23 
REMARK   19  A    between atoms: C_24  and  C_25 
REMARK   20  A    between atoms: C_26  and  C_28 
REMARK   21  A    between atoms: C_29  and  C_30 
ROOT
HETATM    1  C   UNL     1     -18.255 -10.047  -2.108  1.00  0.00     0.206 C 
ENDROOT
BRANCH   1   2
HETATM    2  O   UNL     1     -17.508 -11.230  -2.432  1.00  0.00    -0.318 OA
BRANCH   2   3
HETATM    3  C   UNL     1     -18.008 -12.377  -1.891  1.00  0.00     0.259 C 
HETATM    4  O   UNL     1     -17.642 -13.517  -2.169  1.00  0.00    -0.265 OA
BRANCH   3   5
HETATM    5  C   UNL     1     -19.134 -12.096  -0.944  1.00  0.00     0.111 C 
BRANCH   5   6
HETATM    6  C   UNL     1     -20.024 -13.315  -0.803  1.00  0.00     0.010 C 
BRANCH   6   7
HETATM    7  C   UNL     1     -19.833 -13.995   0.549  1.00  0.00     0.000 C 
BRANCH   7   8
HETATM    8  C   UNL     1     -20.523 -15.353   0.559  1.00  0.00     0.000 C 
BRANCH   8   9
HETATM    9  C   UNL     1     -21.997 -15.212   0.915  1.00  0.00     0.000 C 
BRANCH   9  10
HETATM   10  C   UNL     1     -22.209 -14.035   1.857  1.00  0.00     0.000 C 
BRANCH  10  11
HETATM   11  C   UNL     1     -23.296 -13.116   1.320  1.00  0.00     0.000 C 
BRANCH  11  12
HETATM   12  C   UNL     1     -23.719 -13.551  -0.076  1.00  0.00     0.000 C 
BRANCH  12  13
HETATM   13  C   UNL     1     -23.552 -12.403  -1.061  1.00  0.00     0.000 C 
BRANCH  13  14
HETATM   14  C   UNL     1     -23.966 -11.088  -0.418  1.00  0.00     0.000 C 
BRANCH  14  15
HETATM   15  C   UNL     1     -22.943 -10.004  -0.721  1.00  0.00     0.000 C 
BRANCH  15  16
HETATM   16  C   UNL     1     -23.082  -8.848   0.261  1.00  0.00     0.000 C 
BRANCH  16  17
HETATM   17  C   UNL     1     -21.794  -8.036   0.317  1.00  0.00    -0.000 C 
BRANCH  17  18
HETATM   18  C   UNL     1     -21.342  -7.634  -1.081  1.00  0.00    -0.005 C 
HETATM   19  C   UNL     1     -22.221  -6.525  -1.637  1.00  0.00     0.005 C 
ENDBRANCH  17  18
ENDBRANCH  16  17
ENDBRANCH  15  16
ENDBRANCH  14  15
ENDBRANCH  13  14
ENDBRANCH  12  13
ENDBRANCH  11  12
ENDBRANCH  10  11
ENDBRANCH   9  10
ENDBRANCH   8   9
ENDBRANCH   7   8
ENDBRANCH   6   7
ENDBRANCH   5   6
ENDBRANCH   3   5
ENDBRANCH   2   3
ENDBRANCH   1   2
BRANCH   1  20
HETATM   20  C   UNL     1     -18.611  -9.247  -3.345  1.00  0.00     0.006 C 
HETATM   21  C   UNL     1     -19.790  -9.375  -3.997  1.00  0.00    -0.064 C 
HETATM   22  C   UNL     1     -20.835 -10.369  -3.530  1.00  0.00     0.048 C 
BRANCH  21  23
HETATM   23  C   UNL     1     -20.113  -8.543  -5.171  1.00  0.00     0.006 C 
HETATM   24  C   UNL     1     -21.053  -7.570  -5.160  1.00  0.00     0.001 C 
BRANCH  24  25
HETATM   25  C   UNL     1     -21.418  -6.681  -6.250  1.00  0.00     0.007 C 
HETATM   26  C   UNL     1     -20.967  -5.412  -6.401  1.00  0.00    -0.062 C 
HETATM   27  C   UNL     1     -20.045  -4.708  -5.428  1.00  0.00     0.048 C 
BRANCH  26  28
HETATM   28  C   UNL     1     -21.423  -4.616  -7.550  1.00  0.00     0.007 C 
HETATM   29  C   UNL     1     -21.927  -5.113  -8.696  1.00  0.00     0.009 C 
BRANCH  29  30
HETATM   30  C   UNL     1     -22.245  -4.336  -9.897  1.00  0.00    -0.048 C 
HETATM   31  C   UNL     1     -21.271  -3.954 -10.763  1.00  0.00    -0.077 C 
HETATM   32  C   UNL     1     -21.554  -3.135 -12.007  1.00  0.00     0.034 C 
HETATM   33  C   UNL     1     -19.807  -4.323 -10.666  1.00  0.00     0.044 C 
HETATM   34  C   UNL     1     -22.953  -2.547 -12.075  1.00  0.00     0.005 C 
HETATM   35  C   UNL     1     -23.972  -3.588 -11.651  1.00  0.00     0.014 C 
HETATM   36  C   UNL     1     -23.750  -4.071 -10.187  1.00  0.00    -0.020 C 
HETATM   37  C   UNL     1     -24.630  -5.339 -10.031  1.00  0.00     0.020 C 
HETATM   38  C   UNL     1     -24.292  -2.994  -9.222  1.00  0.00     0.020 C 
ENDBRANCH  29  30
ENDBRANCH  26  28
ENDBRANCH  24  25
ENDBRANCH  21  23
ENDBRANCH   1  20
TORSDOF 21
BEGIN_RES ARG D 557
REMARK  4 active torsions:
REMARK  status: ('A' for Active; 'I' for Inactive)
REMARK    1  A    between atoms: CA   and  CB  
REMARK    2  A    between atoms: CB   and  CG  
REMARK    3  A    between atoms: CG   and  CD  
REMARK    4  A    between atoms: CD   and  NE  
REMARK       I    between atoms: NE   and  CZ  
REMARK       I    between atoms: CZ   and  NH1 
REMARK       I    between atoms: CZ   and  NH2 
ROOT
ATOM      1  CA  ARG D 557     -26.217   2.705 -17.014  1.00 35.49     0.159 C 
ENDROOT
BRANCH   1   2
ATOM      2  CB  ARG D 557     -26.789   1.319 -17.183  1.00 35.49     0.034 C 
BRANCH   2   3
ATOM      3  CG  ARG D 557     -28.227   1.162 -16.932  1.00 35.49     0.027 C 
BRANCH   3   4
ATOM      4  CD  ARG D 557     -28.622  -0.257 -16.781  1.00 35.49     0.116 C 
BRANCH   4   5
ATOM      5  NE  ARG D 557     -27.626  -1.026 -16.083  1.00 35.49    -0.212 N 
ATOM      6  CZ  ARG D 557     -27.485  -2.331 -16.139  1.00 35.49     0.666 C 
ATOM      7  NH1 ARG D 557     -28.283  -3.100 -16.857  1.00 35.49    -0.235 N 
ATOM      8  NH2 ARG D 557     -26.511  -2.860 -15.457  1.00 35.49    -0.235 N 
ATOM      9  HH  ARG D 557     -28.929  -2.774 -17.316  1.00 35.49     0.174 HD
ATOM     10  HH  ARG D 557     -28.141  -3.946 -16.858  1.00 35.49     0.174 HD
ATOM     11  HH  ARG D 557     -26.008  -2.338 -15.008  1.00 35.49     0.174 HD
ATOM     12  HH  ARG D 557     -26.387  -3.699 -15.471  1.00 35.49     0.174 HD
ATOM     13  HE  ARG D 557     -27.115  -0.618 -15.540  1.00 35.49     0.178 HD
ENDBRANCH   4   5
ENDBRANCH   3   4
ENDBRANCH   2   3
ENDBRANCH   1   2
END_RES ARG D 557
BEGIN_RES GLU D 570
REMARK  3 active torsions:
REMARK  status: ('A' for Active; 'I' for Inactive)
REMARK    5  A    between atoms: CA   and  CB  
REMARK    6  A    between atoms: CB   and  CG  
REMARK    7  A    between atoms: CG   and  CD  
ROOT
ATOM     14  CA  GLU D 570     -18.033  -6.348 -13.375  1.00 32.92     0.160 C 
ENDROOT
BRANCH  14  15
ATOM     15  CB  GLU D 570     -19.500  -6.345 -13.794  1.00 32.92     0.043 C 
BRANCH  15  16
ATOM     16  CG  GLU D 570     -19.800  -6.143 -15.235  1.00 32.92     0.100 C 
BRANCH  16  17
ATOM     17  CD  GLU D 570     -21.263  -5.877 -15.501  1.00 32.92     0.185 C 
ATOM     18  OE1 GLU D 570     -22.120  -6.558 -14.905  1.00 32.92    -0.647 OA
ATOM     19  OE2 GLU D 570     -21.556  -4.990 -16.327  1.00 32.92    -0.647 OA
ENDBRANCH  16  17
ENDBRANCH  15  16
ENDBRANCH  14  15
END_RES GLU D 570
ENDMDL
MODEL 9
REMARK VINA RESULT:      -7.0      1.071      2.467
REMARK  21 active torsions:
REMARK  status: ('A' for Active; 'I' for Inactive)
REMARK    1  A    between atoms: C_2  and  C_3 
REMARK    2  A    between atoms: C_3  and  C_4 
REMARK    3  A    between atoms: C_4  and  C_5 
REMARK    4  A    between atoms: C_5  and  C_6 
REMARK    5  A    between atoms: C_6  and  C_7 
REMARK    6  A    between atoms: C_7  and  C_8 
REMARK    7  A    between atoms: C_8  and  C_9 
REMARK    8  A    between atoms: C_9  and  C_10 
REMARK    9  A    between atoms: C_10  and  C_11 
REMARK   10  A    between atoms: C_11  and  C_12 
REMARK   11  A    between atoms: C_12  and  C_13 
REMARK   12  A    between atoms: C_13  and  C_14 
REMARK   13  A    between atoms: C_14  and  C_15 
REMARK   14  A    between atoms: C_15  and  C_16 
REMARK   15  A    between atoms: C_16  and  O_18 
REMARK   16  A    between atoms: O_18  and  C_19 
REMARK   17  A    between atoms: C_19  and  C_20 
REMARK   18  A    between atoms: C_21  and  C_23 
REMARK   19  A    between atoms: C_24  and  C_25 
REMARK   20  A    between atoms: C_26  and  C_28 
REMARK   21  A    between atoms: C_29  and  C_30 
ROOT
HETATM    1  C   UNL     1     -21.990  -7.356  -0.292  1.00  0.00     0.206 C 
ENDROOT
BRANCH   1   2
HETATM    2  O   UNL     1     -23.019  -8.197   0.249  1.00  0.00    -0.318 OA
BRANCH   2   3
HETATM    3  C   UNL     1     -22.694  -9.519   0.307  1.00  0.00     0.259 C 
HETATM    4  O   UNL     1     -21.591  -9.972   0.608  1.00  0.00    -0.265 OA
BRANCH   3   5
HETATM    5  C   UNL     1     -23.838 -10.388  -0.117  1.00  0.00     0.111 C 
BRANCH   5   6
HETATM    6  C   UNL     1     -23.350 -11.503  -1.021  1.00  0.00     0.010 C 
BRANCH   6   7
HETATM    7  C   UNL     1     -22.936 -10.973  -2.391  1.00  0.00     0.000 C 
BRANCH   7   8
HETATM    8  C   UNL     1     -22.206 -12.055  -3.177  1.00  0.00     0.000 C 
BRANCH   8   9
HETATM    9  C   UNL     1     -20.916 -11.515  -3.778  1.00  0.00     0.000 C 
BRANCH   9  10
HETATM   10  C   UNL     1     -19.707 -12.147  -3.103  1.00  0.00     0.000 C 
BRANCH  10  11
HETATM   11  C   UNL     1     -19.681 -11.795  -1.623  1.00  0.00     0.000 C 
BRANCH  11  12
HETATM   12  C   UNL     1     -18.687 -12.677  -0.884  1.00  0.00     0.000 C 
BRANCH  12  13
HETATM   13  C   UNL     1     -17.351 -12.695  -1.613  1.00  0.00     0.000 C 
BRANCH  13  14
HETATM   14  C   UNL     1     -16.444 -11.596  -1.084  1.00  0.00     0.000 C 
BRANCH  14  15
HETATM   15  C   UNL     1     -15.674 -10.949  -2.226  1.00  0.00     0.000 C 
BRANCH  15  16
HETATM   16  C   UNL     1     -16.463  -9.784  -2.809  1.00  0.00     0.000 C 
BRANCH  16  17
HETATM   17  C   UNL     1     -16.210  -9.662  -4.307  1.00  0.00    -0.000 C 
BRANCH  17  18
HETATM   18  C   UNL     1     -17.314 -10.346  -5.104  1.00  0.00    -0.005 C 
HETATM   19  C   UNL     1     -18.442  -9.375  -5.409  1.00  0.00     0.005 C 
ENDBRANCH  17  18
ENDBRANCH  16  17
ENDBRANCH  15  16
ENDBRANCH  14  15
ENDBRANCH  13  14
ENDBRANCH  12  13
ENDBRANCH  11  12
ENDBRANCH  10  11
ENDBRANCH   9  10
ENDBRANCH   8   9
ENDBRANCH   7   8
ENDBRANCH   6   7
ENDBRANCH   5   6
ENDBRANCH   3   5
ENDBRANCH   2   3
ENDBRANCH   1   2
BRANCH   1  20
HETATM   20  C   UNL     1     -22.163  -7.136  -1.781  1.00  0.00     0.006 C 
HETATM   21  C   UNL     1     -21.282  -7.588  -2.704  1.00  0.00    -0.064 C 
HETATM   22  C   UNL     1     -20.030  -8.335  -2.288  1.00  0.00     0.048 C 
BRANCH  21  23
HETATM   23  C   UNL     1     -21.513  -7.391  -4.148  1.00  0.00     0.006 C 
HETATM   24  C   UNL     1     -21.881  -6.208  -4.689  1.00  0.00     0.001 C 
BRANCH  24  25
HETATM   25  C   UNL     1     -22.100  -5.909  -6.095  1.00  0.00     0.007 C 
HETATM   26  C   UNL     1     -21.267  -5.174  -6.870  1.00  0.00    -0.062 C 
HETATM   27  C   UNL     1     -19.998  -4.511  -6.378  1.00  0.00     0.048 C 
BRANCH  26  28
HETATM   28  C   UNL     1     -21.613  -4.940  -8.280  1.00  0.00     0.007 C 
HETATM   29  C   UNL     1     -22.079  -3.784  -8.791  1.00  0.00     0.009 C 
BRANCH  29  30
HETATM   30  C   UNL     1     -22.562  -3.588 -10.161  1.00  0.00    -0.048 C 
HETATM   31  C   UNL     1     -23.888  -3.453 -10.422  1.00  0.00    -0.077 C 
HETATM   32  C   UNL     1     -24.431  -3.267 -11.826  1.00  0.00     0.034 C 
HETATM   33  C   UNL     1     -24.993  -3.404  -9.391  1.00  0.00     0.044 C 
HETATM   34  C   UNL     1     -23.422  -3.509 -12.936  1.00  0.00     0.005 C 
HETATM   35  C   UNL     1     -22.100  -2.854 -12.583  1.00  0.00     0.014 C 
HETATM   36  C   UNL     1     -21.486  -3.430 -11.272  1.00  0.00    -0.020 C 
HETATM   37  C   UNL     1     -20.350  -2.449 -10.881  1.00  0.00     0.020 C 
HETATM   38  C   UNL     1     -20.845  -4.800 -11.584  1.00  0.00     0.020 C 
ENDBRANCH  29  30
ENDBRANCH  26  28
ENDBRANCH  24  25
ENDBRANCH  21  23
ENDBRANCH   1  20
TORSDOF 21
BEGIN_RES ARG D 557
REMARK  4 active torsions:
REMARK  status: ('A' for Active; 'I' for Inactive)
REMARK    1  A    between atoms: CA   and  CB  
REMARK    2  A    between atoms: CB   and  CG  
REMARK    3  A    between atoms: CG   and  CD  
REMARK    4  A    between atoms: CD   and  NE  
REMARK       I    between atoms: NE   and  CZ  
REMARK       I    between atoms: CZ   and  NH1 
REMARK       I    between atoms: CZ   and  NH2 
ROOT
ATOM      1  CA  ARG D 557     -26.217   2.705 -17.014  1.00 35.49     0.159 C 
ENDROOT
BRANCH   1   2
ATOM      2  CB  ARG D 557     -26.789   1.319 -17.183  1.00 35.49     0.034 C 
BRANCH   2   3
ATOM      3  CG  ARG D 557     -26.188   0.253 -16.373  1.00 35.49     0.027 C 
BRANCH   3   4
ATOM      4  CD  ARG D 557     -27.114  -0.882 -16.156  1.00 35.49     0.116 C 
BRANCH   4   5
ATOM      5  NE  ARG D 557     -26.458  -2.010 -15.549  1.00 35.49    -0.212 N 
ATOM      6  CZ  ARG D 557     -26.807  -3.269 -15.689  1.00 35.49     0.666 C 
ATOM      7  NH1 ARG D 557     -27.844  -3.640 -16.417  1.00 35.49    -0.235 N 
ATOM      8  NH2 ARG D 557     -26.084  -4.164 -15.081  1.00 35.49    -0.235 N 
ATOM      9  HH  ARG D 557     -28.333  -3.068 -16.827  1.00 35.49     0.174 HD
ATOM     10  HH  ARG D 557     -28.023  -4.476 -16.474  1.00 35.49     0.174 HD
ATOM     11  HH  ARG D 557     -25.416  -3.895 -14.624  1.00 35.49     0.174 HD
ATOM     12  HH  ARG D 557     -26.276  -4.987 -15.151  1.00 35.49     0.174 HD
ATOM     13  HE  ARG D 557     -25.823  -1.857 -15.004  1.00 35.49     0.178 HD
ENDBRANCH   4   5
ENDBRANCH   3   4
ENDBRANCH   2   3
ENDBRANCH   1   2
END_RES ARG D 557
BEGIN_RES GLU D 570
REMARK  3 active torsions:
REMARK  status: ('A' for Active; 'I' for Inactive)
REMARK    5  A    between atoms: CA   and  CB  
REMARK    6  A    between atoms: CB   and  CG  
REMARK    7  A    between atoms: CG   and  CD  
ROOT
ATOM     14  CA  GLU D 570     -18.033  -6.348 -13.375  1.00 32.92     0.160 C 
ENDROOT
BRANCH  14  15
ATOM     15  CB  GLU D 570     -19.500  -6.345 -13.794  1.00 32.92     0.043 C 
BRANCH  15  16
ATOM     16  CG  GLU D 570     -19.808  -5.998 -15.205  1.00 32.92     0.100 C 
BRANCH  16  17
ATOM     17  CD  GLU D 570     -20.689  -7.020 -15.885  1.00 32.92     0.185 C 
ATOM     18  OE1 GLU D 570     -21.329  -6.687 -16.901  1.00 32.92    -0.647 OA
ATOM     19  OE2 GLU D 570     -20.754  -8.160 -15.386  1.00 32.92    -0.647 OA
ENDBRANCH  16  17
ENDBRANCH  15  16
ENDBRANCH  14  15
END_RES GLU D 570
ENDMDL
